MODEL 1
REMARK minimizedAffinity -7.34825945
REMARK CNNscore 0.546520293
REMARK CNNaffinity 6.84622574
REMARK  6 active torsions:
REMARK  status: ('A' for Active; 'I' for Inactive)
REMARK    1  A    between atoms: C2_2  and  C3_3 
REMARK    2  A    between atoms: C2_2  and  C27_30 
REMARK    3  A    between atoms: C3_3  and  C4_4 
REMARK    4  A    between atoms: C4_4  and  C5_5 
REMARK    5  A    between atoms: C5_5  and  C7_7 
REMARK    6  A    between atoms: C26_28  and  O3_29 
ROOT
HETATM    1  C7  UNL     1       3.477  56.162  -9.384  1.00  0.00    -0.002 C 
HETATM    2  C8  UNL     1       4.328  55.314 -10.365  1.00  0.00     0.006 C 
HETATM    3  C9  UNL     1       3.399  54.262 -10.981  1.00  0.00     0.010 C 
HETATM    4  C10 UNL     1       2.005  54.671 -10.514  1.00  0.00     0.027 C 
HETATM    5  C11 UNL     1       0.850  53.700 -10.584  1.00  0.00    -0.036 C 
HETATM    6  C12 UNL     1      -0.243  53.861  -9.797  1.00  0.00     0.002 C 
HETATM    7  C13 UNL     1      -0.233  54.981  -8.772  1.00  0.00     0.157 C 
HETATM    8  O1  UNL     1      -1.194  55.156  -8.022  1.00  0.00    -0.293 OA
HETATM    9  C14 UNL     1       0.963  55.916  -8.676  1.00  0.00     0.093 C 
HETATM   10  C15 UNL     1       2.263  55.225  -9.091  1.00  0.00    -0.026 C 
HETATM   11  C16 UNL     1       2.637  54.130  -8.058  1.00  0.00     0.016 C 
HETATM   12  C17 UNL     1      -1.493  52.961  -9.889  1.00  0.00    -0.008 C 
HETATM   13  C18 UNL     1      -1.443  52.014  -8.661  1.00  0.00     0.021 C 
HETATM   14  C19 UNL     1      -2.824  53.782  -9.850  1.00  0.00     0.022 C 
HETATM   15  C20 UNL     1      -3.993  53.200 -10.645  1.00  0.00     0.080 C 
HETATM   16  C21 UNL     1      -3.920  51.699 -10.746  1.00  0.00     0.131 C 
HETATM   17  O2  UNL     1      -4.880  50.986 -10.457  1.00  0.00    -0.298 OA
HETATM   18  C22 UNL     1      -2.632  51.111 -11.301  1.00  0.00     0.056 C 
HETATM   19  C23 UNL     1      -2.904  50.613 -12.721  1.00  0.00     0.018 C 
HETATM   20  C24 UNL     1      -1.495  52.158 -11.240  1.00  0.00     0.012 C 
HETATM   21  C25 UNL     1      -0.122  51.530 -11.513  1.00  0.00     0.042 C 
HETATM   22  C26 UNL     1       0.953  52.611 -11.619  1.00  0.00     0.148 C 
ENDROOT
BRANCH   1  23
HETATM   23  C5  UNL     1       4.312  56.740  -8.200  1.00  0.00    -0.014 C 
HETATM   24  C6  UNL     1       5.605  55.941  -7.985  1.00  0.00     0.010 C 
BRANCH  23  25
HETATM   25  C4  UNL     1       3.516  56.727  -6.862  1.00  0.00     0.009 C 
BRANCH  25  26
HETATM   26  C3  UNL     1       2.841  58.042  -6.443  1.00  0.00     0.034 C 
BRANCH  26  27
HETATM   27  C2  UNL     1       2.660  58.269  -4.952  1.00  0.00    -0.086 C 
HETATM   28  C1  UNL     1       3.520  59.062  -4.284  1.00  0.00     0.014 C 
BRANCH  27  29
HETATM   29  C27 UNL     1       1.458  57.681  -4.218  1.00  0.00     0.005 C 
HETATM   30  C28 UNL     1       0.829  58.637  -3.201  1.00  0.00     0.014 C 
HETATM   31  C29 UNL     1       0.396  57.131  -5.172  1.00  0.00     0.014 C 
ENDBRANCH  27  29
ENDBRANCH  26  27
ENDBRANCH  25  26
ENDBRANCH  23  25
ENDBRANCH   1  23
BRANCH  22  32
HETATM   32  O3  UNL     1       0.861  53.247 -12.890  1.00  0.00    -0.391 OA
HETATM   33  H37 UNL     1       1.071  52.580 -13.565  1.00  0.00     0.210 HD
ENDBRANCH  22  32
TORSDOF 6
ENDMDL
MODEL 2
REMARK minimizedAffinity -7.92196083
REMARK CNNscore 0.441658407
REMARK CNNaffinity 6.67503929
REMARK  6 active torsions:
REMARK  status: ('A' for Active; 'I' for Inactive)
REMARK    1  A    between atoms: C2_2  and  C3_3 
REMARK    2  A    between atoms: C2_2  and  C27_30 
REMARK    3  A    between atoms: C3_3  and  C4_4 
REMARK    4  A    between atoms: C4_4  and  C5_5 
REMARK    5  A    between atoms: C5_5  and  C7_7 
REMARK    6  A    between atoms: C26_28  and  O3_29 
ROOT
HETATM    1  C7  UNL     1       0.261  51.760 -15.278  1.00  0.00    -0.002 C 
HETATM    2  C8  UNL     1       1.681  52.343 -15.505  1.00  0.00     0.006 C 
HETATM    3  C9  UNL     1       1.838  52.586 -17.010  1.00  0.00     0.010 C 
HETATM    4  C10 UNL     1       0.440  52.352 -17.576  1.00  0.00     0.027 C 
HETATM    5  C11 UNL     1       0.233  52.123 -19.055  1.00  0.00    -0.036 C 
HETATM    6  C12 UNL     1      -0.875  51.490 -19.513  1.00  0.00     0.002 C 
HETATM    7  C13 UNL     1      -1.853  50.926 -18.498  1.00  0.00     0.157 C 
HETATM    8  O1  UNL     1      -2.865  50.327 -18.863  1.00  0.00    -0.293 OA
HETATM    9  C14 UNL     1      -1.601  51.117 -17.009  1.00  0.00     0.093 C 
HETATM   10  C15 UNL     1      -0.108  51.206 -16.690  1.00  0.00    -0.026 C 
HETATM   11  C16 UNL     1       0.576  49.839 -16.952  1.00  0.00     0.016 C 
HETATM   12  C17 UNL     1      -1.189  51.310 -21.013  1.00  0.00    -0.008 C 
HETATM   13  C18 UNL     1      -0.888  49.826 -21.350  1.00  0.00     0.021 C 
HETATM   14  C19 UNL     1      -2.685  51.618 -21.351  1.00  0.00     0.022 C 
HETATM   15  C20 UNL     1      -2.952  52.205 -22.738  1.00  0.00     0.080 C 
HETATM   16  C21 UNL     1      -1.923  51.767 -23.746  1.00  0.00     0.131 C 
HETATM   17  O2  UNL     1      -2.249  51.285 -24.831  1.00  0.00    -0.298 OA
HETATM   18  C22 UNL     1      -0.466  52.025 -23.397  1.00  0.00     0.056 C 
HETATM   19  C23 UNL     1       0.036  53.188 -24.253  1.00  0.00     0.018 C 
HETATM   20  C24 UNL     1      -0.318  52.290 -21.880  1.00  0.00     0.012 C 
HETATM   21  C25 UNL     1       1.150  52.266 -21.434  1.00  0.00     0.042 C 
HETATM   22  C26 UNL     1       1.277  52.702 -19.974  1.00  0.00     0.148 C 
ENDROOT
BRANCH   1  23
HETATM   23  C5  UNL     1       0.182  50.823 -14.034  1.00  0.00    -0.014 C 
HETATM   24  C6  UNL     1      -1.099  51.071 -13.226  1.00  0.00     0.010 C 
BRANCH  23  25
HETATM   25  C4  UNL     1       1.394  51.020 -13.075  1.00  0.00     0.009 C 
BRANCH  25  26
HETATM   26  C3  UNL     1       1.073  51.395 -11.620  1.00  0.00     0.034 C 
BRANCH  26  27
HETATM   27  C2  UNL     1       2.188  52.053 -10.825  1.00  0.00    -0.086 C 
HETATM   28  C1  UNL     1       3.284  51.344 -10.495  1.00  0.00     0.014 C 
BRANCH  27  29
HETATM   29  C27 UNL     1       2.120  53.537 -10.475  1.00  0.00     0.005 C 
HETATM   30  C28 UNL     1       3.366  54.324 -10.888  1.00  0.00     0.014 C 
HETATM   31  C29 UNL     1       0.853  54.210 -11.006  1.00  0.00     0.014 C 
ENDBRANCH  27  29
ENDBRANCH  26  27
ENDBRANCH  25  26
ENDBRANCH  23  25
ENDBRANCH   1  23
BRANCH  22  32
HETATM   32  O3  UNL     1       1.152  54.118 -19.891  1.00  0.00    -0.391 OA
HETATM   33  H37 UNL     1       1.909  54.505 -20.362  1.00  0.00     0.210 HD
ENDBRANCH  22  32
TORSDOF 6
ENDMDL
MODEL 3
REMARK minimizedAffinity -9.41924
REMARK CNNscore 0.432852656
REMARK CNNaffinity 7.05628586
REMARK  6 active torsions:
REMARK  status: ('A' for Active; 'I' for Inactive)
REMARK    1  A    between atoms: C2_2  and  C3_3 
REMARK    2  A    between atoms: C2_2  and  C27_30 
REMARK    3  A    between atoms: C3_3  and  C4_4 
REMARK    4  A    between atoms: C4_4  and  C5_5 
REMARK    5  A    between atoms: C5_5  and  C7_7 
REMARK    6  A    between atoms: C26_28  and  O3_29 
ROOT
HETATM    1  C7  UNL     1      -0.229  51.912 -21.286  1.00  0.00    -0.002 C 
HETATM    2  C8  UNL     1       0.365  53.319 -21.019  1.00  0.00     0.006 C 
HETATM    3  C9  UNL     1       0.820  53.350 -19.555  1.00  0.00     0.010 C 
HETATM    4  C10 UNL     1       0.685  51.904 -19.088  1.00  0.00     0.027 C 
HETATM    5  C11 UNL     1       0.673  51.564 -17.616  1.00  0.00    -0.036 C 
HETATM    6  C12 UNL     1       0.123  50.406 -17.174  1.00  0.00     0.002 C 
HETATM    7  C13 UNL     1      -0.569  49.507 -18.182  1.00  0.00     0.157 C 
HETATM    8  O1  UNL     1      -1.099  48.454 -17.827  1.00  0.00    -0.293 OA
HETATM    9  C14 UNL     1      -0.597  49.892 -19.654  1.00  0.00     0.093 C 
HETATM   10  C15 UNL     1      -0.571  51.408 -19.848  1.00  0.00    -0.026 C 
HETATM   11  C16 UNL     1      -1.893  52.034 -19.335  1.00  0.00     0.016 C 
HETATM   12  C17 UNL     1       0.165  49.959 -15.698  1.00  0.00    -0.008 C 
HETATM   13  C18 UNL     1      -1.259  50.195 -15.127  1.00  0.00     0.021 C 
HETATM   14  C19 UNL     1       0.534  48.446 -15.542  1.00  0.00     0.022 C 
HETATM   15  C20 UNL     1       1.317  48.074 -14.282  1.00  0.00     0.080 C 
HETATM   16  C21 UNL     1       1.017  49.001 -13.134  1.00  0.00     0.131 C 
HETATM   17  O2  UNL     1       0.699  48.571 -12.025  1.00  0.00    -0.298 OA
HETATM   18  C22 UNL     1       1.206  50.489 -13.385  1.00  0.00     0.056 C 
HETATM   19  C23 UNL     1       2.475  50.941 -12.662  1.00  0.00     0.018 C 
HETATM   20  C24 UNL     1       1.249  50.774 -14.905  1.00  0.00     0.012 C 
HETATM   21  C25 UNL     1       1.146  52.274 -15.210  1.00  0.00     0.042 C 
HETATM   22  C26 UNL     1       1.366  52.538 -16.700  1.00  0.00     0.148 C 
ENDROOT
BRANCH   1  23
HETATM   23  C5  UNL     1      -1.334  51.919 -22.387  1.00  0.00    -0.014 C 
HETATM   24  C6  UNL     1      -1.821  50.497 -22.701  1.00  0.00     0.010 C 
BRANCH  23  25
HETATM   25  C4  UNL     1      -0.831  52.554 -23.716  1.00  0.00     0.009 C 
BRANCH  25  26
HETATM   26  C3  UNL     1       0.422  51.931 -24.352  1.00  0.00     0.034 C 
BRANCH  26  27
HETATM   27  C2  UNL     1       0.305  51.498 -25.803  1.00  0.00    -0.086 C 
HETATM   28  C1  UNL     1      -0.649  50.621 -26.166  1.00  0.00     0.014 C 
BRANCH  27  29
HETATM   29  C27 UNL     1       1.201  52.118 -26.872  1.00  0.00     0.005 C 
HETATM   30  C28 UNL     1       2.618  51.541 -26.898  1.00  0.00     0.014 C 
HETATM   31  C29 UNL     1       0.573  52.071 -28.266  1.00  0.00     0.014 C 
ENDBRANCH  27  29
ENDBRANCH  26  27
ENDBRANCH  25  26
ENDBRANCH  23  25
ENDBRANCH   1  23
BRANCH  22  32
HETATM   32  O3  UNL     1       2.757  52.453 -16.994  1.00  0.00    -0.391 OA
HETATM   33  H37 UNL     1       3.200  53.175 -16.517  1.00  0.00     0.210 HD
ENDBRANCH  22  32
TORSDOF 6
ENDMDL
MODEL 4
REMARK minimizedAffinity -7.33006573
REMARK CNNscore 0.428308129
REMARK CNNaffinity 6.63290548
REMARK  6 active torsions:
REMARK  status: ('A' for Active; 'I' for Inactive)
REMARK    1  A    between atoms: C2_2  and  C3_3 
REMARK    2  A    between atoms: C2_2  and  C27_30 
REMARK    3  A    between atoms: C3_3  and  C4_4 
REMARK    4  A    between atoms: C4_4  and  C5_5 
REMARK    5  A    between atoms: C5_5  and  C7_7 
REMARK    6  A    between atoms: C26_28  and  O3_29 
ROOT
HETATM    1  C7  UNL     1      -2.720  52.297 -12.407  1.00  0.00    -0.002 C 
HETATM    2  C8  UNL     1      -3.773  52.830 -11.401  1.00  0.00     0.006 C 
HETATM    3  C9  UNL     1      -3.029  53.701 -10.381  1.00  0.00     0.010 C 
HETATM    4  C10 UNL     1      -1.620  53.829 -10.954  1.00  0.00     0.027 C 
HETATM    5  C11 UNL     1      -0.472  54.288 -10.086  1.00  0.00    -0.036 C 
HETATM    6  C12 UNL     1       0.810  53.992 -10.414  1.00  0.00     0.002 C 
HETATM    7  C13 UNL     1       1.057  53.101 -11.618  1.00  0.00     0.157 C 
HETATM    8  O1  UNL     1       2.202  52.789 -11.946  1.00  0.00    -0.293 OA
HETATM    9  C14 UNL     1      -0.115  52.601 -12.449  1.00  0.00     0.093 C 
HETATM   10  C15 UNL     1      -1.384  52.446 -11.611  1.00  0.00    -0.026 C 
HETATM   11  C16 UNL     1      -1.211  51.295 -10.588  1.00  0.00     0.016 C 
HETATM   12  C17 UNL     1       2.028  54.512  -9.622  1.00  0.00    -0.008 C 
HETATM   13  C18 UNL     1       2.557  53.311  -8.792  1.00  0.00     0.021 C 
HETATM   14  C19 UNL     1       3.171  55.030 -10.557  1.00  0.00     0.022 C 
HETATM   15  C20 UNL     1       4.013  56.183 -10.009  1.00  0.00     0.080 C 
HETATM   16  C21 UNL     1       4.082  56.171  -8.505  1.00  0.00     0.131 C 
HETATM   17  O2  UNL     1       5.156  56.237  -7.909  1.00  0.00    -0.298 OA
HETATM   18  C22 UNL     1       2.758  56.156  -7.757  1.00  0.00     0.056 C 
HETATM   19  C23 UNL     1       2.530  57.543  -7.157  1.00  0.00     0.018 C 
HETATM   20  C24 UNL     1       1.614  55.716  -8.701  1.00  0.00     0.012 C 
HETATM   21  C25 UNL     1       0.323  55.406  -7.933  1.00  0.00     0.042 C 
HETATM   22  C26 UNL     1      -0.831  55.146  -8.900  1.00  0.00     0.148 C 
ENDROOT
BRANCH   1  23
HETATM   23  C5  UNL     1      -3.108  50.915 -13.016  1.00  0.00    -0.014 C 
HETATM   24  C6  UNL     1      -3.614  49.949 -11.935  1.00  0.00     0.010 C 
BRANCH  23  25
HETATM   25  C4  UNL     1      -1.906  50.235 -13.736  1.00  0.00     0.009 C 
BRANCH  25  26
HETATM   26  C3  UNL     1      -1.652  50.642 -15.196  1.00  0.00     0.034 C 
BRANCH  26  27
HETATM   27  C2  UNL     1      -0.246  50.425 -15.729  1.00  0.00    -0.086 C 
HETATM   28  C1  UNL     1       0.124  49.207 -16.166  1.00  0.00     0.014 C 
BRANCH  27  29
HETATM   29  C27 UNL     1       0.724  51.596 -15.859  1.00  0.00     0.005 C 
HETATM   30  C28 UNL     1       2.078  51.351 -15.189  1.00  0.00     0.014 C 
HETATM   31  C29 UNL     1       0.911  52.048 -17.308  1.00  0.00     0.014 C 
ENDBRANCH  27  29
ENDBRANCH  26  27
ENDBRANCH  25  26
ENDBRANCH  23  25
ENDBRANCH   1  23
BRANCH  22  32
HETATM   32  O3  UNL     1      -1.299  56.385  -9.422  1.00  0.00    -0.391 OA
HETATM   33  H37 UNL     1      -1.670  56.892  -8.680  1.00  0.00     0.210 HD
ENDBRANCH  22  32
TORSDOF 6
ENDMDL
MODEL 5
REMARK minimizedAffinity -7.27644587
REMARK CNNscore 0.414209485
REMARK CNNaffinity 6.21618891
REMARK  6 active torsions:
REMARK  status: ('A' for Active; 'I' for Inactive)
REMARK    1  A    between atoms: C2_2  and  C3_3 
REMARK    2  A    between atoms: C2_2  and  C27_30 
REMARK    3  A    between atoms: C3_3  and  C4_4 
REMARK    4  A    between atoms: C4_4  and  C5_5 
REMARK    5  A    between atoms: C5_5  and  C7_7 
REMARK    6  A    between atoms: C26_28  and  O3_29 
ROOT
HETATM    1  C7  UNL     1       6.023  56.370  -7.307  1.00  0.00    -0.002 C 
HETATM    2  C8  UNL     1       6.877  55.475  -8.244  1.00  0.00     0.006 C 
HETATM    3  C9  UNL     1       5.907  54.724  -9.164  1.00  0.00     0.010 C 
HETATM    4  C10 UNL     1       4.552  55.370  -8.889  1.00  0.00     0.027 C 
HETATM    5  C11 UNL     1       3.271  54.685  -9.304  1.00  0.00    -0.036 C 
HETATM    6  C12 UNL     1       2.094  54.988  -8.703  1.00  0.00     0.002 C 
HETATM    7  C13 UNL     1       2.110  55.956  -7.534  1.00  0.00     0.157 C 
HETATM    8  O1  UNL     1       1.070  56.248  -6.943  1.00  0.00    -0.293 OA
HETATM    9  C14 UNL     1       3.419  56.594  -7.091  1.00  0.00     0.093 C 
HETATM   10  C15 UNL     1       4.619  55.690  -7.375  1.00  0.00    -0.026 C 
HETATM   11  C16 UNL     1       4.563  54.430  -6.472  1.00  0.00     0.016 C 
HETATM   12  C17 UNL     1       0.740  54.395  -9.146  1.00  0.00    -0.008 C 
HETATM   13  C18 UNL     1       0.360  53.326  -8.086  1.00  0.00     0.021 C 
HETATM   14  C19 UNL     1      -0.392  55.473  -9.212  1.00  0.00     0.022 C 
HETATM   15  C20 UNL     1      -1.467  55.252 -10.277  1.00  0.00     0.080 C 
HETATM   16  C21 UNL     1      -1.662  53.792 -10.591  1.00  0.00     0.131 C 
HETATM   17  O2  UNL     1      -2.778  53.275 -10.584  1.00  0.00    -0.298 OA
HETATM   18  C22 UNL     1      -0.425  53.006 -10.998  1.00  0.00     0.056 C 
HETATM   19  C23 UNL     1      -0.496  52.743 -12.502  1.00  0.00     0.018 C 
HETATM   20  C24 UNL     1       0.855  53.769 -10.583  1.00  0.00     0.012 C 
HETATM   21  C25 UNL     1       2.110  52.895 -10.706  1.00  0.00     0.042 C 
HETATM   22  C26 UNL     1       3.371  53.723 -10.459  1.00  0.00     0.148 C 
ENDROOT
BRANCH   1  23
HETATM   23  C5  UNL     1       6.699  56.616  -5.923  1.00  0.00    -0.014 C 
HETATM   24  C6  UNL     1       6.576  58.085  -5.494  1.00  0.00     0.010 C 
BRANCH  23  25
HETATM   25  C4  UNL     1       8.212  56.250  -5.938  1.00  0.00     0.009 C 
BRANCH  25  26
HETATM   26  C3  UNL     1       9.007  56.535  -4.654  1.00  0.00     0.034 C 
BRANCH  26  27
HETATM   27  C2  UNL     1      10.254  57.390  -4.801  1.00  0.00    -0.086 C 
HETATM   28  C1  UNL     1      10.138  58.721  -4.971  1.00  0.00     0.014 C 
BRANCH  27  29
HETATM   29  C27 UNL     1      11.642  56.768  -4.668  1.00  0.00     0.005 C 
HETATM   30  C28 UNL     1      12.353  57.127  -3.360  1.00  0.00     0.014 C 
HETATM   31  C29 UNL     1      11.632  55.254  -4.881  1.00  0.00     0.014 C 
ENDBRANCH  27  29
ENDBRANCH  26  27
ENDBRANCH  25  26
ENDBRANCH  23  25
ENDBRANCH   1  23
BRANCH  22  32
HETATM   32  O3  UNL     1       3.657  54.504 -11.615  1.00  0.00    -0.391 OA
HETATM   33  H37 UNL     1       3.868  53.888 -12.337  1.00  0.00     0.210 HD
ENDBRANCH  22  32
TORSDOF 6
ENDMDL
MODEL 6
REMARK minimizedAffinity -9.18899536
REMARK CNNscore 0.399513036
REMARK CNNaffinity 6.3119545
REMARK  6 active torsions:
REMARK  status: ('A' for Active; 'I' for Inactive)
REMARK    1  A    between atoms: C2_2  and  C3_3 
REMARK    2  A    between atoms: C2_2  and  C27_30 
REMARK    3  A    between atoms: C3_3  and  C4_4 
REMARK    4  A    between atoms: C4_4  and  C5_5 
REMARK    5  A    between atoms: C5_5  and  C7_7 
REMARK    6  A    between atoms: C26_28  and  O3_29 
ROOT
HETATM    1  C7  UNL     1      -0.623  51.336 -15.883  1.00  0.00    -0.002 C 
HETATM    2  C8  UNL     1       0.846  51.832 -15.933  1.00  0.00     0.006 C 
HETATM    3  C9  UNL     1       1.163  52.171 -17.394  1.00  0.00     0.010 C 
HETATM    4  C10 UNL     1      -0.186  52.078 -18.102  1.00  0.00     0.027 C 
HETATM    5  C11 UNL     1      -0.263  51.971 -19.607  1.00  0.00    -0.036 C 
HETATM    6  C12 UNL     1      -1.360  51.452 -20.212  1.00  0.00     0.002 C 
HETATM    7  C13 UNL     1      -2.465  50.888 -19.338  1.00  0.00     0.157 C 
HETATM    8  O1  UNL     1      -3.473  50.389 -19.840  1.00  0.00    -0.293 OA
HETATM    9  C14 UNL     1      -2.346  50.952 -17.823  1.00  0.00     0.093 C 
HETATM   10  C15 UNL     1      -0.888  50.912 -17.362  1.00  0.00    -0.026 C 
HETATM   11  C16 UNL     1      -0.271  49.523 -17.667  1.00  0.00     0.016 C 
HETATM   12  C17 UNL     1      -1.538  51.404 -21.744  1.00  0.00    -0.008 C 
HETATM   13  C18 UNL     1      -1.301  49.930 -22.168  1.00  0.00     0.021 C 
HETATM   14  C19 UNL     1      -2.972  51.840 -22.192  1.00  0.00     0.022 C 
HETATM   15  C20 UNL     1      -3.066  52.543 -23.547  1.00  0.00     0.080 C 
HETATM   16  C21 UNL     1      -1.975  52.107 -24.489  1.00  0.00     0.131 C 
HETATM   17  O2  UNL     1      -2.224  51.728 -25.633  1.00  0.00    -0.298 OA
HETATM   18  C22 UNL     1      -0.544  52.235 -23.988  1.00  0.00     0.056 C 
HETATM   19  C23 UNL     1       0.110  53.418 -24.701  1.00  0.00     0.018 C 
HETATM   20  C24 UNL     1      -0.527  52.379 -22.448  1.00  0.00     0.012 C 
HETATM   21  C25 UNL     1       0.887  52.220 -21.873  1.00  0.00     0.042 C 
HETATM   22  C26 UNL     1       0.899  52.539 -20.378  1.00  0.00     0.148 C 
ENDROOT
BRANCH   1  23
HETATM   23  C5  UNL     1      -0.881  50.319 -14.728  1.00  0.00    -0.014 C 
HETATM   24  C6  UNL     1      -0.583  48.880 -15.172  1.00  0.00     0.010 C 
BRANCH  23  25
HETATM   25  C4  UNL     1      -2.354  50.367 -14.227  1.00  0.00     0.009 C 
BRANCH  25  26
HETATM   26  C3  UNL     1      -2.920  51.749 -13.867  1.00  0.00     0.034 C 
BRANCH  26  27
HETATM   27  C2  UNL     1      -2.750  52.200 -12.426  1.00  0.00    -0.086 C 
HETATM   28  C1  UNL     1      -1.515  52.342 -11.909  1.00  0.00     0.014 C 
BRANCH  27  29
HETATM   29  C27 UNL     1      -3.965  52.584 -11.585  1.00  0.00     0.005 C 
HETATM   30  C28 UNL     1      -4.443  51.470 -10.650  1.00  0.00     0.014 C 
HETATM   31  C29 UNL     1      -3.757  53.887 -10.811  1.00  0.00     0.014 C 
ENDBRANCH  27  29
ENDBRANCH  26  27
ENDBRANCH  25  26
ENDBRANCH  23  25
ENDBRANCH   1  23
BRANCH  22  32
HETATM   32  O3  UNL     1       0.857  53.951 -20.196  1.00  0.00    -0.391 OA
HETATM   33  H37 UNL     1       1.679  54.317 -20.565  1.00  0.00     0.210 HD
ENDBRANCH  22  32
TORSDOF 6
ENDMDL
MODEL 7
REMARK minimizedAffinity -7.80201101
REMARK CNNscore 0.378945589
REMARK CNNaffinity 5.73262978
REMARK  6 active torsions:
REMARK  status: ('A' for Active; 'I' for Inactive)
REMARK    1  A    between atoms: C2_2  and  C3_3 
REMARK    2  A    between atoms: C2_2  and  C27_30 
REMARK    3  A    between atoms: C3_3  and  C4_4 
REMARK    4  A    between atoms: C4_4  and  C5_5 
REMARK    5  A    between atoms: C5_5  and  C7_7 
REMARK    6  A    between atoms: C26_28  and  O3_29 
ROOT
HETATM    1  C7  UNL     1     -13.518  46.454 -27.253  1.00  0.00    -0.002 C 
HETATM    2  C8  UNL     1     -13.125  47.048 -25.875  1.00  0.00     0.006 C 
HETATM    3  C9  UNL     1     -11.639  47.418 -25.945  1.00  0.00     0.010 C 
HETATM    4  C10 UNL     1     -11.277  47.239 -27.417  1.00  0.00     0.027 C 
HETATM    5  C11 UNL     1      -9.833  47.137 -27.850  1.00  0.00    -0.036 C 
HETATM    6  C12 UNL     1      -9.500  46.549 -29.026  1.00  0.00     0.002 C 
HETATM    7  C13 UNL     1     -10.602  45.905 -29.847  1.00  0.00     0.157 C 
HETATM    8  O1  UNL     1     -10.347  45.343 -30.913  1.00  0.00    -0.293 OA
HETATM    9  C14 UNL     1     -12.045  45.967 -29.368  1.00  0.00     0.093 C 
HETATM   10  C15 UNL     1     -12.137  46.023 -27.842  1.00  0.00    -0.026 C 
HETATM   11  C16 UNL     1     -11.661  44.681 -27.230  1.00  0.00     0.016 C 
HETATM   12  C17 UNL     1      -8.055  46.499 -29.568  1.00  0.00    -0.008 C 
HETATM   13  C18 UNL     1      -7.553  45.048 -29.347  1.00  0.00     0.021 C 
HETATM   14  C19 UNL     1      -7.978  46.841 -31.093  1.00  0.00     0.022 C 
HETATM   15  C20 UNL     1      -6.703  47.545 -31.558  1.00  0.00     0.080 C 
HETATM   16  C21 UNL     1      -5.515  47.190 -30.703  1.00  0.00     0.131 C 
HETATM   17  O2  UNL     1      -4.457  46.803 -31.198  1.00  0.00    -0.298 OA
HETATM   18  C22 UNL     1      -5.657  47.412 -29.205  1.00  0.00     0.056 C 
HETATM   19  C23 UNL     1      -4.835  48.641 -28.821  1.00  0.00     0.018 C 
HETATM   20  C24 UNL     1      -7.151  47.546 -28.823  1.00  0.00     0.012 C 
HETATM   21  C25 UNL     1      -7.362  47.479 -27.305  1.00  0.00     0.042 C 
HETATM   22  C26 UNL     1      -8.816  47.788 -26.950  1.00  0.00     0.148 C 
ENDROOT
BRANCH   1  23
HETATM   23  C5  UNL     1     -14.676  45.414 -27.157  1.00  0.00    -0.014 C 
HETATM   24  C6  UNL     1     -15.254  45.089 -28.542  1.00  0.00     0.010 C 
BRANCH  23  25
HETATM   25  C4  UNL     1     -15.845  45.922 -26.262  1.00  0.00     0.009 C 
BRANCH  25  26
HETATM   26  C3  UNL     1     -16.865  44.873 -25.792  1.00  0.00     0.034 C 
BRANCH  26  27
HETATM   27  C2  UNL     1     -18.319  45.130 -26.149  1.00  0.00    -0.086 C 
HETATM   28  C1  UNL     1     -18.817  44.660 -27.308  1.00  0.00     0.014 C 
BRANCH  27  29
HETATM   29  C27 UNL     1     -19.247  45.837 -25.165  1.00  0.00     0.005 C 
HETATM   30  C28 UNL     1     -19.802  44.918 -24.074  1.00  0.00     0.014 C 
HETATM   31  C29 UNL     1     -18.613  47.086 -24.551  1.00  0.00     0.014 C 
ENDBRANCH  27  29
ENDBRANCH  26  27
ENDBRANCH  25  26
ENDBRANCH  23  25
ENDBRANCH   1  23
BRANCH  22  32
HETATM   32  O3  UNL     1      -9.036  49.192 -27.037  1.00  0.00    -0.391 OA
HETATM   33  H37 UNL     1      -8.488  49.616 -26.354  1.00  0.00     0.210 HD
ENDBRANCH  22  32
TORSDOF 6
ENDMDL
MODEL 8
REMARK minimizedAffinity -8.02289486
REMARK CNNscore 0.359333336
REMARK CNNaffinity 6.52659273
REMARK  6 active torsions:
REMARK  status: ('A' for Active; 'I' for Inactive)
REMARK    1  A    between atoms: C2_2  and  C3_3 
REMARK    2  A    between atoms: C2_2  and  C27_30 
REMARK    3  A    between atoms: C3_3  and  C4_4 
REMARK    4  A    between atoms: C4_4  and  C5_5 
REMARK    5  A    between atoms: C5_5  and  C7_7 
REMARK    6  A    between atoms: C26_28  and  O3_29 
ROOT
HETATM    1  C7  UNL     1      -3.459  51.948 -23.123  1.00  0.00    -0.002 C 
HETATM    2  C8  UNL     1      -4.956  52.035 -23.518  1.00  0.00     0.006 C 
HETATM    3  C9  UNL     1      -5.687  50.906 -22.782  1.00  0.00     0.010 C 
HETATM    4  C10 UNL     1      -4.644  50.348 -21.819  1.00  0.00     0.027 C 
HETATM    5  C11 UNL     1      -4.831  48.994 -21.176  1.00  0.00    -0.036 C 
HETATM    6  C12 UNL     1      -3.769  48.298 -20.699  1.00  0.00     0.002 C 
HETATM    7  C13 UNL     1      -2.378  48.866 -20.916  1.00  0.00     0.157 C 
HETATM    8  O1  UNL     1      -1.382  48.263 -20.517  1.00  0.00    -0.293 OA
HETATM    9  C14 UNL     1      -2.204  50.206 -21.616  1.00  0.00     0.093 C 
HETATM   10  C15 UNL     1      -3.325  50.476 -22.621  1.00  0.00    -0.026 C 
HETATM   11  C16 UNL     1      -3.224  49.485 -23.810  1.00  0.00     0.016 C 
HETATM   12  C17 UNL     1      -3.904  46.956 -19.948  1.00  0.00    -0.008 C 
HETATM   13  C18 UNL     1      -3.465  45.850 -20.944  1.00  0.00     0.021 C 
HETATM   14  C19 UNL     1      -2.997  46.889 -18.676  1.00  0.00     0.022 C 
HETATM   15  C20 UNL     1      -3.538  46.062 -17.509  1.00  0.00     0.080 C 
HETATM   16  C21 UNL     1      -4.438  44.947 -17.974  1.00  0.00     0.131 C 
HETATM   17  O2  UNL     1      -4.272  43.787 -17.600  1.00  0.00    -0.298 OA
HETATM   18  C22 UNL     1      -5.610  45.335 -18.862  1.00  0.00     0.056 C 
HETATM   19  C23 UNL     1      -6.891  45.244 -18.033  1.00  0.00     0.018 C 
HETATM   20  C24 UNL     1      -5.384  46.743 -19.462  1.00  0.00     0.012 C 
HETATM   21  C25 UNL     1      -6.385  47.057 -20.581  1.00  0.00     0.042 C 
HETATM   22  C26 UNL     1      -6.250  48.512 -21.032  1.00  0.00     0.148 C 
ENDROOT
BRANCH   1  23
HETATM   23  C5  UNL     1      -2.505  52.475 -24.240  1.00  0.00    -0.014 C 
HETATM   24  C6  UNL     1      -3.085  52.219 -25.638  1.00  0.00     0.010 C 
BRANCH  23  25
HETATM   25  C4  UNL     1      -1.103  51.802 -24.176  1.00  0.00     0.009 C 
BRANCH  25  26
HETATM   26  C3  UNL     1       0.098  52.659 -24.607  1.00  0.00     0.034 C 
BRANCH  26  27
HETATM   27  C2  UNL     1       0.371  52.748 -26.098  1.00  0.00    -0.086 C 
HETATM   28  C1  UNL     1       0.117  53.892 -26.760  1.00  0.00     0.014 C 
BRANCH  27  29
HETATM   29  C27 UNL     1       1.017  51.580 -26.840  1.00  0.00     0.005 C 
HETATM   30  C28 UNL     1       0.912  51.685 -28.363  1.00  0.00     0.014 C 
HETATM   31  C29 UNL     1       2.467  51.341 -26.412  1.00  0.00     0.014 C 
ENDBRANCH  27  29
ENDBRANCH  26  27
ENDBRANCH  25  26
ENDBRANCH  23  25
ENDBRANCH   1  23
BRANCH  22  32
HETATM   32  O3  UNL     1      -6.873  49.363 -20.075  1.00  0.00    -0.391 OA
HETATM   33  H37 UNL     1      -7.824  49.158 -20.079  1.00  0.00     0.210 HD
ENDBRANCH  22  32
TORSDOF 6
ENDMDL
MODEL 9
REMARK minimizedAffinity -7.18212461
REMARK CNNscore 0.350183308
REMARK CNNaffinity 5.77219009
REMARK  6 active torsions:
REMARK  status: ('A' for Active; 'I' for Inactive)
REMARK    1  A    between atoms: C2_2  and  C3_3 
REMARK    2  A    between atoms: C2_2  and  C27_30 
REMARK    3  A    between atoms: C3_3  and  C4_4 
REMARK    4  A    between atoms: C4_4  and  C5_5 
REMARK    5  A    between atoms: C5_5  and  C7_7 
REMARK    6  A    between atoms: C26_28  and  O3_29 
ROOT
HETATM    1  C7  UNL     1     -13.544  46.974 -26.685  1.00  0.00    -0.002 C 
HETATM    2  C8  UNL     1     -13.023  46.971 -25.224  1.00  0.00     0.006 C 
HETATM    3  C9  UNL     1     -11.501  47.140 -25.283  1.00  0.00     0.010 C 
HETATM    4  C10 UNL     1     -11.215  47.459 -26.748  1.00  0.00     0.027 C 
HETATM    5  C11 UNL     1      -9.818  47.330 -27.308  1.00  0.00    -0.036 C 
HETATM    6  C12 UNL     1      -9.615  47.169 -28.640  1.00  0.00     0.002 C 
HETATM    7  C13 UNL     1     -10.827  47.019 -29.540  1.00  0.00     0.157 C 
HETATM    8  O1  UNL     1     -10.694  46.853 -30.753  1.00  0.00    -0.293 OA
HETATM    9  C14 UNL     1     -12.228  47.095 -28.951  1.00  0.00     0.093 C 
HETATM   10  C15 UNL     1     -12.265  46.606 -27.502  1.00  0.00    -0.026 C 
HETATM   11  C16 UNL     1     -11.983  45.083 -27.446  1.00  0.00     0.016 C 
HETATM   12  C17 UNL     1      -8.212  47.128 -29.283  1.00  0.00    -0.008 C 
HETATM   13  C18 UNL     1      -7.934  45.641 -29.632  1.00  0.00     0.021 C 
HETATM   14  C19 UNL     1      -8.130  47.984 -30.590  1.00  0.00     0.022 C 
HETATM   15  C20 UNL     1      -6.775  48.633 -30.881  1.00  0.00     0.080 C 
HETATM   16  C21 UNL     1      -5.631  47.838 -30.308  1.00  0.00     0.131 C 
HETATM   17  O2  UNL     1      -4.661  47.519 -30.995  1.00  0.00    -0.298 OA
HETATM   18  C22 UNL     1      -5.692  47.518 -28.823  1.00  0.00     0.056 C 
HETATM   19  C23 UNL     1      -4.679  48.404 -28.099  1.00  0.00     0.018 C 
HETATM   20  C24 UNL     1      -7.135  47.703 -28.294  1.00  0.00     0.012 C 
HETATM   21  C25 UNL     1      -7.309  47.119 -26.886  1.00  0.00     0.042 C 
HETATM   22  C26 UNL     1      -8.686  47.469 -26.324  1.00  0.00     0.148 C 
ENDROOT
BRANCH   1  23
HETATM   23  C5  UNL     1     -14.846  46.134 -26.866  1.00  0.00    -0.014 C 
HETATM   24  C6  UNL     1     -15.287  45.492 -25.543  1.00  0.00     0.010 C 
BRANCH  23  25
HETATM   25  C4  UNL     1     -14.665  44.993 -27.911  1.00  0.00     0.009 C 
BRANCH  25  26
HETATM   26  C3  UNL     1     -15.905  44.598 -28.728  1.00  0.00     0.034 C 
BRANCH  26  27
HETATM   27  C2  UNL     1     -16.553  43.268 -28.381  1.00  0.00    -0.086 C 
HETATM   28  C1  UNL     1     -15.818  42.291 -27.817  1.00  0.00     0.014 C 
BRANCH  27  29
HETATM   29  C27 UNL     1     -18.052  43.059 -28.581  1.00  0.00     0.005 C 
HETATM   30  C28 UNL     1     -18.919  43.840 -27.592  1.00  0.00     0.014 C 
HETATM   31  C29 UNL     1     -18.497  43.327 -30.020  1.00  0.00     0.014 C 
ENDBRANCH  27  29
ENDBRANCH  26  27
ENDBRANCH  25  26
ENDBRANCH  23  25
ENDBRANCH   1  23
BRANCH  22  32
HETATM   32  O3  UNL     1      -8.689  48.826 -25.890  1.00  0.00    -0.391 OA
HETATM   33  H37 UNL     1      -8.062  48.896 -25.150  1.00  0.00     0.210 HD
ENDBRANCH  22  32
TORSDOF 6
ENDMDL
