MODEL 1
REMARK minimizedAffinity -8.15933895
REMARK CNNscore 0.662954032
REMARK CNNaffinity 7.18661547
REMARK  12 active torsions:
REMARK  status: ('A' for Active; 'I' for Inactive)
REMARK    1  A    between atoms: C19_21  and  O3_22 
REMARK    2  A    between atoms: C19_21  and  C20_23 
REMARK    3  A    between atoms: C20_23  and  C21_25 
REMARK    4  A    between atoms: C21_25  and  O5_26 
REMARK    5  A    between atoms: O5_26  and  C22_27 
REMARK    6  A    between atoms: C22_27  and  C23_29 
REMARK    7  A    between atoms: C23_29  and  C24_30 
REMARK    8  A    between atoms: C24_30  and  C25_31 
REMARK       I    between atoms: C25_31  and  N1_33 
REMARK    9  A    between atoms: N1_33  and  C26_34 
REMARK   10  A    between atoms: C26_34  and  C27_35 
REMARK   11  A    between atoms: C30_38  and  C31_39 
REMARK   12  A    between atoms: C31_39  and  O9_41 
ROOT
HETATM    1  C1  UNL     1       2.791   7.548  12.261  1.00  0.00     0.021 C 
HETATM    2  C2  UNL     1       1.527   6.862  11.698  1.00  0.00    -0.009 C 
HETATM    3  C3  UNL     1       1.886   5.381  11.362  1.00  0.00     0.022 C 
HETATM    4  C4  UNL     1       2.890   5.225  10.223  1.00  0.00     0.084 C 
HETATM    5  C5  UNL     1       2.523   6.056   9.017  1.00  0.00     0.149 C 
HETATM    6  O1  UNL     1       3.002   5.834   7.907  1.00  0.00    -0.293 OA
HETATM    7  C6  UNL     1       1.573   7.179   9.185  1.00  0.00     0.053 C 
HETATM    8  C7  UNL     1       1.115   7.543  10.395  1.00  0.00    -0.067 C 
HETATM    9  C8  UNL     1       0.068   8.609  10.533  1.00  0.00     0.035 C 
HETATM   10  C9  UNL     1      -1.237   7.993  11.044  1.00  0.00     0.010 C 
HETATM   11  C10 UNL     1      -1.048   6.809  12.028  1.00  0.00     0.003 C 
HETATM   12  C11 UNL     1       0.335   6.838  12.728  1.00  0.00     0.072 C 
HETATM   13  C12 UNL     1       0.242   7.920  13.804  1.00  0.00     0.133 C 
HETATM   14  O2  UNL     1       0.897   8.957  13.815  1.00  0.00    -0.297 OA
HETATM   15  C13 UNL     1      -0.776   7.639  14.891  1.00  0.00     0.091 C 
HETATM   16  C14 UNL     1      -2.200   7.582  14.288  1.00  0.00     0.005 C 
HETATM   17  C15 UNL     1      -2.650   9.030  14.021  1.00  0.00     0.019 C 
HETATM   18  C16 UNL     1      -2.238   6.684  13.016  1.00  0.00     0.002 C 
HETATM   19  C17 UNL     1      -2.365   5.247  13.569  1.00  0.00     0.009 C 
HETATM   20  C18 UNL     1      -2.874   5.354  15.006  1.00  0.00     0.047 C 
HETATM   21  C19 UNL     1      -3.190   6.840  15.246  1.00  0.00     0.128 C 
ENDROOT
BRANCH  21  22
HETATM   22  O3  UNL     1      -2.904   7.164  16.600  1.00  0.00    -0.381 OA
HETATM   23  H25 UNL     1      -3.251   6.453  17.171  1.00  0.00     0.211 HD
ENDBRANCH  21  22
BRANCH  21  24
HETATM   24  C20 UNL     1      -4.690   7.099  14.921  1.00  0.00     0.185 C 
HETATM   25  O4  UNL     1      -5.193   8.218  15.066  1.00  0.00    -0.292 OA
BRANCH  24  26
HETATM   26  C21 UNL     1      -5.511   5.904  14.440  1.00  0.00     0.260 C 
BRANCH  26  27
HETATM   27  O5  UNL     1      -6.454   6.318  13.451  1.00  0.00    -0.314 OA
BRANCH  27  28
HETATM   28  C22 UNL     1      -7.564   5.536  13.388  1.00  0.00     0.259 C 
HETATM   29  O6  UNL     1      -7.560   4.311  13.367  1.00  0.00    -0.265 OA
BRANCH  28  30
HETATM   30  C23 UNL     1      -8.804   6.394  13.384  1.00  0.00     0.120 C 
BRANCH  30  31
HETATM   31  C24 UNL     1      -8.738   7.457  14.474  1.00  0.00     0.112 C 
BRANCH  31  32
HETATM   32  C25 UNL     1     -10.109   7.756  15.052  1.00  0.00     0.218 C 
HETATM   33  O7  UNL     1     -10.950   6.892  15.269  1.00  0.00    -0.274 OA
HETATM   34  N1  UNL     1     -10.309   9.096  15.294  1.00  0.00    -0.357 N 
HETATM   35  H32 UNL     1      -9.627   9.765  14.964  1.00  0.00     0.162 HD
BRANCH  34  36
HETATM   36  C26 UNL     1     -11.570   9.606  15.779  1.00  0.00     0.161 C 
BRANCH  36  37
HETATM   37  C27 UNL     1     -12.619   9.575  14.697  1.00  0.00    -0.040 A 
HETATM   38  C28 UNL     1     -12.271   9.768  13.353  1.00  0.00     0.010 A 
HETATM   39  C29 UNL     1     -13.249   9.730  12.354  1.00  0.00     0.019 A 
HETATM   40  C30 UNL     1     -14.588   9.494  12.690  1.00  0.00     0.037 A 
HETATM   41  C32 UNL     1     -14.940   9.288  14.028  1.00  0.00     0.019 A 
HETATM   42  C33 UNL     1     -13.960   9.327  15.024  1.00  0.00     0.010 A 
BRANCH  40  43
HETATM   43  C31 UNL     1     -15.660   9.453  11.667  1.00  0.00     0.176 C 
HETATM   44  O8  UNL     1     -16.403  10.371  11.373  1.00  0.00    -0.646 OA
BRANCH  43  45
HETATM   45  O9  UNL     1     -15.749   8.262  11.049  1.00  0.00    -0.773 OA
HETATM   46  H37 UNL     1     -16.480   8.389  10.408  1.00  0.00     0.167 HD
ENDBRANCH  43  45
ENDBRANCH  40  43
ENDBRANCH  36  37
ENDBRANCH  34  36
ENDBRANCH  31  32
ENDBRANCH  30  31
ENDBRANCH  28  30
ENDBRANCH  27  28
ENDBRANCH  26  27
ENDBRANCH  24  26
ENDBRANCH  21  24
TORSDOF 12
ENDMDL
MODEL 2
REMARK minimizedAffinity -9.15679073
REMARK CNNscore 0.611805677
REMARK CNNaffinity 6.8488884
REMARK  12 active torsions:
REMARK  status: ('A' for Active; 'I' for Inactive)
REMARK    1  A    between atoms: C19_21  and  O3_22 
REMARK    2  A    between atoms: C19_21  and  C20_23 
REMARK    3  A    between atoms: C20_23  and  C21_25 
REMARK    4  A    between atoms: C21_25  and  O5_26 
REMARK    5  A    between atoms: O5_26  and  C22_27 
REMARK    6  A    between atoms: C22_27  and  C23_29 
REMARK    7  A    between atoms: C23_29  and  C24_30 
REMARK    8  A    between atoms: C24_30  and  C25_31 
REMARK       I    between atoms: C25_31  and  N1_33 
REMARK    9  A    between atoms: N1_33  and  C26_34 
REMARK   10  A    between atoms: C26_34  and  C27_35 
REMARK   11  A    between atoms: C30_38  and  C31_39 
REMARK   12  A    between atoms: C31_39  and  O9_41 
ROOT
HETATM    1  C1  UNL     1       1.084   5.670  10.459  1.00  0.00     0.021 C 
HETATM    2  C2  UNL     1       0.915   7.166  10.803  1.00  0.00    -0.009 C 
HETATM    3  C3  UNL     1       0.177   7.859   9.615  1.00  0.00     0.022 C 
HETATM    4  C4  UNL     1       0.984   7.900   8.319  1.00  0.00     0.084 C 
HETATM    5  C5  UNL     1       2.394   8.392   8.537  1.00  0.00     0.149 C 
HETATM    6  O1  UNL     1       3.089   8.800   7.608  1.00  0.00    -0.293 OA
HETATM    7  C6  UNL     1       2.958   8.365   9.905  1.00  0.00     0.053 C 
HETATM    8  C7  UNL     1       2.290   7.817  10.935  1.00  0.00    -0.067 C 
HETATM    9  C8  UNL     1       2.828   7.900  12.333  1.00  0.00     0.035 C 
HETATM   10  C9  UNL     1       1.924   8.794  13.186  1.00  0.00     0.010 C 
HETATM   11  C10 UNL     1       0.418   8.721  12.823  1.00  0.00     0.003 C 
HETATM   12  C11 UNL     1       0.048   7.401  12.099  1.00  0.00     0.072 C 
HETATM   13  C12 UNL     1      -0.000   6.322  13.182  1.00  0.00     0.133 C 
HETATM   14  O2  UNL     1       0.756   5.359  13.248  1.00  0.00    -0.297 OA
HETATM   15  C13 UNL     1      -1.068   6.539  14.235  1.00  0.00     0.091 C 
HETATM   16  C14 UNL     1      -0.792   7.848  15.015  1.00  0.00     0.005 C 
HETATM   17  C15 UNL     1       0.352   7.565  16.006  1.00  0.00     0.019 C 
HETATM   18  C16 UNL     1      -0.486   9.027  14.046  1.00  0.00     0.002 C 
HETATM   19  C17 UNL     1      -1.880   9.530  13.607  1.00  0.00     0.009 C 
HETATM   20  C18 UNL     1      -2.892   9.019  14.631  1.00  0.00     0.047 C 
HETATM   21  C19 UNL     1      -2.079   8.349  15.751  1.00  0.00     0.128 C 
ENDROOT
BRANCH  21  22
HETATM   22  O3  UNL     1      -2.815   7.247  16.266  1.00  0.00    -0.381 OA
HETATM   23  H25 UNL     1      -3.744   7.520  16.381  1.00  0.00     0.211 HD
ENDBRANCH  21  22
BRANCH  21  24
HETATM   24  C20 UNL     1      -1.795   9.395  16.868  1.00  0.00     0.185 C 
HETATM   25  O4  UNL     1      -2.687   9.768  17.637  1.00  0.00    -0.292 OA
BRANCH  24  26
HETATM   26  C21 UNL     1      -0.375   9.950  16.951  1.00  0.00     0.260 C 
BRANCH  26  27
HETATM   27  O5  UNL     1      -0.408  11.372  17.079  1.00  0.00    -0.314 OA
BRANCH  27  28
HETATM   28  C22 UNL     1       0.691  11.895  17.685  1.00  0.00     0.259 C 
HETATM   29  O6  UNL     1       1.129  13.023  17.494  1.00  0.00    -0.265 OA
BRANCH  28  30
HETATM   30  C23 UNL     1       1.273  10.897  18.655  1.00  0.00     0.120 C 
BRANCH  30  31
HETATM   31  C24 UNL     1       1.140  11.387  20.092  1.00  0.00     0.112 C 
BRANCH  31  32
HETATM   32  C25 UNL     1       2.131  10.702  21.014  1.00  0.00     0.218 C 
HETATM   33  O7  UNL     1       2.435   9.519  20.915  1.00  0.00    -0.274 OA
HETATM   34  N1  UNL     1       2.640  11.543  21.976  1.00  0.00    -0.357 N 
HETATM   35  H32 UNL     1       2.243  12.467  22.085  1.00  0.00     0.162 HD
BRANCH  34  36
HETATM   36  C26 UNL     1       3.548  11.077  22.999  1.00  0.00     0.161 C 
BRANCH  36  37
HETATM   37  C27 UNL     1       4.815  11.893  23.010  1.00  0.00    -0.040 A 
HETATM   38  C28 UNL     1       4.768  13.294  22.998  1.00  0.00     0.010 A 
HETATM   39  C29 UNL     1       5.949  14.044  23.016  1.00  0.00     0.019 A 
HETATM   40  C30 UNL     1       7.191  13.398  23.053  1.00  0.00     0.037 A 
HETATM   41  C32 UNL     1       7.244  12.000  23.079  1.00  0.00     0.019 A 
HETATM   42  C33 UNL     1       6.063  11.254  23.060  1.00  0.00     0.010 A 
BRANCH  40  43
HETATM   43  C31 UNL     1       8.468  14.150  23.066  1.00  0.00     0.176 C 
HETATM   44  O8  UNL     1       9.311  14.143  22.188  1.00  0.00    -0.646 OA
BRANCH  43  45
HETATM   45  O9  UNL     1       8.631  14.886  24.180  1.00  0.00    -0.773 OA
HETATM   46  H37 UNL     1       9.497  15.324  24.042  1.00  0.00     0.167 HD
ENDBRANCH  43  45
ENDBRANCH  40  43
ENDBRANCH  36  37
ENDBRANCH  34  36
ENDBRANCH  31  32
ENDBRANCH  30  31
ENDBRANCH  28  30
ENDBRANCH  27  28
ENDBRANCH  26  27
ENDBRANCH  24  26
ENDBRANCH  21  24
TORSDOF 12
ENDMDL
MODEL 3
REMARK minimizedAffinity -7.49992323
REMARK CNNscore 0.514502525
REMARK CNNaffinity 6.96618652
REMARK  12 active torsions:
REMARK  status: ('A' for Active; 'I' for Inactive)
REMARK    1  A    between atoms: C19_21  and  O3_22 
REMARK    2  A    between atoms: C19_21  and  C20_23 
REMARK    3  A    between atoms: C20_23  and  C21_25 
REMARK    4  A    between atoms: C21_25  and  O5_26 
REMARK    5  A    between atoms: O5_26  and  C22_27 
REMARK    6  A    between atoms: C22_27  and  C23_29 
REMARK    7  A    between atoms: C23_29  and  C24_30 
REMARK    8  A    between atoms: C24_30  and  C25_31 
REMARK       I    between atoms: C25_31  and  N1_33 
REMARK    9  A    between atoms: N1_33  and  C26_34 
REMARK   10  A    between atoms: C26_34  and  C27_35 
REMARK   11  A    between atoms: C30_38  and  C31_39 
REMARK   12  A    between atoms: C31_39  and  O9_41 
ROOT
HETATM    1  C1  UNL     1       2.873   7.562  12.171  1.00  0.00     0.021 C 
HETATM    2  C2  UNL     1       1.547   6.937  11.682  1.00  0.00    -0.009 C 
HETATM    3  C3  UNL     1       1.801   5.426  11.387  1.00  0.00     0.022 C 
HETATM    4  C4  UNL     1       2.748   5.169  10.217  1.00  0.00     0.084 C 
HETATM    5  C5  UNL     1       2.384   5.980   8.997  1.00  0.00     0.149 C 
HETATM    6  O1  UNL     1       2.802   5.691   7.877  1.00  0.00    -0.293 OA
HETATM    7  C6  UNL     1       1.511   7.165   9.160  1.00  0.00     0.053 C 
HETATM    8  C7  UNL     1       1.125   7.598  10.372  1.00  0.00    -0.067 C 
HETATM    9  C8  UNL     1       0.151   8.731  10.511  1.00  0.00     0.035 C 
HETATM   10  C9  UNL     1      -1.167   8.215  11.094  1.00  0.00     0.010 C 
HETATM   11  C10 UNL     1      -1.011   7.056  12.112  1.00  0.00     0.003 C 
HETATM   12  C11 UNL     1       0.399   7.022  12.758  1.00  0.00     0.072 C 
HETATM   13  C12 UNL     1       0.416   8.144  13.796  1.00  0.00     0.133 C 
HETATM   14  O2  UNL     1       1.133   9.138  13.744  1.00  0.00    -0.297 OA
HETATM   15  C13 UNL     1      -0.573   7.963  14.931  1.00  0.00     0.091 C 
HETATM   16  C14 UNL     1      -2.021   7.975  14.385  1.00  0.00     0.005 C 
HETATM   17  C15 UNL     1      -2.393   9.439  14.083  1.00  0.00     0.019 C 
HETATM   18  C16 UNL     1      -2.165   7.039  13.149  1.00  0.00     0.002 C 
HETATM   19  C17 UNL     1      -2.357   5.632  13.758  1.00  0.00     0.009 C 
HETATM   20  C18 UNL     1      -2.800   5.819  15.209  1.00  0.00     0.047 C 
HETATM   21  C19 UNL     1      -3.015   7.329  15.407  1.00  0.00     0.128 C 
ENDROOT
BRANCH  21  22
HETATM   22  O3  UNL     1      -2.655   7.681  16.736  1.00  0.00    -0.381 OA
HETATM   23  H25 UNL     1      -3.022   7.012  17.345  1.00  0.00     0.211 HD
ENDBRANCH  21  22
BRANCH  21  24
HETATM   24  C20 UNL     1      -4.509   7.670  15.130  1.00  0.00     0.185 C 
HETATM   25  O4  UNL     1      -4.930   8.827  15.228  1.00  0.00    -0.292 OA
BRANCH  24  26
HETATM   26  C21 UNL     1      -5.426   6.507  14.757  1.00  0.00     0.260 C 
BRANCH  26  27
HETATM   27  O5  UNL     1      -6.690   6.999  14.309  1.00  0.00    -0.314 OA
BRANCH  27  28
HETATM   28  C22 UNL     1      -7.709   6.113  14.459  1.00  0.00     0.259 C 
HETATM   29  O6  UNL     1      -7.636   4.912  14.231  1.00  0.00    -0.265 OA
BRANCH  28  30
HETATM   30  C23 UNL     1      -8.936   6.818  14.982  1.00  0.00     0.120 C 
BRANCH  30  31
HETATM   31  C24 UNL     1      -8.756   8.330  14.945  1.00  0.00     0.112 C 
BRANCH  31  32
HETATM   32  C25 UNL     1      -9.652   9.029  15.950  1.00  0.00     0.218 C 
HETATM   33  O7  UNL     1      -9.923   8.560  17.049  1.00  0.00    -0.274 OA
HETATM   34  N1  UNL     1     -10.135  10.234  15.494  1.00  0.00    -0.357 N 
HETATM   35  H32 UNL     1      -9.982  10.494  14.528  1.00  0.00     0.162 HD
BRANCH  34  36
HETATM   36  C26 UNL     1     -11.061  11.030  16.266  1.00  0.00     0.161 C 
BRANCH  36  37
HETATM   37  C27 UNL     1     -10.328  11.943  17.215  1.00  0.00    -0.040 A 
HETATM   38  C28 UNL     1      -9.364  12.845  16.745  1.00  0.00     0.010 A 
HETATM   39  C29 UNL     1      -8.694  13.695  17.632  1.00  0.00     0.019 A 
HETATM   40  C30 UNL     1      -8.987  13.653  19.002  1.00  0.00     0.037 A 
HETATM   41  C32 UNL     1      -9.957  12.762  19.475  1.00  0.00     0.019 A 
HETATM   42  C33 UNL     1     -10.624  11.915  18.586  1.00  0.00     0.010 A 
BRANCH  40  43
HETATM   43  C31 UNL     1      -8.298  14.527  19.980  1.00  0.00     0.176 C 
HETATM   44  O8  UNL     1      -8.725  14.853  21.072  1.00  0.00    -0.646 OA
BRANCH  43  45
HETATM   45  O9  UNL     1      -7.096  14.950  19.549  1.00  0.00    -0.773 OA
HETATM   46  H37 UNL     1      -6.765  15.498  20.291  1.00  0.00     0.167 HD
ENDBRANCH  43  45
ENDBRANCH  40  43
ENDBRANCH  36  37
ENDBRANCH  34  36
ENDBRANCH  31  32
ENDBRANCH  30  31
ENDBRANCH  28  30
ENDBRANCH  27  28
ENDBRANCH  26  27
ENDBRANCH  24  26
ENDBRANCH  21  24
TORSDOF 12
ENDMDL
MODEL 4
REMARK minimizedAffinity -8.59673691
REMARK CNNscore 0.500291884
REMARK CNNaffinity 6.51847792
REMARK  12 active torsions:
REMARK  status: ('A' for Active; 'I' for Inactive)
REMARK    1  A    between atoms: C19_21  and  O3_22 
REMARK    2  A    between atoms: C19_21  and  C20_23 
REMARK    3  A    between atoms: C20_23  and  C21_25 
REMARK    4  A    between atoms: C21_25  and  O5_26 
REMARK    5  A    between atoms: O5_26  and  C22_27 
REMARK    6  A    between atoms: C22_27  and  C23_29 
REMARK    7  A    between atoms: C23_29  and  C24_30 
REMARK    8  A    between atoms: C24_30  and  C25_31 
REMARK       I    between atoms: C25_31  and  N1_33 
REMARK    9  A    between atoms: N1_33  and  C26_34 
REMARK   10  A    between atoms: C26_34  and  C27_35 
REMARK   11  A    between atoms: C30_38  and  C31_39 
REMARK   12  A    between atoms: C31_39  and  O9_41 
ROOT
HETATM    1  C1  UNL     1      -5.000   4.920  13.423  1.00  0.00     0.021 C 
HETATM    2  C2  UNL     1      -4.680   6.164  14.281  1.00  0.00    -0.009 C 
HETATM    3  C3  UNL     1      -5.223   5.913  15.723  1.00  0.00     0.022 C 
HETATM    4  C4  UNL     1      -6.745   5.824  15.810  1.00  0.00     0.084 C 
HETATM    5  C5  UNL     1      -7.428   6.959  15.086  1.00  0.00     0.149 C 
HETATM    6  O1  UNL     1      -8.603   7.251  15.301  1.00  0.00    -0.293 OA
HETATM    7  C6  UNL     1      -6.663   7.728  14.079  1.00  0.00     0.053 C 
HETATM    8  C7  UNL     1      -5.418   7.376  13.717  1.00  0.00    -0.067 C 
HETATM    9  C8  UNL     1      -4.617   8.232  12.779  1.00  0.00     0.035 C 
HETATM   10  C9  UNL     1      -3.430   8.848  13.523  1.00  0.00     0.010 C 
HETATM   11  C10 UNL     1      -2.823   7.946  14.628  1.00  0.00     0.003 C 
HETATM   12  C11 UNL     1      -3.134   6.443  14.401  1.00  0.00     0.072 C 
HETATM   13  C12 UNL     1      -2.193   5.980  13.288  1.00  0.00     0.133 C 
HETATM   14  O2  UNL     1      -2.552   5.594  12.181  1.00  0.00    -0.297 OA
HETATM   15  C13 UNL     1      -0.721   6.058  13.639  1.00  0.00     0.091 C 
HETATM   16  C14 UNL     1      -0.309   7.528  13.895  1.00  0.00     0.005 C 
HETATM   17  C15 UNL     1      -0.182   8.220  12.525  1.00  0.00     0.019 C 
HETATM   18  C16 UNL     1      -1.316   8.237  14.849  1.00  0.00     0.002 C 
HETATM   19  C17 UNL     1      -0.859   7.816  16.263  1.00  0.00     0.009 C 
HETATM   20  C18 UNL     1       0.585   7.330  16.151  1.00  0.00     0.047 C 
HETATM   21  C19 UNL     1       1.027   7.608  14.705  1.00  0.00     0.128 C 
ENDROOT
BRANCH  21  22
HETATM   22  O3  UNL     1       1.921   6.585  14.286  1.00  0.00    -0.381 OA
HETATM   23  H25 UNL     1       2.556   6.412  15.006  1.00  0.00     0.211 HD
ENDBRANCH  21  22
BRANCH  21  24
HETATM   24  C20 UNL     1       1.715   9.003  14.643  1.00  0.00     0.185 C 
HETATM   25  O4  UNL     1       2.809   9.153  14.088  1.00  0.00    -0.292 OA
BRANCH  24  26
HETATM   26  C21 UNL     1       0.988  10.163  15.319  1.00  0.00     0.260 C 
BRANCH  26  27
HETATM   27  O5  UNL     1       1.652  10.523  16.532  1.00  0.00    -0.314 OA
BRANCH  27  28
HETATM   28  C22 UNL     1       0.810  10.915  17.524  1.00  0.00     0.259 C 
HETATM   29  O6  UNL     1      -0.279  10.407  17.764  1.00  0.00    -0.265 OA
BRANCH  28  30
HETATM   30  C23 UNL     1       1.425  12.046  18.310  1.00  0.00     0.120 C 
BRANCH  30  31
HETATM   31  C24 UNL     1       0.794  12.158  19.693  1.00  0.00     0.112 C 
BRANCH  31  32
HETATM   32  C25 UNL     1       1.502  11.280  20.707  1.00  0.00     0.218 C 
HETATM   33  O7  UNL     1       1.286  10.080  20.824  1.00  0.00    -0.274 OA
HETATM   34  N1  UNL     1       2.400  11.974  21.485  1.00  0.00    -0.357 N 
HETATM   35  H32 UNL     1       2.427  12.983  21.427  1.00  0.00     0.162 HD
BRANCH  34  36
HETATM   36  C26 UNL     1       3.132  11.342  22.559  1.00  0.00     0.161 C 
BRANCH  36  37
HETATM   37  C27 UNL     1       4.473  11.998  22.758  1.00  0.00    -0.040 A 
HETATM   38  C28 UNL     1       5.618  11.232  23.018  1.00  0.00     0.010 A 
HETATM   39  C29 UNL     1       6.861  11.848  23.194  1.00  0.00     0.019 A 
HETATM   40  C30 UNL     1       6.973  13.242  23.107  1.00  0.00     0.037 A 
HETATM   41  C32 UNL     1       5.836  14.012  22.836  1.00  0.00     0.019 A 
HETATM   42  C33 UNL     1       4.596  13.393  22.661  1.00  0.00     0.010 A 
BRANCH  40  43
HETATM   43  C31 UNL     1       8.267  13.940  23.295  1.00  0.00     0.176 C 
HETATM   44  O8  UNL     1       8.440  15.145  23.263  1.00  0.00    -0.646 OA
BRANCH  43  45
HETATM   45  O9  UNL     1       9.289  13.096  23.522  1.00  0.00    -0.773 OA
HETATM   46  H37 UNL     1      10.059  13.692  23.632  1.00  0.00     0.167 HD
ENDBRANCH  43  45
ENDBRANCH  40  43
ENDBRANCH  36  37
ENDBRANCH  34  36
ENDBRANCH  31  32
ENDBRANCH  30  31
ENDBRANCH  28  30
ENDBRANCH  27  28
ENDBRANCH  26  27
ENDBRANCH  24  26
ENDBRANCH  21  24
TORSDOF 12
ENDMDL
MODEL 5
REMARK minimizedAffinity -9.91156864
REMARK CNNscore 0.48491469
REMARK CNNaffinity 7.21666002
REMARK  12 active torsions:
REMARK  status: ('A' for Active; 'I' for Inactive)
REMARK    1  A    between atoms: C19_21  and  O3_22 
REMARK    2  A    between atoms: C19_21  and  C20_23 
REMARK    3  A    between atoms: C20_23  and  C21_25 
REMARK    4  A    between atoms: C21_25  and  O5_26 
REMARK    5  A    between atoms: O5_26  and  C22_27 
REMARK    6  A    between atoms: C22_27  and  C23_29 
REMARK    7  A    between atoms: C23_29  and  C24_30 
REMARK    8  A    between atoms: C24_30  and  C25_31 
REMARK       I    between atoms: C25_31  and  N1_33 
REMARK    9  A    between atoms: N1_33  and  C26_34 
REMARK   10  A    between atoms: C26_34  and  C27_35 
REMARK   11  A    between atoms: C30_38  and  C31_39 
REMARK   12  A    between atoms: C31_39  and  O9_41 
ROOT
HETATM    1  C1  UNL     1       4.351   6.338  10.857  1.00  0.00     0.021 C 
HETATM    2  C2  UNL     1       2.913   5.905  10.499  1.00  0.00    -0.009 C 
HETATM    3  C3  UNL     1       2.913   4.362  10.265  1.00  0.00     0.022 C 
HETATM    4  C4  UNL     1       3.714   3.916   9.044  1.00  0.00     0.084 C 
HETATM    5  C5  UNL     1       3.380   4.723   7.813  1.00  0.00     0.149 C 
HETATM    6  O1  UNL     1       3.660   4.327   6.683  1.00  0.00    -0.293 OA
HETATM    7  C6  UNL     1       2.710   6.033   7.977  1.00  0.00     0.053 C 
HETATM    8  C7  UNL     1       2.491   6.568   9.189  1.00  0.00    -0.067 C 
HETATM    9  C8  UNL     1       1.712   7.842   9.340  1.00  0.00     0.035 C 
HETATM   10  C9  UNL     1       0.382   7.558  10.043  1.00  0.00     0.010 C 
HETATM   11  C10 UNL     1       0.443   6.431  11.106  1.00  0.00     0.003 C 
HETATM   12  C11 UNL     1       1.878   6.208  11.649  1.00  0.00     0.072 C 
HETATM   13  C12 UNL     1       2.146   7.356  12.623  1.00  0.00     0.133 C 
HETATM   14  O2  UNL     1       2.997   8.225  12.468  1.00  0.00    -0.297 OA
HETATM   15  C13 UNL     1       1.235   7.374  13.834  1.00  0.00     0.091 C 
HETATM   16  C14 UNL     1      -0.234   7.585  13.395  1.00  0.00     0.005 C 
HETATM   17  C15 UNL     1      -0.405   9.075  13.045  1.00  0.00     0.019 C 
HETATM   18  C16 UNL     1      -0.614   6.633  12.223  1.00  0.00     0.002 C 
HETATM   19  C17 UNL     1      -0.966   5.298  12.917  1.00  0.00     0.009 C 
HETATM   20  C18 UNL     1      -1.258   5.610  14.384  1.00  0.00     0.047 C 
HETATM   21  C19 UNL     1      -1.229   7.141  14.518  1.00  0.00     0.128 C 
ENDROOT
BRANCH  21  22
HETATM   22  O3  UNL     1      -0.716   7.487  15.798  1.00  0.00    -0.381 OA
HETATM   23  H25 UNL     1      -1.129   6.908  16.466  1.00  0.00     0.211 HD
ENDBRANCH  21  22
BRANCH  21  24
HETATM   24  C20 UNL     1      -2.672   7.695  14.333  1.00  0.00     0.185 C 
HETATM   25  O4  UNL     1      -2.940   8.876  14.577  1.00  0.00    -0.292 OA
BRANCH  24  26
HETATM   26  C21 UNL     1      -3.737   6.708  13.861  1.00  0.00     0.260 C 
BRANCH  26  27
HETATM   27  O5  UNL     1      -4.890   6.785  14.701  1.00  0.00    -0.314 OA
BRANCH  27  28
HETATM   28  C22 UNL     1      -6.011   6.255  14.146  1.00  0.00     0.259 C 
HETATM   29  O6  UNL     1      -6.664   6.775  13.249  1.00  0.00    -0.265 OA
BRANCH  28  30
HETATM   30  C23 UNL     1      -6.317   4.917  14.771  1.00  0.00     0.120 C 
BRANCH  30  31
HETATM   31  C24 UNL     1      -7.659   4.381  14.286  1.00  0.00     0.112 C 
BRANCH  31  32
HETATM   32  C25 UNL     1      -7.503   3.496  13.063  1.00  0.00     0.218 C 
HETATM   33  O7  UNL     1      -8.165   2.481  12.879  1.00  0.00    -0.274 OA
HETATM   34  N1  UNL     1      -6.537   3.946  12.194  1.00  0.00    -0.357 N 
HETATM   35  H32 UNL     1      -5.937   4.709  12.474  1.00  0.00     0.162 HD
BRANCH  34  36
HETATM   36  C26 UNL     1      -6.180   3.214  11.000  1.00  0.00     0.161 C 
BRANCH  36  37
HETATM   37  C27 UNL     1      -4.714   2.864  10.998  1.00  0.00    -0.040 A 
HETATM   38  C28 UNL     1      -3.792   3.633  10.275  1.00  0.00     0.010 A 
HETATM   39  C29 UNL     1      -2.432   3.306  10.284  1.00  0.00     0.019 A 
HETATM   40  C30 UNL     1      -1.979   2.207  11.025  1.00  0.00     0.037 A 
HETATM   41  C32 UNL     1      -2.892   1.443  11.760  1.00  0.00     0.019 A 
HETATM   42  C33 UNL     1      -4.250   1.772  11.748  1.00  0.00     0.010 A 
BRANCH  40  43
HETATM   43  C31 UNL     1      -0.549   1.818  11.059  1.00  0.00     0.176 C 
HETATM   44  O8  UNL     1       0.381   2.538  11.373  1.00  0.00    -0.646 OA
BRANCH  43  45
HETATM   45  O9  UNL     1      -0.347   0.536  10.705  1.00  0.00    -0.773 OA
HETATM   46  H37 UNL     1       0.624   0.426  10.784  1.00  0.00     0.167 HD
ENDBRANCH  43  45
ENDBRANCH  40  43
ENDBRANCH  36  37
ENDBRANCH  34  36
ENDBRANCH  31  32
ENDBRANCH  30  31
ENDBRANCH  28  30
ENDBRANCH  27  28
ENDBRANCH  26  27
ENDBRANCH  24  26
ENDBRANCH  21  24
TORSDOF 12
ENDMDL
MODEL 6
REMARK minimizedAffinity -7.79082441
REMARK CNNscore 0.47920841
REMARK CNNaffinity 5.97292137
REMARK  12 active torsions:
REMARK  status: ('A' for Active; 'I' for Inactive)
REMARK    1  A    between atoms: C19_21  and  O3_22 
REMARK    2  A    between atoms: C19_21  and  C20_23 
REMARK    3  A    between atoms: C20_23  and  C21_25 
REMARK    4  A    between atoms: C21_25  and  O5_26 
REMARK    5  A    between atoms: O5_26  and  C22_27 
REMARK    6  A    between atoms: C22_27  and  C23_29 
REMARK    7  A    between atoms: C23_29  and  C24_30 
REMARK    8  A    between atoms: C24_30  and  C25_31 
REMARK       I    between atoms: C25_31  and  N1_33 
REMARK    9  A    between atoms: N1_33  and  C26_34 
REMARK   10  A    between atoms: C26_34  and  C27_35 
REMARK   11  A    between atoms: C30_38  and  C31_39 
REMARK   12  A    between atoms: C31_39  and  O9_41 
ROOT
HETATM    1  C1  UNL     1     -16.205  -3.114  10.575  1.00  0.00     0.021 C 
HETATM    2  C2  UNL     1     -16.499  -3.503  12.041  1.00  0.00    -0.009 C 
HETATM    3  C3  UNL     1     -17.799  -4.366  12.065  1.00  0.00     0.022 C 
HETATM    4  C4  UNL     1     -19.059  -3.607  11.658  1.00  0.00     0.084 C 
HETATM    5  C5  UNL     1     -19.188  -2.284  12.374  1.00  0.00     0.149 C 
HETATM    6  O1  UNL     1     -20.259  -1.682  12.437  1.00  0.00    -0.293 OA
HETATM    7  C6  UNL     1     -17.986  -1.690  13.001  1.00  0.00     0.053 C 
HETATM    8  C7  UNL     1     -16.769  -2.241  12.859  1.00  0.00    -0.067 C 
HETATM    9  C8  UNL     1     -15.583  -1.689  13.594  1.00  0.00     0.035 C 
HETATM   10  C9  UNL     1     -15.103  -2.699  14.639  1.00  0.00     0.010 C 
HETATM   11  C10 UNL     1     -15.271  -4.184  14.226  1.00  0.00     0.003 C 
HETATM   12  C11 UNL     1     -15.348  -4.364  12.688  1.00  0.00     0.072 C 
HETATM   13  C12 UNL     1     -13.915  -4.221  12.172  1.00  0.00     0.133 C 
HETATM   14  O2  UNL     1     -13.521  -3.324  11.434  1.00  0.00    -0.297 OA
HETATM   15  C13 UNL     1     -12.959  -5.284  12.674  1.00  0.00     0.091 C 
HETATM   16  C14 UNL     1     -12.819  -5.194  14.213  1.00  0.00     0.005 C 
HETATM   17  C15 UNL     1     -11.902  -3.996  14.526  1.00  0.00     0.019 C 
HETATM   18  C16 UNL     1     -14.212  -5.095  14.901  1.00  0.00     0.002 C 
HETATM   19  C17 UNL     1     -14.698  -6.559  14.986  1.00  0.00     0.009 C 
HETATM   20  C18 UNL     1     -13.471  -7.457  14.830  1.00  0.00     0.047 C 
HETATM   21  C19 UNL     1     -12.249  -6.524  14.808  1.00  0.00     0.128 C 
ENDROOT
BRANCH  21  22
HETATM   22  O3  UNL     1     -11.262  -7.070  13.942  1.00  0.00    -0.381 OA
HETATM   23  H25 UNL     1     -11.191  -8.027  14.116  1.00  0.00     0.211 HD
ENDBRANCH  21  22
BRANCH  21  24
HETATM   24  C20 UNL     1     -11.695  -6.377  16.255  1.00  0.00     0.185 C 
HETATM   25  O4  UNL     1     -11.461  -5.266  16.741  1.00  0.00    -0.292 OA
BRANCH  24  26
HETATM   26  C21 UNL     1     -11.433  -7.667  17.029  1.00  0.00     0.260 C 
BRANCH  26  27
HETATM   27  O5  UNL     1     -10.305  -8.352  16.483  1.00  0.00    -0.314 OA
BRANCH  27  28
HETATM   28  C22 UNL     1     -10.506  -9.683  16.299  1.00  0.00     0.259 C 
HETATM   29  O6  UNL     1      -9.826 -10.404  15.580  1.00  0.00    -0.265 OA
BRANCH  28  30
HETATM   30  C23 UNL     1     -11.669 -10.153  17.137  1.00  0.00     0.120 C 
BRANCH  30  31
HETATM   31  C24 UNL     1     -11.249 -11.279  18.074  1.00  0.00     0.112 C 
BRANCH  31  32
HETATM   32  C25 UNL     1     -11.059 -10.787  19.497  1.00  0.00     0.218 C 
HETATM   33  O7  UNL     1     -11.982 -10.656  20.292  1.00  0.00    -0.274 OA
HETATM   34  N1  UNL     1      -9.748 -10.495  19.794  1.00  0.00    -0.357 N 
HETATM   35  H32 UNL     1      -9.061 -10.495  19.052  1.00  0.00     0.162 HD
BRANCH  34  36
HETATM   36  C26 UNL     1      -9.357  -9.946  21.072  1.00  0.00     0.161 C 
BRANCH  36  37
HETATM   37  C27 UNL     1      -8.906 -11.035  22.012  1.00  0.00    -0.040 A 
HETATM   38  C28 UNL     1      -7.723 -10.901  22.752  1.00  0.00     0.010 A 
HETATM   39  C29 UNL     1      -7.316 -11.913  23.629  1.00  0.00     0.019 A 
HETATM   40  C30 UNL     1      -8.093 -13.069  23.777  1.00  0.00     0.037 A 
HETATM   41  C32 UNL     1      -9.281 -13.202  23.051  1.00  0.00     0.019 A 
HETATM   42  C33 UNL     1      -9.685 -12.190  22.176  1.00  0.00     0.010 A 
BRANCH  40  43
HETATM   43  C31 UNL     1      -7.698 -14.170  24.687  1.00  0.00     0.176 C 
HETATM   44  O8  UNL     1      -8.300 -14.525  25.684  1.00  0.00    -0.646 OA
BRANCH  43  45
HETATM   45  O9  UNL     1      -6.566 -14.786  24.303  1.00  0.00    -0.773 OA
HETATM   46  H37 UNL     1      -6.440 -15.481  24.982  1.00  0.00     0.167 HD
ENDBRANCH  43  45
ENDBRANCH  40  43
ENDBRANCH  36  37
ENDBRANCH  34  36
ENDBRANCH  31  32
ENDBRANCH  30  31
ENDBRANCH  28  30
ENDBRANCH  27  28
ENDBRANCH  26  27
ENDBRANCH  24  26
ENDBRANCH  21  24
TORSDOF 12
ENDMDL
MODEL 7
REMARK minimizedAffinity -9.21909523
REMARK CNNscore 0.464051247
REMARK CNNaffinity 7.2773118
REMARK  12 active torsions:
REMARK  status: ('A' for Active; 'I' for Inactive)
REMARK    1  A    between atoms: C19_21  and  O3_22 
REMARK    2  A    between atoms: C19_21  and  C20_23 
REMARK    3  A    between atoms: C20_23  and  C21_25 
REMARK    4  A    between atoms: C21_25  and  O5_26 
REMARK    5  A    between atoms: O5_26  and  C22_27 
REMARK    6  A    between atoms: C22_27  and  C23_29 
REMARK    7  A    between atoms: C23_29  and  C24_30 
REMARK    8  A    between atoms: C24_30  and  C25_31 
REMARK       I    between atoms: C25_31  and  N1_33 
REMARK    9  A    between atoms: N1_33  and  C26_34 
REMARK   10  A    between atoms: C26_34  and  C27_35 
REMARK   11  A    between atoms: C30_38  and  C31_39 
REMARK   12  A    between atoms: C31_39  and  O9_41 
ROOT
HETATM    1  C1  UNL     1       1.489   5.175  11.222  1.00  0.00     0.021 C 
HETATM    2  C2  UNL     1       0.899   6.602  11.227  1.00  0.00    -0.009 C 
HETATM    3  C3  UNL     1       0.529   6.981   9.758  1.00  0.00     0.022 C 
HETATM    4  C4  UNL     1       1.732   7.117   8.828  1.00  0.00     0.084 C 
HETATM    5  C5  UNL     1       2.826   7.968   9.425  1.00  0.00     0.149 C 
HETATM    6  O1  UNL     1       3.716   8.460   8.733  1.00  0.00    -0.293 OA
HETATM    7  C6  UNL     1       2.833   8.202  10.887  1.00  0.00     0.053 C 
HETATM    8  C7  UNL     1       1.959   7.591  11.705  1.00  0.00    -0.067 C 
HETATM    9  C8  UNL     1       1.909   7.926  13.167  1.00  0.00     0.035 C 
HETATM   10  C9  UNL     1       0.589   8.629  13.494  1.00  0.00     0.010 C 
HETATM   11  C10 UNL     1      -0.623   8.144  12.659  1.00  0.00     0.003 C 
HETATM   12  C11 UNL     1      -0.416   6.717  12.089  1.00  0.00     0.072 C 
HETATM   13  C12 UNL     1      -0.639   5.757  13.258  1.00  0.00     0.133 C 
HETATM   14  O2  UNL     1       0.220   5.028  13.742  1.00  0.00    -0.297 OA
HETATM   15  C13 UNL     1      -2.042   5.783  13.831  1.00  0.00     0.091 C 
HETATM   16  C14 UNL     1      -2.353   7.180  14.422  1.00  0.00     0.005 C 
HETATM   17  C15 UNL     1      -1.627   7.283  15.777  1.00  0.00     0.019 C 
HETATM   18  C16 UNL     1      -1.959   8.312  13.429  1.00  0.00     0.002 C 
HETATM   19  C17 UNL     1      -3.161   8.404  12.462  1.00  0.00     0.009 C 
HETATM   20  C18 UNL     1      -4.353   7.741  13.152  1.00  0.00     0.047 C 
HETATM   21  C19 UNL     1      -3.895   7.397  14.578  1.00  0.00     0.128 C 
ENDROOT
BRANCH  21  22
HETATM   22  O3  UNL     1      -4.524   6.192  14.993  1.00  0.00    -0.381 OA
HETATM   23  H25 UNL     1      -5.465   6.228  14.736  1.00  0.00     0.211 HD
ENDBRANCH  21  22
BRANCH  21  24
HETATM   24  C20 UNL     1      -4.269   8.571  15.530  1.00  0.00     0.185 C 
HETATM   25  O4  UNL     1      -3.404   9.179  16.168  1.00  0.00    -0.292 OA
BRANCH  24  26
HETATM   26  C21 UNL     1      -5.752   8.916  15.652  1.00  0.00     0.260 C 
BRANCH  26  27
HETATM   27  O5  UNL     1      -6.452   7.860  16.311  1.00  0.00    -0.314 OA
BRANCH  27  28
HETATM   28  C22 UNL     1      -7.724   7.683  15.867  1.00  0.00     0.259 C 
HETATM   29  O6  UNL     1      -8.725   7.706  16.573  1.00  0.00    -0.265 OA
BRANCH  28  30
HETATM   30  C23 UNL     1      -7.729   7.487  14.371  1.00  0.00     0.120 C 
BRANCH  30  31
HETATM   31  C24 UNL     1      -8.754   6.436  13.960  1.00  0.00     0.112 C 
BRANCH  31  32
HETATM   32  C25 UNL     1      -8.212   5.029  14.120  1.00  0.00     0.218 C 
HETATM   33  O7  UNL     1      -7.702   4.619  15.156  1.00  0.00    -0.274 OA
HETATM   34  N1  UNL     1      -8.343   4.269  12.981  1.00  0.00    -0.357 N 
HETATM   35  H32 UNL     1      -8.647   4.711  12.124  1.00  0.00     0.162 HD
BRANCH  34  36
HETATM   36  C26 UNL     1      -7.831   2.921  12.896  1.00  0.00     0.161 C 
BRANCH  36  37
HETATM   37  C27 UNL     1      -6.411   2.913  12.390  1.00  0.00    -0.040 A 
HETATM   38  C28 UNL     1      -5.601   4.051  12.504  1.00  0.00     0.010 A 
HETATM   39  C29 UNL     1      -4.282   4.033  12.039  1.00  0.00     0.019 A 
HETATM   40  C30 UNL     1      -3.757   2.871  11.458  1.00  0.00     0.037 A 
HETATM   41  C32 UNL     1      -4.557   1.728  11.352  1.00  0.00     0.019 A 
HETATM   42  C33 UNL     1      -5.874   1.750  11.818  1.00  0.00     0.010 A 
BRANCH  40  43
HETATM   43  C31 UNL     1      -2.369   2.807  10.943  1.00  0.00     0.176 C 
HETATM   44  O8  UNL     1      -1.358   2.743  11.619  1.00  0.00    -0.646 OA
BRANCH  43  45
HETATM   45  O9  UNL     1      -2.307   2.818   9.600  1.00  0.00    -0.773 OA
HETATM   46  H37 UNL     1      -1.346   2.763   9.413  1.00  0.00     0.167 HD
ENDBRANCH  43  45
ENDBRANCH  40  43
ENDBRANCH  36  37
ENDBRANCH  34  36
ENDBRANCH  31  32
ENDBRANCH  30  31
ENDBRANCH  28  30
ENDBRANCH  27  28
ENDBRANCH  26  27
ENDBRANCH  24  26
ENDBRANCH  21  24
TORSDOF 12
ENDMDL
MODEL 8
REMARK minimizedAffinity -8.6582365
REMARK CNNscore 0.452890337
REMARK CNNaffinity 6.87436676
REMARK  12 active torsions:
REMARK  status: ('A' for Active; 'I' for Inactive)
REMARK    1  A    between atoms: C19_21  and  O3_22 
REMARK    2  A    between atoms: C19_21  and  C20_23 
REMARK    3  A    between atoms: C20_23  and  C21_25 
REMARK    4  A    between atoms: C21_25  and  O5_26 
REMARK    5  A    between atoms: O5_26  and  C22_27 
REMARK    6  A    between atoms: C22_27  and  C23_29 
REMARK    7  A    between atoms: C23_29  and  C24_30 
REMARK    8  A    between atoms: C24_30  and  C25_31 
REMARK       I    between atoms: C25_31  and  N1_33 
REMARK    9  A    between atoms: N1_33  and  C26_34 
REMARK   10  A    between atoms: C26_34  and  C27_35 
REMARK   11  A    between atoms: C30_38  and  C31_39 
REMARK   12  A    between atoms: C31_39  and  O9_41 
ROOT
HETATM    1  C1  UNL     1       4.454   6.421  10.344  1.00  0.00     0.021 C 
HETATM    2  C2  UNL     1       3.035   5.866  10.092  1.00  0.00    -0.009 C 
HETATM    3  C3  UNL     1       3.135   4.314   9.961  1.00  0.00     0.022 C 
HETATM    4  C4  UNL     1       3.906   3.841   8.731  1.00  0.00     0.084 C 
HETATM    5  C5  UNL     1       3.455   4.536   7.469  1.00  0.00     0.149 C 
HETATM    6  O1  UNL     1       3.708   4.084   6.354  1.00  0.00    -0.293 OA
HETATM    7  C6  UNL     1       2.701   5.806   7.582  1.00  0.00     0.053 C 
HETATM    8  C7  UNL     1       2.504   6.407   8.767  1.00  0.00    -0.067 C 
HETATM    9  C8  UNL     1       1.643   7.632   8.874  1.00  0.00     0.035 C 
HETATM   10  C9  UNL     1       0.373   7.307   9.664  1.00  0.00     0.010 C 
HETATM   11  C10 UNL     1       0.566   6.263  10.794  1.00  0.00     0.003 C 
HETATM   12  C11 UNL     1       2.038   6.177  11.273  1.00  0.00     0.072 C 
HETATM   13  C12 UNL     1       2.270   7.405  12.155  1.00  0.00     0.133 C 
HETATM   14  O2  UNL     1       3.048   8.318  11.897  1.00  0.00    -0.297 OA
HETATM   15  C13 UNL     1       1.420   7.445  13.409  1.00  0.00     0.091 C 
HETATM   16  C14 UNL     1      -0.081   7.524  13.036  1.00  0.00     0.005 C 
HETATM   17  C15 UNL     1      -0.375   8.971  12.598  1.00  0.00     0.019 C 
HETATM   18  C16 UNL     1      -0.447   6.469  11.951  1.00  0.00     0.002 C 
HETATM   19  C17 UNL     1      -0.668   5.165  12.749  1.00  0.00     0.009 C 
HETATM   20  C18 UNL     1      -0.911   5.557  14.205  1.00  0.00     0.047 C 
HETATM   21  C19 UNL     1      -0.985   7.092  14.237  1.00  0.00     0.128 C 
ENDROOT
BRANCH  21  22
HETATM   22  O3  UNL     1      -0.437   7.560  15.462  1.00  0.00    -0.381 OA
HETATM   23  H25 UNL     1      -0.774   7.002  16.188  1.00  0.00     0.211 HD
ENDBRANCH  21  22
BRANCH  21  24
HETATM   24  C20 UNL     1      -2.472   7.532  14.093  1.00  0.00     0.185 C 
HETATM   25  O4  UNL     1      -2.988   7.688  12.982  1.00  0.00    -0.292 OA
BRANCH  24  26
HETATM   26  C21 UNL     1      -3.247   7.783  15.384  1.00  0.00     0.260 C 
BRANCH  26  27
HETATM   27  O5  UNL     1      -4.183   6.728  15.611  1.00  0.00    -0.314 OA
BRANCH  27  28
HETATM   28  C22 UNL     1      -5.352   6.876  14.933  1.00  0.00     0.259 C 
HETATM   29  O6  UNL     1      -5.619   6.334  13.867  1.00  0.00    -0.265 OA
BRANCH  28  30
HETATM   30  C23 UNL     1      -6.287   7.777  15.700  1.00  0.00     0.120 C 
BRANCH  30  31
HETATM   31  C24 UNL     1      -7.231   6.965  16.579  1.00  0.00     0.112 C 
BRANCH  31  32
HETATM   32  C25 UNL     1      -8.289   6.251  15.760  1.00  0.00     0.218 C 
HETATM   33  O7  UNL     1      -8.306   5.037  15.594  1.00  0.00    -0.274 OA
HETATM   34  N1  UNL     1      -9.218   7.108  15.217  1.00  0.00    -0.357 N 
HETATM   35  H32 UNL     1      -9.066   8.106  15.280  1.00  0.00     0.162 HD
BRANCH  34  36
HETATM   36  C26 UNL     1     -10.272   6.643  14.346  1.00  0.00     0.161 C 
BRANCH  36  37
HETATM   37  C27 UNL     1     -11.183   7.775  13.947  1.00  0.00    -0.040 A 
HETATM   38  C28 UNL     1     -10.835   9.106  14.214  1.00  0.00     0.010 A 
HETATM   39  C29 UNL     1     -11.683  10.152  13.834  1.00  0.00     0.019 A 
HETATM   40  C30 UNL     1     -12.888   9.876  13.176  1.00  0.00     0.037 A 
HETATM   41  C32 UNL     1     -13.236   8.550  12.895  1.00  0.00     0.019 A 
HETATM   42  C33 UNL     1     -12.387   7.508  13.277  1.00  0.00     0.010 A 
BRANCH  40  43
HETATM   43  C31 UNL     1     -13.822  10.950  12.761  1.00  0.00     0.176 C 
HETATM   44  O8  UNL     1     -15.009  11.007  13.025  1.00  0.00    -0.646 OA
BRANCH  43  45
HETATM   45  O9  UNL     1     -13.224  11.913  12.037  1.00  0.00    -0.773 OA
HETATM   46  H37 UNL     1     -13.950  12.544  11.848  1.00  0.00     0.167 HD
ENDBRANCH  43  45
ENDBRANCH  40  43
ENDBRANCH  36  37
ENDBRANCH  34  36
ENDBRANCH  31  32
ENDBRANCH  30  31
ENDBRANCH  28  30
ENDBRANCH  27  28
ENDBRANCH  26  27
ENDBRANCH  24  26
ENDBRANCH  21  24
TORSDOF 12
ENDMDL
MODEL 9
REMARK minimizedAffinity -7.92816687
REMARK CNNscore 0.44946298
REMARK CNNaffinity 6.43061638
REMARK  12 active torsions:
REMARK  status: ('A' for Active; 'I' for Inactive)
REMARK    1  A    between atoms: C19_21  and  O3_22 
REMARK    2  A    between atoms: C19_21  and  C20_23 
REMARK    3  A    between atoms: C20_23  and  C21_25 
REMARK    4  A    between atoms: C21_25  and  O5_26 
REMARK    5  A    between atoms: O5_26  and  C22_27 
REMARK    6  A    between atoms: C22_27  and  C23_29 
REMARK    7  A    between atoms: C23_29  and  C24_30 
REMARK    8  A    between atoms: C24_30  and  C25_31 
REMARK       I    between atoms: C25_31  and  N1_33 
REMARK    9  A    between atoms: N1_33  and  C26_34 
REMARK   10  A    between atoms: C26_34  and  C27_35 
REMARK   11  A    between atoms: C30_38  and  C31_39 
REMARK   12  A    between atoms: C31_39  and  O9_41 
ROOT
HETATM    1  C1  UNL     1       0.154   5.953  10.569  1.00  0.00     0.021 C 
HETATM    2  C2  UNL     1       0.994   7.243  10.706  1.00  0.00    -0.009 C 
HETATM    3  C3  UNL     1       0.365   8.333   9.783  1.00  0.00     0.022 C 
HETATM    4  C4  UNL     1       0.465   8.022   8.291  1.00  0.00     0.084 C 
HETATM    5  C5  UNL     1       1.857   7.603   7.886  1.00  0.00     0.149 C 
HETATM    6  O1  UNL     1       2.224   7.623   6.712  1.00  0.00    -0.293 OA
HETATM    7  C6  UNL     1       2.798   7.140   8.931  1.00  0.00     0.053 C 
HETATM    8  C7  UNL     1       2.414   6.982  10.208  1.00  0.00    -0.067 C 
HETATM    9  C8  UNL     1       3.408   6.621  11.273  1.00  0.00     0.035 C 
HETATM   10  C9  UNL     1       3.577   7.791  12.245  1.00  0.00     0.010 C 
HETATM   11  C10 UNL     1       2.289   8.620  12.486  1.00  0.00     0.003 C 
HETATM   12  C11 UNL     1       1.001   7.814  12.174  1.00  0.00     0.072 C 
HETATM   13  C12 UNL     1       0.799   6.865  13.356  1.00  0.00     0.133 C 
HETATM   14  O2  UNL     1       0.848   5.641  13.290  1.00  0.00    -0.297 OA
HETATM   15  C13 UNL     1       0.553   7.558  14.681  1.00  0.00     0.091 C 
HETATM   16  C14 UNL     1       1.788   8.402  15.081  1.00  0.00     0.005 C 
HETATM   17  C15 UNL     1       2.863   7.433  15.606  1.00  0.00     0.019 C 
HETATM   18  C16 UNL     1       2.280   9.277  13.891  1.00  0.00     0.002 C 
HETATM   19  C17 UNL     1       1.362  10.519  13.928  1.00  0.00     0.009 C 
HETATM   20  C18 UNL     1       0.743  10.588  15.324  1.00  0.00     0.047 C 
HETATM   21  C19 UNL     1       1.413   9.479  16.152  1.00  0.00     0.128 C 
ENDROOT
BRANCH  21  22
HETATM   22  O3  UNL     1       0.469   8.952  17.074  1.00  0.00    -0.381 OA
HETATM   23  H25 UNL     1      -0.016   9.694  17.482  1.00  0.00     0.211 HD
ENDBRANCH  21  22
BRANCH  21  24
HETATM   24  C20 UNL     1       2.642  10.075  16.899  1.00  0.00     0.185 C 
HETATM   25  O4  UNL     1       3.796   9.801  16.553  1.00  0.00    -0.292 OA
BRANCH  24  26
HETATM   26  C21 UNL     1       2.352  10.988  18.088  1.00  0.00     0.260 C 
BRANCH  26  27
HETATM   27  O5  UNL     1       3.476  11.023  18.970  1.00  0.00    -0.314 OA
BRANCH  27  28
HETATM   28  C22 UNL     1       3.219  10.522  20.207  1.00  0.00     0.259 C 
HETATM   29  O6  UNL     1       4.052  10.014  20.946  1.00  0.00    -0.265 OA
BRANCH  28  30
HETATM   30  C23 UNL     1       1.763  10.715  20.553  1.00  0.00     0.120 C 
BRANCH  30  31
HETATM   31  C24 UNL     1       1.502  12.131  21.053  1.00  0.00     0.112 C 
BRANCH  31  32
HETATM   32  C25 UNL     1       2.792  12.904  21.253  1.00  0.00     0.218 C 
HETATM   33  O7  UNL     1       3.497  12.789  22.248  1.00  0.00    -0.274 OA
HETATM   34  N1  UNL     1       3.078  13.751  20.207  1.00  0.00    -0.357 N 
HETATM   35  H32 UNL     1       2.386  13.896  19.485  1.00  0.00     0.162 HD
BRANCH  34  36
HETATM   36  C26 UNL     1       4.224  14.630  20.226  1.00  0.00     0.161 C 
BRANCH  36  37
HETATM   37  C27 UNL     1       5.374  14.004  20.974  1.00  0.00    -0.040 A 
HETATM   38  C28 UNL     1       6.128  12.972  20.400  1.00  0.00     0.010 A 
HETATM   39  C29 UNL     1       7.198  12.401  21.098  1.00  0.00     0.019 A 
HETATM   40  C30 UNL     1       7.528  12.864  22.378  1.00  0.00     0.037 A 
HETATM   41  C32 UNL     1       6.787  13.904  22.951  1.00  0.00     0.019 A 
HETATM   42  C33 UNL     1       5.719  14.470  22.252  1.00  0.00     0.010 A 
BRANCH  40  43
HETATM   43  C31 UNL     1       8.648  12.286  23.159  1.00  0.00     0.176 C 
HETATM   44  O8  UNL     1       9.522  12.914  23.728  1.00  0.00    -0.646 OA
BRANCH  43  45
HETATM   45  O9  UNL     1       8.619  10.942  23.198  1.00  0.00    -0.773 OA
HETATM   46  H37 UNL     1       9.399  10.711  23.745  1.00  0.00     0.167 HD
ENDBRANCH  43  45
ENDBRANCH  40  43
ENDBRANCH  36  37
ENDBRANCH  34  36
ENDBRANCH  31  32
ENDBRANCH  30  31
ENDBRANCH  28  30
ENDBRANCH  27  28
ENDBRANCH  26  27
ENDBRANCH  24  26
ENDBRANCH  21  24
TORSDOF 12
ENDMDL
