MODEL 1
REMARK minimizedAffinity -10.1471653
REMARK  7 active torsions:
REMARK  status: ('A' for Active; 'I' for Inactive)
REMARK    1  A    between atoms: C2_2  and  C4_4 
REMARK    2  A    between atoms: C7_7  and  O1_9 
REMARK    3  A    between atoms: C9_10  and  C10_11 
REMARK    4  A    between atoms: C11_12  and  C12_13 
REMARK    5  A    between atoms: C14_15  and  C15_16 
REMARK    6  A    between atoms: C24_26  and  C26_28 
REMARK    7  A    between atoms: C29_32  and  O4_34 
ROOT
HETATM    1  C15 UNL     1      -2.329  50.593 -27.462  1.00  0.00     0.149 C 
HETATM    2  C16 UNL     1      -1.636  50.152 -26.178  1.00  0.00     0.054 C 
HETATM    3  C17 UNL     1      -1.329  51.464 -25.424  1.00  0.00     0.050 C 
HETATM    4  C18 UNL     1      -2.599  52.252 -25.849  1.00  0.00     0.272 C 
HETATM    5  O2  UNL     1      -3.774  51.908 -25.119  1.00  0.00    -0.360 OA
HETATM    6  C19 UNL     1      -3.947  52.654 -23.930  1.00  0.00     0.171 C 
HETATM    7  C20 UNL     1      -3.363  51.920 -22.736  1.00  0.00     0.027 C 
HETATM    8  C21 UNL     1      -2.394  50.794 -23.083  1.00  0.00     0.012 C 
HETATM    9  C22 UNL     1      -1.133  51.191 -23.882  1.00  0.00     0.032 C 
HETATM   10  C23 UNL     1      -0.319  52.282 -23.152  1.00  0.00    -0.066 C 
HETATM   11  C24 UNL     1       0.387  52.087 -22.010  1.00  0.00    -0.021 C 
HETATM   12  C25 UNL     1       1.157  53.158 -21.289  1.00  0.00     0.052 C 
HETATM   13  C27 UNL     1      -0.329  53.619 -23.852  1.00  0.00     0.038 C 
HETATM   14  C28 UNL     1       0.211  53.530 -25.278  1.00  0.00     0.042 C 
HETATM   15  C29 UNL     1      -0.013  52.165 -25.972  1.00  0.00     0.067 C 
HETATM   16  C30 UNL     1       1.257  51.295 -25.822  1.00  0.00     0.047 C 
HETATM   17  O5  UNL     1      -2.883  51.892 -27.211  1.00  0.00    -0.351 OA
ENDROOT
BRANCH   1  18
HETATM   18  C14 UNL     1      -3.453  49.676 -27.857  1.00  0.00     0.011 C 
HETATM   19  C12 UNL     1      -4.044  48.715 -27.116  1.00  0.00    -0.064 C 
HETATM   20  C13 UNL     1      -3.680  48.428 -25.682  1.00  0.00     0.048 C 
BRANCH  19  21
HETATM   21  C11 UNL     1      -5.112  47.923 -27.728  1.00  0.00     0.003 C 
HETATM   22  C10 UNL     1      -5.524  47.993 -29.004  1.00  0.00    -0.018 C 
BRANCH  22  23
HETATM   23  C9  UNL     1      -6.626  47.183 -29.659  1.00  0.00     0.050 C 
HETATM   24  C4  UNL     1      -6.248  45.859 -30.398  1.00  0.00     0.024 C 
HETATM   25  C5  UNL     1      -7.571  45.074 -30.364  1.00  0.00     0.013 C 
HETATM   26  C6  UNL     1      -8.080  45.306 -28.951  1.00  0.00     0.039 C 
HETATM   27  C7  UNL     1      -7.796  46.792 -28.687  1.00  0.00     0.062 C 
HETATM   28  C8  UNL     1      -7.562  47.029 -27.196  1.00  0.00     0.046 C 
BRANCH  24  29
HETATM   29  C2  UNL     1      -5.637  46.042 -31.789  1.00  0.00    -0.088 C 
HETATM   30  C1  UNL     1      -4.358  45.769 -32.103  1.00  0.00     0.014 C 
HETATM   31  C3  UNL     1      -6.541  46.619 -32.850  1.00  0.00     0.043 C 
ENDBRANCH  24  29
BRANCH  27  32
HETATM   32  O1  UNL     1      -8.966  47.552 -29.033  1.00  0.00    -0.390 OA
HETATM   33  H14 UNL     1      -9.169  47.390 -29.970  1.00  0.00     0.210 HD
ENDBRANCH  27  32
ENDBRANCH  22  23
ENDBRANCH  19  21
ENDBRANCH   1  18
BRANCH  15  34
HETATM   34  O4  UNL     1      -0.110  52.438 -27.374  1.00  0.00    -0.389 OA
HETATM   35  H44 UNL     1       0.720  52.851 -27.674  1.00  0.00     0.210 HD
ENDBRANCH  15  34
BRANCH  11  36
HETATM   36  C26 UNL     1       0.475  50.755 -21.334  1.00  0.00     0.265 C 
HETATM   37  O3  UNL     1      -0.144  50.459 -20.322  1.00  0.00    -0.302 OA
ENDBRANCH  11  36
TORSDOF 7
ENDMDL
MODEL 2
REMARK minimizedAffinity -9.88181019
REMARK  7 active torsions:
REMARK  status: ('A' for Active; 'I' for Inactive)
REMARK    1  A    between atoms: C2_2  and  C4_4 
REMARK    2  A    between atoms: C7_7  and  O1_9 
REMARK    3  A    between atoms: C9_10  and  C10_11 
REMARK    4  A    between atoms: C11_12  and  C12_13 
REMARK    5  A    between atoms: C14_15  and  C15_16 
REMARK    6  A    between atoms: C24_26  and  C26_28 
REMARK    7  A    between atoms: C29_32  and  O4_34 
ROOT
HETATM    1  C15 UNL     1      -2.601  50.279 -27.528  1.00  0.00     0.149 C 
HETATM    2  C16 UNL     1      -1.861  49.961 -26.234  1.00  0.00     0.054 C 
HETATM    3  C17 UNL     1      -1.527  51.339 -25.621  1.00  0.00     0.050 C 
HETATM    4  C18 UNL     1      -2.812  52.086 -26.072  1.00  0.00     0.272 C 
HETATM    5  O2  UNL     1      -3.959  51.817 -25.270  1.00  0.00    -0.360 OA
HETATM    6  C19 UNL     1      -4.090  52.674 -24.153  1.00  0.00     0.171 C 
HETATM    7  C20 UNL     1      -3.462  52.056 -22.916  1.00  0.00     0.027 C 
HETATM    8  C21 UNL     1      -2.506  50.899 -23.188  1.00  0.00     0.012 C 
HETATM    9  C22 UNL     1      -1.274  51.214 -24.068  1.00  0.00     0.032 C 
HETATM   10  C23 UNL     1      -0.435  52.367 -23.476  1.00  0.00    -0.066 C 
HETATM   11  C24 UNL     1       0.312  52.280 -22.346  1.00  0.00    -0.021 C 
HETATM   12  C25 UNL     1       1.108  53.413 -21.760  1.00  0.00     0.052 C 
HETATM   13  C27 UNL     1      -0.471  53.632 -24.299  1.00  0.00     0.038 C 
HETATM   14  C28 UNL     1       0.016  53.404 -25.730  1.00  0.00     0.042 C 
HETATM   15  C29 UNL     1      -0.233  51.980 -26.281  1.00  0.00     0.067 C 
HETATM   16  C30 UNL     1       1.042  51.124 -26.095  1.00  0.00     0.047 C 
HETATM   17  O5  UNL     1      -3.146  51.598 -27.382  1.00  0.00    -0.351 OA
ENDROOT
BRANCH   1  18
HETATM   18  C14 UNL     1      -3.739  49.333 -27.792  1.00  0.00     0.011 C 
HETATM   19  C12 UNL     1      -4.379  48.533 -26.912  1.00  0.00    -0.064 C 
HETATM   20  C13 UNL     1      -4.067  48.501 -25.438  1.00  0.00     0.048 C 
BRANCH  19  21
HETATM   21  C11 UNL     1      -5.449  47.669 -27.410  1.00  0.00     0.003 C 
HETATM   22  C10 UNL     1      -6.032  47.737 -28.618  1.00  0.00    -0.018 C 
BRANCH  22  23
HETATM   23  C9  UNL     1      -7.141  46.853 -29.154  1.00  0.00     0.050 C 
HETATM   24  C4  UNL     1      -8.388  46.582 -28.253  1.00  0.00     0.024 C 
HETATM   25  C5  UNL     1      -9.469  46.222 -29.288  1.00  0.00     0.013 C 
HETATM   26  C6  UNL     1      -9.250  47.242 -30.393  1.00  0.00     0.039 C 
HETATM   27  C7  UNL     1      -7.724  47.323 -30.534  1.00  0.00     0.062 C 
HETATM   28  C8  UNL     1      -7.311  48.712 -31.020  1.00  0.00     0.046 C 
BRANCH  24  29
HETATM   29  C2  UNL     1      -8.179  45.548 -27.145  1.00  0.00    -0.088 C 
HETATM   30  C1  UNL     1      -7.979  44.234 -27.354  1.00  0.00     0.014 C 
HETATM   31  C3  UNL     1      -8.262  46.056 -25.727  1.00  0.00     0.043 C 
ENDBRANCH  24  29
BRANCH  27  32
HETATM   32  O1  UNL     1      -7.307  46.403 -31.557  1.00  0.00    -0.390 OA
HETATM   33  H14 UNL     1      -7.592  45.510 -31.299  1.00  0.00     0.210 HD
ENDBRANCH  27  32
ENDBRANCH  22  23
ENDBRANCH  19  21
ENDBRANCH   1  18
BRANCH  15  34
HETATM   34  O4  UNL     1      -0.381  52.118 -27.698  1.00  0.00    -0.389 OA
HETATM   35  H44 UNL     1       0.437  52.498 -28.066  1.00  0.00     0.210 HD
ENDBRANCH  15  34
BRANCH  11  36
HETATM   36  C26 UNL     1       0.426  51.019 -21.550  1.00  0.00     0.265 C 
HETATM   37  O3  UNL     1      -0.086  50.855 -20.452  1.00  0.00    -0.302 OA
ENDBRANCH  11  36
TORSDOF 7
ENDMDL
MODEL 3
REMARK minimizedAffinity -9.86406517
REMARK  7 active torsions:
REMARK  status: ('A' for Active; 'I' for Inactive)
REMARK    1  A    between atoms: C2_2  and  C4_4 
REMARK    2  A    between atoms: C7_7  and  O1_9 
REMARK    3  A    between atoms: C9_10  and  C10_11 
REMARK    4  A    between atoms: C11_12  and  C12_13 
REMARK    5  A    between atoms: C14_15  and  C15_16 
REMARK    6  A    between atoms: C24_26  and  C26_28 
REMARK    7  A    between atoms: C29_32  and  O4_34 
ROOT
HETATM    1  C15 UNL     1      -2.254  50.745 -27.424  1.00  0.00     0.149 C 
HETATM    2  C16 UNL     1      -1.557  50.246 -26.164  1.00  0.00     0.054 C 
HETATM    3  C17 UNL     1      -1.275  51.521 -25.338  1.00  0.00     0.050 C 
HETATM    4  C18 UNL     1      -2.557  52.308 -25.723  1.00  0.00     0.272 C 
HETATM    5  O2  UNL     1      -3.728  51.905 -25.018  1.00  0.00    -0.360 OA
HETATM    6  C19 UNL     1      -3.919  52.581 -23.791  1.00  0.00     0.171 C 
HETATM    7  C20 UNL     1      -3.326  51.793 -22.636  1.00  0.00     0.027 C 
HETATM    8  C21 UNL     1      -2.337  50.705 -23.041  1.00  0.00     0.012 C 
HETATM    9  C22 UNL     1      -1.079  51.166 -23.812  1.00  0.00     0.032 C 
HETATM   10  C23 UNL     1      -0.288  52.229 -23.019  1.00  0.00    -0.066 C 
HETATM   11  C24 UNL     1       0.418  51.983 -21.886  1.00  0.00    -0.021 C 
HETATM   12  C25 UNL     1       1.167  53.026 -21.104  1.00  0.00     0.052 C 
HETATM   13  C27 UNL     1      -0.318  53.603 -23.644  1.00  0.00     0.038 C 
HETATM   14  C28 UNL     1       0.228  53.601 -25.071  1.00  0.00     0.042 C 
HETATM   15  C29 UNL     1       0.030  52.273 -25.841  1.00  0.00     0.067 C 
HETATM   16  C30 UNL     1       1.314  51.418 -25.733  1.00  0.00     0.047 C 
HETATM   17  O5  UNL     1      -2.830  52.019 -27.105  1.00  0.00    -0.351 OA
ENDROOT
BRANCH   1  18
HETATM   18  C14 UNL     1      -3.361  49.833 -27.874  1.00  0.00     0.011 C 
HETATM   19  C12 UNL     1      -3.937  48.822 -27.189  1.00  0.00    -0.064 C 
HETATM   20  C13 UNL     1      -3.573  48.463 -25.772  1.00  0.00     0.048 C 
BRANCH  19  21
HETATM   21  C11 UNL     1      -4.988  48.047 -27.848  1.00  0.00     0.003 C 
HETATM   22  C10 UNL     1      -5.294  48.069 -29.156  1.00  0.00    -0.018 C 
BRANCH  22  23
HETATM   23  C9  UNL     1      -6.377  47.275 -29.860  1.00  0.00     0.050 C 
HETATM   24  C4  UNL     1      -7.865  47.719 -29.690  1.00  0.00     0.024 C 
HETATM   25  C5  UNL     1      -8.530  47.131 -30.946  1.00  0.00     0.013 C 
HETATM   26  C6  UNL     1      -7.528  47.434 -32.047  1.00  0.00     0.039 C 
HETATM   27  C7  UNL     1      -6.164  47.135 -31.409  1.00  0.00     0.062 C 
HETATM   28  C8  UNL     1      -5.082  48.011 -32.038  1.00  0.00     0.046 C 
BRANCH  24  29
HETATM   29  C2  UNL     1      -8.517  47.321 -28.363  1.00  0.00    -0.088 C 
HETATM   30  C1  UNL     1      -9.190  48.164 -27.559  1.00  0.00     0.014 C 
HETATM   31  C3  UNL     1      -8.330  45.890 -27.925  1.00  0.00     0.043 C 
ENDBRANCH  24  29
BRANCH  27  32
HETATM   32  O1  UNL     1      -5.803  45.777 -31.711  1.00  0.00    -0.390 OA
HETATM   33  H14 UNL     1      -6.495  45.192 -31.360  1.00  0.00     0.210 HD
ENDBRANCH  27  32
ENDBRANCH  22  23
ENDBRANCH  19  21
ENDBRANCH   1  18
BRANCH  15  34
HETATM   34  O4  UNL     1      -0.067  52.621 -27.226  1.00  0.00    -0.389 OA
HETATM   35  H44 UNL     1       0.756  53.065 -27.499  1.00  0.00     0.210 HD
ENDBRANCH  15  34
BRANCH  11  36
HETATM   36  C26 UNL     1       0.528  50.618 -21.285  1.00  0.00     0.265 C 
HETATM   37  O3  UNL     1      -0.173  50.218 -20.366  1.00  0.00    -0.302 OA
ENDBRANCH  11  36
TORSDOF 7
ENDMDL
MODEL 4
REMARK minimizedAffinity -9.39093208
REMARK  7 active torsions:
REMARK  status: ('A' for Active; 'I' for Inactive)
REMARK    1  A    between atoms: C2_2  and  C4_4 
REMARK    2  A    between atoms: C7_7  and  O1_9 
REMARK    3  A    between atoms: C9_10  and  C10_11 
REMARK    4  A    between atoms: C11_12  and  C12_13 
REMARK    5  A    between atoms: C14_15  and  C15_16 
REMARK    6  A    between atoms: C24_26  and  C26_28 
REMARK    7  A    between atoms: C29_32  and  O4_34 
ROOT
HETATM    1  C15 UNL     1      -1.175  51.499 -21.055  1.00  0.00     0.149 C 
HETATM    2  C16 UNL     1      -2.659  51.158 -21.123  1.00  0.00     0.054 C 
HETATM    3  C17 UNL     1      -2.796  50.237 -22.355  1.00  0.00     0.050 C 
HETATM    4  C18 UNL     1      -1.438  49.496 -22.215  1.00  0.00     0.272 C 
HETATM    5  O2  UNL     1      -1.430  48.464 -21.232  1.00  0.00    -0.360 OA
HETATM    6  C19 UNL     1      -1.844  47.204 -21.722  1.00  0.00     0.171 C 
HETATM    7  C20 UNL     1      -3.329  46.989 -21.491  1.00  0.00     0.027 C 
HETATM    8  C21 UNL     1      -4.121  48.255 -21.178  1.00  0.00     0.012 C 
HETATM    9  C22 UNL     1      -4.107  49.362 -22.256  1.00  0.00     0.032 C 
HETATM   10  C23 UNL     1      -4.611  48.834 -23.617  1.00  0.00    -0.066 C 
HETATM   11  C24 UNL     1      -5.897  48.497 -23.889  1.00  0.00    -0.021 C 
HETATM   12  C25 UNL     1      -6.379  47.960 -25.208  1.00  0.00     0.052 C 
HETATM   13  C27 UNL     1      -3.539  48.762 -24.677  1.00  0.00     0.038 C 
HETATM   14  C28 UNL     1      -2.884  50.119 -24.931  1.00  0.00     0.042 C 
HETATM   15  C29 UNL     1      -2.858  51.066 -23.707  1.00  0.00     0.067 C 
HETATM   16  C30 UNL     1      -4.059  52.037 -23.781  1.00  0.00     0.047 C 
HETATM   17  O5  UNL     1      -0.477  50.462 -21.756  1.00  0.00    -0.351 OA
ENDROOT
BRANCH   1  18
HETATM   18  C14 UNL     1      -0.655  51.540 -19.645  1.00  0.00     0.011 C 
HETATM   19  C12 UNL     1       0.309  52.337 -19.136  1.00  0.00    -0.064 C 
HETATM   20  C13 UNL     1       1.016  53.402 -19.934  1.00  0.00     0.048 C 
BRANCH  19  21
HETATM   21  C11 UNL     1       0.670  52.177 -17.727  1.00  0.00     0.003 C 
HETATM   22  C10 UNL     1       0.647  51.033 -17.024  1.00  0.00    -0.018 C 
BRANCH  22  23
HETATM   23  C9  UNL     1       1.018  50.844 -15.565  1.00  0.00     0.050 C 
HETATM   24  C4  UNL     1       1.882  51.939 -14.861  1.00  0.00     0.024 C 
HETATM   25  C5  UNL     1       1.529  51.734 -13.378  1.00  0.00     0.013 C 
HETATM   26  C6  UNL     1       0.024  51.526 -13.401  1.00  0.00     0.039 C 
HETATM   27  C7  UNL     1      -0.213  50.619 -14.617  1.00  0.00     0.062 C 
HETATM   28  C8  UNL     1      -1.597  50.879 -15.209  1.00  0.00     0.046 C 
BRANCH  24  29
HETATM   29  C2  UNL     1       3.377  51.897 -15.186  1.00  0.00    -0.088 C 
HETATM   30  C1  UNL     1       3.992  52.711 -16.063  1.00  0.00     0.014 C 
HETATM   31  C3  UNL     1       4.184  50.822 -14.500  1.00  0.00     0.043 C 
ENDBRANCH  24  29
BRANCH  27  32
HETATM   32  O1  UNL     1      -0.220  49.251 -14.175  1.00  0.00    -0.390 OA
HETATM   33  H14 UNL     1       0.636  49.063 -13.753  1.00  0.00     0.210 HD
ENDBRANCH  27  32
ENDBRANCH  22  23
ENDBRANCH  19  21
ENDBRANCH   1  18
BRANCH  15  34
HETATM   34  O4  UNL     1      -1.703  51.896 -23.866  1.00  0.00    -0.389 OA
HETATM   35  H44 UNL     1      -1.786  52.399 -24.697  1.00  0.00     0.210 HD
ENDBRANCH  15  34
BRANCH  11  36
HETATM   36  C26 UNL     1      -6.995  48.629 -22.881  1.00  0.00     0.265 C 
HETATM   37  O3  UNL     1      -7.522  49.690 -22.578  1.00  0.00    -0.302 OA
ENDBRANCH  11  36
TORSDOF 7
ENDMDL
MODEL 5
REMARK minimizedAffinity -9.22536087
REMARK  7 active torsions:
REMARK  status: ('A' for Active; 'I' for Inactive)
REMARK    1  A    between atoms: C2_2  and  C4_4 
REMARK    2  A    between atoms: C7_7  and  O1_9 
REMARK    3  A    between atoms: C9_10  and  C10_11 
REMARK    4  A    between atoms: C11_12  and  C12_13 
REMARK    5  A    between atoms: C14_15  and  C15_16 
REMARK    6  A    between atoms: C24_26  and  C26_28 
REMARK    7  A    between atoms: C29_32  and  O4_34 
ROOT
HETATM    1  C15 UNL     1      -6.258  47.829 -28.536  1.00  0.00     0.149 C 
HETATM    2  C16 UNL     1      -6.207  46.410 -29.090  1.00  0.00     0.054 C 
HETATM    3  C17 UNL     1      -6.831  46.513 -30.499  1.00  0.00     0.050 C 
HETATM    4  C18 UNL     1      -6.292  47.924 -30.864  1.00  0.00     0.272 C 
HETATM    5  O2  UNL     1      -4.929  47.942 -31.280  1.00  0.00    -0.360 OA
HETATM    6  C19 UNL     1      -4.752  47.731 -32.667  1.00  0.00     0.171 C 
HETATM    7  C20 UNL     1      -4.503  46.264 -32.968  1.00  0.00     0.027 C 
HETATM    8  C21 UNL     1      -4.885  45.303 -31.846  1.00  0.00     0.012 C 
HETATM    9  C22 UNL     1      -6.367  45.308 -31.406  1.00  0.00     0.032 C 
HETATM   10  C23 UNL     1      -7.310  45.019 -32.594  1.00  0.00    -0.066 C 
HETATM   11  C24 UNL     1      -7.431  43.817 -33.212  1.00  0.00    -0.021 C 
HETATM   12  C25 UNL     1      -8.333  43.546 -34.384  1.00  0.00     0.052 C 
HETATM   13  C27 UNL     1      -8.155  46.202 -33.003  1.00  0.00     0.038 C 
HETATM   14  C28 UNL     1      -9.017  46.721 -31.854  1.00  0.00     0.042 C 
HETATM   15  C29 UNL     1      -8.418  46.505 -30.443  1.00  0.00     0.067 C 
HETATM   16  C30 UNL     1      -9.007  45.216 -29.824  1.00  0.00     0.047 C 
HETATM   17  O5  UNL     1      -6.330  48.713 -29.663  1.00  0.00    -0.351 OA
ENDROOT
BRANCH   1  18
HETATM   18  C14 UNL     1      -5.032  48.185 -27.743  1.00  0.00     0.011 C 
HETATM   19  C12 UNL     1      -4.903  48.272 -26.402  1.00  0.00    -0.064 C 
HETATM   20  C13 UNL     1      -6.018  47.960 -25.437  1.00  0.00     0.048 C 
BRANCH  19  21
HETATM   21  C11 UNL     1      -3.606  48.666 -25.853  1.00  0.00     0.003 C 
HETATM   22  C10 UNL     1      -3.380  49.653 -24.970  1.00  0.00    -0.018 C 
BRANCH  22  23
HETATM   23  C9  UNL     1      -2.046  50.077 -24.388  1.00  0.00     0.050 C 
HETATM   24  C4  UNL     1      -1.329  51.329 -24.986  1.00  0.00     0.024 C 
HETATM   25  C5  UNL     1      -0.427  51.778 -23.823  1.00  0.00     0.013 C 
HETATM   26  C6  UNL     1      -1.328  51.642 -22.607  1.00  0.00     0.039 C 
HETATM   27  C7  UNL     1      -2.073  50.320 -22.836  1.00  0.00     0.062 C 
HETATM   28  C8  UNL     1      -3.447  50.364 -22.169  1.00  0.00     0.046 C 
BRANCH  24  29
HETATM   29  C2  UNL     1      -0.607  51.094 -26.315  1.00  0.00    -0.088 C 
HETATM   30  C1  UNL     1       0.708  50.836 -26.434  1.00  0.00     0.014 C 
HETATM   31  C3  UNL     1      -1.443  51.218 -27.564  1.00  0.00     0.043 C 
ENDBRANCH  24  29
BRANCH  27  32
HETATM   32  O1  UNL     1      -1.348  49.264 -22.184  1.00  0.00    -0.390 OA
HETATM   33  H14 UNL     1      -0.451  49.235 -22.557  1.00  0.00     0.210 HD
ENDBRANCH  27  32
ENDBRANCH  22  23
ENDBRANCH  19  21
ENDBRANCH   1  18
BRANCH  15  34
HETATM   34  O4  UNL     1      -8.919  47.569 -29.627  1.00  0.00    -0.389 OA
HETATM   35  H44 UNL     1      -9.892  47.520 -29.605  1.00  0.00     0.210 HD
ENDBRANCH  15  34
BRANCH  11  36
HETATM   36  C26 UNL     1      -6.662  42.608 -32.782  1.00  0.00     0.265 C 
HETATM   37  O3  UNL     1      -6.834  42.032 -31.716  1.00  0.00    -0.302 OA
ENDBRANCH  11  36
TORSDOF 7
ENDMDL
MODEL 6
REMARK minimizedAffinity -8.90417767
REMARK  7 active torsions:
REMARK  status: ('A' for Active; 'I' for Inactive)
REMARK    1  A    between atoms: C2_2  and  C4_4 
REMARK    2  A    between atoms: C7_7  and  O1_9 
REMARK    3  A    between atoms: C9_10  and  C10_11 
REMARK    4  A    between atoms: C11_12  and  C12_13 
REMARK    5  A    between atoms: C14_15  and  C15_16 
REMARK    6  A    between atoms: C24_26  and  C26_28 
REMARK    7  A    between atoms: C29_32  and  O4_34 
ROOT
HETATM    1  C15 UNL     1      -7.923  47.055 -27.271  1.00  0.00     0.149 C 
HETATM    2  C16 UNL     1      -7.785  46.216 -28.536  1.00  0.00     0.054 C 
HETATM    3  C17 UNL     1      -9.034  46.561 -29.377  1.00  0.00     0.050 C 
HETATM    4  C18 UNL     1      -9.146  48.059 -28.982  1.00  0.00     0.272 C 
HETATM    5  O2  UNL     1      -8.237  48.916 -29.668  1.00  0.00    -0.360 OA
HETATM    6  C19 UNL     1      -8.733  49.407 -30.899  1.00  0.00     0.171 C 
HETATM    7  C20 UNL     1      -8.291  48.526 -32.054  1.00  0.00     0.027 C 
HETATM    8  C21 UNL     1      -7.788  47.142 -31.653  1.00  0.00     0.012 C 
HETATM    9  C22 UNL     1      -8.789  46.235 -30.902  1.00  0.00     0.032 C 
HETATM   10  C23 UNL     1     -10.086  46.029 -31.714  1.00  0.00    -0.066 C 
HETATM   11  C24 UNL     1     -10.179  45.298 -32.854  1.00  0.00    -0.021 C 
HETATM   12  C25 UNL     1     -11.439  45.121 -33.655  1.00  0.00     0.052 C 
HETATM   13  C27 UNL     1     -11.299  46.686 -31.101  1.00  0.00     0.038 C 
HETATM   14  C28 UNL     1     -11.569  46.190 -29.681  1.00  0.00     0.042 C 
HETATM   15  C29 UNL     1     -10.310  45.747 -28.898  1.00  0.00     0.067 C 
HETATM   16  C30 UNL     1     -10.143  44.214 -29.014  1.00  0.00     0.047 C 
HETATM   17  O5  UNL     1      -8.782  48.157 -27.595  1.00  0.00    -0.351 OA
ENDROOT
BRANCH   1  18
HETATM   18  C14 UNL     1      -6.609  47.612 -26.800  1.00  0.00     0.011 C 
HETATM   19  C12 UNL     1      -5.510  47.890 -27.533  1.00  0.00    -0.064 C 
HETATM   20  C13 UNL     1      -5.444  47.720 -29.029  1.00  0.00     0.048 C 
BRANCH  19  21
HETATM   21  C11 UNL     1      -4.327  48.406 -26.845  1.00  0.00     0.003 C 
HETATM   22  C10 UNL     1      -4.141  48.464 -25.516  1.00  0.00    -0.018 C 
BRANCH  22  23
HETATM   23  C9  UNL     1      -2.924  48.994 -24.782  1.00  0.00     0.050 C 
HETATM   24  C4  UNL     1      -2.463  50.462 -25.051  1.00  0.00     0.024 C 
HETATM   25  C5  UNL     1      -1.681  50.801 -23.770  1.00  0.00     0.013 C 
HETATM   26  C6  UNL     1      -2.550  50.225 -22.665  1.00  0.00     0.039 C 
HETATM   27  C7  UNL     1      -3.015  48.871 -23.219  1.00  0.00     0.062 C 
HETATM   28  C8  UNL     1      -4.378  48.501 -22.635  1.00  0.00     0.046 C 
BRANCH  24  29
HETATM   29  C2  UNL     1      -1.695  50.675 -26.357  1.00  0.00    -0.088 C 
HETATM   30  C1  UNL     1      -2.267  50.937 -27.546  1.00  0.00     0.014 C 
HETATM   31  C3  UNL     1      -0.195  50.521 -26.288  1.00  0.00     0.043 C 
ENDBRANCH  24  29
BRANCH  27  32
HETATM   32  O1  UNL     1      -2.102  47.854 -22.774  1.00  0.00    -0.390 OA
HETATM   33  H14 UNL     1      -1.213  48.082 -23.094  1.00  0.00     0.210 HD
ENDBRANCH  27  32
ENDBRANCH  22  23
ENDBRANCH  19  21
ENDBRANCH   1  18
BRANCH  15  34
HETATM   34  O4  UNL     1     -10.593  45.983 -27.515  1.00  0.00    -0.389 OA
HETATM   35  H44 UNL     1     -11.371  45.456 -27.256  1.00  0.00     0.210 HD
ENDBRANCH  15  34
BRANCH  11  36
HETATM   36  C26 UNL     1      -9.010  44.575 -33.445  1.00  0.00     0.265 C 
HETATM   37  O3  UNL     1      -8.531  44.830 -34.541  1.00  0.00    -0.302 OA
ENDBRANCH  11  36
TORSDOF 7
ENDMDL
MODEL 7
REMARK minimizedAffinity -8.88716221
REMARK  7 active torsions:
REMARK  status: ('A' for Active; 'I' for Inactive)
REMARK    1  A    between atoms: C2_2  and  C4_4 
REMARK    2  A    between atoms: C7_7  and  O1_9 
REMARK    3  A    between atoms: C9_10  and  C10_11 
REMARK    4  A    between atoms: C11_12  and  C12_13 
REMARK    5  A    between atoms: C14_15  and  C15_16 
REMARK    6  A    between atoms: C24_26  and  C26_28 
REMARK    7  A    between atoms: C29_32  and  O4_34 
ROOT
HETATM    1  C15 UNL     1      -0.976  51.592 -20.627  1.00  0.00     0.149 C 
HETATM    2  C16 UNL     1      -2.452  51.241 -20.779  1.00  0.00     0.054 C 
HETATM    3  C17 UNL     1      -2.520  50.362 -22.047  1.00  0.00     0.050 C 
HETATM    4  C18 UNL     1      -1.163  49.628 -21.867  1.00  0.00     0.272 C 
HETATM    5  O2  UNL     1      -1.193  48.563 -20.920  1.00  0.00    -0.360 OA
HETATM    6  C19 UNL     1      -1.569  47.317 -21.473  1.00  0.00     0.171 C 
HETATM    7  C20 UNL     1      -3.062  47.082 -21.322  1.00  0.00     0.027 C 
HETATM    8  C21 UNL     1      -3.881  48.330 -21.006  1.00  0.00     0.012 C 
HETATM    9  C22 UNL     1      -3.825  49.474 -22.043  1.00  0.00     0.032 C 
HETATM   10  C23 UNL     1      -4.257  48.990 -23.444  1.00  0.00    -0.066 C 
HETATM   11  C24 UNL     1      -5.525  48.652 -23.790  1.00  0.00    -0.021 C 
HETATM   12  C25 UNL     1      -5.936  48.157 -25.149  1.00  0.00     0.052 C 
HETATM   13  C27 UNL     1      -3.134  48.963 -24.452  1.00  0.00     0.038 C 
HETATM   14  C28 UNL     1      -2.481  50.333 -24.627  1.00  0.00     0.042 C 
HETATM   15  C29 UNL     1      -2.523  51.238 -23.372  1.00  0.00     0.067 C 
HETATM   16  C30 UNL     1      -3.729  52.201 -23.471  1.00  0.00     0.047 C 
HETATM   17  O5  UNL     1      -0.234  50.585 -21.329  1.00  0.00    -0.351 OA
ENDROOT
BRANCH   1  18
HETATM   18  C14 UNL     1      -0.525  51.588 -19.193  1.00  0.00     0.011 C 
HETATM   19  C12 UNL     1       0.448  52.331 -18.624  1.00  0.00    -0.064 C 
HETATM   20  C13 UNL     1       1.243  53.372 -19.368  1.00  0.00     0.048 C 
BRANCH  19  21
HETATM   21  C11 UNL     1       0.730  52.134 -17.202  1.00  0.00     0.003 C 
HETATM   22  C10 UNL     1       1.147  50.996 -16.622  1.00  0.00    -0.018 C 
BRANCH  22  23
HETATM   23  C9  UNL     1       1.446  50.770 -15.153  1.00  0.00     0.050 C 
HETATM   24  C4  UNL     1       1.426  49.310 -14.597  1.00  0.00     0.024 C 
HETATM   25  C5  UNL     1       2.326  49.419 -13.354  1.00  0.00     0.013 C 
HETATM   26  C6  UNL     1       3.484  50.278 -13.834  1.00  0.00     0.039 C 
HETATM   27  C7  UNL     1       2.817  51.372 -14.679  1.00  0.00     0.062 C 
HETATM   28  C8  UNL     1       3.772  51.854 -15.770  1.00  0.00     0.046 C 
BRANCH  24  29
HETATM   29  C2  UNL     1       0.033  48.729 -14.343  1.00  0.00    -0.088 C 
HETATM   30  C1  UNL     1      -0.339  47.474 -14.651  1.00  0.00     0.014 C 
HETATM   31  C3  UNL     1      -0.990  49.669 -13.753  1.00  0.00     0.043 C 
ENDBRANCH  24  29
BRANCH  27  32
HETATM   32  O1  UNL     1       2.564  52.511 -13.841  1.00  0.00    -0.390 OA
HETATM   33  H14 UNL     1       1.990  52.229 -13.108  1.00  0.00     0.210 HD
ENDBRANCH  27  32
ENDBRANCH  22  23
ENDBRANCH  19  21
ENDBRANCH   1  18
BRANCH  15  34
HETATM   34  O4  UNL     1      -1.370  52.082 -23.446  1.00  0.00    -0.389 OA
HETATM   35  H44 UNL     1      -1.417  52.612 -24.261  1.00  0.00     0.210 HD
ENDBRANCH  15  34
BRANCH  11  36
HETATM   36  C26 UNL     1      -6.672  48.739 -22.833  1.00  0.00     0.265 C 
HETATM   37  O3  UNL     1      -7.425  49.700 -22.755  1.00  0.00    -0.302 OA
ENDBRANCH  11  36
TORSDOF 7
ENDMDL
MODEL 8
REMARK minimizedAffinity -8.83743763
REMARK  7 active torsions:
REMARK  status: ('A' for Active; 'I' for Inactive)
REMARK    1  A    between atoms: C2_2  and  C4_4 
REMARK    2  A    between atoms: C7_7  and  O1_9 
REMARK    3  A    between atoms: C9_10  and  C10_11 
REMARK    4  A    between atoms: C11_12  and  C12_13 
REMARK    5  A    between atoms: C14_15  and  C15_16 
REMARK    6  A    between atoms: C24_26  and  C26_28 
REMARK    7  A    between atoms: C29_32  and  O4_34 
ROOT
HETATM    1  C15 UNL     1      -3.127  49.243 -24.741  1.00  0.00     0.149 C 
HETATM    2  C16 UNL     1      -3.096  48.402 -23.470  1.00  0.00     0.054 C 
HETATM    3  C17 UNL     1      -3.380  49.403 -22.328  1.00  0.00     0.050 C 
HETATM    4  C18 UNL     1      -4.374  50.318 -23.093  1.00  0.00     0.272 C 
HETATM    5  O2  UNL     1      -5.696  49.796 -23.192  1.00  0.00    -0.360 OA
HETATM    6  C19 UNL     1      -6.528  50.135 -22.100  1.00  0.00     0.171 C 
HETATM    7  C20 UNL     1      -6.509  49.048 -21.040  1.00  0.00     0.027 C 
HETATM    8  C21 UNL     1      -5.350  48.061 -21.152  1.00  0.00     0.012 C 
HETATM    9  C22 UNL     1      -3.927  48.654 -21.051  1.00  0.00     0.032 C 
HETATM   10  C23 UNL     1      -3.732  49.437 -19.734  1.00  0.00    -0.066 C 
HETATM   11  C24 UNL     1      -3.655  48.874 -18.502  1.00  0.00    -0.021 C 
HETATM   12  C25 UNL     1      -3.490  49.643 -17.221  1.00  0.00     0.052 C 
HETATM   13  C27 UNL     1      -3.581  50.926 -19.929  1.00  0.00     0.038 C 
HETATM   14  C28 UNL     1      -2.406  51.274 -20.842  1.00  0.00     0.042 C 
HETATM   15  C29 UNL     1      -2.074  50.203 -21.908  1.00  0.00     0.067 C 
HETATM   16  C30 UNL     1      -0.934  49.296 -21.390  1.00  0.00     0.047 C 
HETATM   17  O5  UNL     1      -3.903  50.412 -24.448  1.00  0.00    -0.351 OA
ENDROOT
BRANCH   1  18
HETATM   18  C14 UNL     1      -3.777  48.529 -25.892  1.00  0.00     0.011 C 
HETATM   19  C12 UNL     1      -3.856  48.923 -27.181  1.00  0.00    -0.064 C 
HETATM   20  C13 UNL     1      -3.226  50.189 -27.703  1.00  0.00     0.048 C 
BRANCH  19  21
HETATM   21  C11 UNL     1      -4.570  48.067 -28.128  1.00  0.00     0.003 C 
HETATM   22  C10 UNL     1      -5.900  48.010 -28.306  1.00  0.00    -0.018 C 
BRANCH  22  23
HETATM   23  C9  UNL     1      -6.659  47.132 -29.281  1.00  0.00     0.050 C 
HETATM   24  C4  UNL     1      -5.854  46.156 -30.198  1.00  0.00     0.024 C 
HETATM   25  C5  UNL     1      -6.904  45.083 -30.538  1.00  0.00     0.013 C 
HETATM   26  C6  UNL     1      -7.603  44.843 -29.211  1.00  0.00     0.039 C 
HETATM   27  C7  UNL     1      -7.770  46.246 -28.613  1.00  0.00     0.062 C 
HETATM   28  C8  UNL     1      -7.770  46.175 -27.086  1.00  0.00     0.046 C 
BRANCH  24  29
HETATM   29  C2  UNL     1      -5.175  46.807 -31.405  1.00  0.00    -0.088 C 
HETATM   30  C1  UNL     1      -5.457  48.038 -31.867  1.00  0.00     0.014 C 
HETATM   31  C3  UNL     1      -4.160  45.967 -32.140  1.00  0.00     0.043 C 
ENDBRANCH  24  29
BRANCH  27  32
HETATM   32  O1  UNL     1      -9.062  46.754 -28.987  1.00  0.00    -0.390 OA
HETATM   33  H14 UNL     1      -9.112  46.773 -29.958  1.00  0.00     0.210 HD
ENDBRANCH  27  32
ENDBRANCH  22  23
ENDBRANCH  19  21
ENDBRANCH   1  18
BRANCH  15  34
HETATM   34  O4  UNL     1      -1.509  50.905 -23.021  1.00  0.00    -0.389 OA
HETATM   35  H44 UNL     1      -0.704  51.369 -22.727  1.00  0.00     0.210 HD
ENDBRANCH  15  34
BRANCH  11  36
HETATM   36  C26 UNL     1      -3.727  47.395 -18.286  1.00  0.00     0.265 C 
HETATM   37  O3  UNL     1      -2.782  46.634 -18.445  1.00  0.00    -0.302 OA
ENDBRANCH  11  36
TORSDOF 7
ENDMDL
MODEL 9
REMARK minimizedAffinity -8.71146297
REMARK  7 active torsions:
REMARK  status: ('A' for Active; 'I' for Inactive)
REMARK    1  A    between atoms: C2_2  and  C4_4 
REMARK    2  A    between atoms: C7_7  and  O1_9 
REMARK    3  A    between atoms: C9_10  and  C10_11 
REMARK    4  A    between atoms: C11_12  and  C12_13 
REMARK    5  A    between atoms: C14_15  and  C15_16 
REMARK    6  A    between atoms: C24_26  and  C26_28 
REMARK    7  A    between atoms: C29_32  and  O4_34 
ROOT
HETATM    1  C15 UNL     1      -7.206  47.071 -27.203  1.00  0.00     0.149 C 
HETATM    2  C16 UNL     1      -7.110  46.270 -28.496  1.00  0.00     0.054 C 
HETATM    3  C17 UNL     1      -8.495  46.428 -29.162  1.00  0.00     0.050 C 
HETATM    4  C18 UNL     1      -8.776  47.889 -28.718  1.00  0.00     0.272 C 
HETATM    5  O2  UNL     1      -8.102  48.878 -29.492  1.00  0.00    -0.360 OA
HETATM    6  C19 UNL     1      -8.820  49.296 -30.636  1.00  0.00     0.171 C 
HETATM    7  C20 UNL     1      -8.406  48.499 -31.861  1.00  0.00     0.027 C 
HETATM    8  C21 UNL     1      -7.656  47.204 -31.562  1.00  0.00     0.012 C 
HETATM    9  C22 UNL     1      -8.404  46.152 -30.714  1.00  0.00     0.032 C 
HETATM   10  C23 UNL     1      -9.751  45.758 -31.359  1.00  0.00    -0.066 C 
HETATM   11  C24 UNL     1      -9.881  45.028 -32.496  1.00  0.00    -0.021 C 
HETATM   12  C25 UNL     1     -11.194  44.669 -33.134  1.00  0.00     0.052 C 
HETATM   13  C27 UNL     1     -10.958  46.221 -30.580  1.00  0.00     0.038 C 
HETATM   14  C28 UNL     1     -10.965  45.682 -29.150  1.00  0.00     0.042 C 
HETATM   15  C29 UNL     1      -9.563  45.428 -28.545  1.00  0.00     0.067 C 
HETATM   16  C30 UNL     1      -9.187  43.938 -28.721  1.00  0.00     0.047 C 
HETATM   17  O5  UNL     1      -8.254  48.033 -27.386  1.00  0.00    -0.351 OA
ENDROOT
BRANCH   1  18
HETATM   18  C14 UNL     1      -5.940  47.816 -26.889  1.00  0.00     0.011 C 
HETATM   19  C12 UNL     1      -5.493  48.229 -25.683  1.00  0.00    -0.064 C 
HETATM   20  C13 UNL     1      -6.211  47.947 -24.389  1.00  0.00     0.048 C 
BRANCH  19  21
HETATM   21  C11 UNL     1      -4.232  48.968 -25.625  1.00  0.00     0.003 C 
HETATM   22  C10 UNL     1      -4.092  50.292 -25.446  1.00  0.00    -0.018 C 
BRANCH  22  23
HETATM   23  C9  UNL     1      -2.796  51.077 -25.382  1.00  0.00     0.050 C 
HETATM   24  C4  UNL     1      -1.554  50.425 -24.694  1.00  0.00     0.024 C 
HETATM   25  C5  UNL     1      -0.383  51.183 -25.343  1.00  0.00     0.013 C 
HETATM   26  C6  UNL     1      -0.779  51.253 -26.809  1.00  0.00     0.039 C 
HETATM   27  C7  UNL     1      -2.280  51.574 -26.779  1.00  0.00     0.062 C 
HETATM   28  C8  UNL     1      -2.969  50.997 -28.015  1.00  0.00     0.046 C 
BRANCH  24  29
HETATM   29  C2  UNL     1      -1.573  50.443 -23.164  1.00  0.00    -0.088 C 
HETATM   30  C1  UNL     1      -1.176  51.483 -22.408  1.00  0.00     0.014 C 
HETATM   31  C3  UNL     1      -2.021  49.175 -22.482  1.00  0.00     0.043 C 
ENDBRANCH  24  29
BRANCH  27  32
HETATM   32  O1  UNL     1      -2.446  53.000 -26.860  1.00  0.00    -0.390 OA
HETATM   33  H14 UNL     1      -1.981  53.404 -26.108  1.00  0.00     0.210 HD
ENDBRANCH  27  32
ENDBRANCH  22  23
ENDBRANCH  19  21
ENDBRANCH   1  18
BRANCH  15  34
HETATM   34  O4  UNL     1      -9.697  45.610 -27.132  1.00  0.00    -0.389 OA
HETATM   35  H44 UNL     1     -10.347  44.970 -26.790  1.00  0.00     0.210 HD
ENDBRANCH  15  34
BRANCH  11  36
HETATM   36  C26 UNL     1      -8.705  44.493 -33.249  1.00  0.00     0.265 C 
HETATM   37  O3  UNL     1      -8.734  43.479 -33.933  1.00  0.00    -0.302 OA
ENDBRANCH  11  36
TORSDOF 7
ENDMDL
