MODEL 1
REMARK minimizedAffinity -8.58166599
REMARK CNNscore 0.705666184
REMARK CNNaffinity 7.26386786
REMARK  19 active torsions:
REMARK  status: ('A' for Active; 'I' for Inactive)
REMARK    1  A    between atoms: C19_20  and  O2_21 
REMARK    2  A    between atoms: C19_20  and  C20_22 
REMARK    3  A    between atoms: C20_22  and  C21_24 
REMARK    4  A    between atoms: C21_24  and  O4_25 
REMARK    5  A    between atoms: O4_25  and  C22_26 
REMARK    6  A    between atoms: C22_26  and  C23_28 
REMARK    7  A    between atoms: C23_28  and  C24_29 
REMARK    8  A    between atoms: C24_29  and  C25_30 
REMARK       I    between atoms: C25_30  and  N1_32 
REMARK    9  A    between atoms: N1_32  and  C26_33 
REMARK   10  A    between atoms: C26_33  and  C27_34 
REMARK   11  A    between atoms: C27_34  and  C28_35 
REMARK   12  A    between atoms: C28_35  and  C29_36 
REMARK   13  A    between atoms: C29_36  and  C30_37 
REMARK   14  A    between atoms: C30_37  and  C31_38 
REMARK       I    between atoms: C31_38  and  N2_40 
REMARK   15  A    between atoms: N2_40  and  C32_41 
REMARK   16  A    between atoms: C32_41  and  C33_42 
REMARK   17  A    between atoms: C33_42  and  C34_43 
REMARK   18  A    between atoms: C37_46  and  O8_47 
REMARK   19  A    between atoms: C38_48  and  O9_49 
ROOT
HETATM    1  C22 UNL     1      -2.477  50.719 -15.985  1.00  0.00     0.259 C 
HETATM    2  O5  UNL     1      -1.291  50.763 -16.276  1.00  0.00    -0.265 OA
ENDROOT
BRANCH   1   3
HETATM    3  O4  UNL     1      -3.449  50.208 -16.786  1.00  0.00    -0.314 OA
BRANCH   3   4
HETATM    4  C21 UNL     1      -3.208  48.919 -17.329  1.00  0.00     0.260 C 
BRANCH   4   5
HETATM    5  C20 UNL     1      -2.982  48.595 -18.822  1.00  0.00     0.185 C 
HETATM    6  O3  UNL     1      -3.926  48.143 -19.483  1.00  0.00    -0.292 OA
BRANCH   5   7
HETATM    7  C19 UNL     1      -1.629  48.972 -19.502  1.00  0.00     0.128 C 
HETATM    8  C14 UNL     1      -1.721  50.180 -20.493  1.00  0.00    -0.002 C 
HETATM    9  C13 UNL     1      -0.310  50.745 -20.823  1.00  0.00     0.013 C 
HETATM   10  C15 UNL     1      -2.597  51.327 -19.959  1.00  0.00     0.019 C 
HETATM   11  C16 UNL     1      -2.347  49.530 -21.749  1.00  0.00     0.002 C 
HETATM   12  C12 UNL     1      -0.269  51.630 -22.071  1.00  0.00     0.007 C 
HETATM   13  C11 UNL     1      -0.825  50.911 -23.316  1.00  0.00     0.002 C 
HETATM   14  C2  UNL     1      -0.729  51.776 -24.636  1.00  0.00    -0.016 C 
HETATM   15  C10 UNL     1      -2.256  50.393 -23.028  1.00  0.00    -0.004 C 
HETATM   16  C1  UNL     1      -1.368  53.173 -24.467  1.00  0.00     0.020 C 
HETATM   17  C3  UNL     1       0.780  51.949 -24.990  1.00  0.00     0.022 C 
HETATM   18  C7  UNL     1      -1.451  51.063 -25.786  1.00  0.00    -0.068 C 
HETATM   19  C4  UNL     1       1.026  52.451 -26.406  1.00  0.00     0.084 C 
HETATM   20  C5  UNL     1       0.344  51.558 -27.409  1.00  0.00     0.149 C 
HETATM   21  O1  UNL     1       0.777  51.397 -28.547  1.00  0.00    -0.293 OA
HETATM   22  C6  UNL     1      -0.941  50.933 -27.024  1.00  0.00     0.053 C 
HETATM   23  C8  UNL     1      -2.826  50.516 -25.484  1.00  0.00     0.035 C 
HETATM   24  C9  UNL     1      -2.818  49.638 -24.242  1.00  0.00     0.010 C 
HETATM   25  C17 UNL     1      -1.678  48.148 -21.833  1.00  0.00     0.009 C 
HETATM   26  C18 UNL     1      -1.196  47.805 -20.420  1.00  0.00     0.047 C 
BRANCH   7  27
HETATM   27  O2  UNL     1      -0.601  49.188 -18.547  1.00  0.00    -0.381 OA
HETATM   28  H27 UNL     1      -0.386  48.309 -18.173  1.00  0.00     0.211 HD
ENDBRANCH   7  27
ENDBRANCH   5   7
ENDBRANCH   4   5
ENDBRANCH   3   4
ENDBRANCH   1   3
BRANCH   1  29
HETATM   29  C23 UNL     1      -3.079  51.268 -14.718  1.00  0.00     0.120 C 
BRANCH  29  30
HETATM   30  C24 UNL     1      -2.722  50.399 -13.521  1.00  0.00     0.112 C 
BRANCH  30  31
HETATM   31  C25 UNL     1      -3.419  50.851 -12.252  1.00  0.00     0.217 C 
HETATM   32  O6  UNL     1      -3.942  50.081 -11.456  1.00  0.00    -0.274 OA
HETATM   33  N1  UNL     1      -3.381  52.219 -12.076  1.00  0.00    -0.361 N 
HETATM   34  H34 UNL     1      -3.135  52.795 -12.870  1.00  0.00     0.162 HD
BRANCH  33  35
HETATM   35  C26 UNL     1      -4.089  52.848 -10.978  1.00  0.00     0.122 C 
BRANCH  35  36
HETATM   36  C27 UNL     1      -3.231  53.883 -10.257  1.00  0.00     0.020 C 
BRANCH  36  37
HETATM   37  C28 UNL     1      -1.792  53.996 -10.776  1.00  0.00     0.002 C 
BRANCH  37  38
HETATM   38  C29 UNL     1      -0.952  55.139 -10.192  1.00  0.00     0.009 C 
BRANCH  38  39
HETATM   39  C30 UNL     1       0.246  54.695  -9.352  1.00  0.00     0.103 C 
BRANCH  39  40
HETATM   40  C31 UNL     1       1.556  55.337  -9.774  1.00  0.00     0.217 C 
HETATM   41  O7  UNL     1       1.866  55.551 -10.941  1.00  0.00    -0.274 OA
HETATM   42  N2  UNL     1       2.374  55.634  -8.707  1.00  0.00    -0.361 N 
HETATM   43  H45 UNL     1       1.979  55.619  -7.775  1.00  0.00     0.162 HD
BRANCH  42  44
HETATM   44  C32 UNL     1       3.632  56.339  -8.887  1.00  0.00     0.127 C 
BRANCH  44  45
HETATM   45  C33 UNL     1       4.856  55.508  -8.488  1.00  0.00     0.058 C 
BRANCH  45  46
HETATM   46  C34 UNL     1       5.693  56.165  -7.414  1.00  0.00    -0.054 A 
HETATM   47  C35 UNL     1       5.204  57.288  -6.722  1.00  0.00     0.010 A 
HETATM   48  C36 UNL     1       5.958  57.883  -5.709  1.00  0.00     0.040 A 
HETATM   49  C37 UNL     1       7.200  57.356  -5.388  1.00  0.00     0.098 A 
HETATM   50  C38 UNL     1       7.708  56.267  -6.089  1.00  0.00     0.099 A 
HETATM   51  C39 UNL     1       6.959  55.656  -7.087  1.00  0.00     0.046 A 
BRANCH  49  52
HETATM   52  O8  UNL     1       7.902  57.906  -4.355  1.00  0.00    -0.358 OA
HETATM   53  H52 UNL     1       8.390  57.173  -3.939  1.00  0.00     0.217 HD
ENDBRANCH  49  52
BRANCH  50  54
HETATM   54  O9  UNL     1       8.963  55.799  -5.829  1.00  0.00    -0.358 OA
HETATM   55  H53 UNL     1       9.521  56.590  -5.711  1.00  0.00     0.217 HD
ENDBRANCH  50  54
ENDBRANCH  45  46
ENDBRANCH  44  45
ENDBRANCH  42  44
ENDBRANCH  39  40
ENDBRANCH  38  39
ENDBRANCH  37  38
ENDBRANCH  36  37
ENDBRANCH  35  36
ENDBRANCH  33  35
ENDBRANCH  30  31
ENDBRANCH  29  30
ENDBRANCH   1  29
TORSDOF 19
ENDMDL
MODEL 2
REMARK minimizedAffinity -8.29376984
REMARK CNNscore 0.520160854
REMARK CNNaffinity 7.0411067
REMARK  19 active torsions:
REMARK  status: ('A' for Active; 'I' for Inactive)
REMARK    1  A    between atoms: C19_20  and  O2_21 
REMARK    2  A    between atoms: C19_20  and  C20_22 
REMARK    3  A    between atoms: C20_22  and  C21_24 
REMARK    4  A    between atoms: C21_24  and  O4_25 
REMARK    5  A    between atoms: O4_25  and  C22_26 
REMARK    6  A    between atoms: C22_26  and  C23_28 
REMARK    7  A    between atoms: C23_28  and  C24_29 
REMARK    8  A    between atoms: C24_29  and  C25_30 
REMARK       I    between atoms: C25_30  and  N1_32 
REMARK    9  A    between atoms: N1_32  and  C26_33 
REMARK   10  A    between atoms: C26_33  and  C27_34 
REMARK   11  A    between atoms: C27_34  and  C28_35 
REMARK   12  A    between atoms: C28_35  and  C29_36 
REMARK   13  A    between atoms: C29_36  and  C30_37 
REMARK   14  A    between atoms: C30_37  and  C31_38 
REMARK       I    between atoms: C31_38  and  N2_40 
REMARK   15  A    between atoms: N2_40  and  C32_41 
REMARK   16  A    between atoms: C32_41  and  C33_42 
REMARK   17  A    between atoms: C33_42  and  C34_43 
REMARK   18  A    between atoms: C37_46  and  O8_47 
REMARK   19  A    between atoms: C38_48  and  O9_49 
ROOT
HETATM    1  C22 UNL     1      -6.965  45.304 -19.860  1.00  0.00     0.259 C 
HETATM    2  O5  UNL     1      -7.306  45.179 -18.693  1.00  0.00    -0.265 OA
ENDROOT
BRANCH   1   3
HETATM    3  O4  UNL     1      -5.681  45.239 -20.299  1.00  0.00    -0.314 OA
BRANCH   3   4
HETATM    4  C21 UNL     1      -5.105  46.456 -20.749  1.00  0.00     0.260 C 
BRANCH   4   5
HETATM    5  C20 UNL     1      -4.760  47.674 -19.865  1.00  0.00     0.185 C 
HETATM    6  O3  UNL     1      -5.573  48.032 -19.002  1.00  0.00    -0.292 OA
BRANCH   5   7
HETATM    7  C19 UNL     1      -3.353  48.339 -19.973  1.00  0.00     0.128 C 
HETATM    8  C14 UNL     1      -3.287  49.550 -20.961  1.00  0.00    -0.002 C 
HETATM    9  C13 UNL     1      -2.001  50.395 -20.729  1.00  0.00     0.013 C 
HETATM   10  C15 UNL     1      -4.509  50.478 -20.853  1.00  0.00     0.019 C 
HETATM   11  C16 UNL     1      -3.229  48.850 -22.338  1.00  0.00     0.002 C 
HETATM   12  C12 UNL     1      -1.650  51.328 -21.891  1.00  0.00     0.007 C 
HETATM   13  C11 UNL     1      -1.521  50.573 -23.229  1.00  0.00     0.002 C 
HETATM   14  C2  UNL     1      -1.088  51.501 -24.434  1.00  0.00    -0.016 C 
HETATM   15  C10 UNL     1      -2.817  49.773 -23.508  1.00  0.00    -0.004 C 
HETATM   16  C1  UNL     1      -2.005  52.737 -24.577  1.00  0.00     0.020 C 
HETATM   17  C3  UNL     1       0.372  51.981 -24.173  1.00  0.00     0.022 C 
HETATM   18  C7  UNL     1      -1.147  50.714 -25.750  1.00  0.00    -0.068 C 
HETATM   19  C4  UNL     1       1.048  52.586 -25.395  1.00  0.00     0.084 C 
HETATM   20  C5  UNL     1       1.004  51.625 -26.554  1.00  0.00     0.149 C 
HETATM   21  O1  UNL     1       1.870  51.605 -27.424  1.00  0.00    -0.293 OA
HETATM   22  C6  UNL     1      -0.179  50.744 -26.684  1.00  0.00     0.053 C 
HETATM   23  C8  UNL     1      -2.393  49.897 -25.994  1.00  0.00     0.035 C 
HETATM   24  C9  UNL     1      -2.698  48.980 -24.819  1.00  0.00     0.010 C 
HETATM   25  C17 UNL     1      -2.322  47.630 -22.106  1.00  0.00     0.009 C 
HETATM   26  C18 UNL     1      -2.374  47.322 -20.606  1.00  0.00     0.047 C 
BRANCH   7  27
HETATM   27  O2  UNL     1      -2.845  48.707 -18.698  1.00  0.00    -0.381 OA
HETATM   28  H27 UNL     1      -2.624  47.870 -18.240  1.00  0.00     0.211 HD
ENDBRANCH   7  27
ENDBRANCH   5   7
ENDBRANCH   4   5
ENDBRANCH   3   4
ENDBRANCH   1   3
BRANCH   1  29
HETATM   29  C23 UNL     1      -7.895  45.603 -21.006  1.00  0.00     0.120 C 
BRANCH  29  30
HETATM   30  C24 UNL     1      -8.271  47.078 -21.035  1.00  0.00     0.112 C 
BRANCH  30  31
HETATM   31  C25 UNL     1      -9.600  47.348 -20.355  1.00  0.00     0.217 C 
HETATM   32  O6  UNL     1      -9.718  48.025 -19.343  1.00  0.00    -0.274 OA
HETATM   33  N1  UNL     1     -10.666  46.770 -21.013  1.00  0.00    -0.361 N 
HETATM   34  H34 UNL     1     -10.471  46.053 -21.701  1.00  0.00     0.162 HD
BRANCH  33  35
HETATM   35  C26 UNL     1     -12.003  46.825 -20.456  1.00  0.00     0.122 C 
BRANCH  35  36
HETATM   36  C27 UNL     1     -13.081  46.660 -21.523  1.00  0.00     0.020 C 
BRANCH  36  37
HETATM   37  C28 UNL     1     -14.332  47.520 -21.308  1.00  0.00     0.002 C 
BRANCH  37  38
HETATM   38  C29 UNL     1     -14.563  48.029 -19.879  1.00  0.00     0.009 C 
BRANCH  38  39
HETATM   39  C30 UNL     1     -15.379  47.094 -18.985  1.00  0.00     0.103 C 
BRANCH  39  40
HETATM   40  C31 UNL     1     -16.879  47.226 -19.175  1.00  0.00     0.217 C 
HETATM   41  O7  UNL     1     -17.533  48.190 -18.793  1.00  0.00    -0.274 OA
HETATM   42  N2  UNL     1     -17.436  46.135 -19.806  1.00  0.00    -0.361 N 
HETATM   43  H45 UNL     1     -16.822  45.478 -20.268  1.00  0.00     0.162 HD
BRANCH  42  44
HETATM   44  C32 UNL     1     -18.843  46.104 -20.169  1.00  0.00     0.127 C 
BRANCH  44  45
HETATM   45  C33 UNL     1     -19.245  44.835 -20.929  1.00  0.00     0.058 C 
BRANCH  45  46
HETATM   46  C34 UNL     1     -19.230  45.015 -22.430  1.00  0.00    -0.054 A 
HETATM   47  C35 UNL     1     -19.332  43.899 -23.279  1.00  0.00     0.010 A 
HETATM   48  C36 UNL     1     -19.348  44.060 -24.666  1.00  0.00     0.040 A 
HETATM   49  C37 UNL     1     -19.262  45.335 -25.203  1.00  0.00     0.098 A 
HETATM   50  C38 UNL     1     -19.126  46.444 -24.373  1.00  0.00     0.099 A 
HETATM   51  C39 UNL     1     -19.127  46.298 -22.992  1.00  0.00     0.046 A 
BRANCH  49  52
HETATM   52  O8  UNL     1     -19.341  45.487 -26.557  1.00  0.00    -0.358 OA
HETATM   53  H52 UNL     1     -19.793  46.337 -26.708  1.00  0.00     0.217 HD
ENDBRANCH  49  52
BRANCH  50  54
HETATM   54  O9  UNL     1     -18.960  47.690 -24.903  1.00  0.00    -0.358 OA
HETATM   55  H53 UNL     1     -18.345  47.580 -25.651  1.00  0.00     0.217 HD
ENDBRANCH  50  54
ENDBRANCH  45  46
ENDBRANCH  44  45
ENDBRANCH  42  44
ENDBRANCH  39  40
ENDBRANCH  38  39
ENDBRANCH  37  38
ENDBRANCH  36  37
ENDBRANCH  35  36
ENDBRANCH  33  35
ENDBRANCH  30  31
ENDBRANCH  29  30
ENDBRANCH   1  29
TORSDOF 19
ENDMDL
MODEL 3
REMARK minimizedAffinity -8.52728558
REMARK CNNscore 0.50585252
REMARK CNNaffinity 7.26081133
REMARK  19 active torsions:
REMARK  status: ('A' for Active; 'I' for Inactive)
REMARK    1  A    between atoms: C19_20  and  O2_21 
REMARK    2  A    between atoms: C19_20  and  C20_22 
REMARK    3  A    between atoms: C20_22  and  C21_24 
REMARK    4  A    between atoms: C21_24  and  O4_25 
REMARK    5  A    between atoms: O4_25  and  C22_26 
REMARK    6  A    between atoms: C22_26  and  C23_28 
REMARK    7  A    between atoms: C23_28  and  C24_29 
REMARK    8  A    between atoms: C24_29  and  C25_30 
REMARK       I    between atoms: C25_30  and  N1_32 
REMARK    9  A    between atoms: N1_32  and  C26_33 
REMARK   10  A    between atoms: C26_33  and  C27_34 
REMARK   11  A    between atoms: C27_34  and  C28_35 
REMARK   12  A    between atoms: C28_35  and  C29_36 
REMARK   13  A    between atoms: C29_36  and  C30_37 
REMARK   14  A    between atoms: C30_37  and  C31_38 
REMARK       I    between atoms: C31_38  and  N2_40 
REMARK   15  A    between atoms: N2_40  and  C32_41 
REMARK   16  A    between atoms: C32_41  and  C33_42 
REMARK   17  A    between atoms: C33_42  and  C34_43 
REMARK   18  A    between atoms: C37_46  and  O8_47 
REMARK   19  A    between atoms: C38_48  and  O9_49 
ROOT
HETATM    1  C22 UNL     1       0.455  50.700 -15.093  1.00  0.00     0.259 C 
HETATM    2  O5  UNL     1       1.104  49.977 -14.351  1.00  0.00    -0.265 OA
ENDROOT
BRANCH   1   3
HETATM    3  O4  UNL     1      -0.467  51.606 -14.674  1.00  0.00    -0.314 OA
BRANCH   3   4
HETATM    4  C21 UNL     1      -0.203  52.253 -13.440  1.00  0.00     0.260 C 
BRANCH   4   5
HETATM    5  C20 UNL     1      -1.191  52.392 -12.261  1.00  0.00     0.185 C 
HETATM    6  O3  UNL     1      -2.399  52.508 -12.508  1.00  0.00    -0.292 OA
BRANCH   5   7
HETATM    7  C19 UNL     1      -0.679  52.241 -10.796  1.00  0.00     0.128 C 
HETATM    8  C14 UNL     1      -0.461  53.598 -10.047  1.00  0.00    -0.002 C 
HETATM    9  C13 UNL     1      -0.340  53.379  -8.511  1.00  0.00     0.013 C 
HETATM   10  C15 UNL     1      -1.587  54.614 -10.310  1.00  0.00     0.019 C 
HETATM   11  C16 UNL     1       0.886  54.085 -10.629  1.00  0.00     0.002 C 
HETATM   12  C12 UNL     1       0.276  54.562  -7.760  1.00  0.00     0.007 C 
HETATM   13  C11 UNL     1       1.655  54.959  -8.321  1.00  0.00     0.002 C 
HETATM   14  C2  UNL     1       2.347  56.132  -7.519  1.00  0.00    -0.016 C 
HETATM   15  C10 UNL     1       1.543  55.240  -9.841  1.00  0.00    -0.004 C 
HETATM   16  C1  UNL     1       1.427  57.366  -7.380  1.00  0.00     0.020 C 
HETATM   17  C3  UNL     1       2.700  55.600  -6.096  1.00  0.00     0.022 C 
HETATM   18  C7  UNL     1       3.627  56.577  -8.237  1.00  0.00    -0.068 C 
HETATM   19  C4  UNL     1       3.674  56.486  -5.332  1.00  0.00     0.084 C 
HETATM   20  C5  UNL     1       4.924  56.715  -6.139  1.00  0.00     0.149 C 
HETATM   21  O1  UNL     1       6.018  56.909  -5.615  1.00  0.00    -0.293 OA
HETATM   22  C6  UNL     1       4.798  56.798  -7.612  1.00  0.00     0.053 C 
HETATM   23  C8  UNL     1       3.523  56.802  -9.726  1.00  0.00     0.035 C 
HETATM   24  C9  UNL     1       2.915  55.600 -10.432  1.00  0.00     0.010 C 
HETATM   25  C17 UNL     1       1.729  52.805 -10.754  1.00  0.00     0.009 C 
HETATM   26  C18 UNL     1       0.743  51.634 -10.830  1.00  0.00     0.047 C 
BRANCH   7  27
HETATM   27  O2  UNL     1      -1.510  51.378 -10.033  1.00  0.00    -0.381 OA
HETATM   28  H27 UNL     1      -1.358  50.476 -10.379  1.00  0.00     0.211 HD
ENDBRANCH   7  27
ENDBRANCH   5   7
ENDBRANCH   4   5
ENDBRANCH   3   4
ENDBRANCH   1   3
BRANCH   1  29
HETATM   29  C23 UNL     1       0.520  50.678 -16.598  1.00  0.00     0.120 C 
BRANCH  29  30
HETATM   30  C24 UNL     1       1.240  51.908 -17.132  1.00  0.00     0.112 C 
BRANCH  30  31
HETATM   31  C25 UNL     1       0.525  52.524 -18.320  1.00  0.00     0.217 C 
HETATM   32  O6  UNL     1      -0.671  52.384 -18.538  1.00  0.00    -0.274 OA
HETATM   33  N1  UNL     1       1.360  53.282 -19.115  1.00  0.00    -0.361 N 
HETATM   34  H34 UNL     1       2.360  53.170 -19.000  1.00  0.00     0.162 HD
BRANCH  33  35
HETATM   35  C26 UNL     1       0.883  53.860 -20.356  1.00  0.00     0.122 C 
BRANCH  35  36
HETATM   36  C27 UNL     1       1.267  53.018 -21.569  1.00  0.00     0.020 C 
BRANCH  36  37
HETATM   37  C28 UNL     1       0.306  51.864 -21.877  1.00  0.00     0.002 C 
BRANCH  37  38
HETATM   38  C29 UNL     1      -0.720  52.119 -22.990  1.00  0.00     0.009 C 
BRANCH  38  39
HETATM   39  C30 UNL     1      -2.178  52.148 -22.528  1.00  0.00     0.103 C 
BRANCH  39  40
HETATM   40  C31 UNL     1      -3.093  51.254 -23.347  1.00  0.00     0.217 C 
HETATM   41  O7  UNL     1      -2.721  50.604 -24.319  1.00  0.00    -0.274 OA
HETATM   42  N2  UNL     1      -4.394  51.266 -22.897  1.00  0.00    -0.361 N 
HETATM   43  H45 UNL     1      -4.587  51.658 -21.984  1.00  0.00     0.162 HD
BRANCH  42  44
HETATM   44  C32 UNL     1      -5.409  50.407 -23.482  1.00  0.00     0.127 C 
BRANCH  44  45
HETATM   45  C33 UNL     1      -4.915  48.980 -23.748  1.00  0.00     0.058 C 
BRANCH  45  46
HETATM   46  C34 UNL     1      -5.225  48.498 -25.147  1.00  0.00    -0.054 A 
HETATM   47  C35 UNL     1      -6.425  47.816 -25.412  1.00  0.00     0.010 A 
HETATM   48  C36 UNL     1      -6.732  47.393 -26.707  1.00  0.00     0.040 A 
HETATM   49  C37 UNL     1      -5.840  47.654 -27.735  1.00  0.00     0.098 A 
HETATM   50  C38 UNL     1      -4.634  48.298 -27.478  1.00  0.00     0.099 A 
HETATM   51  C39 UNL     1      -4.326  48.739 -26.198  1.00  0.00     0.046 A 
BRANCH  49  52
HETATM   52  O8  UNL     1      -6.177  47.292 -29.008  1.00  0.00    -0.358 OA
HETATM   53  H52 UNL     1      -5.787  47.966 -29.593  1.00  0.00     0.217 HD
ENDBRANCH  49  52
BRANCH  50  54
HETATM   54  O9  UNL     1      -3.720  48.482 -28.475  1.00  0.00    -0.358 OA
HETATM   55  H53 UNL     1      -3.715  47.652 -28.986  1.00  0.00     0.217 HD
ENDBRANCH  50  54
ENDBRANCH  45  46
ENDBRANCH  44  45
ENDBRANCH  42  44
ENDBRANCH  39  40
ENDBRANCH  38  39
ENDBRANCH  37  38
ENDBRANCH  36  37
ENDBRANCH  35  36
ENDBRANCH  33  35
ENDBRANCH  30  31
ENDBRANCH  29  30
ENDBRANCH   1  29
TORSDOF 19
ENDMDL
MODEL 4
REMARK minimizedAffinity -8.6449995
REMARK CNNscore 0.482006043
REMARK CNNaffinity 8.12947369
REMARK  19 active torsions:
REMARK  status: ('A' for Active; 'I' for Inactive)
REMARK    1  A    between atoms: C19_20  and  O2_21 
REMARK    2  A    between atoms: C19_20  and  C20_22 
REMARK    3  A    between atoms: C20_22  and  C21_24 
REMARK    4  A    between atoms: C21_24  and  O4_25 
REMARK    5  A    between atoms: O4_25  and  C22_26 
REMARK    6  A    between atoms: C22_26  and  C23_28 
REMARK    7  A    between atoms: C23_28  and  C24_29 
REMARK    8  A    between atoms: C24_29  and  C25_30 
REMARK       I    between atoms: C25_30  and  N1_32 
REMARK    9  A    between atoms: N1_32  and  C26_33 
REMARK   10  A    between atoms: C26_33  and  C27_34 
REMARK   11  A    between atoms: C27_34  and  C28_35 
REMARK   12  A    between atoms: C28_35  and  C29_36 
REMARK   13  A    between atoms: C29_36  and  C30_37 
REMARK   14  A    between atoms: C30_37  and  C31_38 
REMARK       I    between atoms: C31_38  and  N2_40 
REMARK   15  A    between atoms: N2_40  and  C32_41 
REMARK   16  A    between atoms: C32_41  and  C33_42 
REMARK   17  A    between atoms: C33_42  and  C34_43 
REMARK   18  A    between atoms: C37_46  and  O8_47 
REMARK   19  A    between atoms: C38_48  and  O9_49 
ROOT
HETATM    1  C22 UNL     1      -6.375  48.968 -22.665  1.00  0.00     0.259 C 
HETATM    2  O5  UNL     1      -6.780  50.111 -22.815  1.00  0.00    -0.265 OA
ENDROOT
BRANCH   1   3
HETATM    3  O4  UNL     1      -5.288  48.625 -21.926  1.00  0.00    -0.314 OA
BRANCH   3   4
HETATM    4  C21 UNL     1      -4.968  49.479 -20.838  1.00  0.00     0.260 C 
BRANCH   4   5
HETATM    5  C20 UNL     1      -3.544  49.858 -20.375  1.00  0.00     0.185 C 
HETATM    6  O3  UNL     1      -3.139  51.010 -20.579  1.00  0.00    -0.292 OA
BRANCH   5   7
HETATM    7  C19 UNL     1      -2.703  48.843 -19.541  1.00  0.00     0.128 C 
HETATM    8  C14 UNL     1      -2.385  49.316 -18.083  1.00  0.00    -0.002 C 
HETATM    9  C13 UNL     1      -1.905  48.129 -17.199  1.00  0.00     0.013 C 
HETATM   10  C15 UNL     1      -3.588  49.985 -17.395  1.00  0.00     0.019 C 
HETATM   11  C16 UNL     1      -1.231  50.321 -18.306  1.00  0.00     0.002 C 
HETATM   12  C12 UNL     1      -1.191  48.557 -15.915  1.00  0.00     0.007 C 
HETATM   13  C11 UNL     1       0.003  49.491 -16.193  1.00  0.00     0.002 C 
HETATM   14  C2  UNL     1       0.804  49.892 -14.890  1.00  0.00    -0.016 C 
HETATM   15  C10 UNL     1      -0.466  50.713 -17.022  1.00  0.00    -0.004 C 
HETATM   16  C1  UNL     1      -0.118  50.476 -13.795  1.00  0.00     0.020 C 
HETATM   17  C3  UNL     1       1.498  48.610 -14.337  1.00  0.00     0.022 C 
HETATM   18  C7  UNL     1       1.863  50.949 -15.228  1.00  0.00    -0.068 C 
HETATM   19  C4  UNL     1       2.578  48.893 -13.302  1.00  0.00     0.084 C 
HETATM   20  C5  UNL     1       3.598  49.854 -13.851  1.00  0.00     0.149 C 
HETATM   21  O1  UNL     1       4.773  49.843 -13.492  1.00  0.00    -0.293 OA
HETATM   22  C6  UNL     1       3.134  50.902 -14.789  1.00  0.00     0.053 C 
HETATM   23  C8  UNL     1       1.410  52.112 -16.078  1.00  0.00     0.035 C 
HETATM   24  C9  UNL     1       0.715  51.640 -17.345  1.00  0.00     0.010 C 
HETATM   25  C17 UNL     1      -0.380  49.680 -19.415  1.00  0.00     0.009 C 
HETATM   26  C18 UNL     1      -1.300  48.722 -20.179  1.00  0.00     0.047 C 
BRANCH   7  27
HETATM   27  O2  UNL     1      -3.296  47.552 -19.527  1.00  0.00    -0.381 OA
HETATM   28  H27 UNL     1      -3.185  47.191 -20.431  1.00  0.00     0.211 HD
ENDBRANCH   7  27
ENDBRANCH   5   7
ENDBRANCH   4   5
ENDBRANCH   3   4
ENDBRANCH   1   3
BRANCH   1  29
HETATM   29  C23 UNL     1      -6.973  47.746 -23.312  1.00  0.00     0.120 C 
BRANCH  29  30
HETATM   30  C24 UNL     1      -8.462  47.935 -23.567  1.00  0.00     0.112 C 
BRANCH  30  31
HETATM   31  C25 UNL     1      -8.773  48.139 -25.038  1.00  0.00     0.217 C 
HETATM   32  O6  UNL     1      -9.775  48.715 -25.444  1.00  0.00    -0.274 OA
HETATM   33  N1  UNL     1      -7.797  47.631 -25.869  1.00  0.00    -0.361 N 
HETATM   34  H34 UNL     1      -7.124  46.985 -25.476  1.00  0.00     0.162 HD
BRANCH  33  35
HETATM   35  C26 UNL     1      -7.969  47.634 -27.308  1.00  0.00     0.122 C 
BRANCH  35  36
HETATM   36  C27 UNL     1      -6.641  47.769 -28.048  1.00  0.00     0.020 C 
BRANCH  36  37
HETATM   37  C28 UNL     1      -5.408  47.843 -27.140  1.00  0.00     0.002 C 
BRANCH  37  38
HETATM   38  C29 UNL     1      -4.213  48.635 -27.688  1.00  0.00     0.009 C 
BRANCH  38  39
HETATM   39  C30 UNL     1      -2.919  48.485 -26.888  1.00  0.00     0.103 C 
BRANCH  39  40
HETATM   40  C31 UNL     1      -3.003  49.055 -25.483  1.00  0.00     0.217 C 
HETATM   41  O7  UNL     1      -3.470  48.445 -24.527  1.00  0.00    -0.274 OA
HETATM   42  N2  UNL     1      -2.517  50.341 -25.398  1.00  0.00    -0.361 N 
HETATM   43  H45 UNL     1      -1.970  50.704 -26.167  1.00  0.00     0.162 HD
BRANCH  42  44
HETATM   44  C32 UNL     1      -2.419  51.033 -24.124  1.00  0.00     0.127 C 
BRANCH  44  45
HETATM   45  C33 UNL     1      -1.156  50.674 -23.334  1.00  0.00     0.058 C 
BRANCH  45  46
HETATM   46  C34 UNL     1      -0.313  51.880 -22.987  1.00  0.00    -0.054 A 
HETATM   47  C35 UNL     1       0.157  52.062 -21.675  1.00  0.00     0.010 A 
HETATM   48  C36 UNL     1       0.961  53.159 -21.353  1.00  0.00     0.040 A 
HETATM   49  C37 UNL     1       1.293  54.071 -22.343  1.00  0.00     0.098 A 
HETATM   50  C38 UNL     1       0.805  53.918 -23.637  1.00  0.00     0.099 A 
HETATM   51  C39 UNL     1       0.020  52.822 -23.973  1.00  0.00     0.046 A 
BRANCH  49  52
HETATM   52  O8  UNL     1       2.129  55.104 -22.033  1.00  0.00    -0.358 OA
HETATM   53  H52 UNL     1       2.655  55.277 -22.835  1.00  0.00     0.217 HD
ENDBRANCH  49  52
BRANCH  50  54
HETATM   54  O9  UNL     1       1.065  54.859 -24.591  1.00  0.00    -0.358 OA
HETATM   55  H53 UNL     1       0.969  55.721 -24.147  1.00  0.00     0.217 HD
ENDBRANCH  50  54
ENDBRANCH  45  46
ENDBRANCH  44  45
ENDBRANCH  42  44
ENDBRANCH  39  40
ENDBRANCH  38  39
ENDBRANCH  37  38
ENDBRANCH  36  37
ENDBRANCH  35  36
ENDBRANCH  33  35
ENDBRANCH  30  31
ENDBRANCH  29  30
ENDBRANCH   1  29
TORSDOF 19
ENDMDL
MODEL 5
REMARK minimizedAffinity -8.94212914
REMARK CNNscore 0.481707603
REMARK CNNaffinity 7.32551575
REMARK  19 active torsions:
REMARK  status: ('A' for Active; 'I' for Inactive)
REMARK    1  A    between atoms: C19_20  and  O2_21 
REMARK    2  A    between atoms: C19_20  and  C20_22 
REMARK    3  A    between atoms: C20_22  and  C21_24 
REMARK    4  A    between atoms: C21_24  and  O4_25 
REMARK    5  A    between atoms: O4_25  and  C22_26 
REMARK    6  A    between atoms: C22_26  and  C23_28 
REMARK    7  A    between atoms: C23_28  and  C24_29 
REMARK    8  A    between atoms: C24_29  and  C25_30 
REMARK       I    between atoms: C25_30  and  N1_32 
REMARK    9  A    between atoms: N1_32  and  C26_33 
REMARK   10  A    between atoms: C26_33  and  C27_34 
REMARK   11  A    between atoms: C27_34  and  C28_35 
REMARK   12  A    between atoms: C28_35  and  C29_36 
REMARK   13  A    between atoms: C29_36  and  C30_37 
REMARK   14  A    between atoms: C30_37  and  C31_38 
REMARK       I    between atoms: C31_38  and  N2_40 
REMARK   15  A    between atoms: N2_40  and  C32_41 
REMARK   16  A    between atoms: C32_41  and  C33_42 
REMARK   17  A    between atoms: C33_42  and  C34_43 
REMARK   18  A    between atoms: C37_46  and  O8_47 
REMARK   19  A    between atoms: C38_48  and  O9_49 
ROOT
HETATM    1  C22 UNL     1       1.284  53.701 -21.529  1.00  0.00     0.259 C 
HETATM    2  O5  UNL     1       1.741  54.801 -21.802  1.00  0.00    -0.265 OA
ENDROOT
BRANCH   1   3
HETATM    3  O4  UNL     1       0.958  52.753 -22.445  1.00  0.00    -0.314 OA
BRANCH   3   4
HETATM    4  C21 UNL     1       0.513  53.221 -23.709  1.00  0.00     0.260 C 
BRANCH   4   5
HETATM    5  C20 UNL     1       0.273  52.350 -24.962  1.00  0.00     0.185 C 
HETATM    6  O3  UNL     1       1.223  51.714 -25.436  1.00  0.00    -0.292 OA
BRANCH   5   7
HETATM    7  C19 UNL     1      -1.174  52.173 -25.518  1.00  0.00     0.128 C 
HETATM    8  C14 UNL     1      -2.260  51.926 -24.420  1.00  0.00    -0.002 C 
HETATM    9  C13 UNL     1      -3.692  52.150 -24.985  1.00  0.00     0.013 C 
HETATM   10  C15 UNL     1      -2.075  52.821 -23.182  1.00  0.00     0.019 C 
HETATM   11  C16 UNL     1      -2.047  50.434 -24.074  1.00  0.00     0.002 C 
HETATM   12  C12 UNL     1      -4.804  51.542 -24.126  1.00  0.00     0.007 C 
HETATM   13  C11 UNL     1      -4.593  50.035 -23.878  1.00  0.00     0.002 C 
HETATM   14  C2  UNL     1      -5.764  49.364 -23.053  1.00  0.00    -0.016 C 
HETATM   15  C10 UNL     1      -3.194  49.796 -23.257  1.00  0.00    -0.004 C 
HETATM   16  C1  UNL     1      -6.050  50.113 -21.732  1.00  0.00     0.020 C 
HETATM   17  C3  UNL     1      -7.049  49.386 -23.936  1.00  0.00     0.022 C 
HETATM   18  C7  UNL     1      -5.399  47.916 -22.706  1.00  0.00    -0.068 C 
HETATM   19  C4  UNL     1      -8.158  48.474 -23.431  1.00  0.00     0.084 C 
HETATM   20  C5  UNL     1      -7.650  47.066 -23.266  1.00  0.00     0.149 C 
HETATM   21  O1  UNL     1      -8.378  46.085 -23.395  1.00  0.00    -0.293 OA
HETATM   22  C6  UNL     1      -6.244  46.877 -22.844  1.00  0.00     0.053 C 
HETATM   23  C8  UNL     1      -4.016  47.683 -22.147  1.00  0.00     0.035 C 
HETATM   24  C9  UNL     1      -2.944  48.296 -23.036  1.00  0.00     0.010 C 
HETATM   25  C17 UNL     1      -1.749  49.770 -25.429  1.00  0.00     0.009 C 
HETATM   26  C18 UNL     1      -1.225  50.873 -26.354  1.00  0.00     0.047 C 
BRANCH   7  27
HETATM   27  O2  UNL     1      -1.552  53.254 -26.359  1.00  0.00    -0.381 OA
HETATM   28  H27 UNL     1      -1.022  53.162 -27.177  1.00  0.00     0.211 HD
ENDBRANCH   7  27
ENDBRANCH   5   7
ENDBRANCH   4   5
ENDBRANCH   3   4
ENDBRANCH   1   3
BRANCH   1  29
HETATM   29  C23 UNL     1       0.952  53.222 -20.140  1.00  0.00     0.120 C 
BRANCH  29  30
HETATM   30  C24 UNL     1      -0.062  52.087 -20.180  1.00  0.00     0.112 C 
BRANCH  30  31
HETATM   31  C25 UNL     1      -0.620  51.764 -18.807  1.00  0.00     0.217 C 
HETATM   32  O6  UNL     1      -1.815  51.788 -18.539  1.00  0.00    -0.274 OA
HETATM   33  N1  UNL     1       0.357  51.415 -17.899  1.00  0.00    -0.361 N 
HETATM   34  H34 UNL     1       1.319  51.631 -18.126  1.00  0.00     0.162 HD
BRANCH  33  35
HETATM   35  C26 UNL     1       0.029  51.178 -16.507  1.00  0.00     0.122 C 
BRANCH  35  36
HETATM   36  C27 UNL     1       0.861  52.041 -15.563  1.00  0.00     0.020 C 
BRANCH  36  37
HETATM   37  C28 UNL     1       2.329  52.207 -15.976  1.00  0.00     0.002 C 
BRANCH  37  38
HETATM   38  C29 UNL     1       3.368  52.015 -14.863  1.00  0.00     0.009 C 
BRANCH  38  39
HETATM   39  C30 UNL     1       2.950  51.052 -13.750  1.00  0.00     0.103 C 
BRANCH  39  40
HETATM   40  C31 UNL     1       3.137  51.619 -12.354  1.00  0.00     0.217 C 
HETATM   41  O7  UNL     1       3.654  50.999 -11.430  1.00  0.00    -0.274 OA
HETATM   42  N2  UNL     1       2.645  52.899 -12.226  1.00  0.00    -0.361 N 
HETATM   43  H45 UNL     1       2.419  53.417 -13.065  1.00  0.00     0.162 HD
BRANCH  42  44
HETATM   44  C32 UNL     1       2.810  53.656 -10.997  1.00  0.00     0.127 C 
BRANCH  44  45
HETATM   45  C33 UNL     1       3.968  54.659 -11.054  1.00  0.00     0.058 C 
BRANCH  45  46
HETATM   46  C34 UNL     1       4.208  55.359  -9.735  1.00  0.00    -0.054 A 
HETATM   47  C35 UNL     1       5.472  55.301  -9.123  1.00  0.00     0.010 A 
HETATM   48  C36 UNL     1       5.711  55.969  -7.920  1.00  0.00     0.040 A 
HETATM   49  C37 UNL     1       4.686  56.694  -7.331  1.00  0.00     0.098 A 
HETATM   50  C38 UNL     1       3.422  56.730  -7.912  1.00  0.00     0.099 A 
HETATM   51  C39 UNL     1       3.178  56.085  -9.117  1.00  0.00     0.046 A 
BRANCH  49  52
HETATM   52  O8  UNL     1       4.947  57.395  -6.189  1.00  0.00    -0.358 OA
HETATM   53  H52 UNL     1       4.390  58.194  -6.228  1.00  0.00     0.217 HD
ENDBRANCH  49  52
BRANCH  50  54
HETATM   54  O9  UNL     1       2.393  57.376  -7.290  1.00  0.00    -0.358 OA
HETATM   55  H53 UNL     1       2.474  57.156  -6.344  1.00  0.00     0.217 HD
ENDBRANCH  50  54
ENDBRANCH  45  46
ENDBRANCH  44  45
ENDBRANCH  42  44
ENDBRANCH  39  40
ENDBRANCH  38  39
ENDBRANCH  37  38
ENDBRANCH  36  37
ENDBRANCH  35  36
ENDBRANCH  33  35
ENDBRANCH  30  31
ENDBRANCH  29  30
ENDBRANCH   1  29
TORSDOF 19
ENDMDL
MODEL 6
REMARK minimizedAffinity -8.69227695
REMARK CNNscore 0.437199831
REMARK CNNaffinity 7.42036581
REMARK  19 active torsions:
REMARK  status: ('A' for Active; 'I' for Inactive)
REMARK    1  A    between atoms: C19_20  and  O2_21 
REMARK    2  A    between atoms: C19_20  and  C20_22 
REMARK    3  A    between atoms: C20_22  and  C21_24 
REMARK    4  A    between atoms: C21_24  and  O4_25 
REMARK    5  A    between atoms: O4_25  and  C22_26 
REMARK    6  A    between atoms: C22_26  and  C23_28 
REMARK    7  A    between atoms: C23_28  and  C24_29 
REMARK    8  A    between atoms: C24_29  and  C25_30 
REMARK       I    between atoms: C25_30  and  N1_32 
REMARK    9  A    between atoms: N1_32  and  C26_33 
REMARK   10  A    between atoms: C26_33  and  C27_34 
REMARK   11  A    between atoms: C27_34  and  C28_35 
REMARK   12  A    between atoms: C28_35  and  C29_36 
REMARK   13  A    between atoms: C29_36  and  C30_37 
REMARK   14  A    between atoms: C30_37  and  C31_38 
REMARK       I    between atoms: C31_38  and  N2_40 
REMARK   15  A    between atoms: N2_40  and  C32_41 
REMARK   16  A    between atoms: C32_41  and  C33_42 
REMARK   17  A    between atoms: C33_42  and  C34_43 
REMARK   18  A    between atoms: C37_46  and  O8_47 
REMARK   19  A    between atoms: C38_48  and  O9_49 
ROOT
HETATM    1  C22 UNL     1       0.379  50.750 -15.575  1.00  0.00     0.259 C 
HETATM    2  O5  UNL     1       0.896  49.829 -14.959  1.00  0.00    -0.265 OA
ENDROOT
BRANCH   1   3
HETATM    3  O4  UNL     1      -0.352  51.744 -15.007  1.00  0.00    -0.314 OA
BRANCH   3   4
HETATM    4  C21 UNL     1       0.019  52.130 -13.693  1.00  0.00     0.260 C 
BRANCH   4   5
HETATM    5  C20 UNL     1      -0.938  52.274 -12.489  1.00  0.00     0.185 C 
HETATM    6  O3  UNL     1      -2.146  52.438 -12.705  1.00  0.00    -0.292 OA
BRANCH   5   7
HETATM    7  C19 UNL     1      -0.398  52.069 -11.040  1.00  0.00     0.128 C 
HETATM    8  C14 UNL     1      -0.259  53.390 -10.212  1.00  0.00    -0.002 C 
HETATM    9  C13 UNL     1      -0.104  53.089  -8.694  1.00  0.00     0.013 C 
HETATM   10  C15 UNL     1      -1.450  54.345 -10.403  1.00  0.00     0.019 C 
HETATM   11  C16 UNL     1       1.047  53.997 -10.775  1.00  0.00     0.002 C 
HETATM   12  C12 UNL     1       0.443  54.262  -7.878  1.00  0.00     0.007 C 
HETATM   13  C11 UNL     1       1.788  54.780  -8.426  1.00  0.00     0.002 C 
HETATM   14  C2  UNL     1       2.413  55.945  -7.560  1.00  0.00    -0.016 C 
HETATM   15  C10 UNL     1       1.639  55.144  -9.925  1.00  0.00    -0.004 C 
HETATM   16  C1  UNL     1       1.417  57.107  -7.339  1.00  0.00     0.020 C 
HETATM   17  C3  UNL     1       2.817  55.354  -6.175  1.00  0.00     0.022 C 
HETATM   18  C7  UNL     1       3.653  56.514  -8.262  1.00  0.00    -0.068 C 
HETATM   19  C4  UNL     1       3.742  56.254  -5.368  1.00  0.00     0.084 C 
HETATM   20  C5  UNL     1       4.965  56.611  -6.170  1.00  0.00     0.149 C 
HETATM   21  O1  UNL     1       6.051  56.844  -5.645  1.00  0.00    -0.293 OA
HETATM   22  C6  UNL     1       4.815  56.773  -7.634  1.00  0.00     0.053 C 
HETATM   23  C8  UNL     1       3.516  56.821  -9.733  1.00  0.00     0.035 C 
HETATM   24  C9  UNL     1       2.977  55.626 -10.505  1.00  0.00     0.010 C 
HETATM   25  C17 UNL     1       1.968  52.784 -10.985  1.00  0.00     0.009 C 
HETATM   26  C18 UNL     1       1.059  51.558 -11.122  1.00  0.00     0.047 C 
BRANCH   7  27
HETATM   27  O2  UNL     1      -1.163  51.110 -10.323  1.00  0.00    -0.381 OA
HETATM   28  H27 UNL     1      -0.958  50.242 -10.725  1.00  0.00     0.211 HD
ENDBRANCH   7  27
ENDBRANCH   5   7
ENDBRANCH   4   5
ENDBRANCH   3   4
ENDBRANCH   1   3
BRANCH   1  29
HETATM   29  C23 UNL     1       0.413  50.916 -17.072  1.00  0.00     0.120 C 
BRANCH  29  30
HETATM   30  C24 UNL     1       1.149  52.190 -17.464  1.00  0.00     0.112 C 
BRANCH  30  31
HETATM   31  C25 UNL     1       0.486  52.904 -18.626  1.00  0.00     0.217 C 
HETATM   32  O6  UNL     1      -0.726  53.044 -18.733  1.00  0.00    -0.274 OA
HETATM   33  N1  UNL     1       1.393  53.404 -19.538  1.00  0.00    -0.361 N 
HETATM   34  H34 UNL     1       2.345  53.062 -19.501  1.00  0.00     0.162 HD
BRANCH  33  35
HETATM   35  C26 UNL     1       0.945  54.022 -20.770  1.00  0.00     0.122 C 
BRANCH  35  36
HETATM   36  C27 UNL     1       0.832  53.017 -21.912  1.00  0.00     0.020 C 
BRANCH  36  37
HETATM   37  C28 UNL     1       0.159  51.692 -21.534  1.00  0.00     0.002 C 
BRANCH  37  38
HETATM   38  C29 UNL     1      -0.869  51.148 -22.536  1.00  0.00     0.009 C 
BRANCH  38  39
HETATM   39  C30 UNL     1      -2.287  50.995 -21.985  1.00  0.00     0.103 C 
BRANCH  39  40
HETATM   40  C31 UNL     1      -3.136  50.000 -22.757  1.00  0.00     0.217 C 
HETATM   41  O7  UNL     1      -4.247  49.627 -22.396  1.00  0.00    -0.274 OA
HETATM   42  N2  UNL     1      -2.516  49.541 -23.898  1.00  0.00    -0.361 N 
HETATM   43  H45 UNL     1      -1.700  50.034 -24.237  1.00  0.00     0.162 HD
BRANCH  42  44
HETATM   44  C32 UNL     1      -3.196  48.656 -24.828  1.00  0.00     0.127 C 
BRANCH  44  45
HETATM   45  C33 UNL     1      -2.692  48.787 -26.270  1.00  0.00     0.058 C 
BRANCH  45  46
HETATM   46  C34 UNL     1      -2.101  50.147 -26.568  1.00  0.00    -0.054 A 
HETATM   47  C35 UNL     1      -2.942  51.245 -26.816  1.00  0.00     0.010 A 
HETATM   48  C36 UNL     1      -2.404  52.511 -27.064  1.00  0.00     0.040 A 
HETATM   49  C37 UNL     1      -1.028  52.675 -27.062  1.00  0.00     0.098 A 
HETATM   50  C38 UNL     1      -0.186  51.588 -26.851  1.00  0.00     0.099 A 
HETATM   51  C39 UNL     1      -0.709  50.329 -26.586  1.00  0.00     0.046 A 
BRANCH  49  52
HETATM   52  O8  UNL     1      -0.514  53.927 -27.243  1.00  0.00    -0.358 OA
HETATM   53  H52 UNL     1       0.299  53.966 -26.707  1.00  0.00     0.217 HD
ENDBRANCH  49  52
BRANCH  50  54
HETATM   54  O9  UNL     1       1.169  51.734 -26.930  1.00  0.00    -0.358 OA
HETATM   55  H53 UNL     1       1.328  52.316 -27.696  1.00  0.00     0.217 HD
ENDBRANCH  50  54
ENDBRANCH  45  46
ENDBRANCH  44  45
ENDBRANCH  42  44
ENDBRANCH  39  40
ENDBRANCH  38  39
ENDBRANCH  37  38
ENDBRANCH  36  37
ENDBRANCH  35  36
ENDBRANCH  33  35
ENDBRANCH  30  31
ENDBRANCH  29  30
ENDBRANCH   1  29
TORSDOF 19
ENDMDL
MODEL 7
REMARK minimizedAffinity -8.73817921
REMARK CNNscore 0.402859241
REMARK CNNaffinity 6.90995073
REMARK  19 active torsions:
REMARK  status: ('A' for Active; 'I' for Inactive)
REMARK    1  A    between atoms: C19_20  and  O2_21 
REMARK    2  A    between atoms: C19_20  and  C20_22 
REMARK    3  A    between atoms: C20_22  and  C21_24 
REMARK    4  A    between atoms: C21_24  and  O4_25 
REMARK    5  A    between atoms: O4_25  and  C22_26 
REMARK    6  A    between atoms: C22_26  and  C23_28 
REMARK    7  A    between atoms: C23_28  and  C24_29 
REMARK    8  A    between atoms: C24_29  and  C25_30 
REMARK       I    between atoms: C25_30  and  N1_32 
REMARK    9  A    between atoms: N1_32  and  C26_33 
REMARK   10  A    between atoms: C26_33  and  C27_34 
REMARK   11  A    between atoms: C27_34  and  C28_35 
REMARK   12  A    between atoms: C28_35  and  C29_36 
REMARK   13  A    between atoms: C29_36  and  C30_37 
REMARK   14  A    between atoms: C30_37  and  C31_38 
REMARK       I    between atoms: C31_38  and  N2_40 
REMARK   15  A    between atoms: N2_40  and  C32_41 
REMARK   16  A    between atoms: C32_41  and  C33_42 
REMARK   17  A    between atoms: C33_42  and  C34_43 
REMARK   18  A    between atoms: C37_46  and  O8_47 
REMARK   19  A    between atoms: C38_48  and  O9_49 
ROOT
HETATM    1  C22 UNL     1      -5.651  47.800 -27.083  1.00  0.00     0.259 C 
HETATM    2  O5  UNL     1      -6.187  47.953 -25.995  1.00  0.00    -0.265 OA
ENDROOT
BRANCH   1   3
HETATM    3  O4  UNL     1      -4.394  48.214 -27.389  1.00  0.00    -0.314 OA
BRANCH   3   4
HETATM    4  C21 UNL     1      -3.869  49.274 -26.604  1.00  0.00     0.260 C 
BRANCH   4   5
HETATM    5  C20 UNL     1      -3.088  50.494 -27.140  1.00  0.00     0.185 C 
HETATM    6  O3  UNL     1      -2.802  50.536 -28.344  1.00  0.00    -0.292 OA
BRANCH   5   7
HETATM    7  C19 UNL     1      -2.803  51.706 -26.200  1.00  0.00     0.128 C 
HETATM    8  C14 UNL     1      -1.506  51.560 -25.336  1.00  0.00    -0.002 C 
HETATM    9  C13 UNL     1      -1.072  52.928 -24.737  1.00  0.00     0.013 C 
HETATM   10  C15 UNL     1      -0.323  50.973 -26.126  1.00  0.00     0.019 C 
HETATM   11  C16 UNL     1      -1.965  50.602 -24.212  1.00  0.00     0.002 C 
HETATM   12  C12 UNL     1      -0.087  52.814 -23.572  1.00  0.00     0.007 C 
HETATM   13  C11 UNL     1      -0.622  51.917 -22.438  1.00  0.00     0.002 C 
HETATM   14  C2  UNL     1       0.344  51.839 -21.189  1.00  0.00    -0.016 C 
HETATM   15  C10 UNL     1      -1.004  50.527 -23.004  1.00  0.00    -0.004 C 
HETATM   16  C1  UNL     1       1.782  51.435 -21.588  1.00  0.00     0.020 C 
HETATM   17  C3  UNL     1       0.381  53.246 -20.519  1.00  0.00     0.022 C 
HETATM   18  C7  UNL     1      -0.177  50.802 -20.186  1.00  0.00    -0.068 C 
HETATM   19  C4  UNL     1       0.980  53.246 -19.119  1.00  0.00     0.084 C 
HETATM   20  C5  UNL     1       0.264  52.256 -18.239  1.00  0.00     0.149 C 
HETATM   21  O1  UNL     1       0.161  52.412 -17.025  1.00  0.00    -0.293 OA
HETATM   22  C6  UNL     1      -0.248  51.014 -18.859  1.00  0.00     0.053 C 
HETATM   23  C8  UNL     1      -0.593  49.465 -20.751  1.00  0.00     0.035 C 
HETATM   24  C9  UNL     1      -1.577  49.626 -21.900  1.00  0.00     0.010 C 
HETATM   25  C17 UNL     1      -3.399  51.055 -23.891  1.00  0.00     0.009 C 
HETATM   26  C18 UNL     1      -3.921  51.780 -25.135  1.00  0.00     0.047 C 
BRANCH   7  27
HETATM   27  O2  UNL     1      -2.790  52.935 -26.914  1.00  0.00    -0.381 OA
HETATM   28  H27 UNL     1      -3.718  53.111 -27.172  1.00  0.00     0.211 HD
ENDBRANCH   7  27
ENDBRANCH   5   7
ENDBRANCH   4   5
ENDBRANCH   3   4
ENDBRANCH   1   3
BRANCH   1  29
HETATM   29  C23 UNL     1      -6.304  47.178 -28.290  1.00  0.00     0.120 C 
BRANCH  29  30
HETATM   30  C24 UNL     1      -7.343  48.113 -28.893  1.00  0.00     0.112 C 
BRANCH  30  31
HETATM   31  C25 UNL     1      -8.705  47.956 -28.244  1.00  0.00     0.217 C 
HETATM   32  O6  UNL     1      -9.087  48.634 -27.299  1.00  0.00    -0.274 OA
HETATM   33  N1  UNL     1      -9.479  46.987 -28.848  1.00  0.00    -0.361 N 
HETATM   34  H34 UNL     1      -9.023  46.328 -29.466  1.00  0.00     0.162 HD
BRANCH  33  35
HETATM   35  C26 UNL     1     -10.770  46.617 -28.301  1.00  0.00     0.122 C 
BRANCH  35  36
HETATM   36  C27 UNL     1     -11.808  47.723 -28.473  1.00  0.00     0.020 C 
BRANCH  36  37
HETATM   37  C28 UNL     1     -13.161  47.439 -27.809  1.00  0.00     0.002 C 
BRANCH  37  38
HETATM   38  C29 UNL     1     -13.773  46.060 -28.088  1.00  0.00     0.009 C 
BRANCH  38  39
HETATM   39  C30 UNL     1     -14.980  45.703 -27.219  1.00  0.00     0.103 C 
BRANCH  39  40
HETATM   40  C31 UNL     1     -15.871  44.634 -27.825  1.00  0.00     0.217 C 
HETATM   41  O7  UNL     1     -15.448  43.610 -28.352  1.00  0.00    -0.274 OA
HETATM   42  N2  UNL     1     -17.211  44.945 -27.744  1.00  0.00    -0.361 N 
HETATM   43  H45 UNL     1     -17.497  45.695 -27.128  1.00  0.00     0.162 HD
BRANCH  42  44
HETATM   44  C32 UNL     1     -18.235  44.012 -28.180  1.00  0.00     0.127 C 
BRANCH  44  45
HETATM   45  C33 UNL     1     -18.997  43.361 -27.019  1.00  0.00     0.058 C 
BRANCH  45  46
HETATM   46  C34 UNL     1     -18.962  44.186 -25.753  1.00  0.00    -0.054 A 
HETATM   47  C35 UNL     1     -19.635  45.419 -25.691  1.00  0.00     0.010 A 
HETATM   48  C36 UNL     1     -19.631  46.173 -24.515  1.00  0.00     0.040 A 
HETATM   49  C37 UNL     1     -18.956  45.694 -23.404  1.00  0.00     0.098 A 
HETATM   50  C38 UNL     1     -18.258  44.491 -23.465  1.00  0.00     0.099 A 
HETATM   51  C39 UNL     1     -18.269  43.725 -24.622  1.00  0.00     0.046 A 
BRANCH  49  52
HETATM   52  O8  UNL     1     -19.010  46.408 -22.241  1.00  0.00    -0.358 OA
HETATM   53  H52 UNL     1     -18.995  45.752 -21.520  1.00  0.00     0.217 HD
ENDBRANCH  49  52
BRANCH  50  54
HETATM   54  O9  UNL     1     -17.527  44.060 -22.396  1.00  0.00    -0.358 OA
HETATM   55  H53 UNL     1     -17.078  44.851 -22.045  1.00  0.00     0.217 HD
ENDBRANCH  50  54
ENDBRANCH  45  46
ENDBRANCH  44  45
ENDBRANCH  42  44
ENDBRANCH  39  40
ENDBRANCH  38  39
ENDBRANCH  37  38
ENDBRANCH  36  37
ENDBRANCH  35  36
ENDBRANCH  33  35
ENDBRANCH  30  31
ENDBRANCH  29  30
ENDBRANCH   1  29
TORSDOF 19
ENDMDL
MODEL 8
REMARK minimizedAffinity -9.20699787
REMARK CNNscore 0.395113289
REMARK CNNaffinity 6.87547255
REMARK  19 active torsions:
REMARK  status: ('A' for Active; 'I' for Inactive)
REMARK    1  A    between atoms: C19_20  and  O2_21 
REMARK    2  A    between atoms: C19_20  and  C20_22 
REMARK    3  A    between atoms: C20_22  and  C21_24 
REMARK    4  A    between atoms: C21_24  and  O4_25 
REMARK    5  A    between atoms: O4_25  and  C22_26 
REMARK    6  A    between atoms: C22_26  and  C23_28 
REMARK    7  A    between atoms: C23_28  and  C24_29 
REMARK    8  A    between atoms: C24_29  and  C25_30 
REMARK       I    between atoms: C25_30  and  N1_32 
REMARK    9  A    between atoms: N1_32  and  C26_33 
REMARK   10  A    between atoms: C26_33  and  C27_34 
REMARK   11  A    between atoms: C27_34  and  C28_35 
REMARK   12  A    between atoms: C28_35  and  C29_36 
REMARK   13  A    between atoms: C29_36  and  C30_37 
REMARK   14  A    between atoms: C30_37  and  C31_38 
REMARK       I    between atoms: C31_38  and  N2_40 
REMARK   15  A    between atoms: N2_40  and  C32_41 
REMARK   16  A    between atoms: C32_41  and  C33_42 
REMARK   17  A    between atoms: C33_42  and  C34_43 
REMARK   18  A    between atoms: C37_46  and  O8_47 
REMARK   19  A    between atoms: C38_48  and  O9_49 
ROOT
HETATM    1  C22 UNL     1      -6.558  46.999 -30.460  1.00  0.00     0.259 C 
HETATM    2  O5  UNL     1      -5.554  46.509 -30.956  1.00  0.00    -0.265 OA
ENDROOT
BRANCH   1   3
HETATM    3  O4  UNL     1      -7.829  46.619 -30.756  1.00  0.00    -0.314 OA
BRANCH   3   4
HETATM    4  C21 UNL     1      -8.641  46.224 -29.662  1.00  0.00     0.260 C 
BRANCH   4   5
HETATM    5  C20 UNL     1     -10.184  46.150 -29.662  1.00  0.00     0.185 C 
HETATM    6  O3  UNL     1     -10.739  45.271 -30.335  1.00  0.00    -0.292 OA
BRANCH   5   7
HETATM    7  C19 UNL     1     -11.005  47.078 -28.714  1.00  0.00     0.128 C 
HETATM    8  C14 UNL     1     -11.811  46.318 -27.608  1.00  0.00    -0.002 C 
HETATM    9  C13 UNL     1     -12.274  47.288 -26.483  1.00  0.00     0.013 C 
HETATM   10  C15 UNL     1     -11.012  45.169 -26.969  1.00  0.00     0.019 C 
HETATM   11  C16 UNL     1     -13.031  45.788 -28.395  1.00  0.00     0.002 C 
HETATM   12  C12 UNL     1     -13.393  46.730 -25.600  1.00  0.00     0.007 C 
HETATM   13  C11 UNL     1     -14.621  46.291 -26.421  1.00  0.00     0.002 C 
HETATM   14  C2  UNL     1     -15.822  45.777 -25.529  1.00  0.00    -0.016 C 
HETATM   15  C10 UNL     1     -14.191  45.277 -27.510  1.00  0.00    -0.004 C 
HETATM   16  C1  UNL     1     -15.384  44.669 -24.545  1.00  0.00     0.020 C 
HETATM   17  C3  UNL     1     -16.372  46.989 -24.716  1.00  0.00     0.022 C 
HETATM   18  C7  UNL     1     -16.931  45.205 -26.421  1.00  0.00    -0.068 C 
HETATM   19  C4  UNL     1     -17.734  46.738 -24.085  1.00  0.00     0.084 C 
HETATM   20  C5  UNL     1     -18.728  46.303 -25.129  1.00  0.00     0.149 C 
HETATM   21  O1  UNL     1     -19.929  46.542 -25.033  1.00  0.00    -0.293 OA
HETATM   22  C6  UNL     1     -18.239  45.481 -26.259  1.00  0.00     0.053 C 
HETATM   23  C8  UNL     1     -16.500  44.255 -27.512  1.00  0.00     0.035 C 
HETATM   24  C9  UNL     1     -15.394  44.854 -28.368  1.00  0.00     0.010 C 
HETATM   25  C17 UNL     1     -13.388  46.932 -29.359  1.00  0.00     0.009 C 
HETATM   26  C18 UNL     1     -12.117  47.768 -29.539  1.00  0.00     0.047 C 
BRANCH   7  27
HETATM   27  O2  UNL     1     -10.194  48.089 -28.133  1.00  0.00    -0.381 OA
HETATM   28  H27 UNL     1      -9.970  48.709 -28.856  1.00  0.00     0.211 HD
ENDBRANCH   7  27
ENDBRANCH   5   7
ENDBRANCH   4   5
ENDBRANCH   3   4
ENDBRANCH   1   3
BRANCH   1  29
HETATM   29  C23 UNL     1      -6.570  48.142 -29.479  1.00  0.00     0.120 C 
BRANCH  29  30
HETATM   30  C24 UNL     1      -6.078  47.694 -28.110  1.00  0.00     0.112 C 
BRANCH  30  31
HETATM   31  C25 UNL     1      -4.747  48.322 -27.742  1.00  0.00     0.217 C 
HETATM   32  O6  UNL     1      -3.822  48.462 -28.532  1.00  0.00    -0.274 OA
HETATM   33  N1  UNL     1      -4.698  48.743 -26.429  1.00  0.00    -0.361 N 
HETATM   34  H34 UNL     1      -5.403  48.397 -25.790  1.00  0.00     0.162 HD
BRANCH  33  35
HETATM   35  C26 UNL     1      -3.471  49.268 -25.862  1.00  0.00     0.122 C 
BRANCH  35  36
HETATM   36  C27 UNL     1      -3.014  48.475 -24.642  1.00  0.00     0.020 C 
BRANCH  36  37
HETATM   37  C28 UNL     1      -2.707  49.325 -23.403  1.00  0.00     0.002 C 
BRANCH  37  38
HETATM   38  C29 UNL     1      -3.908  49.689 -22.521  1.00  0.00     0.009 C 
BRANCH  38  39
HETATM   39  C30 UNL     1      -4.118  51.189 -22.304  1.00  0.00     0.103 C 
BRANCH  39  40
HETATM   40  C31 UNL     1      -2.944  52.039 -22.755  1.00  0.00     0.217 C 
HETATM   41  O7  UNL     1      -2.985  52.809 -23.709  1.00  0.00    -0.274 OA
HETATM   42  N2  UNL     1      -1.814  51.838 -21.993  1.00  0.00    -0.361 N 
HETATM   43  H45 UNL     1      -1.905  51.349 -21.112  1.00  0.00     0.162 HD
BRANCH  42  44
HETATM   44  C32 UNL     1      -0.609  52.623 -22.199  1.00  0.00     0.127 C 
BRANCH  44  45
HETATM   45  C33 UNL     1       0.418  51.933 -23.103  1.00  0.00     0.058 C 
BRANCH  45  46
HETATM   46  C34 UNL     1       0.213  52.235 -24.570  1.00  0.00    -0.054 A 
HETATM   47  C35 UNL     1      -0.024  51.192 -25.482  1.00  0.00     0.010 A 
HETATM   48  C36 UNL     1      -0.243  51.465 -26.834  1.00  0.00     0.040 A 
HETATM   49  C37 UNL     1      -0.226  52.781 -27.272  1.00  0.00     0.098 A 
HETATM   50  C38 UNL     1       0.041  53.818 -26.384  1.00  0.00     0.099 A 
HETATM   51  C39 UNL     1       0.243  53.559 -25.035  1.00  0.00     0.046 A 
BRANCH  49  52
HETATM   52  O8  UNL     1      -0.503  53.042 -28.583  1.00  0.00    -0.358 OA
HETATM   53  H52 UNL     1      -0.966  53.900 -28.596  1.00  0.00     0.217 HD
ENDBRANCH  49  52
BRANCH  50  54
HETATM   54  O9  UNL     1       0.138  55.104 -26.830  1.00  0.00    -0.358 OA
HETATM   55  H53 UNL     1       0.635  55.057 -27.668  1.00  0.00     0.217 HD
ENDBRANCH  50  54
ENDBRANCH  45  46
ENDBRANCH  44  45
ENDBRANCH  42  44
ENDBRANCH  39  40
ENDBRANCH  38  39
ENDBRANCH  37  38
ENDBRANCH  36  37
ENDBRANCH  35  36
ENDBRANCH  33  35
ENDBRANCH  30  31
ENDBRANCH  29  30
ENDBRANCH   1  29
TORSDOF 19
ENDMDL
MODEL 9
REMARK minimizedAffinity -8.83872128
REMARK CNNscore 0.394854099
REMARK CNNaffinity 6.93715668
REMARK  19 active torsions:
REMARK  status: ('A' for Active; 'I' for Inactive)
REMARK    1  A    between atoms: C19_20  and  O2_21 
REMARK    2  A    between atoms: C19_20  and  C20_22 
REMARK    3  A    between atoms: C20_22  and  C21_24 
REMARK    4  A    between atoms: C21_24  and  O4_25 
REMARK    5  A    between atoms: O4_25  and  C22_26 
REMARK    6  A    between atoms: C22_26  and  C23_28 
REMARK    7  A    between atoms: C23_28  and  C24_29 
REMARK    8  A    between atoms: C24_29  and  C25_30 
REMARK       I    between atoms: C25_30  and  N1_32 
REMARK    9  A    between atoms: N1_32  and  C26_33 
REMARK   10  A    between atoms: C26_33  and  C27_34 
REMARK   11  A    between atoms: C27_34  and  C28_35 
REMARK   12  A    between atoms: C28_35  and  C29_36 
REMARK   13  A    between atoms: C29_36  and  C30_37 
REMARK   14  A    between atoms: C30_37  and  C31_38 
REMARK       I    between atoms: C31_38  and  N2_40 
REMARK   15  A    between atoms: N2_40  and  C32_41 
REMARK   16  A    between atoms: C32_41  and  C33_42 
REMARK   17  A    between atoms: C33_42  and  C34_43 
REMARK   18  A    between atoms: C37_46  and  O8_47 
REMARK   19  A    between atoms: C38_48  and  O9_49 
ROOT
HETATM    1  C22 UNL     1      -2.239  51.495 -14.466  1.00  0.00     0.259 C 
HETATM    2  O5  UNL     1      -1.042  51.381 -14.251  1.00  0.00    -0.265 OA
ENDROOT
BRANCH   1   3
HETATM    3  O4  UNL     1      -2.848  51.157 -15.633  1.00  0.00    -0.314 OA
BRANCH   3   4
HETATM    4  C21 UNL     1      -2.009  50.663 -16.665  1.00  0.00     0.260 C 
BRANCH   4   5
HETATM    5  C20 UNL     1      -2.102  51.033 -18.161  1.00  0.00     0.185 C 
HETATM    6  O3  UNL     1      -3.048  51.735 -18.543  1.00  0.00    -0.292 OA
BRANCH   5   7
HETATM    7  C19 UNL     1      -0.943  50.645 -19.130  1.00  0.00     0.128 C 
HETATM    8  C14 UNL     1      -0.634  51.719 -20.227  1.00  0.00    -0.002 C 
HETATM    9  C13 UNL     1       0.750  51.463 -20.889  1.00  0.00     0.013 C 
HETATM   10  C15 UNL     1      -0.657  53.156 -19.679  1.00  0.00     0.019 C 
HETATM   11  C16 UNL     1      -1.770  51.484 -21.248  1.00  0.00     0.002 C 
HETATM   12  C12 UNL     1       0.947  52.190 -22.222  1.00  0.00     0.007 C 
HETATM   13  C11 UNL     1      -0.164  51.861 -23.238  1.00  0.00     0.002 C 
HETATM   14  C2  UNL     1       0.052  52.541 -24.649  1.00  0.00    -0.016 C 
HETATM   15  C10 UNL     1      -1.551  52.167 -22.618  1.00  0.00    -0.004 C 
HETATM   16  C1  UNL     1       0.267  54.067 -24.533  1.00  0.00     0.020 C 
HETATM   17  C3  UNL     1       1.312  51.900 -25.305  1.00  0.00     0.022 C 
HETATM   18  C7  UNL     1      -1.174  52.304 -25.540  1.00  0.00    -0.068 C 
HETATM   19  C4  UNL     1       1.447  52.192 -26.793  1.00  0.00     0.084 C 
HETATM   20  C5  UNL     1       0.198  51.781 -27.527  1.00  0.00     0.149 C 
HETATM   21  O1  UNL     1       0.215  51.412 -28.698  1.00  0.00    -0.293 OA
HETATM   22  C6  UNL     1      -1.100  51.921 -26.828  1.00  0.00     0.053 C 
HETATM   23  C8  UNL     1      -2.524  52.557 -24.914  1.00  0.00     0.035 C 
HETATM   24  C9  UNL     1      -2.678  51.809 -23.598  1.00  0.00     0.010 C 
HETATM   25  C17 UNL     1      -1.935  49.956 -21.288  1.00  0.00     0.009 C 
HETATM   26  C18 UNL     1      -1.385  49.419 -19.963  1.00  0.00     0.047 C 
BRANCH   7  27
HETATM   27  O2  UNL     1       0.241  50.298 -18.425  1.00  0.00    -0.381 OA
HETATM   28  H27 UNL     1       0.059  49.438 -17.994  1.00  0.00     0.211 HD
ENDBRANCH   7  27
ENDBRANCH   5   7
ENDBRANCH   4   5
ENDBRANCH   3   4
ENDBRANCH   1   3
BRANCH   1  29
HETATM   29  C23 UNL     1      -3.241  52.078 -13.504  1.00  0.00     0.120 C 
BRANCH  29  30
HETATM   30  C24 UNL     1      -3.344  51.233 -12.242  1.00  0.00     0.112 C 
BRANCH  30  31
HETATM   31  C25 UNL     1      -3.210  52.062 -10.980  1.00  0.00     0.217 C 
HETATM   32  O6  UNL     1      -3.397  51.618  -9.854  1.00  0.00    -0.274 OA
HETATM   33  N1  UNL     1      -2.830  53.364 -11.230  1.00  0.00    -0.361 N 
HETATM   34  H34 UNL     1      -2.911  53.711 -12.178  1.00  0.00     0.162 HD
BRANCH  33  35
HETATM   35  C26 UNL     1      -2.756  54.337 -10.159  1.00  0.00     0.122 C 
BRANCH  35  36
HETATM   36  C27 UNL     1      -1.566  55.280 -10.316  1.00  0.00     0.020 C 
BRANCH  36  37
HETATM   37  C28 UNL     1      -0.195  54.598 -10.243  1.00  0.00     0.002 C 
BRANCH  37  38
HETATM   38  C29 UNL     1       0.327  54.283  -8.835  1.00  0.00     0.009 C 
BRANCH  38  39
HETATM   39  C30 UNL     1      -0.480  54.904  -7.694  1.00  0.00     0.103 C 
BRANCH  39  40
HETATM   40  C31 UNL     1       0.221  56.069  -7.018  1.00  0.00     0.217 C 
HETATM   41  O7  UNL     1      -0.263  56.713  -6.093  1.00  0.00    -0.274 OA
HETATM   42  N2  UNL     1       1.454  56.343  -7.567  1.00  0.00    -0.361 N 
HETATM   43  H45 UNL     1       1.873  55.658  -8.182  1.00  0.00     0.162 HD
BRANCH  42  44
HETATM   44  C32 UNL     1       2.328  57.358  -7.004  1.00  0.00     0.127 C 
BRANCH  44  45
HETATM   45  C33 UNL     1       3.508  57.716  -7.914  1.00  0.00     0.058 C 
BRANCH  45  46
HETATM   46  C34 UNL     1       4.822  57.142  -7.434  1.00  0.00    -0.054 A 
HETATM   47  C35 UNL     1       5.361  57.545  -6.200  1.00  0.00     0.010 A 
HETATM   48  C36 UNL     1       6.560  56.997  -5.735  1.00  0.00     0.040 A 
HETATM   49  C37 UNL     1       7.216  56.049  -6.505  1.00  0.00     0.098 A 
HETATM   50  C38 UNL     1       6.708  55.669  -7.743  1.00  0.00     0.099 A 
HETATM   51  C39 UNL     1       5.508  56.193  -8.207  1.00  0.00     0.046 A 
BRANCH  49  52
HETATM   52  O8  UNL     1       8.353  55.475  -6.014  1.00  0.00    -0.358 OA
HETATM   53  H52 UNL     1       8.357  54.558  -6.344  1.00  0.00     0.217 HD
ENDBRANCH  49  52
BRANCH  50  54
HETATM   54  O9  UNL     1       7.396  54.797  -8.536  1.00  0.00    -0.358 OA
HETATM   55  H53 UNL     1       8.332  55.058  -8.467  1.00  0.00     0.217 HD
ENDBRANCH  50  54
ENDBRANCH  45  46
ENDBRANCH  44  45
ENDBRANCH  42  44
ENDBRANCH  39  40
ENDBRANCH  38  39
ENDBRANCH  37  38
ENDBRANCH  36  37
ENDBRANCH  35  36
ENDBRANCH  33  35
ENDBRANCH  30  31
ENDBRANCH  29  30
ENDBRANCH   1  29
TORSDOF 19
ENDMDL
