MODEL 1
REMARK minimizedAffinity -9.33932209
REMARK CNNscore 0.539502501
REMARK CNNaffinity 6.74683523
REMARK  12 active torsions:
REMARK  status: ('A' for Active; 'I' for Inactive)
REMARK    1  A    between atoms: C3_3  and  O1_4 
REMARK    2  A    between atoms: N1_14  and  O2_16 
REMARK    3  A    between atoms: O2_16  and  C13_17 
REMARK    4  A    between atoms: C13_17  and  C14_18 
REMARK       I    between atoms: C14_18  and  N2_20 
REMARK    5  A    between atoms: N2_20  and  C15_21 
REMARK    6  A    between atoms: C15_21  and  C16_22 
REMARK    7  A    between atoms: C15_21  and  C26_36 
REMARK       I    between atoms: C16_22  and  N3_24 
REMARK    8  A    between atoms: N3_24  and  C17_25 
REMARK    9  A    between atoms: C17_25  and  C18_26 
REMARK   10  A    between atoms: C17_25  and  C25_33 
REMARK   11  A    between atoms: C18_26  and  C19_27 
REMARK   12  A    between atoms: C25_33  and  O6_35 
ROOT
HETATM    1  C1  UNL     1       2.522  51.847 -26.262  1.00  0.00     0.015 C 
HETATM    2  C2  UNL     1       1.365  52.182 -26.235  1.00  0.00    -0.078 C 
HETATM    3  C3  UNL     1      -0.044  52.636 -26.213  1.00  0.00     0.128 C 
HETATM    4  C4  UNL     1      -0.633  52.567 -27.619  1.00  0.00     0.052 C 
HETATM    5  C5  UNL     1      -1.023  51.105 -27.764  1.00  0.00     0.010 C 
HETATM    6  C6  UNL     1      -1.641  50.709 -26.400  1.00  0.00     0.002 C 
HETATM    7  C7  UNL     1      -3.194  50.750 -26.474  1.00  0.00    -0.004 C 
HETATM    8  C8  UNL     1      -3.813  49.695 -27.416  1.00  0.00     0.010 C 
HETATM    9  C9  UNL     1      -4.017  48.336 -26.775  1.00  0.00     0.035 C 
HETATM   10  C10 UNL     1      -4.866  48.460 -25.539  1.00  0.00    -0.069 C 
HETATM   11  C11 UNL     1      -6.020  47.779 -25.435  1.00  0.00     0.030 C 
HETATM   12  C12 UNL     1      -6.837  47.814 -24.194  1.00  0.00     0.032 C 
HETATM   13  N1  UNL     1      -8.033  47.297 -24.242  1.00  0.00    -0.271 N 
ATOM     14  H1  UNL     1      -8.442  46.881 -25.079  1.00  0.00     0.194 HD
HETATM   15  C29 UNL     1      -6.197  48.426 -22.967  1.00  0.00     0.060 C 
HETATM   16  C30 UNL     1      -5.407  49.665 -23.374  1.00  0.00     0.020 C 
HETATM   17  C31 UNL     1      -4.319  49.389 -24.458  1.00  0.00    -0.016 C 
HETATM   18  C32 UNL     1      -3.133  48.657 -23.789  1.00  0.00     0.020 C 
HETATM   19  C33 UNL     1      -3.922  50.781 -25.100  1.00  0.00     0.002 C 
HETATM   20  C34 UNL     1      -3.262  51.758 -24.102  1.00  0.00     0.007 C 
HETATM   21  C35 UNL     1      -2.139  52.593 -24.714  1.00  0.00     0.014 C 
HETATM   22  C36 UNL     1      -1.023  51.729 -25.370  1.00  0.00     0.003 C 
HETATM   23  C37 UNL     1      -0.263  50.979 -24.254  1.00  0.00     0.020 C 
ENDROOT
BRANCH   3  24
HETATM   24  O1  UNL     1      -0.055  53.986 -25.763  1.00  0.00    -0.377 OA
HETATM   25  H2  UNL     1       0.660  54.448 -26.237  1.00  0.00     0.211 HD
ENDBRANCH   3  24
BRANCH  13  26
HETATM   26  O2  UNL     1      -8.688  47.380 -23.005  1.00  0.00    -0.271 OA
BRANCH  26  27
HETATM   27  C13 UNL     1      -9.407  46.172 -22.767  1.00  0.00     0.303 C 
BRANCH  27  28
HETATM   28  C14 UNL     1     -10.905  46.423 -22.666  1.00  0.00     0.244 C 
HETATM   29  O3  UNL     1     -11.511  47.112 -23.484  1.00  0.00    -0.271 OA
HETATM   30  N2  UNL     1     -11.528  45.755 -21.631  1.00  0.00    -0.346 N 
HETATM   31  H16 UNL     1     -10.914  45.526 -20.850  1.00  0.00     0.163 HD
BRANCH  30  32
HETATM   32  C15 UNL     1     -12.929  46.024 -21.310  1.00  0.00     0.180 C 
BRANCH  32  33
HETATM   33  C16 UNL     1     -13.778  45.609 -22.532  1.00  0.00     0.241 C 
HETATM   34  O4  UNL     1     -14.010  44.432 -22.816  1.00  0.00    -0.271 OA
HETATM   35  N3  UNL     1     -14.262  46.660 -23.276  1.00  0.00    -0.345 N 
HETATM   36  H18 UNL     1     -13.846  47.577 -23.153  1.00  0.00     0.163 HD
BRANCH  35  37
HETATM   37  C17 UNL     1     -15.034  46.454 -24.504  1.00  0.00     0.186 C 
BRANCH  37  38
HETATM   38  C18 UNL     1     -16.369  47.221 -24.474  1.00  0.00     0.074 C 
BRANCH  38  39
HETATM   39  C19 UNL     1     -17.592  46.359 -24.694  1.00  0.00    -0.056 A 
HETATM   40  C20 UNL     1     -17.448  44.995 -24.993  1.00  0.00     0.007 A 
HETATM   41  C21 UNL     1     -18.573  44.188 -25.181  1.00  0.00     0.001 A 
HETATM   42  C22 UNL     1     -19.852  44.735 -25.069  1.00  0.00     0.000 A 
HETATM   43  C23 UNL     1     -20.005  46.090 -24.774  1.00  0.00     0.001 A 
HETATM   44  C24 UNL     1     -18.881  46.900 -24.588  1.00  0.00     0.007 A 
ENDBRANCH  38  39
ENDBRANCH  37  38
BRANCH  37  45
HETATM   45  C25 UNL     1     -14.241  46.796 -25.769  1.00  0.00     0.163 C 
HETATM   46  O5  UNL     1     -14.493  46.407 -26.900  1.00  0.00    -0.648 OA
BRANCH  45  47
HETATM   47  O6  UNL     1     -13.189  47.617 -25.568  1.00  0.00    -0.775 OA
HETATM   48  H27 UNL     1     -12.795  47.711 -26.459  1.00  0.00     0.167 HD
ENDBRANCH  45  47
ENDBRANCH  37  45
ENDBRANCH  35  37
ENDBRANCH  32  33
BRANCH  32  49
HETATM   49  C26 UNL     1     -13.124  47.498 -20.883  1.00  0.00     0.009 C 
HETATM   50  C27 UNL     1     -14.536  47.820 -20.384  1.00  0.00     0.012 C 
HETATM   51  C28 UNL     1     -12.089  47.929 -19.840  1.00  0.00     0.012 C 
ENDBRANCH  32  49
ENDBRANCH  30  32
ENDBRANCH  27  28
ENDBRANCH  26  27
ENDBRANCH  13  26
TORSDOF 12
ENDMDL
MODEL 2
REMARK minimizedAffinity -9.78869915
REMARK CNNscore 0.446280241
REMARK CNNaffinity 7.33449697
REMARK  12 active torsions:
REMARK  status: ('A' for Active; 'I' for Inactive)
REMARK    1  A    between atoms: C3_3  and  O1_4 
REMARK    2  A    between atoms: N1_14  and  O2_16 
REMARK    3  A    between atoms: O2_16  and  C13_17 
REMARK    4  A    between atoms: C13_17  and  C14_18 
REMARK       I    between atoms: C14_18  and  N2_20 
REMARK    5  A    between atoms: N2_20  and  C15_21 
REMARK    6  A    between atoms: C15_21  and  C16_22 
REMARK    7  A    between atoms: C15_21  and  C26_36 
REMARK       I    between atoms: C16_22  and  N3_24 
REMARK    8  A    between atoms: N3_24  and  C17_25 
REMARK    9  A    between atoms: C17_25  and  C18_26 
REMARK   10  A    between atoms: C17_25  and  C25_33 
REMARK   11  A    between atoms: C18_26  and  C19_27 
REMARK   12  A    between atoms: C25_33  and  O6_35 
ROOT
HETATM    1  C1  UNL     1      -0.331  51.621 -27.859  1.00  0.00     0.015 C 
HETATM    2  C2  UNL     1      -1.176  51.587 -27.002  1.00  0.00    -0.078 C 
HETATM    3  C3  UNL     1      -2.246  51.561 -25.978  1.00  0.00     0.128 C 
HETATM    4  C4  UNL     1      -3.006  50.241 -26.056  1.00  0.00     0.052 C 
HETATM    5  C5  UNL     1      -2.123  49.281 -25.273  1.00  0.00     0.010 C 
HETATM    6  C6  UNL     1      -1.638  50.085 -24.041  1.00  0.00     0.002 C 
HETATM    7  C7  UNL     1      -2.495  49.736 -22.792  1.00  0.00    -0.004 C 
HETATM    8  C8  UNL     1      -2.335  48.282 -22.298  1.00  0.00     0.010 C 
HETATM    9  C9  UNL     1      -1.152  48.067 -21.376  1.00  0.00     0.035 C 
HETATM   10  C10 UNL     1      -1.236  48.988 -20.190  1.00  0.00    -0.069 C 
HETATM   11  C11 UNL     1      -1.261  48.491 -18.941  1.00  0.00     0.030 C 
HETATM   12  C12 UNL     1      -1.258  49.377 -17.748  1.00  0.00     0.032 C 
HETATM   13  N1  UNL     1      -1.488  48.830 -16.588  1.00  0.00    -0.271 N 
ATOM     14  H1  UNL     1      -1.680  47.837 -16.452  1.00  0.00     0.194 HD
HETATM   15  C29 UNL     1      -0.959  50.843 -17.982  1.00  0.00     0.060 C 
HETATM   16  C30 UNL     1      -1.663  51.306 -19.252  1.00  0.00     0.020 C 
HETATM   17  C31 UNL     1      -1.283  50.478 -20.519  1.00  0.00    -0.016 C 
HETATM   18  C32 UNL     1       0.138  50.889 -20.966  1.00  0.00     0.020 C 
HETATM   19  C33 UNL     1      -2.394  50.749 -21.615  1.00  0.00     0.002 C 
HETATM   20  C34 UNL     1      -2.451  52.217 -22.091  1.00  0.00     0.007 C 
HETATM   21  C35 UNL     1      -2.744  52.367 -23.582  1.00  0.00     0.014 C 
HETATM   22  C36 UNL     1      -1.738  51.595 -24.484  1.00  0.00     0.003 C 
HETATM   23  C37 UNL     1      -0.359  52.283 -24.381  1.00  0.00     0.020 C 
ENDROOT
BRANCH   3  24
HETATM   24  O1  UNL     1      -3.136  52.635 -26.258  1.00  0.00    -0.377 OA
HETATM   25  H2  UNL     1      -3.301  52.624 -27.218  1.00  0.00     0.211 HD
ENDBRANCH   3  24
BRANCH  13  26
HETATM   26  O2  UNL     1      -1.440  49.770 -15.548  1.00  0.00    -0.271 OA
BRANCH  26  27
HETATM   27  C13 UNL     1      -2.649  49.706 -14.794  1.00  0.00     0.303 C 
BRANCH  27  28
HETATM   28  C14 UNL     1      -3.000  51.057 -14.185  1.00  0.00     0.244 C 
HETATM   29  O3  UNL     1      -3.729  51.865 -14.757  1.00  0.00    -0.271 OA
HETATM   30  N2  UNL     1      -2.495  51.259 -12.916  1.00  0.00    -0.346 N 
HETATM   31  H16 UNL     1      -1.658  50.717 -12.706  1.00  0.00     0.163 HD
BRANCH  30  32
HETATM   32  C15 UNL     1      -2.612  52.566 -12.270  1.00  0.00     0.180 C 
BRANCH  32  33
HETATM   33  C16 UNL     1      -1.320  52.805 -11.459  1.00  0.00     0.241 C 
HETATM   34  O4  UNL     1      -0.237  52.299 -11.761  1.00  0.00    -0.271 OA
HETATM   35  N3  UNL     1      -1.471  53.636 -10.372  1.00  0.00    -0.345 N 
HETATM   36  H18 UNL     1      -2.407  53.820 -10.026  1.00  0.00     0.163 HD
BRANCH  35  37
HETATM   37  C17 UNL     1      -0.368  53.925  -9.453  1.00  0.00     0.186 C 
BRANCH  37  38
HETATM   38  C18 UNL     1       0.402  55.192  -9.868  1.00  0.00     0.074 C 
BRANCH  38  39
HETATM   39  C19 UNL     1       1.896  55.122  -9.636  1.00  0.00    -0.056 A 
HETATM   40  C20 UNL     1       2.473  55.808  -8.555  1.00  0.00     0.007 A 
HETATM   41  C21 UNL     1       3.849  55.734  -8.323  1.00  0.00     0.001 A 
HETATM   42  C22 UNL     1       4.659  54.973  -9.166  1.00  0.00     0.000 A 
HETATM   43  C23 UNL     1       4.095  54.290 -10.243  1.00  0.00     0.001 A 
HETATM   44  C24 UNL     1       2.720  54.364 -10.479  1.00  0.00     0.007 A 
ENDBRANCH  38  39
ENDBRANCH  37  38
BRANCH  37  45
HETATM   45  C25 UNL     1      -0.820  54.020  -7.993  1.00  0.00     0.163 C 
HETATM   46  O5  UNL     1      -0.659  54.979  -7.254  1.00  0.00    -0.648 OA
BRANCH  45  47
HETATM   47  O6  UNL     1      -1.463  52.927  -7.532  1.00  0.00    -0.775 OA
HETATM   48  H27 UNL     1      -1.658  53.149  -6.599  1.00  0.00     0.167 HD
ENDBRANCH  45  47
ENDBRANCH  37  45
ENDBRANCH  35  37
ENDBRANCH  32  33
BRANCH  32  49
HETATM   49  C26 UNL     1      -3.905  52.649 -11.426  1.00  0.00     0.009 C 
HETATM   50  C27 UNL     1      -4.124  51.449 -10.500  1.00  0.00     0.012 C 
HETATM   51  C28 UNL     1      -3.975  53.951 -10.622  1.00  0.00     0.012 C 
ENDBRANCH  32  49
ENDBRANCH  30  32
ENDBRANCH  27  28
ENDBRANCH  26  27
ENDBRANCH  13  26
TORSDOF 12
ENDMDL
MODEL 3
REMARK minimizedAffinity -9.92178154
REMARK CNNscore 0.405738801
REMARK CNNaffinity 7.57282114
REMARK  12 active torsions:
REMARK  status: ('A' for Active; 'I' for Inactive)
REMARK    1  A    between atoms: C3_3  and  O1_4 
REMARK    2  A    between atoms: N1_14  and  O2_16 
REMARK    3  A    between atoms: O2_16  and  C13_17 
REMARK    4  A    between atoms: C13_17  and  C14_18 
REMARK       I    between atoms: C14_18  and  N2_20 
REMARK    5  A    between atoms: N2_20  and  C15_21 
REMARK    6  A    between atoms: C15_21  and  C16_22 
REMARK    7  A    between atoms: C15_21  and  C26_36 
REMARK       I    between atoms: C16_22  and  N3_24 
REMARK    8  A    between atoms: N3_24  and  C17_25 
REMARK    9  A    between atoms: C17_25  and  C18_26 
REMARK   10  A    between atoms: C17_25  and  C25_33 
REMARK   11  A    between atoms: C18_26  and  C19_27 
REMARK   12  A    between atoms: C25_33  and  O6_35 
ROOT
HETATM    1  C1  UNL     1       0.116  51.596 -28.167  1.00  0.00     0.015 C 
HETATM    2  C2  UNL     1      -0.793  51.652 -27.380  1.00  0.00    -0.078 C 
HETATM    3  C3  UNL     1      -1.937  51.739 -26.443  1.00  0.00     0.128 C 
HETATM    4  C4  UNL     1      -2.811  50.496 -26.576  1.00  0.00     0.052 C 
HETATM    5  C5  UNL     1      -2.088  49.466 -25.722  1.00  0.00     0.010 C 
HETATM    6  C6  UNL     1      -1.626  50.234 -24.459  1.00  0.00     0.002 C 
HETATM    7  C7  UNL     1      -2.607  49.982 -23.280  1.00  0.00    -0.004 C 
HETATM    8  C8  UNL     1      -2.626  48.524 -22.770  1.00  0.00     0.010 C 
HETATM    9  C9  UNL     1      -1.545  48.208 -21.756  1.00  0.00     0.035 C 
HETATM   10  C10 UNL     1      -1.633  49.147 -20.584  1.00  0.00    -0.069 C 
HETATM   11  C11 UNL     1      -1.803  48.668 -19.339  1.00  0.00     0.030 C 
HETATM   12  C12 UNL     1      -1.809  49.563 -18.153  1.00  0.00     0.032 C 
HETATM   13  N1  UNL     1      -2.181  49.054 -17.012  1.00  0.00    -0.271 N 
ATOM     14  H1  UNL     1      -2.477  48.085 -16.889  1.00  0.00     0.194 HD
HETATM   15  C29 UNL     1      -1.354  50.991 -18.368  1.00  0.00     0.060 C 
HETATM   16  C30 UNL     1      -1.909  51.505 -19.691  1.00  0.00     0.020 C 
HETATM   17  C31 UNL     1      -1.512  50.631 -20.922  1.00  0.00    -0.016 C 
HETATM   18  C32 UNL     1      -0.027  50.900 -21.256  1.00  0.00     0.020 C 
HETATM   19  C33 UNL     1      -2.503  50.993 -22.102  1.00  0.00     0.002 C 
HETATM   20  C34 UNL     1      -2.382  52.455 -22.587  1.00  0.00     0.007 C 
HETATM   21  C35 UNL     1      -2.542  52.615 -24.097  1.00  0.00     0.014 C 
HETATM   22  C36 UNL     1      -1.546  51.741 -24.914  1.00  0.00     0.003 C 
HETATM   23  C37 UNL     1      -0.120  52.296 -24.704  1.00  0.00     0.020 C 
ENDROOT
BRANCH   3  24
HETATM   24  O1  UNL     1      -2.696  52.889 -26.796  1.00  0.00    -0.377 OA
HETATM   25  H2  UNL     1      -2.785  52.883 -27.766  1.00  0.00     0.211 HD
ENDBRANCH   3  24
BRANCH  13  26
HETATM   26  O2  UNL     1      -2.125  49.996 -15.976  1.00  0.00    -0.271 OA
BRANCH  26  27
HETATM   27  C13 UNL     1      -1.363  49.467 -14.893  1.00  0.00     0.303 C 
BRANCH  27  28
HETATM   28  C14 UNL     1       0.132  49.629 -15.129  1.00  0.00     0.244 C 
HETATM   29  O3  UNL     1       0.795  48.792 -15.738  1.00  0.00    -0.271 OA
HETATM   30  N2  UNL     1       0.656  50.820 -14.669  1.00  0.00    -0.346 N 
HETATM   31  H16 UNL     1       0.130  51.245 -13.906  1.00  0.00     0.163 HD
BRANCH  30  32
HETATM   32  C15 UNL     1       2.101  51.049 -14.678  1.00  0.00     0.180 C 
BRANCH  32  33
HETATM   33  C16 UNL     1       2.561  51.202 -13.211  1.00  0.00     0.241 C 
HETATM   34  O4  UNL     1       3.319  50.400 -12.661  1.00  0.00    -0.271 OA
HETATM   35  N3  UNL     1       2.062  52.311 -12.567  1.00  0.00    -0.345 N 
HETATM   36  H18 UNL     1       1.263  52.790 -12.969  1.00  0.00     0.163 HD
BRANCH  35  37
HETATM   37  C17 UNL     1       2.342  52.583 -11.156  1.00  0.00     0.186 C 
BRANCH  37  38
HETATM   38  C18 UNL     1       2.973  53.973 -10.957  1.00  0.00     0.074 C 
BRANCH  38  39
HETATM   39  C19 UNL     1       4.311  53.960 -10.251  1.00  0.00    -0.056 A 
HETATM   40  C20 UNL     1       4.859  52.748  -9.803  1.00  0.00     0.007 A 
HETATM   41  C21 UNL     1       6.102  52.725  -9.166  1.00  0.00     0.001 A 
HETATM   42  C22 UNL     1       6.810  53.911  -8.974  1.00  0.00     0.000 A 
HETATM   43  C23 UNL     1       6.273  55.121  -9.414  1.00  0.00     0.001 A 
HETATM   44  C24 UNL     1       5.029  55.147 -10.049  1.00  0.00     0.007 A 
ENDBRANCH  38  39
ENDBRANCH  37  38
BRANCH  37  45
HETATM   45  C25 UNL     1       1.110  52.415 -10.262  1.00  0.00     0.163 C 
HETATM   46  O5  UNL     1      -0.048  52.335 -10.644  1.00  0.00    -0.648 OA
BRANCH  45  47
HETATM   47  O6  UNL     1       1.380  52.336  -8.942  1.00  0.00    -0.775 OA
HETATM   48  H27 UNL     1       0.497  52.253  -8.529  1.00  0.00     0.167 HD
ENDBRANCH  45  47
ENDBRANCH  37  45
ENDBRANCH  35  37
ENDBRANCH  32  33
BRANCH  32  49
HETATM   49  C26 UNL     1       2.463  52.254 -15.577  1.00  0.00     0.009 C 
HETATM   50  C27 UNL     1       3.960  52.382 -15.875  1.00  0.00     0.012 C 
HETATM   51  C28 UNL     1       1.667  52.246 -16.885  1.00  0.00     0.012 C 
ENDBRANCH  32  49
ENDBRANCH  30  32
ENDBRANCH  27  28
ENDBRANCH  26  27
ENDBRANCH  13  26
TORSDOF 12
ENDMDL
MODEL 4
REMARK minimizedAffinity -8.48738766
REMARK CNNscore 0.396948874
REMARK CNNaffinity 6.71012497
REMARK  12 active torsions:
REMARK  status: ('A' for Active; 'I' for Inactive)
REMARK    1  A    between atoms: C3_3  and  O1_4 
REMARK    2  A    between atoms: N1_14  and  O2_16 
REMARK    3  A    between atoms: O2_16  and  C13_17 
REMARK    4  A    between atoms: C13_17  and  C14_18 
REMARK       I    between atoms: C14_18  and  N2_20 
REMARK    5  A    between atoms: N2_20  and  C15_21 
REMARK    6  A    between atoms: C15_21  and  C16_22 
REMARK    7  A    between atoms: C15_21  and  C26_36 
REMARK       I    between atoms: C16_22  and  N3_24 
REMARK    8  A    between atoms: N3_24  and  C17_25 
REMARK    9  A    between atoms: C17_25  and  C18_26 
REMARK   10  A    between atoms: C17_25  and  C25_33 
REMARK   11  A    between atoms: C18_26  and  C19_27 
REMARK   12  A    between atoms: C25_33  and  O6_35 
ROOT
HETATM    1  C1  UNL     1       2.562  51.750 -26.511  1.00  0.00     0.015 C 
HETATM    2  C2  UNL     1       1.423  52.127 -26.409  1.00  0.00    -0.078 C 
HETATM    3  C3  UNL     1       0.033  52.628 -26.303  1.00  0.00     0.128 C 
HETATM    4  C4  UNL     1      -0.733  52.302 -27.581  1.00  0.00     0.052 C 
HETATM    5  C5  UNL     1      -1.156  50.855 -27.377  1.00  0.00     0.010 C 
HETATM    6  C6  UNL     1      -1.596  50.763 -25.895  1.00  0.00     0.002 C 
HETATM    7  C7  UNL     1      -3.144  50.847 -25.782  1.00  0.00    -0.004 C 
HETATM    8  C8  UNL     1      -3.892  49.648 -26.404  1.00  0.00     0.010 C 
HETATM    9  C9  UNL     1      -4.027  48.453 -25.481  1.00  0.00     0.035 C 
HETATM   10  C10 UNL     1      -4.706  48.853 -24.200  1.00  0.00    -0.069 C 
HETATM   11  C11 UNL     1      -5.844  48.249 -23.816  1.00  0.00     0.030 C 
HETATM   12  C12 UNL     1      -6.494  48.562 -22.516  1.00  0.00     0.032 C 
HETATM   13  N1  UNL     1      -7.691  48.090 -22.309  1.00  0.00    -0.271 N 
ATOM     14  H1  UNL     1      -8.210  47.532 -22.987  1.00  0.00     0.194 HD
HETATM   15  C29 UNL     1      -5.692  49.383 -21.529  1.00  0.00     0.060 C 
HETATM   16  C30 UNL     1      -4.948  50.485 -22.274  1.00  0.00     0.020 C 
HETATM   17  C31 UNL     1      -4.014  49.958 -23.407  1.00  0.00    -0.016 C 
HETATM   18  C32 UNL     1      -2.759  49.331 -22.757  1.00  0.00     0.020 C 
HETATM   19  C33 UNL     1      -3.688  51.178 -24.362  1.00  0.00     0.002 C 
HETATM   20  C34 UNL     1      -2.893  52.309 -23.673  1.00  0.00     0.007 C 
HETATM   21  C35 UNL     1      -1.849  52.963 -24.577  1.00  0.00     0.014 C 
HETATM   22  C36 UNL     1      -0.837  51.945 -25.178  1.00  0.00     0.003 C 
HETATM   23  C37 UNL     1       0.052  51.405 -24.037  1.00  0.00     0.020 C 
ENDROOT
BRANCH   3  24
HETATM   24  O1  UNL     1       0.096  54.040 -26.139  1.00  0.00    -0.377 OA
HETATM   25  H2  UNL     1       0.748  54.372 -26.782  1.00  0.00     0.211 HD
ENDBRANCH   3  24
BRANCH  13  26
HETATM   26  O2  UNL     1      -8.179  48.443 -21.043  1.00  0.00    -0.271 OA
BRANCH  26  27
HETATM   27  C13 UNL     1      -7.878  47.406 -20.112  1.00  0.00     0.303 C 
BRANCH  27  28
HETATM   28  C14 UNL     1      -9.125  46.622 -19.725  1.00  0.00     0.244 C 
HETATM   29  O3  UNL     1      -9.077  45.623 -19.010  1.00  0.00    -0.271 OA
HETATM   30  N2  UNL     1     -10.308  47.170 -20.180  1.00  0.00    -0.346 N 
HETATM   31  H16 UNL     1     -10.210  47.749 -21.014  1.00  0.00     0.163 HD
BRANCH  30  32
HETATM   32  C15 UNL     1     -11.569  46.447 -20.026  1.00  0.00     0.180 C 
BRANCH  32  33
HETATM   33  C16 UNL     1     -12.045  46.027 -21.435  1.00  0.00     0.241 C 
HETATM   34  O4  UNL     1     -11.269  45.665 -22.322  1.00  0.00    -0.271 OA
HETATM   35  N3  UNL     1     -13.407  46.085 -21.620  1.00  0.00    -0.345 N 
HETATM   36  H18 UNL     1     -13.967  46.617 -20.962  1.00  0.00     0.163 HD
BRANCH  35  37
HETATM   37  C17 UNL     1     -14.031  45.783 -22.910  1.00  0.00     0.186 C 
BRANCH  37  38
HETATM   38  C18 UNL     1     -15.472  45.270 -22.741  1.00  0.00     0.074 C 
BRANCH  38  39
HETATM   39  C19 UNL     1     -16.171  45.762 -21.493  1.00  0.00    -0.056 A 
HETATM   40  C20 UNL     1     -17.256  45.044 -20.964  1.00  0.00     0.007 A 
HETATM   41  C21 UNL     1     -17.896  45.482 -19.802  1.00  0.00     0.001 A 
HETATM   42  C22 UNL     1     -17.457  46.638 -19.156  1.00  0.00     0.000 A 
HETATM   43  C23 UNL     1     -16.381  47.358 -19.675  1.00  0.00     0.001 A 
HETATM   44  C24 UNL     1     -15.741  46.925 -20.838  1.00  0.00     0.007 A 
ENDBRANCH  38  39
ENDBRANCH  37  38
BRANCH  37  45
HETATM   45  C25 UNL     1     -13.987  46.965 -23.883  1.00  0.00     0.163 C 
HETATM   46  O5  UNL     1     -13.016  47.326 -24.530  1.00  0.00    -0.648 OA
BRANCH  45  47
HETATM   47  O6  UNL     1     -15.156  47.626 -24.016  1.00  0.00    -0.775 OA
HETATM   48  H27 UNL     1     -14.946  48.346 -24.645  1.00  0.00     0.167 HD
ENDBRANCH  45  47
ENDBRANCH  37  45
ENDBRANCH  35  37
ENDBRANCH  32  33
BRANCH  32  49
HETATM   49  C26 UNL     1     -12.600  47.295 -19.245  1.00  0.00     0.009 C 
HETATM   50  C27 UNL     1     -12.356  47.333 -17.732  1.00  0.00     0.012 C 
HETATM   51  C28 UNL     1     -12.696  48.721 -19.795  1.00  0.00     0.012 C 
ENDBRANCH  32  49
ENDBRANCH  30  32
ENDBRANCH  27  28
ENDBRANCH  26  27
ENDBRANCH  13  26
TORSDOF 12
ENDMDL
MODEL 5
REMARK minimizedAffinity -8.56339264
REMARK CNNscore 0.39242506
REMARK CNNaffinity 7.04211283
REMARK  12 active torsions:
REMARK  status: ('A' for Active; 'I' for Inactive)
REMARK    1  A    between atoms: C3_3  and  O1_4 
REMARK    2  A    between atoms: N1_14  and  O2_16 
REMARK    3  A    between atoms: O2_16  and  C13_17 
REMARK    4  A    between atoms: C13_17  and  C14_18 
REMARK       I    between atoms: C14_18  and  N2_20 
REMARK    5  A    between atoms: N2_20  and  C15_21 
REMARK    6  A    between atoms: C15_21  and  C16_22 
REMARK    7  A    between atoms: C15_21  and  C26_36 
REMARK       I    between atoms: C16_22  and  N3_24 
REMARK    8  A    between atoms: N3_24  and  C17_25 
REMARK    9  A    between atoms: C17_25  and  C18_26 
REMARK   10  A    between atoms: C17_25  and  C25_33 
REMARK   11  A    between atoms: C18_26  and  C19_27 
REMARK   12  A    between atoms: C25_33  and  O6_35 
ROOT
HETATM    1  C1  UNL     1      -3.402  48.481 -26.647  1.00  0.00     0.015 C 
HETATM    2  C2  UNL     1      -3.793  49.015 -25.641  1.00  0.00    -0.078 C 
HETATM    3  C3  UNL     1      -4.312  49.684 -24.426  1.00  0.00     0.128 C 
HETATM    4  C4  UNL     1      -5.220  48.730 -23.656  1.00  0.00     0.052 C 
HETATM    5  C5  UNL     1      -4.241  47.877 -22.865  1.00  0.00     0.010 C 
HETATM    6  C6  UNL     1      -3.161  48.861 -22.353  1.00  0.00     0.002 C 
HETATM    7  C7  UNL     1      -3.443  49.257 -20.876  1.00  0.00    -0.004 C 
HETATM    8  C8  UNL     1      -3.306  48.093 -19.870  1.00  0.00     0.010 C 
HETATM    9  C9  UNL     1      -1.888  47.851 -19.391  1.00  0.00     0.035 C 
HETATM   10  C10 UNL     1      -1.318  49.103 -18.784  1.00  0.00    -0.069 C 
HETATM   11  C11 UNL     1      -0.881  49.106 -17.513  1.00  0.00     0.030 C 
HETATM   12  C12 UNL     1      -0.235  50.302 -16.912  1.00  0.00     0.032 C 
HETATM   13  N1  UNL     1      -0.025  50.294 -15.625  1.00  0.00    -0.271 N 
ATOM     14  H1  UNL     1      -0.286  49.525 -15.008  1.00  0.00     0.194 HD
HETATM   15  C29 UNL     1       0.151  51.421 -17.856  1.00  0.00     0.060 C 
HETATM   16  C30 UNL     1      -0.951  51.611 -18.891  1.00  0.00     0.020 C 
HETATM   17  C31 UNL     1      -1.279  50.320 -19.705  1.00  0.00    -0.016 C 
HETATM   18  C32 UNL     1      -0.142  50.080 -20.724  1.00  0.00     0.020 C 
HETATM   19  C33 UNL     1      -2.697  50.528 -20.376  1.00  0.00     0.002 C 
HETATM   20  C34 UNL     1      -2.733  51.678 -21.407  1.00  0.00     0.007 C 
HETATM   21  C35 UNL     1      -3.610  51.385 -22.623  1.00  0.00     0.014 C 
HETATM   22  C36 UNL     1      -3.215  50.073 -23.361  1.00  0.00     0.003 C 
HETATM   23  C37 UNL     1      -1.839  50.282 -24.030  1.00  0.00     0.020 C 
ENDROOT
BRANCH   3  24
HETATM   24  O1  UNL     1      -5.065  50.816 -24.846  1.00  0.00    -0.377 OA
HETATM   25  H2  UNL     1      -5.624  50.525 -25.589  1.00  0.00     0.211 HD
ENDBRANCH   3  24
BRANCH  13  26
HETATM   26  O2  UNL     1       0.603  51.470 -15.191  1.00  0.00    -0.271 OA
BRANCH  26  27
HETATM   27  C13 UNL     1       0.037  51.880 -13.949  1.00  0.00     0.303 C 
BRANCH  27  28
HETATM   28  C14 UNL     1       1.103  52.383 -12.986  1.00  0.00     0.244 C 
HETATM   29  O3  UNL     1       2.279  52.034 -13.070  1.00  0.00    -0.271 OA
HETATM   30  N2  UNL     1       0.653  53.311 -12.069  1.00  0.00    -0.346 N 
HETATM   31  H16 UNL     1      -0.344  53.252 -11.866  1.00  0.00     0.163 HD
BRANCH  30  32
HETATM   32  C15 UNL     1       1.520  53.762 -10.982  1.00  0.00     0.180 C 
BRANCH  32  33
HETATM   33  C16 UNL     1       1.564  52.640  -9.921  1.00  0.00     0.241 C 
HETATM   34  O4  UNL     1       0.693  51.772  -9.829  1.00  0.00    -0.271 OA
HETATM   35  N3  UNL     1       2.659  52.681  -9.088  1.00  0.00    -0.345 N 
HETATM   36  H18 UNL     1       3.202  53.537  -9.039  1.00  0.00     0.163 HD
BRANCH  35  37
HETATM   37  C17 UNL     1       2.834  51.734  -7.985  1.00  0.00     0.186 C 
BRANCH  37  38
HETATM   38  C18 UNL     1       4.283  51.727  -7.464  1.00  0.00     0.074 C 
BRANCH  38  39
HETATM   39  C19 UNL     1       5.095  52.943  -7.851  1.00  0.00    -0.056 A 
HETATM   40  C20 UNL     1       5.970  52.886  -8.948  1.00  0.00     0.007 A 
HETATM   41  C21 UNL     1       6.710  54.010  -9.322  1.00  0.00     0.001 A 
HETATM   42  C22 UNL     1       6.582  55.201  -8.608  1.00  0.00     0.000 A 
HETATM   43  C23 UNL     1       5.716  55.267  -7.516  1.00  0.00     0.001 A 
HETATM   44  C24 UNL     1       4.977  54.144  -7.137  1.00  0.00     0.007 A 
ENDBRANCH  38  39
ENDBRANCH  37  38
BRANCH  37  45
HETATM   45  C25 UNL     1       1.847  51.968  -6.838  1.00  0.00     0.163 C 
HETATM   46  O5  UNL     1       1.267  51.100  -6.202  1.00  0.00    -0.648 OA
BRANCH  45  47
HETATM   47  O6  UNL     1       1.645  53.265  -6.526  1.00  0.00    -0.775 OA
HETATM   48  H27 UNL     1       0.987  53.231  -5.803  1.00  0.00     0.167 HD
ENDBRANCH  45  47
ENDBRANCH  37  45
ENDBRANCH  35  37
ENDBRANCH  32  33
BRANCH  32  49
HETATM   49  C26 UNL     1       1.047  55.127 -10.429  1.00  0.00     0.009 C 
HETATM   50  C27 UNL     1      -0.428  55.154 -10.014  1.00  0.00     0.012 C 
HETATM   51  C28 UNL     1       1.926  55.605  -9.269  1.00  0.00     0.012 C 
ENDBRANCH  32  49
ENDBRANCH  30  32
ENDBRANCH  27  28
ENDBRANCH  26  27
ENDBRANCH  13  26
TORSDOF 12
ENDMDL
MODEL 6
REMARK minimizedAffinity -9.3032198
REMARK CNNscore 0.367602468
REMARK CNNaffinity 7.00730705
REMARK  12 active torsions:
REMARK  status: ('A' for Active; 'I' for Inactive)
REMARK    1  A    between atoms: C3_3  and  O1_4 
REMARK    2  A    between atoms: N1_14  and  O2_16 
REMARK    3  A    between atoms: O2_16  and  C13_17 
REMARK    4  A    between atoms: C13_17  and  C14_18 
REMARK       I    between atoms: C14_18  and  N2_20 
REMARK    5  A    between atoms: N2_20  and  C15_21 
REMARK    6  A    between atoms: C15_21  and  C16_22 
REMARK    7  A    between atoms: C15_21  and  C26_36 
REMARK       I    between atoms: C16_22  and  N3_24 
REMARK    8  A    between atoms: N3_24  and  C17_25 
REMARK    9  A    between atoms: C17_25  and  C18_26 
REMARK   10  A    between atoms: C17_25  and  C25_33 
REMARK   11  A    between atoms: C18_26  and  C19_27 
REMARK   12  A    between atoms: C25_33  and  O6_35 
ROOT
HETATM    1  C1  UNL     1      -0.368  51.548 -27.887  1.00  0.00     0.015 C 
HETATM    2  C2  UNL     1      -1.203  51.589 -27.021  1.00  0.00    -0.078 C 
HETATM    3  C3  UNL     1      -2.256  51.664 -25.982  1.00  0.00     0.128 C 
HETATM    4  C4  UNL     1      -3.254  50.526 -26.174  1.00  0.00     0.052 C 
HETATM    5  C5  UNL     1      -2.570  49.344 -25.507  1.00  0.00     0.010 C 
HETATM    6  C6  UNL     1      -1.938  49.913 -24.213  1.00  0.00     0.002 C 
HETATM    7  C7  UNL     1      -2.845  49.610 -22.986  1.00  0.00    -0.004 C 
HETATM    8  C8  UNL     1      -2.965  48.110 -22.641  1.00  0.00     0.010 C 
HETATM    9  C9  UNL     1      -1.843  47.582 -21.768  1.00  0.00     0.035 C 
HETATM   10  C10 UNL     1      -1.748  48.380 -20.496  1.00  0.00    -0.069 C 
HETATM   11  C11 UNL     1      -1.866  47.774 -19.302  1.00  0.00     0.030 C 
HETATM   12  C12 UNL     1      -1.692  48.519 -18.028  1.00  0.00     0.032 C 
HETATM   13  N1  UNL     1      -2.021  47.912 -16.923  1.00  0.00    -0.271 N 
ATOM     14  H1  UNL     1      -2.399  46.966 -16.881  1.00  0.00     0.194 HD
HETATM   15  C29 UNL     1      -1.119  49.917 -18.123  1.00  0.00     0.060 C 
HETATM   16  C30 UNL     1      -1.723  50.630 -19.327  1.00  0.00     0.020 C 
HETATM   17  C31 UNL     1      -1.511  49.877 -20.677  1.00  0.00    -0.016 C 
HETATM   18  C32 UNL     1      -0.037  50.053 -21.111  1.00  0.00     0.020 C 
HETATM   19  C33 UNL     1      -2.551  50.461 -21.718  1.00  0.00     0.002 C 
HETATM   20  C34 UNL     1      -2.327  51.954 -22.046  1.00  0.00     0.007 C 
HETATM   21  C35 UNL     1      -2.588  52.306 -23.509  1.00  0.00     0.014 C 
HETATM   22  C36 UNL     1      -1.749  51.451 -24.503  1.00  0.00     0.003 C 
HETATM   23  C37 UNL     1      -0.264  51.851 -24.361  1.00  0.00     0.020 C 
ENDROOT
BRANCH   3  24
HETATM   24  O1  UNL     1      -2.926  52.910 -26.137  1.00  0.00    -0.377 OA
HETATM   25  H2  UNL     1      -3.091  53.027 -27.090  1.00  0.00     0.211 HD
ENDBRANCH   3  24
BRANCH  13  26
HETATM   26  O2  UNL     1      -1.793  48.717 -15.797  1.00  0.00    -0.271 OA
BRANCH  26  27
HETATM   27  C13 UNL     1      -3.032  49.252 -15.337  1.00  0.00     0.303 C 
BRANCH  27  28
HETATM   28  C14 UNL     1      -2.847  50.619 -14.693  1.00  0.00     0.244 C 
HETATM   29  O3  UNL     1      -3.368  51.635 -15.148  1.00  0.00    -0.271 OA
HETATM   30  N2  UNL     1      -2.112  50.604 -13.524  1.00  0.00    -0.346 N 
HETATM   31  H16 UNL     1      -1.463  49.822 -13.445  1.00  0.00     0.163 HD
BRANCH  30  32
HETATM   32  C15 UNL     1      -1.715  51.856 -12.881  1.00  0.00     0.180 C 
BRANCH  32  33
HETATM   33  C16 UNL     1      -0.300  51.655 -12.296  1.00  0.00     0.241 C 
HETATM   34  O4  UNL     1      -0.028  50.756 -11.497  1.00  0.00    -0.271 OA
HETATM   35  N3  UNL     1       0.638  52.557 -12.743  1.00  0.00    -0.345 N 
HETATM   36  H18 UNL     1       0.320  53.410 -13.191  1.00  0.00     0.163 HD
BRANCH  35  37
HETATM   37  C17 UNL     1       2.017  52.556 -12.248  1.00  0.00     0.186 C 
BRANCH  37  38
HETATM   38  C18 UNL     1       2.080  52.835 -10.735  1.00  0.00     0.074 C 
BRANCH  38  39
HETATM   39  C19 UNL     1       3.092  53.885 -10.332  1.00  0.00    -0.056 A 
HETATM   40  C20 UNL     1       4.373  53.500  -9.903  1.00  0.00     0.007 A 
HETATM   41  C21 UNL     1       5.319  54.463  -9.546  1.00  0.00     0.001 A 
HETATM   42  C22 UNL     1       4.998  55.818  -9.617  1.00  0.00     0.000 A 
HETATM   43  C23 UNL     1       3.728  56.210 -10.040  1.00  0.00     0.001 A 
HETATM   44  C24 UNL     1       2.778  55.249 -10.396  1.00  0.00     0.007 A 
ENDBRANCH  38  39
ENDBRANCH  37  38
BRANCH  37  45
HETATM   45  C25 UNL     1       2.773  51.271 -12.594  1.00  0.00     0.163 C 
HETATM   46  O5  UNL     1       3.272  50.495 -11.793  1.00  0.00    -0.648 OA
BRANCH  45  47
HETATM   47  O6  UNL     1       2.854  51.005 -13.915  1.00  0.00    -0.775 OA
HETATM   48  H27 UNL     1       3.375  50.177 -13.953  1.00  0.00     0.167 HD
ENDBRANCH  45  47
ENDBRANCH  37  45
ENDBRANCH  35  37
ENDBRANCH  32  33
BRANCH  32  49
HETATM   49  C26 UNL     1      -2.767  52.297 -11.836  1.00  0.00     0.009 C 
HETATM   50  C27 UNL     1      -3.362  51.140 -11.025  1.00  0.00     0.012 C 
HETATM   51  C28 UNL     1      -2.215  53.368 -10.892  1.00  0.00     0.012 C 
ENDBRANCH  32  49
ENDBRANCH  30  32
ENDBRANCH  27  28
ENDBRANCH  26  27
ENDBRANCH  13  26
TORSDOF 12
ENDMDL
MODEL 7
REMARK minimizedAffinity -9.41240978
REMARK CNNscore 0.307248861
REMARK CNNaffinity 7.0779686
REMARK  12 active torsions:
REMARK  status: ('A' for Active; 'I' for Inactive)
REMARK    1  A    between atoms: C3_3  and  O1_4 
REMARK    2  A    between atoms: N1_14  and  O2_16 
REMARK    3  A    between atoms: O2_16  and  C13_17 
REMARK    4  A    between atoms: C13_17  and  C14_18 
REMARK       I    between atoms: C14_18  and  N2_20 
REMARK    5  A    between atoms: N2_20  and  C15_21 
REMARK    6  A    between atoms: C15_21  and  C16_22 
REMARK    7  A    between atoms: C15_21  and  C26_36 
REMARK       I    between atoms: C16_22  and  N3_24 
REMARK    8  A    between atoms: N3_24  and  C17_25 
REMARK    9  A    between atoms: C17_25  and  C18_26 
REMARK   10  A    between atoms: C17_25  and  C25_33 
REMARK   11  A    between atoms: C18_26  and  C19_27 
REMARK   12  A    between atoms: C25_33  and  O6_35 
ROOT
HETATM    1  C1  UNL     1      -0.324  51.543 -28.138  1.00  0.00     0.015 C 
HETATM    2  C2  UNL     1      -1.148  51.592 -27.262  1.00  0.00    -0.078 C 
HETATM    3  C3  UNL     1      -2.191  51.673 -26.213  1.00  0.00     0.128 C 
HETATM    4  C4  UNL     1      -3.133  50.478 -26.326  1.00  0.00     0.052 C 
HETATM    5  C5  UNL     1      -2.382  49.369 -25.606  1.00  0.00     0.010 C 
HETATM    6  C6  UNL     1      -1.763  50.040 -24.355  1.00  0.00     0.002 C 
HETATM    7  C7  UNL     1      -2.637  49.761 -23.100  1.00  0.00    -0.004 C 
HETATM    8  C8  UNL     1      -2.677  48.279 -22.671  1.00  0.00     0.010 C 
HETATM    9  C9  UNL     1      -1.519  47.856 -21.788  1.00  0.00     0.035 C 
HETATM   10  C10 UNL     1      -1.448  48.727 -20.564  1.00  0.00    -0.069 C 
HETATM   11  C11 UNL     1      -1.520  48.183 -19.337  1.00  0.00     0.030 C 
HETATM   12  C12 UNL     1      -1.367  49.006 -18.108  1.00  0.00     0.032 C 
HETATM   13  N1  UNL     1      -1.651  48.446 -16.966  1.00  0.00    -0.271 N 
ATOM     14  H1  UNL     1      -1.981  47.486 -16.866  1.00  0.00     0.194 HD
HETATM   15  C29 UNL     1      -0.866  50.423 -18.289  1.00  0.00     0.060 C 
HETATM   16  C30 UNL     1      -1.521  51.038 -19.520  1.00  0.00     0.020 C 
HETATM   17  C31 UNL     1      -1.288  50.222 -20.830  1.00  0.00    -0.016 C 
HETATM   18  C32 UNL     1       0.169  50.446 -21.296  1.00  0.00     0.020 C 
HETATM   19  C33 UNL     1      -2.369  50.696 -21.885  1.00  0.00     0.002 C 
HETATM   20  C34 UNL     1      -2.225  52.177 -22.298  1.00  0.00     0.007 C 
HETATM   21  C35 UNL     1      -2.522  52.433 -23.774  1.00  0.00     0.014 C 
HETATM   22  C36 UNL     1      -1.654  51.567 -24.733  1.00  0.00     0.003 C 
HETATM   23  C37 UNL     1      -0.190  52.047 -24.636  1.00  0.00     0.020 C 
ENDROOT
BRANCH   3  24
HETATM   24  O1  UNL     1      -2.923  52.873 -26.426  1.00  0.00    -0.377 OA
HETATM   25  H2  UNL     1      -3.106  52.929 -27.381  1.00  0.00     0.211 HD
ENDBRANCH   3  24
BRANCH  13  26
HETATM   26  O2  UNL     1      -1.449  49.323 -15.890  1.00  0.00    -0.271 OA
BRANCH  26  27
HETATM   27  C13 UNL     1      -0.808  48.626 -14.824  1.00  0.00     0.303 C 
BRANCH  27  28
HETATM   28  C14 UNL     1       0.533  49.255 -14.471  1.00  0.00     0.244 C 
HETATM   29  O3  UNL     1       1.460  48.600 -13.998  1.00  0.00    -0.271 OA
HETATM   30  N2  UNL     1       0.639  50.592 -14.795  1.00  0.00    -0.346 N 
HETATM   31  H16 UNL     1      -0.251  51.087 -14.837  1.00  0.00     0.163 HD
BRANCH  30  32
HETATM   32  C15 UNL     1       1.803  51.368 -14.370  1.00  0.00     0.180 C 
BRANCH  32  33
HETATM   33  C16 UNL     1       1.436  52.082 -13.051  1.00  0.00     0.241 C 
HETATM   34  O4  UNL     1       0.281  52.410 -12.767  1.00  0.00    -0.271 OA
HETATM   35  N3  UNL     1       2.500  52.319 -12.212  1.00  0.00    -0.345 N 
HETATM   36  H18 UNL     1       3.441  52.262 -12.589  1.00  0.00     0.163 HD
BRANCH  35  37
HETATM   37  C17 UNL     1       2.349  53.041 -10.947  1.00  0.00     0.186 C 
BRANCH  37  38
HETATM   38  C18 UNL     1       1.443  54.276 -11.099  1.00  0.00     0.074 C 
BRANCH  38  39
HETATM   39  C19 UNL     1       1.243  55.070  -9.826  1.00  0.00    -0.056 A 
HETATM   40  C20 UNL     1       2.334  55.709  -9.216  1.00  0.00     0.007 A 
HETATM   41  C21 UNL     1       2.155  56.458  -8.051  1.00  0.00     0.001 A 
HETATM   42  C22 UNL     1       0.885  56.578  -7.486  1.00  0.00     0.000 A 
HETATM   43  C23 UNL     1      -0.205  55.945  -8.084  1.00  0.00     0.001 A 
HETATM   44  C24 UNL     1      -0.028  55.193  -9.248  1.00  0.00     0.007 A 
ENDBRANCH  38  39
ENDBRANCH  37  38
BRANCH  37  45
HETATM   45  C25 UNL     1       1.856  52.146  -9.806  1.00  0.00     0.163 C 
HETATM   46  O5  UNL     1       2.328  52.094  -8.680  1.00  0.00    -0.648 OA
BRANCH  45  47
HETATM   47  O6  UNL     1       0.793  51.375 -10.116  1.00  0.00    -0.775 OA
HETATM   48  H27 UNL     1       0.629  50.866  -9.297  1.00  0.00     0.167 HD
ENDBRANCH  45  47
ENDBRANCH  37  45
ENDBRANCH  35  37
ENDBRANCH  32  33
BRANCH  32  49
HETATM   49  C26 UNL     1       2.266  52.327 -15.493  1.00  0.00     0.009 C 
HETATM   50  C27 UNL     1       3.768  52.261 -15.789  1.00  0.00     0.012 C 
HETATM   51  C28 UNL     1       1.468  52.118 -16.783  1.00  0.00     0.012 C 
ENDBRANCH  32  49
ENDBRANCH  30  32
ENDBRANCH  27  28
ENDBRANCH  26  27
ENDBRANCH  13  26
TORSDOF 12
ENDMDL
MODEL 8
REMARK minimizedAffinity -11.1401119
REMARK CNNscore 0.280010164
REMARK CNNaffinity 7.02620697
REMARK  12 active torsions:
REMARK  status: ('A' for Active; 'I' for Inactive)
REMARK    1  A    between atoms: C3_3  and  O1_4 
REMARK    2  A    between atoms: N1_14  and  O2_16 
REMARK    3  A    between atoms: O2_16  and  C13_17 
REMARK    4  A    between atoms: C13_17  and  C14_18 
REMARK       I    between atoms: C14_18  and  N2_20 
REMARK    5  A    between atoms: N2_20  and  C15_21 
REMARK    6  A    between atoms: C15_21  and  C16_22 
REMARK    7  A    between atoms: C15_21  and  C26_36 
REMARK       I    between atoms: C16_22  and  N3_24 
REMARK    8  A    between atoms: N3_24  and  C17_25 
REMARK    9  A    between atoms: C17_25  and  C18_26 
REMARK   10  A    between atoms: C17_25  and  C25_33 
REMARK   11  A    between atoms: C18_26  and  C19_27 
REMARK   12  A    between atoms: C25_33  and  O6_35 
ROOT
HETATM    1  C1  UNL     1      -4.175  52.071 -25.149  1.00  0.00     0.015 C 
HETATM    2  C2  UNL     1      -3.247  51.477 -24.662  1.00  0.00    -0.078 C 
HETATM    3  C3  UNL     1      -2.105  50.720 -24.101  1.00  0.00     0.128 C 
HETATM    4  C4  UNL     1      -0.792  51.321 -24.596  1.00  0.00     0.052 C 
HETATM    5  C5  UNL     1      -0.572  52.501 -23.662  1.00  0.00     0.010 C 
HETATM    6  C6  UNL     1      -0.971  51.990 -22.256  1.00  0.00     0.002 C 
HETATM    7  C7  UNL     1       0.293  51.585 -21.446  1.00  0.00    -0.004 C 
HETATM    8  C8  UNL     1       1.227  52.763 -21.097  1.00  0.00     0.010 C 
HETATM    9  C9  UNL     1       0.833  53.516 -19.841  1.00  0.00     0.035 C 
HETATM   10  C10 UNL     1       0.756  52.578 -18.668  1.00  0.00    -0.069 C 
HETATM   11  C11 UNL     1       1.513  52.787 -17.577  1.00  0.00     0.030 C 
HETATM   12  C12 UNL     1       1.397  51.928 -16.370  1.00  0.00     0.032 C 
HETATM   13  N1  UNL     1       2.299  52.066 -15.440  1.00  0.00    -0.271 N 
ATOM     14  H1  UNL     1       3.082  52.718 -15.496  1.00  0.00     0.194 HD
HETATM   15  C29 UNL     1       0.218  50.980 -16.313  1.00  0.00     0.060 C 
HETATM   16  C30 UNL     1      -0.003  50.364 -17.690  1.00  0.00     0.020 C 
HETATM   17  C31 UNL     1      -0.223  51.416 -18.821  1.00  0.00    -0.016 C 
HETATM   18  C32 UNL     1      -1.646  52.001 -18.678  1.00  0.00     0.020 C 
HETATM   19  C33 UNL     1       0.025  50.686 -20.204  1.00  0.00     0.002 C 
HETATM   20  C34 UNL     1      -0.985  49.556 -20.499  1.00  0.00     0.007 C 
HETATM   21  C35 UNL     1      -1.389  49.463 -21.969  1.00  0.00     0.014 C 
HETATM   22  C36 UNL     1      -1.964  50.796 -22.530  1.00  0.00     0.003 C 
HETATM   23  C37 UNL     1      -3.330  51.062 -21.861  1.00  0.00     0.020 C 
ENDROOT
BRANCH   3  24
HETATM   24  O1  UNL     1      -2.211  49.378 -24.558  1.00  0.00    -0.377 OA
HETATM   25  H2  UNL     1      -2.424  49.417 -25.507  1.00  0.00     0.211 HD
ENDBRANCH   3  24
BRANCH  13  26
HETATM   26  O2  UNL     1       2.065  51.212 -14.353  1.00  0.00    -0.271 OA
BRANCH  26  27
HETATM   27  C13 UNL     1       1.339  51.913 -13.346  1.00  0.00     0.303 C 
BRANCH  27  28
HETATM   28  C14 UNL     1       2.183  52.131 -12.098  1.00  0.00     0.244 C 
HETATM   29  O3  UNL     1       2.671  51.197 -11.465  1.00  0.00    -0.271 OA
HETATM   30  N2  UNL     1       2.412  53.456 -11.787  1.00  0.00    -0.346 N 
HETATM   31  H16 UNL     1       1.703  54.099 -12.140  1.00  0.00     0.163 HD
BRANCH  30  32
HETATM   32  C15 UNL     1       3.066  53.823 -10.532  1.00  0.00     0.180 C 
BRANCH  32  33
HETATM   33  C16 UNL     1       1.960  54.093  -9.488  1.00  0.00     0.241 C 
HETATM   34  O4  UNL     1       1.977  53.606  -8.355  1.00  0.00    -0.271 OA
HETATM   35  N3  UNL     1       0.955  54.926  -9.921  1.00  0.00    -0.345 N 
HETATM   36  H18 UNL     1       0.854  55.093 -10.917  1.00  0.00     0.163 HD
BRANCH  35  37
HETATM   37  C17 UNL     1      -0.207  55.243  -9.087  1.00  0.00     0.186 C 
BRANCH  37  38
HETATM   38  C18 UNL     1      -0.851  53.974  -8.500  1.00  0.00     0.074 C 
BRANCH  38  39
HETATM   39  C19 UNL     1      -2.003  53.422  -9.311  1.00  0.00    -0.056 A 
HETATM   40  C20 UNL     1      -2.653  54.233 -10.255  1.00  0.00     0.007 A 
HETATM   41  C21 UNL     1      -3.705  53.725 -11.020  1.00  0.00     0.001 A 
HETATM   42  C22 UNL     1      -4.116  52.403 -10.853  1.00  0.00     0.000 A 
HETATM   43  C23 UNL     1      -3.478  51.589  -9.916  1.00  0.00     0.001 A 
HETATM   44  C24 UNL     1      -2.427  52.095  -9.147  1.00  0.00     0.007 A 
ENDBRANCH  38  39
ENDBRANCH  37  38
BRANCH  37  45
HETATM   45  C25 UNL     1       0.112  56.251  -7.980  1.00  0.00     0.163 C 
HETATM   46  O5  UNL     1      -0.559  57.228  -7.683  1.00  0.00    -0.648 OA
BRANCH  45  47
HETATM   47  O6  UNL     1       1.238  55.984  -7.285  1.00  0.00    -0.775 OA
HETATM   48  H27 UNL     1       1.297  56.723  -6.646  1.00  0.00     0.167 HD
ENDBRANCH  45  47
ENDBRANCH  37  45
ENDBRANCH  35  37
ENDBRANCH  32  33
BRANCH  32  49
HETATM   49  C26 UNL     1       4.033  55.011 -10.741  1.00  0.00     0.009 C 
HETATM   50  C27 UNL     1       3.331  56.358 -10.944  1.00  0.00     0.012 C 
HETATM   51  C28 UNL     1       5.053  55.120  -9.604  1.00  0.00     0.012 C 
ENDBRANCH  32  49
ENDBRANCH  30  32
ENDBRANCH  27  28
ENDBRANCH  26  27
ENDBRANCH  13  26
TORSDOF 12
ENDMDL
MODEL 9
REMARK minimizedAffinity -9.64071465
REMARK CNNscore 0.273905784
REMARK CNNaffinity 7.28950691
REMARK  12 active torsions:
REMARK  status: ('A' for Active; 'I' for Inactive)
REMARK    1  A    between atoms: C3_3  and  O1_4 
REMARK    2  A    between atoms: N1_14  and  O2_16 
REMARK    3  A    between atoms: O2_16  and  C13_17 
REMARK    4  A    between atoms: C13_17  and  C14_18 
REMARK       I    between atoms: C14_18  and  N2_20 
REMARK    5  A    between atoms: N2_20  and  C15_21 
REMARK    6  A    between atoms: C15_21  and  C16_22 
REMARK    7  A    between atoms: C15_21  and  C26_36 
REMARK       I    between atoms: C16_22  and  N3_24 
REMARK    8  A    between atoms: N3_24  and  C17_25 
REMARK    9  A    between atoms: C17_25  and  C18_26 
REMARK   10  A    between atoms: C17_25  and  C25_33 
REMARK   11  A    between atoms: C18_26  and  C19_27 
REMARK   12  A    between atoms: C25_33  and  O6_35 
ROOT
HETATM    1  C1  UNL     1      -3.139  48.456 -26.826  1.00  0.00     0.015 C 
HETATM    2  C2  UNL     1      -3.537  49.004 -25.830  1.00  0.00    -0.078 C 
HETATM    3  C3  UNL     1      -4.065  49.686 -24.626  1.00  0.00     0.128 C 
HETATM    4  C4  UNL     1      -4.877  48.703 -23.788  1.00  0.00     0.052 C 
HETATM    5  C5  UNL     1      -3.815  47.956 -22.996  1.00  0.00     0.010 C 
HETATM    6  C6  UNL     1      -2.794  49.036 -22.561  1.00  0.00     0.002 C 
HETATM    7  C7  UNL     1      -3.057  49.473 -21.092  1.00  0.00    -0.004 C 
HETATM    8  C8  UNL     1      -2.806  48.366 -20.046  1.00  0.00     0.010 C 
HETATM    9  C9  UNL     1      -1.360  48.245 -19.605  1.00  0.00     0.035 C 
HETATM   10  C10 UNL     1      -0.863  49.560 -19.069  1.00  0.00    -0.069 C 
HETATM   11  C11 UNL     1      -0.388  49.647 -17.814  1.00  0.00     0.030 C 
HETATM   12  C12 UNL     1       0.188  50.910 -17.284  1.00  0.00     0.032 C 
HETATM   13  N1  UNL     1       0.438  50.973 -16.007  1.00  0.00    -0.271 N 
ATOM     14  H1  UNL     1       0.252  50.214 -15.351  1.00  0.00     0.194 HD
HETATM   15  C29 UNL     1       0.462  52.013 -18.285  1.00  0.00     0.060 C 
HETATM   16  C30 UNL     1      -0.682  52.080 -19.290  1.00  0.00     0.020 C 
HETATM   17  C31 UNL     1      -0.941  50.736 -20.039  1.00  0.00    -0.016 C 
HETATM   18  C32 UNL     1       0.179  50.534 -21.086  1.00  0.00     0.020 C 
HETATM   19  C33 UNL     1      -2.391  50.814 -20.670  1.00  0.00     0.002 C 
HETATM   20  C34 UNL     1      -2.541  51.913 -21.745  1.00  0.00     0.007 C 
HETATM   21  C35 UNL     1      -3.432  51.507 -22.917  1.00  0.00     0.014 C 
HETATM   22  C36 UNL     1      -2.966  50.196 -23.614  1.00  0.00     0.003 C 
HETATM   23  C37 UNL     1      -1.630  50.474 -24.338  1.00  0.00     0.020 C 
ENDROOT
BRANCH   3  24
HETATM   24  O1  UNL     1      -4.910  50.742 -25.065  1.00  0.00    -0.377 OA
HETATM   25  H2  UNL     1      -5.470  50.381 -25.776  1.00  0.00     0.211 HD
ENDBRANCH   3  24
BRANCH  13  26
HETATM   26  O2  UNL     1       0.992  52.208 -15.642  1.00  0.00    -0.271 OA
BRANCH  26  27
HETATM   27  C13 UNL     1       2.157  51.989 -14.849  1.00  0.00     0.303 C 
BRANCH  27  28
HETATM   28  C14 UNL     1       1.801  51.729 -13.392  1.00  0.00     0.244 C 
HETATM   29  O3  UNL     1       0.932  50.924 -13.062  1.00  0.00    -0.271 OA
HETATM   30  N2  UNL     1       2.582  52.413 -12.482  1.00  0.00    -0.346 N 
HETATM   31  H16 UNL     1       2.994  53.273 -12.844  1.00  0.00     0.163 HD
BRANCH  30  32
HETATM   32  C15 UNL     1       2.255  52.391 -11.057  1.00  0.00     0.180 C 
BRANCH  32  33
HETATM   33  C16 UNL     1       1.887  53.831 -10.637  1.00  0.00     0.241 C 
HETATM   34  O4  UNL     1       2.699  54.759 -10.650  1.00  0.00    -0.271 OA
HETATM   35  N3  UNL     1       0.578  53.998 -10.250  1.00  0.00    -0.345 N 
HETATM   36  H18 UNL     1       0.028  53.177 -10.019  1.00  0.00     0.163 HD
BRANCH  35  37
HETATM   37  C17 UNL     1       0.068  55.281  -9.760  1.00  0.00     0.186 C 
BRANCH  37  38
HETATM   38  C18 UNL     1      -1.455  55.399  -9.950  1.00  0.00     0.074 C 
BRANCH  38  39
HETATM   39  C19 UNL     1      -2.189  54.076  -9.977  1.00  0.00    -0.056 A 
HETATM   40  C20 UNL     1      -3.273  53.890 -10.850  1.00  0.00     0.007 A 
HETATM   41  C21 UNL     1      -3.944  52.666 -10.894  1.00  0.00     0.001 A 
HETATM   42  C22 UNL     1      -3.539  51.616 -10.070  1.00  0.00     0.000 A 
HETATM   43  C23 UNL     1      -2.464  51.793  -9.198  1.00  0.00     0.001 A 
HETATM   44  C24 UNL     1      -1.792  53.016  -9.149  1.00  0.00     0.007 A 
ENDBRANCH  38  39
ENDBRANCH  37  38
BRANCH  37  45
HETATM   45  C25 UNL     1       0.456  55.559  -8.306  1.00  0.00     0.163 C 
HETATM   46  O5  UNL     1      -0.115  55.127  -7.316  1.00  0.00    -0.648 OA
BRANCH  45  47
HETATM   47  O6  UNL     1       1.544  56.344  -8.155  1.00  0.00    -0.775 OA
HETATM   48  H27 UNL     1       1.634  56.432  -7.185  1.00  0.00     0.167 HD
ENDBRANCH  45  47
ENDBRANCH  37  45
ENDBRANCH  35  37
ENDBRANCH  32  33
BRANCH  32  49
HETATM   49  C26 UNL     1       3.412  51.775 -10.236  1.00  0.00     0.009 C 
HETATM   50  C27 UNL     1       4.242  50.742 -11.006  1.00  0.00     0.012 C 
HETATM   51  C28 UNL     1       4.329  52.853  -9.651  1.00  0.00     0.012 C 
ENDBRANCH  32  49
ENDBRANCH  30  32
ENDBRANCH  27  28
ENDBRANCH  26  27
ENDBRANCH  13  26
TORSDOF 12
ENDMDL
