MODEL 1
REMARK minimizedAffinity -7.72834826
REMARK CNNscore 0.385960162
REMARK CNNaffinity 5.93989563
REMARK  5 active torsions:
REMARK  status: ('A' for Active; 'I' for Inactive)
REMARK    1  A    between atoms: C2_2  and  C3_3 
REMARK    2  A    between atoms: C6_6  and  C7_7 
REMARK    3  A    between atoms: C7_7  and  O1_8 
REMARK    4  A    between atoms: C7_7  and  C8_9 
REMARK    5  A    between atoms: C26_32  and  O6_33 
ROOT
HETATM    1  C3  UNL     1     -11.666  45.430 -22.356  1.00  0.00     0.008 C 
HETATM    2  C4  UNL     1     -11.138  44.844 -23.655  1.00  0.00    -0.023 C 
HETATM    3  C5  UNL     1     -11.302  45.334 -24.897  1.00  0.00     0.005 C 
HETATM    4  C6  UNL     1     -10.770  44.689 -26.156  1.00  0.00     0.187 C 
HETATM    5  O2  UNL     1     -10.011  45.717 -26.842  1.00  0.00    -0.308 OA
HETATM    6  C12 UNL     1      -8.665  45.719 -26.652  1.00  0.00     0.276 C 
HETATM    7  O3  UNL     1      -8.023  44.797 -26.158  1.00  0.00    -0.264 OA
HETATM    8  C13 UNL     1      -8.005  47.026 -27.187  1.00  0.00     0.095 C 
HETATM    9  C14 UNL     1      -9.028  48.130 -27.522  1.00  0.00     0.036 C 
HETATM   10  C15 UNL     1      -7.376  46.587 -28.495  1.00  0.00     0.003 C 
HETATM   11  C16 UNL     1      -6.256  46.997 -29.100  1.00  0.00     0.072 C 
HETATM   12  C17 UNL     1      -5.286  48.016 -28.677  1.00  0.00     0.245 C 
HETATM   13  O4  UNL     1      -4.519  48.479 -29.521  1.00  0.00    -0.268 OA
HETATM   14  N1  UNL     1      -5.167  48.387 -27.384  1.00  0.00    -0.320 N 
HETATM   15  C18 UNL     1      -5.839  48.089 -26.227  1.00  0.00     0.098 C 
HETATM   16  C19 UNL     1      -7.047  47.514 -26.102  1.00  0.00     0.045 C 
HETATM   17  C20 UNL     1      -7.604  47.416 -24.710  1.00  0.00     0.194 C 
HETATM   18  O5  UNL     1      -8.809  47.455 -24.505  1.00  0.00    -0.287 OA
HETATM   19  C21 UNL     1      -6.678  47.333 -23.580  1.00  0.00     0.046 A 
HETATM   20  C22 UNL     1      -5.455  47.973 -23.709  1.00  0.00     0.032 A 
HETATM   21  C23 UNL     1      -4.564  48.035 -22.630  1.00  0.00     0.026 A 
HETATM   22  C24 UNL     1      -4.875  47.407 -21.416  1.00  0.00    -0.027 A 
HETATM   23  C25 UNL     1      -3.886  47.424 -20.287  1.00  0.00     0.051 C 
HETATM   24  C26 UNL     1      -6.075  46.693 -21.321  1.00  0.00     0.086 A 
HETATM   25  C27 UNL     1      -6.995  46.688 -22.380  1.00  0.00     0.059 A 
HETATM   26  C28 UNL     1      -8.211  45.873 -22.231  1.00  0.00     0.163 C 
HETATM   27  O7  UNL     1      -8.120  44.689 -22.535  1.00  0.00    -0.292 OA
HETATM   28  C29 UNL     1      -9.417  46.524 -21.579  1.00  0.00     0.084 C 
HETATM   29  C30 UNL     1     -10.553  45.534 -21.284  1.00  0.00     0.016 C 
HETATM   30  C31 UNL     1      -5.084  48.550 -25.007  1.00  0.00     0.210 C 
HETATM   31  O8  UNL     1      -4.137  49.322 -25.108  1.00  0.00    -0.285 OA
HETATM   32  H24 UNL     1      -4.344  48.979 -27.248  1.00  0.00     0.169 HD
ENDROOT
BRANCH   4  33
HETATM   33  C7  UNL     1     -11.915  44.265 -27.119  1.00  0.00     0.174 C 
BRANCH  33  34
HETATM   34  O1  UNL     1     -12.661  45.408 -27.548  1.00  0.00    -0.389 OA
HETATM   35  H11 UNL     1     -12.821  45.939 -26.749  1.00  0.00     0.210 HD
ENDBRANCH  33  34
BRANCH  33  36
HETATM   36  C8  UNL     1     -11.445  43.463 -28.309  1.00  0.00     0.009 C 
HETATM   37  C9  UNL     1     -11.983  42.372 -28.894  1.00  0.00    -0.089 C 
HETATM   38  C10 UNL     1     -11.282  41.693 -30.041  1.00  0.00     0.042 C 
HETATM   39  C11 UNL     1     -13.290  41.743 -28.502  1.00  0.00     0.042 C 
ENDBRANCH  33  36
ENDBRANCH   4  33
BRANCH   1  40
HETATM   40  C2  UNL     1     -12.482  46.734 -22.529  1.00  0.00     0.004 C 
HETATM   41  C1  UNL     1     -13.098  47.264 -21.240  1.00  0.00     0.006 C 
ENDBRANCH   1  40
BRANCH  24  42
HETATM   42  O6  UNL     1      -6.308  45.972 -20.180  1.00  0.00    -0.359 OA
HETATM   43  H29 UNL     1      -6.654  45.097 -20.445  1.00  0.00     0.217 HD
ENDBRANCH  24  42
TORSDOF 5
ENDMDL
MODEL 2
REMARK minimizedAffinity -9.53696346
REMARK CNNscore 0.375996023
REMARK CNNaffinity 6.50423765
REMARK  5 active torsions:
REMARK  status: ('A' for Active; 'I' for Inactive)
REMARK    1  A    between atoms: C2_2  and  C3_3 
REMARK    2  A    between atoms: C6_6  and  C7_7 
REMARK    3  A    between atoms: C7_7  and  O1_8 
REMARK    4  A    between atoms: C7_7  and  C8_9 
REMARK    5  A    between atoms: C26_32  and  O6_33 
ROOT
HETATM    1  C3  UNL     1      -3.472  48.056 -21.913  1.00  0.00     0.008 C 
HETATM    2  C4  UNL     1      -4.086  48.587 -20.628  1.00  0.00    -0.023 C 
HETATM    3  C5  UNL     1      -3.986  48.058 -19.396  1.00  0.00     0.005 C 
HETATM    4  C6  UNL     1      -4.642  48.625 -18.158  1.00  0.00     0.187 C 
HETATM    5  O2  UNL     1      -3.583  48.779 -17.178  1.00  0.00    -0.308 OA
HETATM    6  C12 UNL     1      -3.027  50.014 -17.064  1.00  0.00     0.276 C 
HETATM    7  O3  UNL     1      -3.499  51.045 -17.532  1.00  0.00    -0.264 OA
HETATM    8  C13 UNL     1      -1.721  49.985 -16.212  1.00  0.00     0.095 C 
HETATM    9  C14 UNL     1      -1.195  48.559 -15.955  1.00  0.00     0.036 C 
HETATM   10  C15 UNL     1      -2.166  50.546 -14.875  1.00  0.00     0.003 C 
HETATM   11  C16 UNL     1      -1.507  51.294 -13.985  1.00  0.00     0.072 C 
HETATM   12  C17 UNL     1      -0.129  51.800 -14.029  1.00  0.00     0.245 C 
HETATM   13  O4  UNL     1       0.390  52.175 -12.978  1.00  0.00    -0.268 OA
HETATM   14  N1  UNL     1       0.537  51.938 -15.196  1.00  0.00    -0.320 N 
HETATM   15  C18 UNL     1       0.272  51.624 -16.504  1.00  0.00     0.098 C 
HETATM   16  C19 UNL     1      -0.677  50.797 -16.975  1.00  0.00     0.045 C 
HETATM   17  C20 UNL     1      -0.667  50.537 -18.455  1.00  0.00     0.194 C 
HETATM   18  O5  UNL     1      -1.045  49.469 -18.914  1.00  0.00    -0.287 OA
HETATM   19  C21 UNL     1      -0.137  51.565 -19.352  1.00  0.00     0.046 A 
HETATM   20  C22 UNL     1       0.875  52.378 -18.864  1.00  0.00     0.032 A 
HETATM   21  C23 UNL     1       1.511  53.306 -19.698  1.00  0.00     0.026 A 
HETATM   22  C24 UNL     1       1.099  53.462 -21.029  1.00  0.00    -0.027 A 
HETATM   23  C25 UNL     1       1.742  54.505 -21.896  1.00  0.00     0.051 C 
HETATM   24  C26 UNL     1       0.021  52.696 -21.490  1.00  0.00     0.086 A 
HETATM   25  C27 UNL     1      -0.569  51.721 -20.673  1.00  0.00     0.059 A 
HETATM   26  C28 UNL     1      -1.730  50.990 -21.204  1.00  0.00     0.163 C 
HETATM   27  O7  UNL     1      -2.826  51.522 -21.063  1.00  0.00    -0.292 OA
HETATM   28  C29 UNL     1      -1.460  49.729 -22.005  1.00  0.00     0.084 C 
HETATM   29  C30 UNL     1      -2.716  49.164 -22.684  1.00  0.00     0.016 C 
HETATM   30  C31 UNL     1       1.245  52.284 -17.446  1.00  0.00     0.210 C 
HETATM   31  O8  UNL     1       2.275  52.799 -17.027  1.00  0.00    -0.285 OA
HETATM   32  H24 UNL     1       1.413  52.449 -15.059  1.00  0.00     0.169 HD
ENDROOT
BRANCH   4  33
HETATM   33  C7  UNL     1      -5.673  47.635 -17.544  1.00  0.00     0.174 C 
BRANCH  33  34
HETATM   34  O1  UNL     1      -5.305  47.291 -16.205  1.00  0.00    -0.389 OA
HETATM   35  H11 UNL     1      -4.351  47.102 -16.229  1.00  0.00     0.210 HD
ENDBRANCH  33  34
BRANCH  33  36
HETATM   36  C8  UNL     1      -7.098  48.133 -17.589  1.00  0.00     0.009 C 
HETATM   37  C9  UNL     1      -7.963  48.213 -18.622  1.00  0.00    -0.089 C 
HETATM   38  C10 UNL     1      -9.327  48.824 -18.436  1.00  0.00     0.042 C 
HETATM   39  C11 UNL     1      -7.690  47.712 -20.012  1.00  0.00     0.042 C 
ENDBRANCH  33  36
ENDBRANCH   4  33
BRANCH   1  40
HETATM   40  C2  UNL     1      -2.651  46.754 -21.737  1.00  0.00     0.004 C 
HETATM   41  C1  UNL     1      -3.425  45.605 -21.104  1.00  0.00     0.006 C 
ENDBRANCH   1  40
BRANCH  24  42
HETATM   42  O6  UNL     1      -0.460  52.950 -22.746  1.00  0.00    -0.359 OA
HETATM   43  H29 UNL     1      -1.435  52.967 -22.695  1.00  0.00     0.217 HD
ENDBRANCH  24  42
TORSDOF 5
ENDMDL
MODEL 3
REMARK minimizedAffinity -8.50269413
REMARK CNNscore 0.371202201
REMARK CNNaffinity 7.13312864
REMARK  5 active torsions:
REMARK  status: ('A' for Active; 'I' for Inactive)
REMARK    1  A    between atoms: C2_2  and  C3_3 
REMARK    2  A    between atoms: C6_6  and  C7_7 
REMARK    3  A    between atoms: C7_7  and  O1_8 
REMARK    4  A    between atoms: C7_7  and  C8_9 
REMARK    5  A    between atoms: C26_32  and  O6_33 
ROOT
HETATM    1  C3  UNL     1      -3.752  49.769 -26.866  1.00  0.00     0.008 C 
HETATM    2  C4  UNL     1      -4.569  49.984 -25.602  1.00  0.00    -0.023 C 
HETATM    3  C5  UNL     1      -4.725  49.130 -24.576  1.00  0.00     0.005 C 
HETATM    4  C6  UNL     1      -5.573  49.395 -23.354  1.00  0.00     0.187 C 
HETATM    5  O2  UNL     1      -4.709  49.171 -22.210  1.00  0.00    -0.308 OA
HETATM    6  C12 UNL     1      -4.127  50.268 -21.654  1.00  0.00     0.276 C 
HETATM    7  O3  UNL     1      -4.456  51.428 -21.878  1.00  0.00    -0.264 OA
HETATM    8  C13 UNL     1      -3.006  49.879 -20.643  1.00  0.00     0.095 C 
HETATM    9  C14 UNL     1      -2.604  48.393 -20.724  1.00  0.00     0.036 C 
HETATM   10  C15 UNL     1      -3.666  50.091 -19.295  1.00  0.00     0.003 C 
HETATM   11  C16 UNL     1      -3.151  50.498 -18.130  1.00  0.00     0.072 C 
HETATM   12  C17 UNL     1      -1.766  50.861 -17.798  1.00  0.00     0.245 C 
HETATM   13  O4  UNL     1      -1.435  50.881 -16.614  1.00  0.00    -0.268 OA
HETATM   14  N1  UNL     1      -0.889  51.249 -18.749  1.00  0.00    -0.320 N 
HETATM   15  C18 UNL     1      -0.920  51.333 -20.118  1.00  0.00     0.098 C 
HETATM   16  C19 UNL     1      -1.802  50.763 -20.957  1.00  0.00     0.045 C 
HETATM   17  C20 UNL     1      -1.528  50.921 -22.426  1.00  0.00     0.194 C 
HETATM   18  O5  UNL     1      -1.863  50.061 -23.229  1.00  0.00    -0.287 OA
HETATM   19  C21 UNL     1      -0.793  52.099 -22.889  1.00  0.00     0.046 A 
HETATM   20  C22 UNL     1       0.146  52.644 -22.027  1.00  0.00     0.032 A 
HETATM   21  C23 UNL     1       0.968  53.699 -22.442  1.00  0.00     0.026 A 
HETATM   22  C24 UNL     1       0.819  54.254 -23.720  1.00  0.00    -0.027 A 
HETATM   23  C25 UNL     1       1.660  55.428 -24.132  1.00  0.00     0.051 C 
HETATM   24  C26 UNL     1      -0.188  53.753 -24.554  1.00  0.00     0.086 A 
HETATM   25  C27 UNL     1      -0.964  52.653 -24.161  1.00  0.00     0.059 A 
HETATM   26  C28 UNL     1      -2.039  52.212 -25.065  1.00  0.00     0.163 C 
HETATM   27  O7  UNL     1      -3.116  52.788 -24.960  1.00  0.00    -0.292 OA
HETATM   28  C29 UNL     1      -1.683  51.200 -26.139  1.00  0.00     0.084 C 
HETATM   29  C30 UNL     1      -2.815  50.968 -27.150  1.00  0.00     0.016 C 
HETATM   30  C31 UNL     1       0.240  52.129 -20.655  1.00  0.00     0.210 C 
HETATM   31  O8  UNL     1       1.198  52.406 -19.941  1.00  0.00    -0.285 OA
HETATM   32  H24 UNL     1      -0.031  51.615 -18.328  1.00  0.00     0.169 HD
ENDROOT
BRANCH   4  33
HETATM   33  C7  UNL     1      -6.745  48.380 -23.230  1.00  0.00     0.174 C 
BRANCH  33  34
HETATM   34  O1  UNL     1      -7.146  48.238 -21.864  1.00  0.00    -0.389 OA
HETATM   35  H11 UNL     1      -6.324  48.151 -21.351  1.00  0.00     0.210 HD
ENDBRANCH  33  34
BRANCH  33  36
HETATM   36  C8  UNL     1      -7.935  48.714 -24.098  1.00  0.00     0.009 C 
HETATM   37  C9  UNL     1      -8.261  48.286 -25.336  1.00  0.00    -0.089 C 
HETATM   38  C10 UNL     1      -9.479  48.824 -26.038  1.00  0.00     0.042 C 
HETATM   39  C11 UNL     1      -7.493  47.258 -26.119  1.00  0.00     0.042 C 
ENDBRANCH  33  36
ENDBRANCH   4  33
BRANCH   1  40
HETATM   40  C2  UNL     1      -3.039  48.396 -26.938  1.00  0.00     0.004 C 
HETATM   41  C1  UNL     1      -1.964  48.191 -25.878  1.00  0.00     0.006 C 
ENDBRANCH   1  40
BRANCH  24  42
HETATM   42  O6  UNL     1      -0.414  54.388 -25.745  1.00  0.00    -0.359 OA
HETATM   43  H29 UNL     1      -1.381  54.484 -25.854  1.00  0.00     0.217 HD
ENDBRANCH  24  42
TORSDOF 5
ENDMDL
MODEL 4
REMARK minimizedAffinity -7.86525345
REMARK CNNscore 0.32963708
REMARK CNNaffinity 5.39024401
REMARK  5 active torsions:
REMARK  status: ('A' for Active; 'I' for Inactive)
REMARK    1  A    between atoms: C2_2  and  C3_3 
REMARK    2  A    between atoms: C6_6  and  C7_7 
REMARK    3  A    between atoms: C7_7  and  O1_8 
REMARK    4  A    between atoms: C7_7  and  C8_9 
REMARK    5  A    between atoms: C26_32  and  O6_33 
ROOT
HETATM    1  C3  UNL     1     -12.143  45.798 -28.014  1.00  0.00     0.008 C 
HETATM    2  C4  UNL     1     -12.203  45.231 -26.605  1.00  0.00    -0.023 C 
HETATM    3  C5  UNL     1     -12.238  45.919 -25.450  1.00  0.00     0.005 C 
HETATM    4  C6  UNL     1     -12.274  45.294 -24.074  1.00  0.00     0.187 C 
HETATM    5  O2  UNL     1     -13.411  45.887 -23.395  1.00  0.00    -0.308 OA
HETATM    6  C12 UNL     1     -14.571  45.177 -23.402  1.00  0.00     0.276 C 
HETATM    7  O3  UNL     1     -14.670  43.995 -23.714  1.00  0.00    -0.264 OA
HETATM    8  C13 UNL     1     -15.778  46.034 -22.913  1.00  0.00     0.095 C 
HETATM    9  C14 UNL     1     -15.458  47.540 -22.827  1.00  0.00     0.036 C 
HETATM   10  C15 UNL     1     -16.001  45.542 -21.496  1.00  0.00     0.003 C 
HETATM   11  C16 UNL     1     -17.129  45.415 -20.789  1.00  0.00     0.072 C 
HETATM   12  C17 UNL     1     -18.512  45.725 -21.174  1.00  0.00     0.245 C 
HETATM   13  O4  UNL     1     -19.351  45.857 -20.284  1.00  0.00    -0.268 OA
HETATM   14  N1  UNL     1     -18.890  45.782 -22.470  1.00  0.00    -0.320 N 
HETATM   15  C18 UNL     1     -18.237  45.693 -23.672  1.00  0.00     0.098 C 
HETATM   16  C19 UNL     1     -16.918  45.798 -23.902  1.00  0.00     0.045 C 
HETATM   17  C20 UNL     1     -16.483  45.785 -25.340  1.00  0.00     0.194 C 
HETATM   18  O5  UNL     1     -15.490  46.397 -25.708  1.00  0.00    -0.287 OA
HETATM   19  C21 UNL     1     -17.302  45.073 -26.322  1.00  0.00     0.046 A 
HETATM   20  C22 UNL     1     -18.667  45.017 -26.093  1.00  0.00     0.032 A 
HETATM   21  C23 UNL     1     -19.529  44.454 -27.044  1.00  0.00     0.026 A 
HETATM   22  C24 UNL     1     -19.016  43.894 -28.221  1.00  0.00    -0.027 A 
HETATM   23  C25 UNL     1     -19.940  43.235 -29.204  1.00  0.00     0.051 C 
HETATM   24  C26 UNL     1     -17.628  43.881 -28.407  1.00  0.00     0.086 A 
HETATM   25  C27 UNL     1     -16.774  44.504 -27.485  1.00  0.00     0.059 A 
HETATM   26  C28 UNL     1     -15.324  44.406 -27.716  1.00  0.00     0.163 C 
HETATM   27  O7  UNL     1     -14.767  43.401 -27.290  1.00  0.00    -0.292 OA
HETATM   28  C29 UNL     1     -14.677  45.470 -28.585  1.00  0.00     0.084 C 
HETATM   29  C30 UNL     1     -13.214  45.160 -28.931  1.00  0.00     0.016 C 
HETATM   30  C31 UNL     1     -19.199  45.516 -24.818  1.00  0.00     0.210 C 
HETATM   31  O8  UNL     1     -20.401  45.707 -24.667  1.00  0.00    -0.285 OA
HETATM   32  H24 UNL     1     -19.908  45.847 -22.551  1.00  0.00     0.169 HD
ENDROOT
BRANCH   4  33
HETATM   33  C7  UNL     1     -11.017  45.661 -23.237  1.00  0.00     0.174 C 
BRANCH  33  34
HETATM   34  O1  UNL     1     -10.548  44.523 -22.507  1.00  0.00    -0.389 OA
HETATM   35  H11 UNL     1     -11.336  44.114 -22.112  1.00  0.00     0.210 HD
ENDBRANCH  33  34
BRANCH  33  36
HETATM   36  C8  UNL     1      -9.897  46.265 -24.051  1.00  0.00     0.009 C 
HETATM   37  C9  UNL     1      -8.941  45.673 -24.796  1.00  0.00    -0.089 C 
HETATM   38  C10 UNL     1      -7.872  46.495 -25.466  1.00  0.00     0.042 C 
HETATM   39  C11 UNL     1      -8.840  44.195 -25.048  1.00  0.00     0.042 C 
ENDBRANCH  33  36
ENDBRANCH   4  33
BRANCH   1  40
HETATM   40  C2  UNL     1     -12.114  47.345 -28.079  1.00  0.00     0.004 C 
HETATM   41  C1  UNL     1     -12.000  47.911 -29.489  1.00  0.00     0.006 C 
ENDBRANCH   1  40
BRANCH  24  42
HETATM   42  O6  UNL     1     -17.129  43.214 -29.493  1.00  0.00    -0.359 OA
HETATM   43  H29 UNL     1     -16.362  42.687 -29.194  1.00  0.00     0.217 HD
ENDBRANCH  24  42
TORSDOF 5
ENDMDL
MODEL 5
REMARK minimizedAffinity -8.48428726
REMARK CNNscore 0.325415969
REMARK CNNaffinity 6.49015045
REMARK  5 active torsions:
REMARK  status: ('A' for Active; 'I' for Inactive)
REMARK    1  A    between atoms: C2_2  and  C3_3 
REMARK    2  A    between atoms: C6_6  and  C7_7 
REMARK    3  A    between atoms: C7_7  and  O1_8 
REMARK    4  A    between atoms: C7_7  and  C8_9 
REMARK    5  A    between atoms: C26_32  and  O6_33 
ROOT
HETATM    1  C3  UNL     1      -8.866  47.124 -19.092  1.00  0.00     0.008 C 
HETATM    2  C4  UNL     1      -9.083  46.332 -20.372  1.00  0.00    -0.023 C 
HETATM    3  C5  UNL     1      -9.746  46.727 -21.472  1.00  0.00     0.005 C 
HETATM    4  C6  UNL     1      -9.947  45.880 -22.708  1.00  0.00     0.187 C 
HETATM    5  O2  UNL     1      -9.477  46.681 -23.823  1.00  0.00    -0.308 OA
HETATM    6  C12 UNL     1      -8.209  46.449 -24.256  1.00  0.00     0.276 C 
HETATM    7  O3  UNL     1      -7.530  45.474 -23.952  1.00  0.00    -0.264 OA
HETATM    8  C13 UNL     1      -7.721  47.555 -25.240  1.00  0.00     0.095 C 
HETATM    9  C14 UNL     1      -8.639  48.794 -25.264  1.00  0.00     0.036 C 
HETATM   10  C15 UNL     1      -7.835  46.888 -26.597  1.00  0.00     0.003 C 
HETATM   11  C16 UNL     1      -7.087  47.024 -27.696  1.00  0.00     0.072 C 
HETATM   12  C17 UNL     1      -5.916  47.880 -27.929  1.00  0.00     0.245 C 
HETATM   13  O4  UNL     1      -5.582  48.111 -29.090  1.00  0.00    -0.268 OA
HETATM   14  N1  UNL     1      -5.162  48.340 -26.907  1.00  0.00    -0.320 N 
HETATM   15  C18 UNL     1      -5.247  48.281 -25.540  1.00  0.00     0.098 C 
HETATM   16  C19 UNL     1      -6.317  47.955 -24.795  1.00  0.00     0.045 C 
HETATM   17  C20 UNL     1      -6.166  48.092 -23.307  1.00  0.00     0.194 C 
HETATM   18  O5  UNL     1      -7.120  48.374 -22.595  1.00  0.00    -0.287 OA
HETATM   19  C21 UNL     1      -4.837  47.943 -22.711  1.00  0.00     0.046 A 
HETATM   20  C22 UNL     1      -3.748  48.330 -23.477  1.00  0.00     0.032 A 
HETATM   21  C23 UNL     1      -2.456  48.325 -22.936  1.00  0.00     0.026 A 
HETATM   22  C24 UNL     1      -2.238  47.881 -21.625  1.00  0.00    -0.027 A 
HETATM   23  C25 UNL     1      -0.842  47.818 -21.075  1.00  0.00     0.051 C 
HETATM   24  C26 UNL     1      -3.333  47.415 -20.886  1.00  0.00     0.086 A 
HETATM   25  C27 UNL     1      -4.633  47.483 -21.407  1.00  0.00     0.059 A 
HETATM   26  C28 UNL     1      -5.728  46.926 -20.597  1.00  0.00     0.163 C 
HETATM   27  O7  UNL     1      -5.935  45.723 -20.706  1.00  0.00    -0.292 OA
HETATM   28  C29 UNL     1      -6.400  47.848 -19.595  1.00  0.00     0.084 C 
HETATM   29  C30 UNL     1      -7.378  47.118 -18.664  1.00  0.00     0.016 C 
HETATM   30  C31 UNL     1      -3.959  48.705 -24.882  1.00  0.00     0.210 C 
HETATM   31  O8  UNL     1      -3.082  49.274 -25.522  1.00  0.00    -0.285 OA
HETATM   32  H24 UNL     1      -4.305  48.779 -27.254  1.00  0.00     0.169 HD
ENDROOT
BRANCH   4  33
HETATM   33  C7  UNL     1     -11.451  45.589 -22.974  1.00  0.00     0.174 C 
BRANCH  33  34
HETATM   34  O1  UNL     1     -11.803  44.285 -22.503  1.00  0.00    -0.389 OA
HETATM   35  H11 UNL     1     -11.096  43.690 -22.806  1.00  0.00     0.210 HD
ENDBRANCH  33  34
BRANCH  33  36
HETATM   36  C8  UNL     1     -12.384  46.629 -22.398  1.00  0.00     0.009 C 
HETATM   37  C9  UNL     1     -13.038  46.658 -21.219  1.00  0.00    -0.089 C 
HETATM   38  C10 UNL     1     -13.985  47.783 -20.894  1.00  0.00     0.042 C 
HETATM   39  C11 UNL     1     -12.896  45.629 -20.132  1.00  0.00     0.042 C 
ENDBRANCH  33  36
ENDBRANCH   4  33
BRANCH   1  40
HETATM   40  C2  UNL     1      -9.502  48.536 -19.100  1.00  0.00     0.004 C 
HETATM   41  C1  UNL     1      -9.045  49.436 -17.959  1.00  0.00     0.006 C 
ENDBRANCH   1  40
BRANCH  24  42
HETATM   42  O6  UNL     1      -3.092  46.859 -19.658  1.00  0.00    -0.359 OA
HETATM   43  H29 UNL     1      -3.625  46.043 -19.589  1.00  0.00     0.217 HD
ENDBRANCH  24  42
TORSDOF 5
ENDMDL
MODEL 6
REMARK minimizedAffinity -10.1633463
REMARK CNNscore 0.307959706
REMARK CNNaffinity 6.65247536
REMARK  5 active torsions:
REMARK  status: ('A' for Active; 'I' for Inactive)
REMARK    1  A    between atoms: C2_2  and  C3_3 
REMARK    2  A    between atoms: C6_6  and  C7_7 
REMARK    3  A    between atoms: C7_7  and  O1_8 
REMARK    4  A    between atoms: C7_7  and  C8_9 
REMARK    5  A    between atoms: C26_32  and  O6_33 
ROOT
HETATM    1  C3  UNL     1      -4.536  46.857 -18.142  1.00  0.00     0.008 C 
HETATM    2  C4  UNL     1      -4.349  48.313 -17.748  1.00  0.00    -0.023 C 
HETATM    3  C5  UNL     1      -3.274  48.868 -17.161  1.00  0.00     0.005 C 
HETATM    4  C6  UNL     1      -3.159  50.324 -16.773  1.00  0.00     0.187 C 
HETATM    5  O2  UNL     1      -1.931  50.804 -17.378  1.00  0.00    -0.308 OA
HETATM    6  C12 UNL     1      -2.044  51.456 -18.566  1.00  0.00     0.276 C 
HETATM    7  O3  UNL     1      -3.093  51.881 -19.038  1.00  0.00    -0.264 OA
HETATM    8  C13 UNL     1      -0.658  51.655 -19.253  1.00  0.00     0.095 C 
HETATM    9  C14 UNL     1       0.465  50.820 -18.605  1.00  0.00     0.036 C 
HETATM   10  C15 UNL     1      -0.343  53.113 -18.984  1.00  0.00     0.003 C 
HETATM   11  C16 UNL     1       0.314  54.010 -19.727  1.00  0.00     0.072 C 
HETATM   12  C17 UNL     1       0.945  53.849 -21.044  1.00  0.00     0.245 C 
HETATM   13  O4  UNL     1       1.777  54.683 -21.399  1.00  0.00    -0.268 OA
HETATM   14  N1  UNL     1       0.572  52.866 -21.892  1.00  0.00    -0.320 N 
HETATM   15  C18 UNL     1      -0.287  51.800 -21.818  1.00  0.00     0.098 C 
HETATM   16  C19 UNL     1      -0.829  51.254 -20.716  1.00  0.00     0.045 C 
HETATM   17  C20 UNL     1      -1.644  50.008 -20.915  1.00  0.00     0.194 C 
HETATM   18  O5  UNL     1      -1.708  49.147 -20.049  1.00  0.00    -0.287 OA
HETATM   19  C21 UNL     1      -2.323  49.801 -22.195  1.00  0.00     0.046 A 
HETATM   20  C22 UNL     1      -1.724  50.331 -23.328  1.00  0.00     0.032 A 
HETATM   21  C23 UNL     1      -2.252  50.077 -24.600  1.00  0.00     0.026 A 
HETATM   22  C24 UNL     1      -3.425  49.323 -24.744  1.00  0.00    -0.027 A 
HETATM   23  C25 UNL     1      -4.019  49.111 -26.106  1.00  0.00     0.051 C 
HETATM   24  C26 UNL     1      -4.069  48.862 -23.590  1.00  0.00     0.086 A 
HETATM   25  C27 UNL     1      -3.502  49.061 -22.322  1.00  0.00     0.059 A 
HETATM   26  C28 UNL     1      -4.260  48.596 -21.149  1.00  0.00     0.163 C 
HETATM   27  O7  UNL     1      -5.104  49.364 -20.701  1.00  0.00    -0.292 OA
HETATM   28  C29 UNL     1      -4.042  47.164 -20.695  1.00  0.00     0.084 C 
HETATM   29  C30 UNL     1      -5.027  46.720 -19.604  1.00  0.00     0.016 C 
HETATM   30  C31 UNL     1      -0.550  51.200 -23.175  1.00  0.00     0.210 C 
HETATM   31  O8  UNL     1       0.148  51.493 -24.139  1.00  0.00    -0.285 OA
HETATM   32  H24 UNL     1       0.995  52.999 -22.814  1.00  0.00     0.169 HD
ENDROOT
BRANCH   4  33
HETATM   33  C7  UNL     1      -2.997  50.504 -15.237  1.00  0.00     0.174 C 
BRANCH  33  34
HETATM   34  O1  UNL     1      -3.228  49.266 -14.558  1.00  0.00    -0.389 OA
HETATM   35  H11 UNL     1      -4.030  48.887 -14.957  1.00  0.00     0.210 HD
ENDBRANCH  33  34
BRANCH  33  36
HETATM   36  C8  UNL     1      -1.666  51.090 -14.829  1.00  0.00     0.009 C 
HETATM   37  C9  UNL     1      -1.317  51.779 -13.722  1.00  0.00    -0.089 C 
HETATM   38  C10 UNL     1       0.074  52.334 -13.571  1.00  0.00     0.042 C 
HETATM   39  C11 UNL     1      -2.226  52.048 -12.556  1.00  0.00     0.042 C 
ENDBRANCH  33  36
ENDBRANCH   4  33
BRANCH   1  40
HETATM   40  C2  UNL     1      -3.330  45.945 -17.806  1.00  0.00     0.004 C 
HETATM   41  C1  UNL     1      -3.525  45.080 -16.567  1.00  0.00     0.006 C 
ENDBRANCH   1  40
BRANCH  24  42
HETATM   42  O6  UNL     1      -5.282  48.244 -23.732  1.00  0.00    -0.359 OA
HETATM   43  H29 UNL     1      -5.880  48.598 -23.045  1.00  0.00     0.217 HD
ENDBRANCH  24  42
TORSDOF 5
ENDMDL
MODEL 7
REMARK minimizedAffinity -8.16508865
REMARK CNNscore 0.277579457
REMARK CNNaffinity 5.98945999
REMARK  5 active torsions:
REMARK  status: ('A' for Active; 'I' for Inactive)
REMARK    1  A    between atoms: C2_2  and  C3_3 
REMARK    2  A    between atoms: C6_6  and  C7_7 
REMARK    3  A    between atoms: C7_7  and  O1_8 
REMARK    4  A    between atoms: C7_7  and  C8_9 
REMARK    5  A    between atoms: C26_32  and  O6_33 
ROOT
HETATM    1  C3  UNL     1     -19.165  41.432 -25.794  1.00  0.00     0.008 C 
HETATM    2  C4  UNL     1     -19.902  42.413 -24.896  1.00  0.00    -0.023 C 
HETATM    3  C5  UNL     1     -20.019  42.363 -23.557  1.00  0.00     0.005 C 
HETATM    4  C6  UNL     1     -20.788  43.361 -22.722  1.00  0.00     0.187 C 
HETATM    5  O2  UNL     1     -19.865  43.827 -21.704  1.00  0.00    -0.308 OA
HETATM    6  C12 UNL     1     -19.224  45.001 -21.946  1.00  0.00     0.276 C 
HETATM    7  O3  UNL     1     -19.536  45.806 -22.818  1.00  0.00    -0.264 OA
HETATM    8  C13 UNL     1     -18.056  45.242 -20.941  1.00  0.00     0.095 C 
HETATM    9  C14 UNL     1     -17.697  43.990 -20.116  1.00  0.00     0.036 C 
HETATM   10  C15 UNL     1     -18.631  46.263 -19.979  1.00  0.00     0.003 C 
HETATM   11  C16 UNL     1     -18.039  47.262 -19.317  1.00  0.00     0.072 C 
HETATM   12  C17 UNL     1     -16.628  47.674 -19.316  1.00  0.00     0.245 C 
HETATM   13  O4  UNL     1     -16.229  48.388 -18.397  1.00  0.00    -0.268 OA
HETATM   14  N1  UNL     1     -15.798  47.358 -20.334  1.00  0.00    -0.320 N 
HETATM   15  C18 UNL     1     -15.907  46.599 -21.470  1.00  0.00     0.098 C 
HETATM   16  C19 UNL     1     -16.850  45.688 -21.764  1.00  0.00     0.045 C 
HETATM   17  C20 UNL     1     -16.658  44.909 -23.035  1.00  0.00     0.194 C 
HETATM   18  O5  UNL     1     -17.061  43.759 -23.141  1.00  0.00    -0.287 OA
HETATM   19  C21 UNL     1     -15.922  45.524 -24.140  1.00  0.00     0.046 A 
HETATM   20  C22 UNL     1     -14.920  46.426 -23.815  1.00  0.00     0.032 A 
HETATM   21  C23 UNL     1     -14.097  46.968 -24.810  1.00  0.00     0.026 A 
HETATM   22  C24 UNL     1     -14.306  46.644 -26.158  1.00  0.00    -0.027 A 
HETATM   23  C25 UNL     1     -13.460  47.280 -27.223  1.00  0.00     0.051 C 
HETATM   24  C26 UNL     1     -15.372  45.797 -26.484  1.00  0.00     0.086 A 
HETATM   25  C27 UNL     1     -16.152  45.204 -25.481  1.00  0.00     0.059 A 
HETATM   26  C28 UNL     1     -17.288  44.367 -25.899  1.00  0.00     0.163 C 
HETATM   27  O7  UNL     1     -18.342  44.948 -26.132  1.00  0.00    -0.292 OA
HETATM   28  C29 UNL     1     -17.021  42.894 -26.148  1.00  0.00     0.084 C 
HETATM   29  C30 UNL     1     -18.215  42.161 -26.776  1.00  0.00     0.016 C 
HETATM   30  C31 UNL     1     -14.759  46.842 -22.416  1.00  0.00     0.210 C 
HETATM   31  O8  UNL     1     -13.755  47.441 -22.047  1.00  0.00    -0.285 OA
HETATM   32  H24 UNL     1     -14.909  47.856 -20.248  1.00  0.00     0.169 HD
ENDROOT
BRANCH   4  33
HETATM   33  C7  UNL     1     -21.976  42.695 -21.972  1.00  0.00     0.174 C 
BRANCH  33  34
HETATM   34  O1  UNL     1     -22.407  41.515 -22.657  1.00  0.00    -0.389 OA
HETATM   35  H11 UNL     1     -22.452  41.753 -23.598  1.00  0.00     0.210 HD
ENDBRANCH  33  34
BRANCH  33  36
HETATM   36  C8  UNL     1     -21.687  42.388 -20.521  1.00  0.00     0.009 C 
HETATM   37  C9  UNL     1     -22.406  41.695 -19.614  1.00  0.00    -0.089 C 
HETATM   38  C10 UNL     1     -21.940  41.586 -18.187  1.00  0.00     0.042 C 
HETATM   39  C11 UNL     1     -23.689  40.969 -19.909  1.00  0.00     0.042 C 
ENDBRANCH  33  36
ENDBRANCH   4  33
BRANCH   1  40
HETATM   40  C2  UNL     1     -18.492  40.258 -25.040  1.00  0.00     0.004 C 
HETATM   41  C1  UNL     1     -18.929  40.113 -23.588  1.00  0.00     0.006 C 
ENDBRANCH   1  40
BRANCH  24  42
HETATM   42  O6  UNL     1     -15.651  45.594 -27.809  1.00  0.00    -0.359 OA
HETATM   43  H29 UNL     1     -16.619  45.658 -27.924  1.00  0.00     0.217 HD
ENDBRANCH  24  42
TORSDOF 5
ENDMDL
MODEL 8
REMARK minimizedAffinity -8.51025772
REMARK CNNscore 0.24221094
REMARK CNNaffinity 5.3208766
REMARK  5 active torsions:
REMARK  status: ('A' for Active; 'I' for Inactive)
REMARK    1  A    between atoms: C2_2  and  C3_3 
REMARK    2  A    between atoms: C6_6  and  C7_7 
REMARK    3  A    between atoms: C7_7  and  O1_8 
REMARK    4  A    between atoms: C7_7  and  C8_9 
REMARK    5  A    between atoms: C26_32  and  O6_33 
ROOT
HETATM    1  C3  UNL     1     -12.732  46.073 -25.604  1.00  0.00     0.008 C 
HETATM    2  C4  UNL     1     -14.187  46.096 -26.042  1.00  0.00    -0.023 C 
HETATM    3  C5  UNL     1     -14.969  45.041 -26.329  1.00  0.00     0.005 C 
HETATM    4  C6  UNL     1     -16.408  45.132 -26.784  1.00  0.00     0.187 C 
HETATM    5  O2  UNL     1     -17.167  44.283 -25.885  1.00  0.00    -0.308 OA
HETATM    6  C12 UNL     1     -17.789  44.893 -24.842  1.00  0.00     0.276 C 
HETATM    7  O3  UNL     1     -17.964  46.103 -24.737  1.00  0.00    -0.264 OA
HETATM    8  C13 UNL     1     -18.312  43.862 -23.795  1.00  0.00     0.095 C 
HETATM    9  C14 UNL     1     -17.753  42.442 -24.011  1.00  0.00     0.036 C 
HETATM   10  C15 UNL     1     -19.800  43.806 -24.077  1.00  0.00     0.003 C 
HETATM   11  C16 UNL     1     -20.834  43.619 -23.250  1.00  0.00     0.072 C 
HETATM   12  C17 UNL     1     -20.840  43.402 -21.797  1.00  0.00     0.245 C 
HETATM   13  O4  UNL     1     -21.848  42.922 -21.282  1.00  0.00    -0.268 OA
HETATM   14  N1  UNL     1     -19.807  43.794 -21.019  1.00  0.00    -0.320 N 
HETATM   15  C18 UNL     1     -18.570  44.336 -21.255  1.00  0.00     0.098 C 
HETATM   16  C19 UNL     1     -17.900  44.381 -22.419  1.00  0.00     0.045 C 
HETATM   17  C20 UNL     1     -16.501  44.927 -22.369  1.00  0.00     0.194 C 
HETATM   18  O5  UNL     1     -15.639  44.534 -23.141  1.00  0.00    -0.287 OA
HETATM   19  C21 UNL     1     -16.158  45.904 -21.333  1.00  0.00     0.046 A 
HETATM   20  C22 UNL     1     -16.825  45.810 -20.122  1.00  0.00     0.032 A 
HETATM   21  C23 UNL     1     -16.471  46.634 -19.046  1.00  0.00     0.026 A 
HETATM   22  C24 UNL     1     -15.467  47.601 -19.193  1.00  0.00    -0.027 A 
HETATM   23  C25 UNL     1     -15.139  48.522 -18.054  1.00  0.00     0.051 C 
HETATM   24  C26 UNL     1     -14.856  47.744 -20.445  1.00  0.00     0.086 A 
HETATM   25  C27 UNL     1     -15.165  46.874 -21.500  1.00  0.00     0.059 A 
HETATM   26  C28 UNL     1     -14.523  47.116 -22.802  1.00  0.00     0.163 C 
HETATM   27  O7  UNL     1     -15.069  47.928 -23.541  1.00  0.00    -0.292 OA
HETATM   28  C29 UNL     1     -13.176  46.463 -23.053  1.00  0.00     0.084 C 
HETATM   29  C30 UNL     1     -12.502  46.945 -24.345  1.00  0.00     0.016 C 
HETATM   30  C31 UNL     1     -17.941  44.864 -19.992  1.00  0.00     0.210 C 
HETATM   31  O8  UNL     1     -18.400  44.576 -18.893  1.00  0.00    -0.285 OA
HETATM   32  H24 UNL     1     -20.045  43.714 -20.028  1.00  0.00     0.169 HD
ENDROOT
BRANCH   4  33
HETATM   33  C7  UNL     1     -16.602  44.550 -28.213  1.00  0.00     0.174 C 
BRANCH  33  34
HETATM   34  O1  UNL     1     -15.434  44.768 -29.009  1.00  0.00    -0.389 OA
HETATM   35  H11 UNL     1     -15.172  45.692 -28.854  1.00  0.00     0.210 HD
ENDBRANCH  33  34
BRANCH  33  36
HETATM   36  C8  UNL     1     -16.988  43.089 -28.230  1.00  0.00     0.009 C 
HETATM   37  C9  UNL     1     -17.783  42.406 -29.079  1.00  0.00    -0.089 C 
HETATM   38  C10 UNL     1     -18.082  40.949 -28.844  1.00  0.00     0.042 C 
HETATM   39  C11 UNL     1     -18.423  42.983 -30.310  1.00  0.00     0.042 C 
ENDBRANCH  33  36
ENDBRANCH   4  33
BRANCH   1  40
HETATM   40  C2  UNL     1     -12.121  44.654 -25.493  1.00  0.00     0.004 C 
HETATM   41  C1  UNL     1     -11.413  44.176 -26.754  1.00  0.00     0.006 C 
ENDBRANCH   1  40
BRANCH  24  42
HETATM   42  O6  UNL     1     -13.974  48.777 -20.616  1.00  0.00    -0.359 OA
HETATM   43  H29 UNL     1     -14.171  49.199 -21.476  1.00  0.00     0.217 HD
ENDBRANCH  24  42
TORSDOF 5
ENDMDL
MODEL 9
REMARK minimizedAffinity -8.00747585
REMARK CNNscore 0.22582908
REMARK CNNaffinity 6.22117233
REMARK  5 active torsions:
REMARK  status: ('A' for Active; 'I' for Inactive)
REMARK    1  A    between atoms: C2_2  and  C3_3 
REMARK    2  A    between atoms: C6_6  and  C7_7 
REMARK    3  A    between atoms: C7_7  and  O1_8 
REMARK    4  A    between atoms: C7_7  and  C8_9 
REMARK    5  A    between atoms: C26_32  and  O6_33 
ROOT
HETATM    1  C3  UNL     1       3.239  51.346 -13.719  1.00  0.00     0.008 C 
HETATM    2  C4  UNL     1       2.396  51.763 -12.525  1.00  0.00    -0.023 C 
HETATM    3  C5  UNL     1       1.323  52.573 -12.527  1.00  0.00     0.005 C 
HETATM    4  C6  UNL     1       0.539  52.968 -11.296  1.00  0.00     0.187 C 
HETATM    5  O2  UNL     1      -0.848  52.652 -11.587  1.00  0.00    -0.308 OA
HETATM    6  C12 UNL     1      -1.319  51.465 -11.119  1.00  0.00     0.276 C 
HETATM    7  O3  UNL     1      -0.758  50.766 -10.282  1.00  0.00    -0.264 OA
HETATM    8  C13 UNL     1      -2.704  51.107 -11.739  1.00  0.00     0.095 C 
HETATM    9  C14 UNL     1      -3.079  51.996 -12.943  1.00  0.00     0.036 C 
HETATM   10  C15 UNL     1      -3.678  51.430 -10.624  1.00  0.00     0.003 C 
HETATM   11  C16 UNL     1      -4.833  50.849 -10.285  1.00  0.00     0.072 C 
HETATM   12  C17 UNL     1      -5.522  49.709 -10.905  1.00  0.00     0.245 C 
HETATM   13  O4  UNL     1      -6.717  49.545 -10.661  1.00  0.00    -0.268 OA
HETATM   14  N1  UNL     1      -4.858  48.805 -11.658  1.00  0.00    -0.320 N 
HETATM   15  C18 UNL     1      -3.572  48.690 -12.120  1.00  0.00     0.098 C 
HETATM   16  C19 UNL     1      -2.629  49.645 -12.174  1.00  0.00     0.045 C 
HETATM   17  C20 UNL     1      -1.337  49.276 -12.846  1.00  0.00     0.194 C 
HETATM   18  O5  UNL     1      -0.669  50.110 -13.441  1.00  0.00    -0.287 OA
HETATM   19  C21 UNL     1      -0.906  47.877 -12.834  1.00  0.00     0.046 A 
HETATM   20  C22 UNL     1      -1.894  46.905 -12.827  1.00  0.00     0.032 A 
HETATM   21  C23 UNL     1      -1.563  45.548 -12.932  1.00  0.00     0.026 A 
HETATM   22  C24 UNL     1      -0.221  45.149 -12.995  1.00  0.00    -0.027 A 
HETATM   23  C25 UNL     1       0.126  43.689 -13.042  1.00  0.00     0.051 C 
HETATM   24  C26 UNL     1       0.773  46.131 -12.919  1.00  0.00     0.086 A 
HETATM   25  C27 UNL     1       0.438  47.492 -12.882  1.00  0.00     0.059 A 
HETATM   26  C28 UNL     1       1.532  48.467 -12.748  1.00  0.00     0.163 C 
HETATM   27  O7  UNL     1       1.916  48.709 -11.609  1.00  0.00    -0.292 OA
HETATM   28  C29 UNL     1       2.186  48.968 -14.023  1.00  0.00     0.084 C 
HETATM   29  C30 UNL     1       3.442  49.812 -13.767  1.00  0.00     0.016 C 
HETATM   30  C31 UNL     1      -3.296  47.313 -12.665  1.00  0.00     0.210 C 
HETATM   31  O8  UNL     1      -4.212  46.529 -12.889  1.00  0.00    -0.285 OA
HETATM   32  H24 UNL     1      -5.453  48.001 -11.873  1.00  0.00     0.169 HD
ENDROOT
BRANCH   4  33
HETATM   33  C7  UNL     1       0.599  54.500 -11.037  1.00  0.00     0.174 C 
BRANCH  33  34
HETATM   34  O1  UNL     1      -0.715  55.031 -10.846  1.00  0.00    -0.389 OA
HETATM   35  H11 UNL     1      -1.266  54.642 -11.546  1.00  0.00     0.210 HD
ENDBRANCH  33  34
BRANCH  33  36
HETATM   36  C8  UNL     1       1.500  54.889  -9.888  1.00  0.00     0.009 C 
HETATM   37  C9  UNL     1       2.639  55.612  -9.877  1.00  0.00    -0.089 C 
HETATM   38  C10 UNL     1       3.411  55.807  -8.599  1.00  0.00     0.042 C 
HETATM   39  C11 UNL     1       3.237  56.290 -11.077  1.00  0.00     0.042 C 
ENDBRANCH  33  36
ENDBRANCH   4  33
BRANCH   1  40
HETATM   40  C2  UNL     1       2.777  51.951 -15.068  1.00  0.00     0.004 C 
HETATM   41  C1  UNL     1       3.909  52.491 -15.933  1.00  0.00     0.006 C 
ENDBRANCH   1  40
BRANCH  24  42
HETATM   42  O6  UNL     1       2.078  45.723 -12.846  1.00  0.00    -0.359 OA
HETATM   43  H29 UNL     1       2.520  46.255 -12.156  1.00  0.00     0.217 HD
ENDBRANCH  24  42
TORSDOF 5
ENDMDL
