MODEL 1
REMARK minimizedAffinity -7.35981131
REMARK CNNscore 0.561304867
REMARK CNNaffinity 6.17289925
REMARK  8 active torsions:
REMARK  status: ('A' for Active; 'I' for Inactive)
REMARK    1  A    between atoms: C3_3  and  O1_4 
REMARK    2  A    between atoms: N1_14  and  O2_16 
REMARK    3  A    between atoms: O2_16  and  C13_17 
REMARK    4  A    between atoms: C13_17  and  C14_18 
REMARK       I    between atoms: C14_18  and  N2_20 
REMARK    5  A    between atoms: N2_20  and  C15_21 
REMARK    6  A    between atoms: C15_21  and  C16_22 
REMARK    7  A    between atoms: C16_22  and  O4_23 
REMARK    8  A    between atoms: C16_22  and  C17_24 
ROOT
HETATM    1  C1  UNL     1     -16.246  -2.712  14.149  1.00  0.00     0.015 C 
HETATM    2  C2  UNL     1     -16.209  -3.642  14.908  1.00  0.00    -0.078 C 
HETATM    3  C3  UNL     1     -16.174  -4.769  15.851  1.00  0.00     0.128 C 
HETATM    4  C4  UNL     1     -17.557  -5.437  16.015  1.00  0.00     0.052 C 
HETATM    5  C5  UNL     1     -17.280  -6.923  16.315  1.00  0.00     0.010 C 
HETATM    6  C6  UNL     1     -15.753  -7.036  16.403  1.00  0.00     0.002 C 
HETATM    7  C7  UNL     1     -15.141  -8.431  16.173  1.00  0.00    -0.004 C 
HETATM    8  C8  UNL     1     -15.504  -9.356  17.355  1.00  0.00     0.010 C 
HETATM    9  C9  UNL     1     -14.445  -9.372  18.447  1.00  0.00     0.035 C 
HETATM   10  C10 UNL     1     -13.062  -9.711  17.948  1.00  0.00    -0.069 C 
HETATM   11  C11 UNL     1     -12.120 -10.038  18.853  1.00  0.00     0.030 C 
HETATM   12  C12 UNL     1     -10.708 -10.322  18.455  1.00  0.00     0.032 C 
HETATM   13  N1  UNL     1      -9.699 -10.442  19.266  1.00  0.00    -0.271 N 
ATOM     14  H1  UNL     1      -8.752 -10.683  18.975  1.00  0.00     0.194 HD
HETATM   15  C23 UNL     1     -10.437 -10.467  16.971  1.00  0.00     0.060 C 
HETATM   16  C24 UNL     1     -11.252  -9.414  16.220  1.00  0.00     0.020 C 
HETATM   17  C25 UNL     1     -12.787  -9.569  16.451  1.00  0.00    -0.016 C 
HETATM   18  C26 UNL     1     -13.214 -10.863  15.699  1.00  0.00     0.020 C 
HETATM   19  C27 UNL     1     -13.595  -8.341  15.877  1.00  0.00     0.002 C 
HETATM   20  C28 UNL     1     -13.030  -6.954  16.292  1.00  0.00     0.007 C 
HETATM   21  C29 UNL     1     -13.743  -5.745  15.656  1.00  0.00     0.014 C 
HETATM   22  C30 UNL     1     -15.249  -5.953  15.426  1.00  0.00     0.003 C 
HETATM   23  C31 UNL     1     -15.484  -6.336  13.939  1.00  0.00     0.020 C 
ENDROOT
BRANCH   3  24
HETATM   24  O1  UNL     1     -15.805  -4.272  17.141  1.00  0.00    -0.377 OA
HETATM   25  H2  UNL     1     -15.127  -3.589  17.007  1.00  0.00     0.211 HD
ENDBRANCH   3  24
BRANCH  13  26
HETATM   26  O2  UNL     1     -10.081 -10.197  20.593  1.00  0.00    -0.271 OA
BRANCH  26  27
HETATM   27  C13 UNL     1      -8.998  -9.629  21.319  1.00  0.00     0.303 C 
BRANCH  27  28
HETATM   28  C14 UNL     1      -8.315 -10.602  22.274  1.00  0.00     0.243 C 
HETATM   29  O3  UNL     1      -7.187 -11.047  22.067  1.00  0.00    -0.271 OA
HETATM   30  N2  UNL     1      -9.082 -10.993  23.348  1.00  0.00    -0.356 N 
HETATM   31  H16 UNL     1      -9.926 -10.434  23.493  1.00  0.00     0.162 HD
BRANCH  30  32
HETATM   32  C15 UNL     1      -8.557 -11.785  24.454  1.00  0.00     0.159 C 
BRANCH  32  33
HETATM   33  C16 UNL     1      -8.540 -13.309  24.189  1.00  0.00     0.170 C 
BRANCH  33  34
HETATM   34  O4  UNL     1      -7.318 -13.725  23.574  1.00  0.00    -0.389 OA
HETATM   35  H20 UNL     1      -7.104 -13.060  22.882  1.00  0.00     0.210 HD
ENDBRANCH  33  34
BRANCH  33  36
HETATM   36  C17 UNL     1      -8.692 -14.089  25.471  1.00  0.00    -0.013 A 
HETATM   37  C18 UNL     1      -7.796 -15.092  25.847  1.00  0.00     0.013 A 
HETATM   38  C19 UNL     1      -7.982 -15.782  27.040  1.00  0.00     0.025 A 
HETATM   39  C20 UNL     1      -9.066 -15.452  27.845  1.00  0.00     0.005 A 
HETATM   40  C21 UNL     1      -9.303 -16.189  29.131  1.00  0.00     0.068 C 
HETATM   41  N3  UNL     1      -9.934 -14.467  27.522  1.00  0.00    -0.369 N 
HETATM   42  C22 UNL     1      -9.734 -13.818  26.350  1.00  0.00     0.097 A 
ATOM     43  H3  UNL     1     -10.710 -14.222  28.138  1.00  0.00     0.165 HD
ENDBRANCH  33  36
ENDBRANCH  32  33
ENDBRANCH  30  32
ENDBRANCH  27  28
ENDBRANCH  26  27
ENDBRANCH  13  26
TORSDOF 8
ENDMDL
MODEL 2
REMARK minimizedAffinity -10.4130354
REMARK CNNscore 0.533433676
REMARK CNNaffinity 7.65964127
REMARK  8 active torsions:
REMARK  status: ('A' for Active; 'I' for Inactive)
REMARK    1  A    between atoms: C3_3  and  O1_4 
REMARK    2  A    between atoms: N1_14  and  O2_16 
REMARK    3  A    between atoms: O2_16  and  C13_17 
REMARK    4  A    between atoms: C13_17  and  C14_18 
REMARK       I    between atoms: C14_18  and  N2_20 
REMARK    5  A    between atoms: N2_20  and  C15_21 
REMARK    6  A    between atoms: C15_21  and  C16_22 
REMARK    7  A    between atoms: C16_22  and  O4_23 
REMARK    8  A    between atoms: C16_22  and  C17_24 
ROOT
HETATM    1  C1  UNL     1       3.093   8.803   7.841  1.00  0.00     0.015 C 
HETATM    2  C2  UNL     1       2.482   8.086   8.585  1.00  0.00    -0.078 C 
HETATM    3  C3  UNL     1       1.729   7.195   9.479  1.00  0.00     0.128 C 
HETATM    4  C4  UNL     1       2.457   5.853   9.717  1.00  0.00     0.052 C 
HETATM    5  C5  UNL     1       2.065   5.402  11.137  1.00  0.00     0.010 C 
HETATM    6  C6  UNL     1       1.057   6.450  11.627  1.00  0.00     0.002 C 
HETATM    7  C7  UNL     1       0.876   6.587  13.151  1.00  0.00    -0.004 C 
HETATM    8  C8  UNL     1       0.177   5.327  13.704  1.00  0.00     0.010 C 
HETATM    9  C9  UNL     1      -1.335   5.471  13.787  1.00  0.00     0.035 C 
HETATM   10  C10 UNL     1      -1.789   6.682  14.565  1.00  0.00    -0.069 C 
HETATM   11  C11 UNL     1      -3.078   6.748  14.947  1.00  0.00     0.030 C 
HETATM   12  C12 UNL     1      -3.630   7.938  15.662  1.00  0.00     0.032 C 
HETATM   13  N1  UNL     1      -4.889   8.176  15.884  1.00  0.00    -0.271 N 
ATOM     14  H1  UNL     1      -5.239   8.972  16.415  1.00  0.00     0.194 HD
HETATM   15  C23 UNL     1      -2.625   8.960  16.154  1.00  0.00     0.060 C 
HETATM   16  C24 UNL     1      -1.542   9.134  15.089  1.00  0.00     0.020 C 
HETATM   17  C25 UNL     1      -0.778   7.807  14.790  1.00  0.00    -0.016 C 
HETATM   18  C26 UNL     1       0.090   7.509  16.046  1.00  0.00     0.020 C 
HETATM   19  C27 UNL     1       0.158   7.940  13.527  1.00  0.00     0.002 C 
HETATM   20  C28 UNL     1      -0.530   8.568  12.284  1.00  0.00     0.007 C 
HETATM   21  C29 UNL     1       0.396   8.801  11.075  1.00  0.00     0.014 C 
HETATM   22  C30 UNL     1       1.506   7.747  10.923  1.00  0.00     0.003 C 
HETATM   23  C31 UNL     1       2.828   8.317  11.508  1.00  0.00     0.020 C 
ENDROOT
BRANCH   3  24
HETATM   24  O1  UNL     1       0.480   6.877   8.858  1.00  0.00    -0.377 OA
HETATM   25  H2  UNL     1       0.161   7.681   8.414  1.00  0.00     0.211 HD
ENDBRANCH   3  24
BRANCH  13  26
HETATM   26  O2  UNL     1      -5.702   7.196  15.298  1.00  0.00    -0.271 OA
BRANCH  26  27
HETATM   27  C13 UNL     1      -7.049   7.647  15.238  1.00  0.00     0.303 C 
BRANCH  27  28
HETATM   28  C14 UNL     1      -8.026   6.611  14.693  1.00  0.00     0.243 C 
HETATM   29  O3  UNL     1      -9.239   6.684  14.883  1.00  0.00    -0.271 OA
HETATM   30  N2  UNL     1      -7.441   5.554  14.033  1.00  0.00    -0.356 N 
HETATM   31  H16 UNL     1      -6.454   5.692  13.803  1.00  0.00     0.162 HD
BRANCH  30  32
HETATM   32  C15 UNL     1      -8.206   4.551  13.302  1.00  0.00     0.159 C 
BRANCH  32  33
HETATM   33  C16 UNL     1      -7.525   3.164  13.231  1.00  0.00     0.170 C 
BRANCH  33  34
HETATM   34  O4  UNL     1      -8.343   2.207  12.554  1.00  0.00    -0.389 OA
HETATM   35  H20 UNL     1      -9.262   2.334  12.879  1.00  0.00     0.210 HD
ENDBRANCH  33  34
BRANCH  33  36
HETATM   36  C17 UNL     1      -6.209   3.238  12.497  1.00  0.00    -0.013 A 
HETATM   37  C18 UNL     1      -5.231   4.184  12.810  1.00  0.00     0.013 A 
HETATM   38  C19 UNL     1      -4.034   4.210  12.101  1.00  0.00     0.025 A 
HETATM   39  C20 UNL     1      -3.833   3.281  11.088  1.00  0.00     0.005 A 
HETATM   40  C21 UNL     1      -2.559   3.292  10.296  1.00  0.00     0.068 C 
HETATM   41  N3  UNL     1      -4.749   2.335  10.781  1.00  0.00    -0.369 N 
HETATM   42  C22 UNL     1      -5.909   2.339  11.480  1.00  0.00     0.097 A 
ATOM     43  H3  UNL     1      -4.573   1.645  10.051  1.00  0.00     0.165 HD
ENDBRANCH  33  36
ENDBRANCH  32  33
ENDBRANCH  30  32
ENDBRANCH  27  28
ENDBRANCH  26  27
ENDBRANCH  13  26
TORSDOF 8
ENDMDL
MODEL 3
REMARK minimizedAffinity -8.84691238
REMARK CNNscore 0.447117805
REMARK CNNaffinity 6.4826808
REMARK  8 active torsions:
REMARK  status: ('A' for Active; 'I' for Inactive)
REMARK    1  A    between atoms: C3_3  and  O1_4 
REMARK    2  A    between atoms: N1_14  and  O2_16 
REMARK    3  A    between atoms: O2_16  and  C13_17 
REMARK    4  A    between atoms: C13_17  and  C14_18 
REMARK       I    between atoms: C14_18  and  N2_20 
REMARK    5  A    between atoms: N2_20  and  C15_21 
REMARK    6  A    between atoms: C15_21  and  C16_22 
REMARK    7  A    between atoms: C16_22  and  O4_23 
REMARK    8  A    between atoms: C16_22  and  C17_24 
ROOT
HETATM    1  C1  UNL     1       5.841   6.004  10.745  1.00  0.00     0.015 C 
HETATM    2  C2  UNL     1       4.859   6.689  10.828  1.00  0.00    -0.078 C 
HETATM    3  C3  UNL     1       3.668   7.545  10.925  1.00  0.00     0.128 C 
HETATM    4  C4  UNL     1       3.179   8.026   9.540  1.00  0.00     0.052 C 
HETATM    5  C5  UNL     1       1.651   8.184   9.659  1.00  0.00     0.010 C 
HETATM    6  C6  UNL     1       1.330   7.880  11.128  1.00  0.00     0.002 C 
HETATM    7  C7  UNL     1      -0.113   7.446  11.452  1.00  0.00    -0.004 C 
HETATM    8  C8  UNL     1      -1.069   8.641  11.256  1.00  0.00     0.010 C 
HETATM    9  C9  UNL     1      -1.309   9.429  12.534  1.00  0.00     0.035 C 
HETATM   10  C10 UNL     1      -1.790   8.584  13.688  1.00  0.00    -0.069 C 
HETATM   11  C11 UNL     1      -2.307   9.207  14.763  1.00  0.00     0.030 C 
HETATM   12  C12 UNL     1      -2.745   8.455  15.977  1.00  0.00     0.032 C 
HETATM   13  N1  UNL     1      -3.060   8.980  17.125  1.00  0.00    -0.271 N 
ATOM     14  H1  UNL     1      -3.401   8.450  17.926  1.00  0.00     0.194 HD
HETATM   15  C23 UNL     1      -2.810   6.946  15.854  1.00  0.00     0.060 C 
HETATM   16  C24 UNL     1      -1.604   6.469  15.045  1.00  0.00     0.020 C 
HETATM   17  C25 UNL     1      -1.571   7.073  13.608  1.00  0.00    -0.016 C 
HETATM   18  C26 UNL     1      -2.735   6.401  12.824  1.00  0.00     0.020 C 
HETATM   19  C27 UNL     1      -0.206   6.773  12.875  1.00  0.00     0.002 C 
HETATM   20  C28 UNL     1       1.057   7.088  13.723  1.00  0.00     0.007 C 
HETATM   21  C29 UNL     1       2.396   6.704  13.064  1.00  0.00     0.014 C 
HETATM   22  C30 UNL     1       2.408   6.853  11.533  1.00  0.00     0.003 C 
HETATM   23  C31 UNL     1       2.175   5.459  10.888  1.00  0.00     0.020 C 
ENDROOT
BRANCH   3  24
HETATM   24  O1  UNL     1       4.011   8.720  11.666  1.00  0.00    -0.377 OA
HETATM   25  H2  UNL     1       4.607   8.449  12.384  1.00  0.00     0.211 HD
ENDBRANCH   3  24
BRANCH  13  26
HETATM   26  O2  UNL     1      -2.870  10.369  17.118  1.00  0.00    -0.271 OA
BRANCH  26  27
HETATM   27  C13 UNL     1      -2.419  10.809  18.392  1.00  0.00     0.303 C 
BRANCH  27  28
HETATM   28  C14 UNL     1      -0.927  11.123  18.449  1.00  0.00     0.243 C 
HETATM   29  O3  UNL     1      -0.264  11.353  17.439  1.00  0.00    -0.271 OA
HETATM   30  N2  UNL     1      -0.371  11.061  19.706  1.00  0.00    -0.356 N 
HETATM   31  H16 UNL     1      -1.049  11.023  20.470  1.00  0.00     0.162 HD
BRANCH  30  32
HETATM   32  C15 UNL     1       0.996  11.484  19.991  1.00  0.00     0.159 C 
BRANCH  32  33
HETATM   33  C16 UNL     1       1.988  10.317  20.201  1.00  0.00     0.170 C 
BRANCH  33  34
HETATM   34  O4  UNL     1       2.462   9.796  18.957  1.00  0.00    -0.389 OA
HETATM   35  H20 UNL     1       1.686   9.736  18.356  1.00  0.00     0.210 HD
ENDBRANCH  33  34
BRANCH  33  36
HETATM   36  C17 UNL     1       3.191  10.757  20.998  1.00  0.00    -0.013 A 
HETATM   37  C18 UNL     1       3.434  10.305  22.296  1.00  0.00     0.013 A 
HETATM   38  C19 UNL     1       4.558  10.742  22.988  1.00  0.00     0.025 A 
HETATM   39  C20 UNL     1       5.429  11.627  22.364  1.00  0.00     0.005 A 
HETATM   40  C21 UNL     1       6.643  12.129  23.090  1.00  0.00     0.068 C 
HETATM   41  N3  UNL     1       5.236  12.061  21.098  1.00  0.00    -0.369 N 
HETATM   42  C22 UNL     1       4.128  11.626  20.452  1.00  0.00     0.097 A 
ATOM     43  H3  UNL     1       5.900  12.691  20.647  1.00  0.00     0.165 HD
ENDBRANCH  33  36
ENDBRANCH  32  33
ENDBRANCH  30  32
ENDBRANCH  27  28
ENDBRANCH  26  27
ENDBRANCH  13  26
TORSDOF 8
ENDMDL
MODEL 4
REMARK minimizedAffinity -7.42401409
REMARK CNNscore 0.38925463
REMARK CNNaffinity 6.82379293
REMARK  8 active torsions:
REMARK  status: ('A' for Active; 'I' for Inactive)
REMARK    1  A    between atoms: C3_3  and  O1_4 
REMARK    2  A    between atoms: N1_14  and  O2_16 
REMARK    3  A    between atoms: O2_16  and  C13_17 
REMARK    4  A    between atoms: C13_17  and  C14_18 
REMARK       I    between atoms: C14_18  and  N2_20 
REMARK    5  A    between atoms: N2_20  and  C15_21 
REMARK    6  A    between atoms: C15_21  and  C16_22 
REMARK    7  A    between atoms: C16_22  and  O4_23 
REMARK    8  A    between atoms: C16_22  and  C17_24 
ROOT
HETATM    1  C1  UNL     1      -4.047   6.255  15.883  1.00  0.00     0.015 C 
HETATM    2  C2  UNL     1      -4.953   6.408  15.110  1.00  0.00    -0.078 C 
HETATM    3  C3  UNL     1      -6.049   6.601  14.149  1.00  0.00     0.128 C 
HETATM    4  C4  UNL     1      -6.183   5.413  13.170  1.00  0.00     0.052 C 
HETATM    5  C5  UNL     1      -7.678   5.324  12.811  1.00  0.00     0.010 C 
HETATM    6  C6  UNL     1      -8.332   6.517  13.521  1.00  0.00     0.002 C 
HETATM    7  C7  UNL     1      -9.846   6.422  13.794  1.00  0.00    -0.004 C 
HETATM    8  C8  UNL     1     -10.618   6.503  12.459  1.00  0.00     0.010 C 
HETATM    9  C9  UNL     1     -11.048   7.918  12.103  1.00  0.00     0.035 C 
HETATM   10  C10 UNL     1     -11.842   8.604  13.188  1.00  0.00    -0.069 C 
HETATM   11  C11 UNL     1     -12.514   9.727  12.873  1.00  0.00     0.030 C 
HETATM   12  C12 UNL     1     -13.270  10.508  13.897  1.00  0.00     0.032 C 
HETATM   13  N1  UNL     1     -13.770  11.697  13.731  1.00  0.00    -0.271 N 
ATOM     14  H1  UNL     1     -14.323  12.192  14.430  1.00  0.00     0.194 HD
HETATM   15  C23 UNL     1     -13.453   9.853  15.251  1.00  0.00     0.060 C 
HETATM   16  C24 UNL     1     -12.155   9.141  15.630  1.00  0.00     0.020 C 
HETATM   17  C25 UNL     1     -11.759   8.034  14.604  1.00  0.00    -0.016 C 
HETATM   18  C26 UNL     1     -12.789   6.882  14.783  1.00  0.00     0.020 C 
HETATM   19  C27 UNL     1     -10.305   7.481  14.869  1.00  0.00     0.002 C 
HETATM   20  C28 UNL     1      -9.226   8.583  15.059  1.00  0.00     0.007 C 
HETATM   21  C29 UNL     1      -7.821   8.063  15.421  1.00  0.00     0.014 C 
HETATM   22  C30 UNL     1      -7.470   6.708  14.786  1.00  0.00     0.003 C 
HETATM   23  C31 UNL     1      -7.695   5.584  15.835  1.00  0.00     0.020 C 
ENDROOT
BRANCH   3  24
HETATM   24  O1  UNL     1      -5.758   7.754  13.354  1.00  0.00    -0.377 OA
HETATM   25  H2  UNL     1      -5.359   8.419  13.938  1.00  0.00     0.211 HD
ENDBRANCH   3  24
BRANCH  13  26
HETATM   26  O2  UNL     1     -13.448  12.211  12.467  1.00  0.00    -0.271 OA
BRANCH  26  27
HETATM   27  C13 UNL     1     -14.034  13.496  12.295  1.00  0.00     0.303 C 
BRANCH  27  28
HETATM   28  C14 UNL     1     -13.150  14.647  12.762  1.00  0.00     0.243 C 
HETATM   29  O3  UNL     1     -13.451  15.366  13.714  1.00  0.00    -0.271 OA
HETATM   30  N2  UNL     1     -12.027  14.862  11.996  1.00  0.00    -0.356 N 
HETATM   31  H16 UNL     1     -11.807  14.106  11.343  1.00  0.00     0.162 HD
BRANCH  30  32
HETATM   32  C15 UNL     1     -10.977  15.803  12.370  1.00  0.00     0.159 C 
BRANCH  32  33
HETATM   33  C16 UNL     1     -11.144  17.213  11.757  1.00  0.00     0.170 C 
BRANCH  33  34
HETATM   34  O4  UNL     1     -11.589  18.163  12.729  1.00  0.00    -0.389 OA
HETATM   35  H20 UNL     1     -12.290  17.725  13.259  1.00  0.00     0.210 HD
ENDBRANCH  33  34
BRANCH  33  36
HETATM   36  C17 UNL     1      -9.843  17.719  11.186  1.00  0.00    -0.013 A 
HETATM   37  C18 UNL     1      -9.655  17.918   9.817  1.00  0.00     0.013 A 
HETATM   38  C19 UNL     1      -8.434  18.387   9.342  1.00  0.00     0.025 A 
HETATM   39  C20 UNL     1      -7.418  18.655  10.250  1.00  0.00     0.005 A 
HETATM   40  C21 UNL     1      -6.085  19.147   9.768  1.00  0.00     0.068 C 
HETATM   41  N3  UNL     1      -7.579  18.499  11.584  1.00  0.00    -0.369 N 
HETATM   42  C22 UNL     1      -8.775  18.033  12.017  1.00  0.00     0.097 A 
ATOM     43  H3  UNL     1      -6.830  18.725  12.238  1.00  0.00     0.165 HD
ENDBRANCH  33  36
ENDBRANCH  32  33
ENDBRANCH  30  32
ENDBRANCH  27  28
ENDBRANCH  26  27
ENDBRANCH  13  26
TORSDOF 8
ENDMDL
MODEL 5
REMARK minimizedAffinity -7.81629658
REMARK CNNscore 0.369584352
REMARK CNNaffinity 5.26986265
REMARK  8 active torsions:
REMARK  status: ('A' for Active; 'I' for Inactive)
REMARK    1  A    between atoms: C3_3  and  O1_4 
REMARK    2  A    between atoms: N1_14  and  O2_16 
REMARK    3  A    between atoms: O2_16  and  C13_17 
REMARK    4  A    between atoms: C13_17  and  C14_18 
REMARK       I    between atoms: C14_18  and  N2_20 
REMARK    5  A    between atoms: N2_20  and  C15_21 
REMARK    6  A    between atoms: C15_21  and  C16_22 
REMARK    7  A    between atoms: C16_22  and  O4_23 
REMARK    8  A    between atoms: C16_22  and  C17_24 
ROOT
HETATM    1  C1  UNL     1      -3.836  -9.710  10.140  1.00  0.00     0.015 C 
HETATM    2  C2  UNL     1      -4.939  -9.386  10.487  1.00  0.00    -0.078 C 
HETATM    3  C3  UNL     1      -6.282  -8.969  10.914  1.00  0.00     0.128 C 
HETATM    4  C4  UNL     1      -7.039  -8.207   9.802  1.00  0.00     0.052 C 
HETATM    5  C5  UNL     1      -8.533  -8.520  10.013  1.00  0.00     0.010 C 
HETATM    6  C6  UNL     1      -8.588  -9.370  11.289  1.00  0.00     0.002 C 
HETATM    7  C7  UNL     1      -9.830 -10.262  11.479  1.00  0.00    -0.004 C 
HETATM    8  C8  UNL     1     -11.067  -9.378  11.746  1.00  0.00     0.010 C 
HETATM    9  C9  UNL     1     -11.335  -9.156  13.226  1.00  0.00     0.035 C 
HETATM   10  C10 UNL     1     -11.450 -10.434  14.021  1.00  0.00    -0.069 C 
HETATM   11  C11 UNL     1     -11.969 -10.369  15.261  1.00  0.00     0.030 C 
HETATM   12  C12 UNL     1     -12.058 -11.571  16.144  1.00  0.00     0.032 C 
HETATM   13  N1  UNL     1     -12.350 -11.565  17.411  1.00  0.00    -0.271 N 
ATOM     14  H1  UNL     1     -12.451 -12.403  17.983  1.00  0.00     0.194 HD
HETATM   15  C23 UNL     1     -11.766 -12.911  15.498  1.00  0.00     0.060 C 
HETATM   16  C24 UNL     1     -10.587 -12.745  14.539  1.00  0.00     0.020 C 
HETATM   17  C25 UNL     1     -10.879 -11.712  13.406  1.00  0.00    -0.016 C 
HETATM   18  C26 UNL     1     -11.929 -12.376  12.469  1.00  0.00     0.020 C 
HETATM   19  C27 UNL     1      -9.582 -11.369  12.576  1.00  0.00     0.002 C 
HETATM   20  C28 UNL     1      -8.341 -11.022  13.444  1.00  0.00     0.007 C 
HETATM   21  C29 UNL     1      -7.039 -10.785  12.654  1.00  0.00     0.014 C 
HETATM   22  C30 UNL     1      -7.251 -10.139  11.274  1.00  0.00     0.003 C 
HETATM   23  C31 UNL     1      -7.212 -11.247  10.186  1.00  0.00     0.020 C 
ENDROOT
BRANCH   3  24
HETATM   24  O1  UNL     1      -6.150  -8.061  12.011  1.00  0.00    -0.377 OA
HETATM   25  H2  UNL     1      -5.423  -8.383  12.571  1.00  0.00     0.211 HD
ENDBRANCH   3  24
BRANCH  13  26
HETATM   26  O2  UNL     1     -12.508 -10.256  17.889  1.00  0.00    -0.271 OA
BRANCH  26  27
HETATM   27  C13 UNL     1     -11.472  -9.942  18.811  1.00  0.00     0.303 C 
BRANCH  27  28
HETATM   28  C14 UNL     1     -11.498 -10.783  20.083  1.00  0.00     0.243 C 
HETATM   29  O3  UNL     1     -12.408 -11.572  20.333  1.00  0.00    -0.271 OA
HETATM   30  N2  UNL     1     -10.463 -10.542  20.957  1.00  0.00    -0.356 N 
HETATM   31  H16 UNL     1      -9.695  -9.992  20.565  1.00  0.00     0.162 HD
BRANCH  30  32
HETATM   32  C15 UNL     1     -10.220 -11.353  22.145  1.00  0.00     0.159 C 
BRANCH  32  33
HETATM   33  C16 UNL     1      -8.723 -11.539  22.489  1.00  0.00     0.170 C 
BRANCH  33  34
HETATM   34  O4  UNL     1      -8.094 -10.294  22.802  1.00  0.00    -0.389 OA
HETATM   35  H20 UNL     1      -8.414  -9.637  22.144  1.00  0.00     0.210 HD
ENDBRANCH  33  34
BRANCH  33  36
HETATM   36  C17 UNL     1      -8.543 -12.451  23.676  1.00  0.00    -0.013 A 
HETATM   37  C18 UNL     1      -8.974 -12.103  24.958  1.00  0.00     0.013 A 
HETATM   38  C19 UNL     1      -8.783 -12.981  26.020  1.00  0.00     0.025 A 
HETATM   39  C20 UNL     1      -8.165 -14.202  25.779  1.00  0.00     0.005 A 
HETATM   40  C21 UNL     1      -7.932 -15.165  26.906  1.00  0.00     0.068 C 
HETATM   41  N3  UNL     1      -7.763 -14.580  24.545  1.00  0.00    -0.369 N 
HETATM   42  C22 UNL     1      -7.953 -13.701  23.531  1.00  0.00     0.097 A 
ATOM     43  H3  UNL     1      -7.334 -15.490  24.383  1.00  0.00     0.165 HD
ENDBRANCH  33  36
ENDBRANCH  32  33
ENDBRANCH  30  32
ENDBRANCH  27  28
ENDBRANCH  26  27
ENDBRANCH  13  26
TORSDOF 8
ENDMDL
MODEL 6
REMARK minimizedAffinity -7.84862041
REMARK CNNscore 0.317887723
REMARK CNNaffinity 6.29003382
REMARK  8 active torsions:
REMARK  status: ('A' for Active; 'I' for Inactive)
REMARK    1  A    between atoms: C3_3  and  O1_4 
REMARK    2  A    between atoms: N1_14  and  O2_16 
REMARK    3  A    between atoms: O2_16  and  C13_17 
REMARK    4  A    between atoms: C13_17  and  C14_18 
REMARK       I    between atoms: C14_18  and  N2_20 
REMARK    5  A    between atoms: N2_20  and  C15_21 
REMARK    6  A    between atoms: C15_21  and  C16_22 
REMARK    7  A    between atoms: C16_22  and  O4_23 
REMARK    8  A    between atoms: C16_22  and  C17_24 
ROOT
HETATM    1  C1  UNL     1      -5.795   4.931  12.951  1.00  0.00     0.015 C 
HETATM    2  C2  UNL     1      -5.176   5.515  13.798  1.00  0.00    -0.078 C 
HETATM    3  C3  UNL     1      -4.419   6.212  14.847  1.00  0.00     0.128 C 
HETATM    4  C4  UNL     1      -2.944   5.756  14.906  1.00  0.00     0.052 C 
HETATM    5  C5  UNL     1      -2.139   6.978  15.387  1.00  0.00     0.010 C 
HETATM    6  C6  UNL     1      -3.187   8.060  15.675  1.00  0.00     0.002 C 
HETATM    7  C7  UNL     1      -2.701   9.522  15.666  1.00  0.00    -0.004 C 
HETATM    8  C8  UNL     1      -1.782   9.770  16.881  1.00  0.00     0.010 C 
HETATM    9  C9  UNL     1      -2.525  10.311  18.092  1.00  0.00     0.035 C 
HETATM   10  C10 UNL     1      -3.328  11.557  17.805  1.00  0.00    -0.069 C 
HETATM   11  C11 UNL     1      -3.781  12.278  18.848  1.00  0.00     0.030 C 
HETATM   12  C12 UNL     1      -4.639  13.486  18.660  1.00  0.00     0.032 C 
HETATM   13  N1  UNL     1      -5.283  14.115  19.598  1.00  0.00    -0.271 N 
ATOM     14  H1  UNL     1      -5.826  14.966  19.453  1.00  0.00     0.194 HD
HETATM   15  C23 UNL     1      -4.776  14.007  17.244  1.00  0.00     0.060 C 
HETATM   16  C24 UNL     1      -4.904  12.815  16.294  1.00  0.00     0.020 C 
HETATM   17  C25 UNL     1      -3.662  11.873  16.347  1.00  0.00    -0.016 C 
HETATM   18  C26 UNL     1      -2.491  12.654  15.684  1.00  0.00     0.020 C 
HETATM   19  C27 UNL     1      -3.909  10.531  15.556  1.00  0.00     0.002 C 
HETATM   20  C28 UNL     1      -5.252   9.826  15.895  1.00  0.00     0.007 C 
HETATM   21  C29 UNL     1      -5.558   8.570  15.057  1.00  0.00     0.014 C 
HETATM   22  C30 UNL     1      -4.312   7.759  14.664  1.00  0.00     0.003 C 
HETATM   23  C31 UNL     1      -3.915   8.118  13.205  1.00  0.00     0.020 C 
ENDROOT
BRANCH   3  24
HETATM   24  O1  UNL     1      -4.996   5.889  16.116  1.00  0.00    -0.377 OA
HETATM   25  H2  UNL     1      -5.961   5.861  16.000  1.00  0.00     0.211 HD
ENDBRANCH   3  24
BRANCH  13  26
HETATM   26  O2  UNL     1      -5.135  13.472  20.835  1.00  0.00    -0.271 OA
BRANCH  26  27
HETATM   27  C13 UNL     1      -5.591  14.315  21.885  1.00  0.00     0.303 C 
BRANCH  27  28
HETATM   28  C14 UNL     1      -6.908  13.869  22.511  1.00  0.00     0.243 C 
HETATM   29  O3  UNL     1      -6.997  12.863  23.213  1.00  0.00    -0.271 OA
HETATM   30  N2  UNL     1      -7.998  14.639  22.176  1.00  0.00    -0.356 N 
HETATM   31  H16 UNL     1      -7.768  15.529  21.727  1.00  0.00     0.162 HD
BRANCH  30  32
HETATM   32  C15 UNL     1      -9.308  14.477  22.797  1.00  0.00     0.159 C 
BRANCH  32  33
HETATM   33  C16 UNL     1     -10.308  13.650  21.956  1.00  0.00     0.170 C 
BRANCH  33  34
HETATM   34  O4  UNL     1      -9.832  13.440  20.624  1.00  0.00    -0.389 OA
HETATM   35  H20 UNL     1      -9.453  14.293  20.317  1.00  0.00     0.210 HD
ENDBRANCH  33  34
BRANCH  33  36
HETATM   36  C17 UNL     1     -10.552  12.295  22.571  1.00  0.00    -0.013 A 
HETATM   37  C18 UNL     1     -10.833  11.164  21.801  1.00  0.00     0.013 A 
HETATM   38  C19 UNL     1     -11.050   9.936  22.418  1.00  0.00     0.025 A 
HETATM   39  C20 UNL     1     -10.979   9.859  23.804  1.00  0.00     0.005 A 
HETATM   40  C21 UNL     1     -11.223   8.553  24.500  1.00  0.00     0.068 C 
HETATM   41  N3  UNL     1     -10.681  10.930  24.574  1.00  0.00    -0.369 N 
HETATM   42  C22 UNL     1     -10.483  12.114  23.947  1.00  0.00     0.097 A 
ATOM     43  H3  UNL     1     -10.607  10.849  25.588  1.00  0.00     0.165 HD
ENDBRANCH  33  36
ENDBRANCH  32  33
ENDBRANCH  30  32
ENDBRANCH  27  28
ENDBRANCH  26  27
ENDBRANCH  13  26
TORSDOF 8
ENDMDL
MODEL 7
REMARK minimizedAffinity -8.28578091
REMARK CNNscore 0.310149312
REMARK CNNaffinity 5.92560196
REMARK  8 active torsions:
REMARK  status: ('A' for Active; 'I' for Inactive)
REMARK    1  A    between atoms: C3_3  and  O1_4 
REMARK    2  A    between atoms: N1_14  and  O2_16 
REMARK    3  A    between atoms: O2_16  and  C13_17 
REMARK    4  A    between atoms: C13_17  and  C14_18 
REMARK       I    between atoms: C14_18  and  N2_20 
REMARK    5  A    between atoms: N2_20  and  C15_21 
REMARK    6  A    between atoms: C15_21  and  C16_22 
REMARK    7  A    between atoms: C16_22  and  O4_23 
REMARK    8  A    between atoms: C16_22  and  C17_24 
ROOT
HETATM    1  C1  UNL     1      -3.724   4.367  12.188  1.00  0.00     0.015 C 
HETATM    2  C2  UNL     1      -2.797   5.053  12.522  1.00  0.00    -0.078 C 
HETATM    3  C3  UNL     1      -1.649   5.878  12.926  1.00  0.00     0.128 C 
HETATM    4  C4  UNL     1      -0.844   6.395  11.712  1.00  0.00     0.052 C 
HETATM    5  C5  UNL     1      -0.257   7.754  12.138  1.00  0.00     0.010 C 
HETATM    6  C6  UNL     1      -0.668   7.926  13.606  1.00  0.00     0.002 C 
HETATM    7  C7  UNL     1      -0.695   9.363  14.160  1.00  0.00    -0.004 C 
HETATM    8  C8  UNL     1       0.746   9.905  14.265  1.00  0.00     0.010 C 
HETATM    9  C9  UNL     1       1.371   9.681  15.633  1.00  0.00     0.035 C 
HETATM   10  C10 UNL     1       0.545  10.223  16.774  1.00  0.00    -0.069 C 
HETATM   11  C11 UNL     1       1.127  10.342  17.982  1.00  0.00     0.030 C 
HETATM   12  C12 UNL     1       0.367  10.805  19.183  1.00  0.00     0.032 C 
HETATM   13  N1  UNL     1       0.785  10.755  20.413  1.00  0.00    -0.271 N 
ATOM     14  H1  UNL     1       0.267  11.121  21.212  1.00  0.00     0.194 HD
HETATM   15  C23 UNL     1      -1.018  11.367  18.934  1.00  0.00     0.060 C 
HETATM   16  C24 UNL     1      -1.707  10.516  17.867  1.00  0.00     0.020 C 
HETATM   17  C25 UNL     1      -0.933  10.514  16.512  1.00  0.00    -0.016 C 
HETATM   18  C26 UNL     1      -1.104  11.938  15.909  1.00  0.00     0.020 C 
HETATM   19  C27 UNL     1      -1.514   9.447  15.506  1.00  0.00     0.002 C 
HETATM   20  C28 UNL     1      -1.719   8.034  16.120  1.00  0.00     0.007 C 
HETATM   21  C29 UNL     1      -2.382   7.007  15.182  1.00  0.00     0.014 C 
HETATM   22  C30 UNL     1      -2.017   7.184  13.699  1.00  0.00     0.003 C 
HETATM   23  C31 UNL     1      -3.167   7.947  12.983  1.00  0.00     0.020 C 
ENDROOT
BRANCH   3  24
HETATM   24  O1  UNL     1      -0.754   5.067  13.693  1.00  0.00    -0.377 OA
HETATM   25  H2  UNL     1      -1.295   4.487  14.256  1.00  0.00     0.211 HD
ENDBRANCH   3  24
BRANCH  13  26
HETATM   26  O2  UNL     1       2.039  10.134  20.499  1.00  0.00    -0.271 OA
BRANCH  26  27
HETATM   27  C13 UNL     1       2.104   9.318  21.662  1.00  0.00     0.303 C 
BRANCH  27  28
HETATM   28  C14 UNL     1       3.135   9.780  22.686  1.00  0.00     0.243 C 
HETATM   29  O3  UNL     1       3.235   9.266  23.800  1.00  0.00    -0.271 OA
HETATM   30  N2  UNL     1       3.897  10.857  22.295  1.00  0.00    -0.356 N 
HETATM   31  H16 UNL     1       3.832  11.085  21.300  1.00  0.00     0.162 HD
BRANCH  30  32
HETATM   32  C15 UNL     1       5.040  11.343  23.060  1.00  0.00     0.159 C 
BRANCH  32  33
HETATM   33  C16 UNL     1       6.144  12.001  22.199  1.00  0.00     0.170 C 
BRANCH  33  34
HETATM   34  O4  UNL     1       5.699  12.239  20.861  1.00  0.00    -0.389 OA
HETATM   35  H20 UNL     1       5.204  11.439  20.576  1.00  0.00     0.210 HD
ENDBRANCH  33  34
BRANCH  33  36
HETATM   36  C17 UNL     1       6.574  13.325  22.779  1.00  0.00    -0.013 A 
HETATM   37  C18 UNL     1       7.897  13.589  23.139  1.00  0.00     0.013 A 
HETATM   38  C19 UNL     1       8.241  14.828  23.670  1.00  0.00     0.025 A 
HETATM   39  C20 UNL     1       7.251  15.789  23.830  1.00  0.00     0.005 A 
HETATM   40  C21 UNL     1       7.588  17.129  24.414  1.00  0.00     0.068 C 
HETATM   41  N3  UNL     1       5.967  15.573  23.465  1.00  0.00    -0.369 N 
HETATM   42  C22 UNL     1       5.658  14.355  22.959  1.00  0.00     0.097 A 
ATOM     43  H3  UNL     1       5.258  16.300  23.566  1.00  0.00     0.165 HD
ENDBRANCH  33  36
ENDBRANCH  32  33
ENDBRANCH  30  32
ENDBRANCH  27  28
ENDBRANCH  26  27
ENDBRANCH  13  26
TORSDOF 8
ENDMDL
MODEL 8
REMARK minimizedAffinity -7.72154236
REMARK CNNscore 0.301231891
REMARK CNNaffinity 6.3376832
REMARK  8 active torsions:
REMARK  status: ('A' for Active; 'I' for Inactive)
REMARK    1  A    between atoms: C3_3  and  O1_4 
REMARK    2  A    between atoms: N1_14  and  O2_16 
REMARK    3  A    between atoms: O2_16  and  C13_17 
REMARK    4  A    between atoms: C13_17  and  C14_18 
REMARK       I    between atoms: C14_18  and  N2_20 
REMARK    5  A    between atoms: N2_20  and  C15_21 
REMARK    6  A    between atoms: C15_21  and  C16_22 
REMARK    7  A    between atoms: C16_22  and  O4_23 
REMARK    8  A    between atoms: C16_22  and  C17_24 
ROOT
HETATM    1  C1  UNL     1      -3.693  18.222  12.735  1.00  0.00     0.015 C 
HETATM    2  C2  UNL     1      -2.913  17.363  13.045  1.00  0.00    -0.078 C 
HETATM    3  C3  UNL     1      -1.949  16.314  13.406  1.00  0.00     0.128 C 
HETATM    4  C4  UNL     1      -0.539  16.883  13.680  1.00  0.00     0.052 C 
HETATM    5  C5  UNL     1       0.097  15.955  14.733  1.00  0.00     0.010 C 
HETATM    6  C6  UNL     1      -0.930  14.838  14.956  1.00  0.00     0.002 C 
HETATM    7  C7  UNL     1      -0.841  14.064  16.285  1.00  0.00    -0.004 C 
HETATM    8  C8  UNL     1       0.437  13.199  16.296  1.00  0.00     0.010 C 
HETATM    9  C9  UNL     1       0.203  11.781  15.801  1.00  0.00     0.035 C 
HETATM   10  C10 UNL     1      -0.902  11.056  16.531  1.00  0.00    -0.069 C 
HETATM   11  C11 UNL     1      -0.997   9.722  16.380  1.00  0.00     0.030 C 
HETATM   12  C12 UNL     1      -2.098   8.933  17.010  1.00  0.00     0.032 C 
HETATM   13  N1  UNL     1      -2.386   7.690  16.756  1.00  0.00    -0.271 N 
ATOM     14  H1  UNL     1      -3.113   7.158  17.233  1.00  0.00     0.194 HD
HETATM   15  C23 UNL     1      -2.959   9.660  18.024  1.00  0.00     0.060 C 
HETATM   16  C24 UNL     1      -3.220  11.078  17.517  1.00  0.00     0.020 C 
HETATM   17  C25 UNL     1      -1.906  11.895  17.322  1.00  0.00    -0.016 C 
HETATM   18  C26 UNL     1      -1.357  12.188  18.748  1.00  0.00     0.020 C 
HETATM   19  C27 UNL     1      -2.167  13.258  16.572  1.00  0.00     0.002 C 
HETATM   20  C28 UNL     1      -3.025  13.125  15.284  1.00  0.00     0.007 C 
HETATM   21  C29 UNL     1      -3.378  14.458  14.596  1.00  0.00     0.014 C 
HETATM   22  C30 UNL     1      -2.286  15.534  14.716  1.00  0.00     0.003 C 
HETATM   23  C31 UNL     1      -2.665  16.513  15.862  1.00  0.00     0.020 C 
ENDROOT
BRANCH   3  24
HETATM   24  O1  UNL     1      -1.819  15.416  12.299  1.00  0.00    -0.377 OA
HETATM   25  H2  UNL     1      -2.702  15.303  11.909  1.00  0.00     0.211 HD
ENDBRANCH   3  24
BRANCH  13  26
HETATM   26  O2  UNL     1      -1.567   7.177  15.740  1.00  0.00    -0.271 OA
BRANCH  26  27
HETATM   27  C13 UNL     1      -2.327   6.350  14.868  1.00  0.00     0.303 C 
BRANCH  27  28
HETATM   28  C14 UNL     1      -1.609   5.994  13.570  1.00  0.00     0.243 C 
HETATM   29  O3  UNL     1      -2.203   5.875  12.499  1.00  0.00    -0.271 OA
HETATM   30  N2  UNL     1      -0.262   5.749  13.703  1.00  0.00    -0.356 N 
HETATM   31  H16 UNL     1       0.136   6.038  14.600  1.00  0.00     0.162 HD
BRANCH  30  32
HETATM   32  C15 UNL     1       0.627   5.554  12.563  1.00  0.00     0.159 C 
BRANCH  32  33
HETATM   33  C16 UNL     1       1.430   6.815  12.165  1.00  0.00     0.170 C 
BRANCH  33  34
HETATM   34  O4  UNL     1       2.767   6.773  12.669  1.00  0.00    -0.389 OA
HETATM   35  H20 UNL     1       2.715   6.442  13.594  1.00  0.00     0.210 HD
ENDBRANCH  33  34
BRANCH  33  36
HETATM   36  C17 UNL     1       1.513   6.960  10.666  1.00  0.00    -0.013 A 
HETATM   37  C18 UNL     1       0.809   7.945   9.969  1.00  0.00     0.013 A 
HETATM   38  C19 UNL     1       0.920   8.035   8.586  1.00  0.00     0.025 A 
HETATM   39  C20 UNL     1       1.743   7.136   7.918  1.00  0.00     0.005 A 
HETATM   40  C21 UNL     1       1.872   7.198   6.425  1.00  0.00     0.068 C 
HETATM   41  N3  UNL     1       2.459   6.190   8.567  1.00  0.00    -0.369 N 
HETATM   42  C22 UNL     1       2.324   6.119   9.913  1.00  0.00     0.097 A 
ATOM     43  H3  UNL     1       3.077   5.554   8.062  1.00  0.00     0.165 HD
ENDBRANCH  33  36
ENDBRANCH  32  33
ENDBRANCH  30  32
ENDBRANCH  27  28
ENDBRANCH  26  27
ENDBRANCH  13  26
TORSDOF 8
ENDMDL
MODEL 9
REMARK minimizedAffinity -7.91735649
REMARK CNNscore 0.281984568
REMARK CNNaffinity 5.05810976
REMARK  8 active torsions:
REMARK  status: ('A' for Active; 'I' for Inactive)
REMARK    1  A    between atoms: C3_3  and  O1_4 
REMARK    2  A    between atoms: N1_14  and  O2_16 
REMARK    3  A    between atoms: O2_16  and  C13_17 
REMARK    4  A    between atoms: C13_17  and  C14_18 
REMARK       I    between atoms: C14_18  and  N2_20 
REMARK    5  A    between atoms: N2_20  and  C15_21 
REMARK    6  A    between atoms: C15_21  and  C16_22 
REMARK    7  A    between atoms: C16_22  and  O4_23 
REMARK    8  A    between atoms: C16_22  and  C17_24 
ROOT
HETATM    1  C1  UNL     1      -5.963 -10.273   9.585  1.00  0.00     0.015 C 
HETATM    2  C2  UNL     1      -5.426 -10.005   8.545  1.00  0.00    -0.078 C 
HETATM    3  C3  UNL     1      -4.769  -9.656   7.278  1.00  0.00     0.128 C 
HETATM    4  C4  UNL     1      -3.270  -9.329   7.467  1.00  0.00     0.052 C 
HETATM    5  C5  UNL     1      -2.573  -9.753   6.160  1.00  0.00     0.010 C 
HETATM    6  C6  UNL     1      -3.705 -10.221   5.236  1.00  0.00     0.002 C 
HETATM    7  C7  UNL     1      -3.320 -11.173   4.087  1.00  0.00    -0.004 C 
HETATM    8  C8  UNL     1      -2.478 -10.408   3.043  1.00  0.00     0.010 C 
HETATM    9  C9  UNL     1      -3.313  -9.824   1.914  1.00  0.00     0.035 C 
HETATM   10  C10 UNL     1      -4.185 -10.839   1.215  1.00  0.00    -0.069 C 
HETATM   11  C11 UNL     1      -4.735 -10.500   0.033  1.00  0.00     0.030 C 
HETATM   12  C12 UNL     1      -5.663 -11.415  -0.696  1.00  0.00     0.032 C 
HETATM   13  N1  UNL     1      -6.393 -11.097  -1.725  1.00  0.00    -0.271 N 
ATOM     14  H1  UNL     1      -6.984 -11.751  -2.236  1.00  0.00     0.194 HD
HETATM   15  C23 UNL     1      -5.769 -12.833  -0.174  1.00  0.00     0.060 C 
HETATM   16  C24 UNL     1      -5.769 -12.793   1.354  1.00  0.00     0.020 C 
HETATM   17  C25 UNL     1      -4.470 -12.156   1.937  1.00  0.00    -0.016 C 
HETATM   18  C26 UNL     1      -3.326 -13.175   1.670  1.00  0.00     0.020 C 
HETATM   19  C27 UNL     1      -4.588 -11.895   3.488  1.00  0.00     0.002 C 
HETATM   20  C28 UNL     1      -5.894 -11.173   3.919  1.00  0.00     0.007 C 
HETATM   21  C29 UNL     1      -6.074 -11.004   5.440  1.00  0.00     0.014 C 
HETATM   22  C30 UNL     1      -4.758 -10.793   6.208  1.00  0.00     0.003 C 
HETATM   23  C31 UNL     1      -4.318 -12.143   6.837  1.00  0.00     0.020 C 
ENDROOT
BRANCH   3  24
HETATM   24  O1  UNL     1      -5.382  -8.472   6.758  1.00  0.00    -0.377 OA
HETATM   25  H2  UNL     1      -6.336  -8.536   6.934  1.00  0.00     0.211 HD
ENDBRANCH   3  24
BRANCH  13  26
HETATM   26  O2  UNL     1      -6.260  -9.737  -2.041  1.00  0.00    -0.271 OA
BRANCH  26  27
HETATM   27  C13 UNL     1      -7.278  -9.342  -2.952  1.00  0.00     0.303 C 
BRANCH  27  28
HETATM   28  C14 UNL     1      -8.027  -8.081  -2.536  1.00  0.00     0.243 C 
HETATM   29  O3  UNL     1      -7.957  -7.032  -3.175  1.00  0.00    -0.271 OA
HETATM   30  N2  UNL     1      -8.730  -8.188  -1.358  1.00  0.00    -0.356 N 
HETATM   31  H16 UNL     1      -8.841  -9.145  -1.015  1.00  0.00     0.162 HD
BRANCH  30  32
HETATM   32  C15 UNL     1      -9.638  -7.152  -0.877  1.00  0.00     0.159 C 
BRANCH  32  33
HETATM   33  C16 UNL     1     -10.788  -7.682   0.010  1.00  0.00     0.170 C 
BRANCH  33  34
HETATM   34  O4  UNL     1     -10.426  -8.892   0.680  1.00  0.00    -0.389 OA
HETATM   35  H20 UNL     1      -9.955  -9.453   0.024  1.00  0.00     0.210 HD
ENDBRANCH  33  34
BRANCH  33  36
HETATM   36  C17 UNL     1     -11.174  -6.676   1.066  1.00  0.00    -0.013 A 
HETATM   37  C18 UNL     1     -11.767  -7.050   2.274  1.00  0.00     0.013 A 
HETATM   38  C19 UNL     1     -12.104  -6.081   3.214  1.00  0.00     0.025 A 
HETATM   39  C20 UNL     1     -11.835  -4.748   2.931  1.00  0.00     0.005 A 
HETATM   40  C21 UNL     1     -12.200  -3.679   3.919  1.00  0.00     0.068 C 
HETATM   41  N3  UNL     1     -11.236  -4.358   1.784  1.00  0.00    -0.369 N 
HETATM   42  C22 UNL     1     -10.928  -5.321   0.882  1.00  0.00     0.097 A 
ATOM     43  H3  UNL     1     -11.023  -3.377   1.604  1.00  0.00     0.165 HD
ENDBRANCH  33  36
ENDBRANCH  32  33
ENDBRANCH  30  32
ENDBRANCH  27  28
ENDBRANCH  26  27
ENDBRANCH  13  26
TORSDOF 8
ENDMDL
