MODEL 1
REMARK minimizedAffinity -8.21942329
REMARK CNNscore 0.505327702
REMARK CNNaffinity 7.18223524
REMARK  6 active torsions:
REMARK  status: ('A' for Active; 'I' for Inactive)
REMARK    1  A    between atoms: C2_2  and  C3_3 
REMARK    2  A    between atoms: C5_5  and  C6_6 
REMARK    3  A    between atoms: C6_6  and  C7_7 
REMARK    4  A    between atoms: C8_8  and  C9_9 
REMARK       I    between atoms: C9_9  and  N1_11 
REMARK    5  A    between atoms: N1_11  and  C10_12 
REMARK    6  A    between atoms: C10_12  and  C12_14 
ROOT
HETATM    1  C7  UNL     1      -7.668   6.784  13.992  1.00  0.00     0.036 C 
HETATM    2  C8  UNL     1      -8.144   5.468  13.394  1.00  0.00     0.011 C 
HETATM    3  C18 UNL     1      -9.365   5.388  12.839  1.00  0.00    -0.013 C 
HETATM    4  C19 UNL     1     -10.261   6.579  12.897  1.00  0.00     0.034 C 
HETATM    5  C20 UNL     1     -10.267   7.185  14.321  1.00  0.00     0.005 C 
HETATM    6  C21 UNL     1     -11.232   8.421  14.438  1.00  0.00    -0.043 C 
HETATM    7  C22 UNL     1     -12.707   7.943  14.381  1.00  0.00     0.015 C 
HETATM    8  C23 UNL     1     -11.056   9.452  13.303  1.00  0.00     0.015 C 
HETATM    9  C24 UNL     1     -11.027   9.093  15.806  1.00  0.00     0.009 C 
HETATM   10  C25 UNL     1      -9.613   9.599  16.043  1.00  0.00     0.002 C 
HETATM   11  C26 UNL     1      -8.521   8.854  15.280  1.00  0.00     0.010 C 
HETATM   12  C27 UNL     1      -8.802   7.367  14.958  1.00  0.00    -0.031 C 
HETATM   13  C28 UNL     1      -8.771   6.583  16.302  1.00  0.00     0.016 C 
ENDROOT
BRANCH   2  14
HETATM   14  C9  UNL     1      -7.310   4.243  13.369  1.00  0.00     0.248 C 
HETATM   15  O1  UNL     1      -7.346   3.416  14.268  1.00  0.00    -0.268 OA
HETATM   16  N1  UNL     1      -6.525   4.170  12.246  1.00  0.00    -0.349 N 
HETATM   17  H11 UNL     1      -6.470   4.992  11.659  1.00  0.00     0.163 HD
BRANCH  16  18
HETATM   18  C10 UNL     1      -5.469   3.183  12.119  1.00  0.00     0.114 C 
HETATM   19  C11 UNL     1      -5.695   2.328  10.870  1.00  0.00     0.037 C 
BRANCH  18  20
HETATM   20  C12 UNL     1      -4.119   3.879  12.121  1.00  0.00    -0.036 A 
HETATM   21  C13 UNL     1      -3.223   3.651  11.063  1.00  0.00     0.009 A 
HETATM   22  C14 UNL     1      -1.970   4.264  11.042  1.00  0.00     0.001 A 
HETATM   23  C15 UNL     1      -1.588   5.108  12.082  1.00  0.00     0.000 A 
HETATM   24  C16 UNL     1      -2.454   5.328  13.152  1.00  0.00     0.001 A 
HETATM   25  C17 UNL     1      -3.709   4.715  13.173  1.00  0.00     0.009 A 
ENDBRANCH  18  20
ENDBRANCH  16  18
ENDBRANCH   2  14
BRANCH   1  26
HETATM   26  C6  UNL     1      -6.222   6.679  14.572  1.00  0.00     0.038 C 
BRANCH  26  27
HETATM   27  C5  UNL     1      -5.614   7.971  15.052  1.00  0.00    -0.019 C 
HETATM   28  C3  UNL     1      -4.740   8.781  14.417  1.00  0.00    -0.067 C 
HETATM   29  C4  UNL     1      -4.179   8.510  13.045  1.00  0.00     0.048 C 
BRANCH  28  30
HETATM   30  C2  UNL     1      -4.306   9.999  15.097  1.00  0.00    -0.004 C 
HETATM   31  C1  UNL     1      -3.412  10.086  16.090  1.00  0.00     0.012 C 
ENDBRANCH  28  30
ENDBRANCH  26  27
ENDBRANCH   1  26
TORSDOF 6
ENDMDL
MODEL 2
REMARK minimizedAffinity -6.57661581
REMARK CNNscore 0.433862507
REMARK CNNaffinity 5.78543282
REMARK  6 active torsions:
REMARK  status: ('A' for Active; 'I' for Inactive)
REMARK    1  A    between atoms: C2_2  and  C3_3 
REMARK    2  A    between atoms: C5_5  and  C6_6 
REMARK    3  A    between atoms: C6_6  and  C7_7 
REMARK    4  A    between atoms: C8_8  and  C9_9 
REMARK       I    between atoms: C9_9  and  N1_11 
REMARK    5  A    between atoms: N1_11  and  C10_12 
REMARK    6  A    between atoms: C10_12  and  C12_14 
ROOT
HETATM    1  C7  UNL     1       5.474   9.082  14.330  1.00  0.00     0.036 C 
HETATM    2  C8  UNL     1       5.322   8.150  13.137  1.00  0.00     0.011 C 
HETATM    3  C18 UNL     1       6.260   7.221  12.889  1.00  0.00    -0.013 C 
HETATM    4  C19 UNL     1       7.478   7.181  13.749  1.00  0.00     0.034 C 
HETATM    5  C20 UNL     1       8.052   8.605  13.943  1.00  0.00     0.005 C 
HETATM    6  C21 UNL     1       9.363   8.606  14.811  1.00  0.00    -0.043 C 
HETATM    7  C22 UNL     1      10.532   7.990  13.998  1.00  0.00     0.015 C 
HETATM    8  C23 UNL     1       9.244   7.780  16.110  1.00  0.00     0.015 C 
HETATM    9  C24 UNL     1       9.753  10.057  15.135  1.00  0.00     0.009 C 
HETATM   10  C25 UNL     1       8.695  10.824  15.912  1.00  0.00     0.002 C 
HETATM   11  C26 UNL     1       7.261  10.347  15.701  1.00  0.00     0.010 C 
HETATM   12  C27 UNL     1       6.947   9.708  14.328  1.00  0.00    -0.031 C 
HETATM   13  C28 UNL     1       7.014  10.836  13.258  1.00  0.00     0.016 C 
ENDROOT
BRANCH   2  14
HETATM   14  C9  UNL     1       4.157   8.194  12.220  1.00  0.00     0.248 C 
HETATM   15  O1  UNL     1       4.062   9.030  11.333  1.00  0.00    -0.268 OA
HETATM   16  N1  UNL     1       3.241   7.211  12.495  1.00  0.00    -0.349 N 
HETATM   17  H11 UNL     1       3.359   6.686  13.351  1.00  0.00     0.163 HD
BRANCH  16  18
HETATM   18  C10 UNL     1       1.926   7.204  11.881  1.00  0.00     0.114 C 
HETATM   19  C11 UNL     1       1.148   8.458  12.291  1.00  0.00     0.037 C 
BRANCH  18  20
HETATM   20  C12 UNL     1       2.068   7.065  10.375  1.00  0.00    -0.036 A 
HETATM   21  C13 UNL     1       1.416   7.980   9.532  1.00  0.00     0.009 A 
HETATM   22  C14 UNL     1       1.515   7.870   8.144  1.00  0.00     0.001 A 
HETATM   23  C15 UNL     1       2.258   6.838   7.577  1.00  0.00     0.000 A 
HETATM   24  C16 UNL     1       2.893   5.907   8.397  1.00  0.00     0.001 A 
HETATM   25  C17 UNL     1       2.794   6.016   9.786  1.00  0.00     0.009 A 
ENDBRANCH  18  20
ENDBRANCH  16  18
ENDBRANCH   2  14
BRANCH   1  26
HETATM   26  C6  UNL     1       4.278  10.077  14.457  1.00  0.00     0.038 C 
BRANCH  26  27
HETATM   27  C5  UNL     1       3.321   9.808  15.590  1.00  0.00    -0.019 C 
HETATM   28  C3  UNL     1       3.113  10.533  16.710  1.00  0.00    -0.067 C 
HETATM   29  C4  UNL     1       3.852  11.802  17.046  1.00  0.00     0.048 C 
BRANCH  28  30
HETATM   30  C2  UNL     1       2.107  10.064  17.661  1.00  0.00    -0.004 C 
HETATM   31  C1  UNL     1       1.064  10.760  18.131  1.00  0.00     0.012 C 
ENDBRANCH  28  30
ENDBRANCH  26  27
ENDBRANCH   1  26
TORSDOF 6
ENDMDL
MODEL 3
REMARK minimizedAffinity -7.28529692
REMARK CNNscore 0.3374089
REMARK CNNaffinity 6.3096242
REMARK  6 active torsions:
REMARK  status: ('A' for Active; 'I' for Inactive)
REMARK    1  A    between atoms: C2_2  and  C3_3 
REMARK    2  A    between atoms: C5_5  and  C6_6 
REMARK    3  A    between atoms: C6_6  and  C7_7 
REMARK    4  A    between atoms: C8_8  and  C9_9 
REMARK       I    between atoms: C9_9  and  N1_11 
REMARK    5  A    between atoms: N1_11  and  C10_12 
REMARK    6  A    between atoms: C10_12  and  C12_14 
ROOT
HETATM    1  C7  UNL     1     -11.372   9.181  14.125  1.00  0.00     0.036 C 
HETATM    2  C8  UNL     1     -10.655   7.842  14.228  1.00  0.00     0.011 C 
HETATM    3  C18 UNL     1     -11.280   6.716  13.847  1.00  0.00    -0.013 C 
HETATM    4  C19 UNL     1     -12.703   6.797  13.407  1.00  0.00     0.034 C 
HETATM    5  C20 UNL     1     -13.527   7.661  14.392  1.00  0.00     0.005 C 
HETATM    6  C21 UNL     1     -15.045   7.741  13.988  1.00  0.00    -0.043 C 
HETATM    7  C22 UNL     1     -15.729   6.372  14.247  1.00  0.00     0.015 C 
HETATM    8  C23 UNL     1     -15.271   8.074  12.498  1.00  0.00     0.015 C 
HETATM    9  C24 UNL     1     -15.750   8.775  14.881  1.00  0.00     0.009 C 
HETATM   10  C25 UNL     1     -15.180  10.179  14.771  1.00  0.00     0.002 C 
HETATM   11  C26 UNL     1     -13.709  10.253  14.370  1.00  0.00     0.010 C 
HETATM   12  C27 UNL     1     -12.825   9.054  14.784  1.00  0.00    -0.031 C 
HETATM   13  C28 UNL     1     -12.681   9.089  16.333  1.00  0.00     0.016 C 
ENDROOT
BRANCH   2  14
HETATM   14  C9  UNL     1      -9.261   7.708  14.716  1.00  0.00     0.248 C 
HETATM   15  O1  UNL     1      -8.643   8.655  15.179  1.00  0.00    -0.268 OA
HETATM   16  N1  UNL     1      -8.783   6.429  14.581  1.00  0.00    -0.349 N 
HETATM   17  H11 UNL     1      -9.335   5.777  14.040  1.00  0.00     0.163 HD
BRANCH  16  18
HETATM   18  C10 UNL     1      -7.379   6.118  14.777  1.00  0.00     0.114 C 
HETATM   19  C11 UNL     1      -7.112   5.801  16.251  1.00  0.00     0.037 C 
BRANCH  18  20
HETATM   20  C12 UNL     1      -6.973   4.988  13.848  1.00  0.00    -0.036 A 
HETATM   21  C13 UNL     1      -7.848   3.907  13.651  1.00  0.00     0.009 A 
HETATM   22  C14 UNL     1      -7.498   2.846  12.814  1.00  0.00     0.001 A 
HETATM   23  C15 UNL     1      -6.265   2.844  12.169  1.00  0.00     0.000 A 
HETATM   24  C16 UNL     1      -5.373   3.897  12.370  1.00  0.00     0.001 A 
HETATM   25  C17 UNL     1      -5.723   4.959  13.207  1.00  0.00     0.009 A 
ENDBRANCH  18  20
ENDBRANCH  16  18
ENDBRANCH   2  14
BRANCH   1  26
HETATM   26  C6  UNL     1     -10.476  10.368  14.599  1.00  0.00     0.038 C 
BRANCH  26  27
HETATM   27  C5  UNL     1     -10.749  10.878  15.991  1.00  0.00    -0.019 C 
HETATM   28  C3  UNL     1     -10.147  11.889  16.653  1.00  0.00    -0.067 C 
HETATM   29  C4  UNL     1      -9.024  12.721  16.087  1.00  0.00     0.048 C 
BRANCH  28  30
HETATM   30  C2  UNL     1     -10.607  12.202  18.004  1.00  0.00    -0.004 C 
HETATM   31  C1  UNL     1     -11.044  11.331  18.922  1.00  0.00     0.012 C 
ENDBRANCH  28  30
ENDBRANCH  26  27
ENDBRANCH   1  26
TORSDOF 6
ENDMDL
MODEL 4
REMARK minimizedAffinity -8.81557465
REMARK CNNscore 0.268958688
REMARK CNNaffinity 6.58758736
REMARK  6 active torsions:
REMARK  status: ('A' for Active; 'I' for Inactive)
REMARK    1  A    between atoms: C2_2  and  C3_3 
REMARK    2  A    between atoms: C5_5  and  C6_6 
REMARK    3  A    between atoms: C6_6  and  C7_7 
REMARK    4  A    between atoms: C8_8  and  C9_9 
REMARK       I    between atoms: C9_9  and  N1_11 
REMARK    5  A    between atoms: N1_11  and  C10_12 
REMARK    6  A    between atoms: C10_12  and  C12_14 
ROOT
HETATM    1  C7  UNL     1      -3.870   6.859  13.120  1.00  0.00     0.036 C 
HETATM    2  C8  UNL     1      -3.003   5.632  12.872  1.00  0.00     0.011 C 
HETATM    3  C18 UNL     1      -3.576   4.464  12.540  1.00  0.00    -0.013 C 
HETATM    4  C19 UNL     1      -5.065   4.377  12.503  1.00  0.00     0.034 C 
HETATM    5  C20 UNL     1      -5.678   5.032  13.765  1.00  0.00     0.005 C 
HETATM    6  C21 UNL     1      -7.247   4.926  13.787  1.00  0.00    -0.043 C 
HETATM    7  C22 UNL     1      -7.671   3.458  14.055  1.00  0.00     0.015 C 
HETATM    8  C23 UNL     1      -7.913   5.345  12.459  1.00  0.00     0.015 C 
HETATM    9  C24 UNL     1      -7.792   5.774  14.949  1.00  0.00     0.009 C 
HETATM   10  C25 UNL     1      -7.439   7.249  14.859  1.00  0.00     0.002 C 
HETATM   11  C26 UNL     1      -6.155   7.564  14.095  1.00  0.00     0.010 C 
HETATM   12  C27 UNL     1      -5.059   6.473  14.118  1.00  0.00    -0.031 C 
HETATM   13  C28 UNL     1      -4.497   6.402  15.568  1.00  0.00     0.016 C 
ENDROOT
BRANCH   2  14
HETATM   14  C9  UNL     1      -1.523   5.658  12.957  1.00  0.00     0.248 C 
HETATM   15  O1  UNL     1      -0.937   5.703  14.028  1.00  0.00    -0.268 OA
HETATM   16  N1  UNL     1      -0.930   5.627  11.720  1.00  0.00    -0.349 N 
HETATM   17  H11 UNL     1      -1.525   5.751  10.912  1.00  0.00     0.163 HD
BRANCH  16  18
HETATM   18  C10 UNL     1       0.490   5.874  11.552  1.00  0.00     0.114 C 
HETATM   19  C11 UNL     1       1.254   4.548  11.527  1.00  0.00     0.037 C 
BRANCH  18  20
HETATM   20  C12 UNL     1       0.717   6.709  10.304  1.00  0.00    -0.036 A 
HETATM   21  C13 UNL     1       1.786   6.395   9.447  1.00  0.00     0.009 A 
HETATM   22  C14 UNL     1       2.030   7.151   8.301  1.00  0.00     0.001 A 
HETATM   23  C15 UNL     1       1.216   8.240   7.997  1.00  0.00     0.000 A 
HETATM   24  C16 UNL     1       0.165   8.581   8.847  1.00  0.00     0.001 A 
HETATM   25  C17 UNL     1      -0.080   7.824   9.994  1.00  0.00     0.009 A 
ENDBRANCH  18  20
ENDBRANCH  16  18
ENDBRANCH   2  14
BRANCH   1  26
HETATM   26  C6  UNL     1      -3.020   8.119  13.477  1.00  0.00     0.038 C 
BRANCH  26  27
HETATM   27  C5  UNL     1      -2.726   8.315  14.942  1.00  0.00    -0.019 C 
HETATM   28  C3  UNL     1      -2.897   9.421  15.697  1.00  0.00    -0.067 C 
HETATM   29  C4  UNL     1      -3.432  10.729  15.173  1.00  0.00     0.048 C 
BRANCH  28  30
HETATM   30  C2  UNL     1      -2.546   9.353  17.114  1.00  0.00    -0.004 C 
HETATM   31  C1  UNL     1      -2.975  10.170  18.085  1.00  0.00     0.012 C 
ENDBRANCH  28  30
ENDBRANCH  26  27
ENDBRANCH   1  26
TORSDOF 6
ENDMDL
MODEL 5
REMARK minimizedAffinity -8.41930389
REMARK CNNscore 0.254085422
REMARK CNNaffinity 6.69380808
REMARK  6 active torsions:
REMARK  status: ('A' for Active; 'I' for Inactive)
REMARK    1  A    between atoms: C2_2  and  C3_3 
REMARK    2  A    between atoms: C5_5  and  C6_6 
REMARK    3  A    between atoms: C6_6  and  C7_7 
REMARK    4  A    between atoms: C8_8  and  C9_9 
REMARK       I    between atoms: C9_9  and  N1_11 
REMARK    5  A    between atoms: N1_11  and  C10_12 
REMARK    6  A    between atoms: C10_12  and  C12_14 
ROOT
HETATM    1  C7  UNL     1      -0.355   6.945  12.023  1.00  0.00     0.036 C 
HETATM    2  C8  UNL     1      -1.487   6.109  12.601  1.00  0.00     0.011 C 
HETATM    3  C18 UNL     1      -2.310   6.640  13.520  1.00  0.00    -0.013 C 
HETATM    4  C19 UNL     1      -2.039   8.021  14.016  1.00  0.00     0.034 C 
HETATM    5  C20 UNL     1      -0.539   8.191  14.354  1.00  0.00     0.005 C 
HETATM    6  C21 UNL     1      -0.215   9.622  14.920  1.00  0.00    -0.043 C 
HETATM    7  C22 UNL     1      -0.796   9.765  16.351  1.00  0.00     0.015 C 
HETATM    8  C23 UNL     1      -0.818  10.769  14.081  1.00  0.00     0.015 C 
HETATM    9  C24 UNL     1       1.310   9.786  15.033  1.00  0.00     0.009 C 
HETATM   10  C25 UNL     1       2.048   9.645  13.712  1.00  0.00     0.002 C 
HETATM   11  C26 UNL     1       1.353   8.771  12.670  1.00  0.00     0.010 C 
HETATM   12  C27 UNL     1       0.454   7.637  13.217  1.00  0.00    -0.031 C 
HETATM   13  C28 UNL     1       1.383   6.578  13.878  1.00  0.00     0.016 C 
ENDROOT
BRANCH   2  14
HETATM   14  C9  UNL     1      -1.757   4.712  12.182  1.00  0.00     0.248 C 
HETATM   15  O1  UNL     1      -0.878   3.863  12.156  1.00  0.00    -0.268 OA
HETATM   16  N1  UNL     1      -3.071   4.514  11.841  1.00  0.00    -0.349 N 
HETATM   17  H11 UNL     1      -3.660   5.332  11.753  1.00  0.00     0.163 HD
BRANCH  16  18
HETATM   18  C10 UNL     1      -3.511   3.297  11.187  1.00  0.00     0.114 C 
HETATM   19  C11 UNL     1      -2.483   2.183  11.402  1.00  0.00     0.037 C 
BRANCH  18  20
HETATM   20  C12 UNL     1      -4.897   2.924  11.684  1.00  0.00    -0.036 A 
HETATM   21  C13 UNL     1      -5.583   3.801  12.540  1.00  0.00     0.009 A 
HETATM   22  C14 UNL     1      -6.852   3.481  13.025  1.00  0.00     0.001 A 
HETATM   23  C15 UNL     1      -7.451   2.276  12.670  1.00  0.00     0.000 A 
HETATM   24  C16 UNL     1      -6.776   1.382  11.840  1.00  0.00     0.001 A 
HETATM   25  C17 UNL     1      -5.507   1.702  11.354  1.00  0.00     0.009 A 
ENDBRANCH  18  20
ENDBRANCH  16  18
ENDBRANCH   2  14
BRANCH   1  26
HETATM   26  C6  UNL     1       0.477   6.157  10.962  1.00  0.00     0.038 C 
BRANCH  26  27
HETATM   27  C5  UNL     1       0.785   6.902   9.688  1.00  0.00    -0.019 C 
HETATM   28  C3  UNL     1       1.988   7.193   9.150  1.00  0.00    -0.067 C 
HETATM   29  C4  UNL     1       3.307   6.813   9.771  1.00  0.00     0.048 C 
BRANCH  28  30
HETATM   30  C2  UNL     1       2.022   7.922   7.884  1.00  0.00    -0.004 C 
HETATM   31  C1  UNL     1       1.803   7.415   6.663  1.00  0.00     0.012 C 
ENDBRANCH  28  30
ENDBRANCH  26  27
ENDBRANCH   1  26
TORSDOF 6
ENDMDL
MODEL 6
REMARK minimizedAffinity -6.25912714
REMARK CNNscore 0.222216666
REMARK CNNaffinity 5.3836751
REMARK  6 active torsions:
REMARK  status: ('A' for Active; 'I' for Inactive)
REMARK    1  A    between atoms: C2_2  and  C3_3 
REMARK    2  A    between atoms: C5_5  and  C6_6 
REMARK    3  A    between atoms: C6_6  and  C7_7 
REMARK    4  A    between atoms: C8_8  and  C9_9 
REMARK       I    between atoms: C9_9  and  N1_11 
REMARK    5  A    between atoms: N1_11  and  C10_12 
REMARK    6  A    between atoms: C10_12  and  C12_14 
ROOT
HETATM    1  C7  UNL     1     -10.371  11.569  19.859  1.00  0.00     0.036 C 
HETATM    2  C8  UNL     1     -11.212  10.387  20.319  1.00  0.00     0.011 C 
HETATM    3  C18 UNL     1     -11.540   9.420  19.447  1.00  0.00    -0.013 C 
HETATM    4  C19 UNL     1     -11.138   9.571  18.019  1.00  0.00     0.034 C 
HETATM    5  C20 UNL     1     -11.462  10.998  17.513  1.00  0.00     0.005 C 
HETATM    6  C21 UNL     1     -11.091  11.190  15.997  1.00  0.00    -0.043 C 
HETATM    7  C22 UNL     1     -12.083  10.395  15.108  1.00  0.00     0.015 C 
HETATM    8  C23 UNL     1      -9.675  10.688  15.639  1.00  0.00     0.015 C 
HETATM    9  C24 UNL     1     -11.241  12.675  15.625  1.00  0.00     0.009 C 
HETATM   10  C25 UNL     1     -10.352  13.608  16.430  1.00  0.00     0.002 C 
HETATM   11  C26 UNL     1      -9.973  13.105  17.821  1.00  0.00     0.010 C 
HETATM   12  C27 UNL     1     -10.991  12.167  18.511  1.00  0.00    -0.031 C 
HETATM   13  C28 UNL     1     -12.246  13.016  18.866  1.00  0.00     0.016 C 
ENDROOT
BRANCH   2  14
HETATM   14  C9  UNL     1     -11.685  10.226  21.715  1.00  0.00     0.248 C 
HETATM   15  O1  UNL     1     -12.686  10.791  22.129  1.00  0.00    -0.268 OA
HETATM   16  N1  UNL     1     -10.877   9.391  22.445  1.00  0.00    -0.349 N 
HETATM   17  H11 UNL     1      -9.996   9.115  22.035  1.00  0.00     0.163 HD
BRANCH  16  18
HETATM   18  C10 UNL     1     -11.014   9.270  23.885  1.00  0.00     0.114 C 
HETATM   19  C11 UNL     1     -11.240  10.649  24.510  1.00  0.00     0.037 C 
BRANCH  18  20
HETATM   20  C12 UNL     1     -12.124   8.285  24.210  1.00  0.00    -0.036 A 
HETATM   21  C13 UNL     1     -12.951   8.520  25.321  1.00  0.00     0.009 A 
HETATM   22  C14 UNL     1     -13.971   7.627  25.654  1.00  0.00     0.001 A 
HETATM   23  C15 UNL     1     -14.173   6.482  24.890  1.00  0.00     0.000 A 
HETATM   24  C16 UNL     1     -13.347   6.220  23.798  1.00  0.00     0.001 A 
HETATM   25  C17 UNL     1     -12.327   7.113  23.463  1.00  0.00     0.009 A 
ENDBRANCH  18  20
ENDBRANCH  16  18
ENDBRANCH   2  14
BRANCH   1  26
HETATM   26  C6  UNL     1     -10.084  12.575  21.019  1.00  0.00     0.038 C 
BRANCH  26  27
HETATM   27  C5  UNL     1      -8.634  12.922  21.239  1.00  0.00    -0.019 C 
HETATM   28  C3  UNL     1      -7.970  13.072  22.405  1.00  0.00    -0.067 C 
HETATM   29  C4  UNL     1      -8.602  12.923  23.765  1.00  0.00     0.048 C 
BRANCH  28  30
HETATM   30  C2  UNL     1      -6.547  13.401  22.353  1.00  0.00    -0.004 C 
HETATM   31  C1  UNL     1      -5.745  13.315  21.284  1.00  0.00     0.012 C 
ENDBRANCH  28  30
ENDBRANCH  26  27
ENDBRANCH   1  26
TORSDOF 6
ENDMDL
MODEL 7
REMARK minimizedAffinity -7.68230247
REMARK CNNscore 0.200347304
REMARK CNNaffinity 6.27496195
REMARK  6 active torsions:
REMARK  status: ('A' for Active; 'I' for Inactive)
REMARK    1  A    between atoms: C2_2  and  C3_3 
REMARK    2  A    between atoms: C5_5  and  C6_6 
REMARK    3  A    between atoms: C6_6  and  C7_7 
REMARK    4  A    between atoms: C8_8  and  C9_9 
REMARK       I    between atoms: C9_9  and  N1_11 
REMARK    5  A    between atoms: N1_11  and  C10_12 
REMARK    6  A    between atoms: C10_12  and  C12_14 
ROOT
HETATM    1  C7  UNL     1       0.044   8.039  12.517  1.00  0.00     0.036 C 
HETATM    2  C8  UNL     1      -1.117   8.321  13.459  1.00  0.00     0.011 C 
HETATM    3  C18 UNL     1      -1.012   9.293  14.379  1.00  0.00    -0.013 C 
HETATM    4  C19 UNL     1       0.282  10.023  14.510  1.00  0.00     0.034 C 
HETATM    5  C20 UNL     1       1.468   9.027  14.522  1.00  0.00     0.005 C 
HETATM    6  C21 UNL     1       2.852   9.752  14.700  1.00  0.00    -0.043 C 
HETATM    7  C22 UNL     1       2.982  10.288  16.149  1.00  0.00     0.015 C 
HETATM    8  C23 UNL     1       3.041  10.963  13.761  1.00  0.00     0.015 C 
HETATM    9  C24 UNL     1       3.984   8.732  14.491  1.00  0.00     0.009 C 
HETATM   10  C25 UNL     1       3.988   8.082  13.118  1.00  0.00     0.002 C 
HETATM   11  C26 UNL     1       2.625   8.003  12.434  1.00  0.00     0.010 C 
HETATM   12  C27 UNL     1       1.394   7.912  13.366  1.00  0.00    -0.031 C 
HETATM   13  C28 UNL     1       1.429   6.517  14.054  1.00  0.00     0.016 C 
ENDROOT
BRANCH   2  14
HETATM   14  C9  UNL     1      -2.401   7.580  13.404  1.00  0.00     0.248 C 
HETATM   15  O1  UNL     1      -3.356   7.986  12.759  1.00  0.00    -0.268 OA
HETATM   16  N1  UNL     1      -2.369   6.427  14.147  1.00  0.00    -0.349 N 
HETATM   17  H11 UNL     1      -1.576   6.285  14.759  1.00  0.00     0.163 HD
BRANCH  16  18
HETATM   18  C10 UNL     1      -3.574   5.667  14.424  1.00  0.00     0.114 C 
HETATM   19  C11 UNL     1      -4.707   6.611  14.834  1.00  0.00     0.037 C 
BRANCH  18  20
HETATM   20  C12 UNL     1      -3.925   4.812  13.219  1.00  0.00    -0.036 A 
HETATM   21  C13 UNL     1      -2.913   4.432  12.322  1.00  0.00     0.009 A 
HETATM   22  C14 UNL     1      -3.206   3.659  11.198  1.00  0.00     0.001 A 
HETATM   23  C15 UNL     1      -4.517   3.261  10.948  1.00  0.00     0.000 A 
HETATM   24  C16 UNL     1      -5.538   3.648  11.814  1.00  0.00     0.001 A 
HETATM   25  C17 UNL     1      -5.246   4.422  12.939  1.00  0.00     0.009 A 
ENDBRANCH  18  20
ENDBRANCH  16  18
ENDBRANCH   2  14
BRANCH   1  26
HETATM   26  C6  UNL     1      -0.277   6.886  11.513  1.00  0.00     0.038 C 
BRANCH  26  27
HETATM   27  C5  UNL     1       0.705   6.710  10.384  1.00  0.00    -0.019 C 
HETATM   28  C3  UNL     1       0.810   7.418   9.239  1.00  0.00    -0.067 C 
HETATM   29  C4  UNL     1      -0.096   8.564   8.865  1.00  0.00     0.048 C 
BRANCH  28  30
HETATM   30  C2  UNL     1       1.867   7.057   8.297  1.00  0.00    -0.004 C 
HETATM   31  C1  UNL     1       2.308   7.793   7.268  1.00  0.00     0.012 C 
ENDBRANCH  28  30
ENDBRANCH  26  27
ENDBRANCH   1  26
TORSDOF 6
ENDMDL
MODEL 8
REMARK minimizedAffinity -6.15843773
REMARK CNNscore 0.185761139
REMARK CNNaffinity 5.94872284
REMARK  6 active torsions:
REMARK  status: ('A' for Active; 'I' for Inactive)
REMARK    1  A    between atoms: C2_2  and  C3_3 
REMARK    2  A    between atoms: C5_5  and  C6_6 
REMARK    3  A    between atoms: C6_6  and  C7_7 
REMARK    4  A    between atoms: C8_8  and  C9_9 
REMARK       I    between atoms: C9_9  and  N1_11 
REMARK    5  A    between atoms: N1_11  and  C10_12 
REMARK    6  A    between atoms: C10_12  and  C12_14 
ROOT
HETATM    1  C7  UNL     1     -11.055   8.973  15.914  1.00  0.00     0.036 C 
HETATM    2  C8  UNL     1     -11.558  10.224  16.619  1.00  0.00     0.011 C 
HETATM    3  C18 UNL     1     -12.866  10.358  16.895  1.00  0.00    -0.013 C 
HETATM    4  C19 UNL     1     -13.811   9.303  16.426  1.00  0.00     0.034 C 
HETATM    5  C20 UNL     1     -13.523   8.934  14.951  1.00  0.00     0.005 C 
HETATM    6  C21 UNL     1     -14.525   7.853  14.401  1.00  0.00    -0.043 C 
HETATM    7  C22 UNL     1     -15.930   8.485  14.216  1.00  0.00     0.015 C 
HETATM    8  C23 UNL     1     -14.704   6.642  15.343  1.00  0.00     0.015 C 
HETATM    9  C24 UNL     1     -14.052   7.387  13.015  1.00  0.00     0.009 C 
HETATM   10  C25 UNL     1     -12.666   6.763  13.010  1.00  0.00     0.002 C 
HETATM   11  C26 UNL     1     -11.733   7.246  14.118  1.00  0.00     0.010 C 
HETATM   12  C27 UNL     1     -11.967   8.686  14.632  1.00  0.00    -0.031 C 
HETATM   13  C28 UNL     1     -11.558   9.663  13.492  1.00  0.00     0.016 C 
ENDROOT
BRANCH   2  14
HETATM   14  C9  UNL     1     -10.662  11.325  17.049  1.00  0.00     0.248 C 
HETATM   15  O1  UNL     1      -9.818  11.801  16.305  1.00  0.00    -0.268 OA
HETATM   16  N1  UNL     1     -10.901  11.716  18.343  1.00  0.00    -0.349 N 
HETATM   17  H11 UNL     1     -11.516  11.138  18.901  1.00  0.00     0.163 HD
BRANCH  16  18
HETATM   18  C10 UNL     1     -10.001  12.610  19.045  1.00  0.00     0.114 C 
HETATM   19  C11 UNL     1     -10.379  14.066  18.762  1.00  0.00     0.037 C 
BRANCH  18  20
HETATM   20  C12 UNL     1     -10.005  12.277  20.527  1.00  0.00    -0.036 A 
HETATM   21  C13 UNL     1      -9.150  12.977  21.395  1.00  0.00     0.009 A 
HETATM   22  C14 UNL     1      -9.120  12.685  22.759  1.00  0.00     0.001 A 
HETATM   23  C15 UNL     1      -9.936  11.682  23.276  1.00  0.00     0.000 A 
HETATM   24  C16 UNL     1     -10.774  10.961  22.426  1.00  0.00     0.001 A 
HETATM   25  C17 UNL     1     -10.804  11.253  21.061  1.00  0.00     0.009 A 
ENDBRANCH  18  20
ENDBRANCH  16  18
ENDBRANCH   2  14
BRANCH   1  26
HETATM   26  C6  UNL     1      -9.509   8.999  15.698  1.00  0.00     0.038 C 
BRANCH  26  27
HETATM   27  C5  UNL     1      -8.954   7.915  14.810  1.00  0.00    -0.019 C 
HETATM   28  C3  UNL     1      -8.095   6.923  15.125  1.00  0.00    -0.067 C 
HETATM   29  C4  UNL     1      -7.496   6.725  16.494  1.00  0.00     0.048 C 
BRANCH  28  30
HETATM   30  C2  UNL     1      -7.715   5.978  14.077  1.00  0.00    -0.004 C 
HETATM   31  C1  UNL     1      -8.515   5.471  13.129  1.00  0.00     0.012 C 
ENDBRANCH  28  30
ENDBRANCH  26  27
ENDBRANCH   1  26
TORSDOF 6
ENDMDL
MODEL 9
REMARK minimizedAffinity -6.15854263
REMARK CNNscore 0.180481568
REMARK CNNaffinity 6.06645966
REMARK  6 active torsions:
REMARK  status: ('A' for Active; 'I' for Inactive)
REMARK    1  A    between atoms: C2_2  and  C3_3 
REMARK    2  A    between atoms: C5_5  and  C6_6 
REMARK    3  A    between atoms: C6_6  and  C7_7 
REMARK    4  A    between atoms: C8_8  and  C9_9 
REMARK       I    between atoms: C9_9  and  N1_11 
REMARK    5  A    between atoms: N1_11  and  C10_12 
REMARK    6  A    between atoms: C10_12  and  C12_14 
ROOT
HETATM    1  C7  UNL     1     -13.420   9.362  14.454  1.00  0.00     0.036 C 
HETATM    2  C8  UNL     1     -12.274   8.438  14.064  1.00  0.00     0.011 C 
HETATM    3  C18 UNL     1     -12.522   7.332  13.343  1.00  0.00    -0.013 C 
HETATM    4  C19 UNL     1     -13.935   6.991  13.011  1.00  0.00     0.034 C 
HETATM    5  C20 UNL     1     -14.835   7.129  14.263  1.00  0.00     0.005 C 
HETATM    6  C21 UNL     1     -16.329   6.738  13.969  1.00  0.00    -0.043 C 
HETATM    7  C22 UNL     1     -16.442   5.204  13.767  1.00  0.00     0.015 C 
HETATM    8  C23 UNL     1     -16.900   7.396  12.694  1.00  0.00     0.015 C 
HETATM    9  C24 UNL     1     -17.194   7.099  15.188  1.00  0.00     0.009 C 
HETATM   10  C25 UNL     1     -17.175   8.576  15.547  1.00  0.00     0.002 C 
HETATM   11  C26 UNL     1     -15.909   9.326  15.140  1.00  0.00     0.010 C 
HETATM   12  C27 UNL     1     -14.607   8.493  15.083  1.00  0.00    -0.031 C 
HETATM   13  C28 UNL     1     -14.232   8.109  16.543  1.00  0.00     0.016 C 
ENDROOT
BRANCH   2  14
HETATM   14  C9  UNL     1     -10.861   8.707  14.423  1.00  0.00     0.248 C 
HETATM   15  O1  UNL     1     -10.341   9.797  14.235  1.00  0.00    -0.268 OA
HETATM   16  N1  UNL     1     -10.245   7.610  14.971  1.00  0.00    -0.349 N 
HETATM   17  H11 UNL     1     -10.735   6.727  14.926  1.00  0.00     0.163 HD
BRANCH  16  18
HETATM   18  C10 UNL     1      -8.811   7.572  15.184  1.00  0.00     0.114 C 
HETATM   19  C11 UNL     1      -8.505   7.335  16.665  1.00  0.00     0.037 C 
BRANCH  18  20
HETATM   20  C12 UNL     1      -8.189   6.523  14.278  1.00  0.00    -0.036 A 
HETATM   21  C13 UNL     1      -8.953   5.970  13.236  1.00  0.00     0.009 A 
HETATM   22  C14 UNL     1      -8.415   4.994  12.396  1.00  0.00     0.001 A 
HETATM   23  C15 UNL     1      -7.110   4.548  12.590  1.00  0.00     0.000 A 
HETATM   24  C16 UNL     1      -6.345   5.068  13.633  1.00  0.00     0.001 A 
HETATM   25  C17 UNL     1      -6.882   6.044  14.474  1.00  0.00     0.009 A 
ENDBRANCH  18  20
ENDBRANCH  16  18
ENDBRANCH   2  14
BRANCH   1  26
HETATM   26  C6  UNL     1     -12.928  10.596  15.273  1.00  0.00     0.038 C 
BRANCH  26  27
HETATM   27  C5  UNL     1     -12.432  10.302  16.666  1.00  0.00    -0.019 C 
HETATM   28  C3  UNL     1     -11.647  11.061  17.460  1.00  0.00    -0.067 C 
HETATM   29  C4  UNL     1     -11.088  12.403  17.064  1.00  0.00     0.048 C 
BRANCH  28  30
HETATM   30  C2  UNL     1     -11.314  10.554  18.790  1.00  0.00    -0.004 C 
HETATM   31  C1  UNL     1     -11.340   9.276  19.189  1.00  0.00     0.012 C 
ENDBRANCH  28  30
ENDBRANCH  26  27
ENDBRANCH   1  26
TORSDOF 6
ENDMDL
