MODEL 1
REMARK minimizedAffinity -6.49419212
REMARK CNNscore 0.461146981
REMARK CNNaffinity 6.01396751
REMARK  1 active torsions:
REMARK  status: ('A' for Active; 'I' for Inactive)
REMARK    1  A    between atoms: C22_26  and  O5_27 
ROOT
HETATM    1  C1  UNL     1     -12.485  13.974   1.357  1.00  0.00     0.014 C 
HETATM    2  C2  UNL     1     -11.299  14.514   1.683  1.00  0.00    -0.085 C 
HETATM    3  C3  UNL     1     -10.289  14.830   0.598  1.00  0.00     0.035 C 
HETATM    4  C4  UNL     1      -9.917  16.313   0.619  1.00  0.00     0.025 C 
HETATM    5  C5  UNL     1      -9.468  16.763   2.011  1.00  0.00     0.055 C 
HETATM    6  C6  UNL     1      -8.044  16.276   2.366  1.00  0.00     0.021 C 
HETATM    7  C7  UNL     1      -7.504  16.866   3.686  1.00  0.00     0.014 C 
HETATM    8  C8  UNL     1      -8.559  16.875   4.841  1.00  0.00    -0.001 C 
HETATM    9  C9  UNL     1      -8.555  15.416   5.396  1.00  0.00     0.019 C 
HETATM   10  C10 UNL     1      -9.984  17.259   4.243  1.00  0.00     0.112 C 
HETATM   11  O1  UNL     1      -9.803  18.517   3.494  1.00  0.00    -0.305 OA
HETATM   12  C11 UNL     1      -9.490  18.258   2.184  1.00  0.00     0.269 C 
HETATM   13  O2  UNL     1      -9.233  19.106   1.350  1.00  0.00    -0.264 OA
HETATM   14  C12 UNL     1     -10.519  16.403   3.080  1.00  0.00     0.050 C 
HETATM   15  C13 UNL     1     -10.845  14.895   3.104  1.00  0.00     0.018 C 
HETATM   16  C14 UNL     1     -11.851  14.516   4.192  1.00  0.00     0.015 C 
HETATM   17  C15 UNL     1     -11.017  17.600   5.284  1.00  0.00     0.187 A 
HETATM   18  O3  UNL     1     -11.235  16.710   6.373  1.00  0.00    -0.372 OA
HETATM   19  C16 UNL     1     -10.598  17.956   6.700  1.00  0.00     0.160 A 
HETATM   20  C17 UNL     1      -9.178  17.764   7.200  1.00  0.00     0.035 C 
HETATM   21  C18 UNL     1      -8.856  18.504   8.553  1.00  0.00    -0.023 C 
HETATM   22  C19 UNL     1      -9.023  20.045   8.464  1.00  0.00     0.016 C 
HETATM   23  C20 UNL     1      -9.827  17.985   9.652  1.00  0.00     0.096 C 
HETATM   24  C21 UNL     1      -9.427  18.421  11.044  1.00  0.00     0.183 C 
HETATM   25  O4  UNL     1     -10.233  18.487  11.975  1.00  0.00    -0.290 OA
HETATM   26  C22 UNL     1      -7.998  18.752  11.327  1.00  0.00     0.114 C 
HETATM   27  C23 UNL     1      -7.051  18.611  10.382  1.00  0.00    -0.042 C 
HETATM   28  C24 UNL     1      -5.602  18.883  10.689  1.00  0.00     0.047 C 
HETATM   29  C25 UNL     1      -7.407  18.091   8.990  1.00  0.00     0.026 C 
HETATM   30  C26 UNL     1      -6.374  18.394   7.884  1.00  0.00     0.011 C 
HETATM   31  C27 UNL     1      -6.711  17.680   6.566  1.00  0.00     0.011 C 
HETATM   32  C28 UNL     1      -8.148  17.942   6.025  1.00  0.00    -0.027 C 
HETATM   33  C29 UNL     1      -8.154  19.410   5.502  1.00  0.00     0.016 C 
ENDROOT
BRANCH  26  34
HETATM   34  O5  UNL     1      -7.708  19.180  12.608  1.00  0.00    -0.357 OA
HETATM   35  H27 UNL     1      -8.566  19.150  13.085  1.00  0.00     0.218 HD
ENDBRANCH  26  34
TORSDOF 1
ENDMDL
MODEL 2
REMARK minimizedAffinity -8.32685566
REMARK CNNscore 0.379197985
REMARK CNNaffinity 6.54281092
REMARK  1 active torsions:
REMARK  status: ('A' for Active; 'I' for Inactive)
REMARK    1  A    between atoms: C22_26  and  O5_27 
ROOT
HETATM    1  C1  UNL     1       0.574  12.803  19.298  1.00  0.00     0.014 C 
HETATM    2  C2  UNL     1      -0.504  12.189  18.780  1.00  0.00    -0.085 C 
HETATM    3  C3  UNL     1      -1.884  12.777  18.995  1.00  0.00     0.035 C 
HETATM    4  C4  UNL     1      -2.564  13.064  17.656  1.00  0.00     0.025 C 
HETATM    5  C5  UNL     1      -2.567  11.832  16.748  1.00  0.00     0.055 C 
HETATM    6  C6  UNL     1      -3.603  10.770  17.184  1.00  0.00     0.021 C 
HETATM    7  C7  UNL     1      -3.747   9.604  16.184  1.00  0.00     0.014 C 
HETATM    8  C8  UNL     1      -2.378   9.078  15.640  1.00  0.00    -0.001 C 
HETATM    9  C9  UNL     1      -1.831   8.149  16.769  1.00  0.00     0.019 C 
HETATM   10  C10 UNL     1      -1.405  10.314  15.391  1.00  0.00     0.112 C 
HETATM   11  O1  UNL     1      -2.142  11.266  14.537  1.00  0.00    -0.305 OA
HETATM   12  C11 UNL     1      -2.841  12.162  15.305  1.00  0.00     0.269 C 
HETATM   13  O2  UNL     1      -3.578  13.025  14.868  1.00  0.00    -0.264 OA
HETATM   14  C12 UNL     1      -1.145  11.262  16.577  1.00  0.00     0.050 C 
HETATM   15  C13 UNL     1      -0.483  10.909  17.926  1.00  0.00     0.018 C 
HETATM   16  C14 UNL     1       0.910  10.297  17.768  1.00  0.00     0.015 C 
HETATM   17  C15 UNL     1      -0.177   9.979  14.588  1.00  0.00     0.187 A 
HETATM   18  O3  UNL     1       0.630   8.870  14.969  1.00  0.00    -0.372 OA
HETATM   19  C16 UNL     1      -0.121   8.711  13.754  1.00  0.00     0.160 A 
HETATM   20  C17 UNL     1      -1.171   7.619  13.864  1.00  0.00     0.035 C 
HETATM   21  C18 UNL     1      -1.142   6.566  12.693  1.00  0.00    -0.023 C 
HETATM   22  C19 UNL     1      -1.392   7.195  11.295  1.00  0.00     0.016 C 
HETATM   23  C20 UNL     1       0.257   5.886  12.663  1.00  0.00     0.096 C 
HETATM   24  C21 UNL     1       0.302   4.671  11.764  1.00  0.00     0.183 C 
HETATM   25  O4  UNL     1       1.351   4.246  11.276  1.00  0.00    -0.290 OA
HETATM   26  C22 UNL     1      -0.959   3.924  11.477  1.00  0.00     0.114 C 
HETATM   27  C23 UNL     1      -2.124   4.277  12.053  1.00  0.00    -0.042 C 
HETATM   28  C24 UNL     1      -3.380   3.481  11.812  1.00  0.00     0.047 C 
HETATM   29  C25 UNL     1      -2.188   5.447  13.032  1.00  0.00     0.026 C 
HETATM   30  C26 UNL     1      -3.593   6.038  13.268  1.00  0.00     0.011 C 
HETATM   31  C27 UNL     1      -3.602   7.076  14.401  1.00  0.00     0.011 C 
HETATM   32  C28 UNL     1      -2.569   8.232  14.242  1.00  0.00    -0.027 C 
HETATM   33  C29 UNL     1      -3.105   9.137  13.092  1.00  0.00     0.016 C 
ENDROOT
BRANCH  26  34
HETATM   34  O5  UNL     1      -0.854   2.847  10.618  1.00  0.00    -0.357 OA
HETATM   35  H27 UNL     1       0.099   2.800  10.387  1.00  0.00     0.218 HD
ENDBRANCH  26  34
TORSDOF 1
ENDMDL
MODEL 3
REMARK minimizedAffinity -6.27047348
REMARK CNNscore 0.326288879
REMARK CNNaffinity 5.97261095
REMARK  1 active torsions:
REMARK  status: ('A' for Active; 'I' for Inactive)
REMARK    1  A    between atoms: C22_26  and  O5_27 
ROOT
HETATM    1  C1  UNL     1      11.553  -5.802   9.050  1.00  0.00     0.014 C 
HETATM    2  C2  UNL     1      12.624  -5.345   8.378  1.00  0.00    -0.085 C 
HETATM    3  C3  UNL     1      13.829  -4.828   9.138  1.00  0.00     0.035 C 
HETATM    4  C4  UNL     1      15.087  -5.607   8.751  1.00  0.00     0.025 C 
HETATM    5  C5  UNL     1      15.293  -5.630   7.235  1.00  0.00     0.055 C 
HETATM    6  C6  UNL     1      15.810  -4.282   6.682  1.00  0.00     0.021 C 
HETATM    7  C7  UNL     1      16.194  -4.337   5.188  1.00  0.00     0.014 C 
HETATM    8  C8  UNL     1      15.161  -5.115   4.308  1.00  0.00    -0.001 C 
HETATM    9  C9  UNL     1      14.004  -4.097   4.057  1.00  0.00     0.019 C 
HETATM   10  C10 UNL     1      14.643  -6.387   5.114  1.00  0.00     0.112 C 
HETATM   11  O1  UNL     1      15.842  -7.129   5.550  1.00  0.00    -0.305 OA
HETATM   12  C11 UNL     1      16.252  -6.699   6.786  1.00  0.00     0.269 C 
HETATM   13  O2  UNL     1      17.245  -7.097   7.365  1.00  0.00    -0.264 OA
HETATM   14  C12 UNL     1      14.035  -6.144   6.508  1.00  0.00     0.050 C 
HETATM   15  C13 UNL     1      12.777  -5.317   6.847  1.00  0.00     0.018 C 
HETATM   16  C14 UNL     1      11.530  -5.787   6.095  1.00  0.00     0.015 C 
HETATM   17  C15 UNL     1      13.885  -7.381   4.275  1.00  0.00     0.187 A 
HETATM   18  O3  UNL     1      12.814  -6.931   3.451  1.00  0.00    -0.372 OA
HETATM   19  C16 UNL     1      14.000  -7.360   2.761  1.00  0.00     0.160 A 
HETATM   20  C17 UNL     1      14.674  -6.225   2.012  1.00  0.00     0.035 C 
HETATM   21  C18 UNL     1      15.005  -6.541   0.506  1.00  0.00    -0.023 C 
HETATM   22  C19 UNL     1      15.974  -7.742   0.330  1.00  0.00     0.016 C 
HETATM   23  C20 UNL     1      13.683  -6.889  -0.237  1.00  0.00     0.096 C 
HETATM   24  C21 UNL     1      13.847  -6.937  -1.739  1.00  0.00     0.183 C 
HETATM   25  O4  UNL     1      13.084  -7.573  -2.470  1.00  0.00    -0.290 OA
HETATM   26  C22 UNL     1      14.948  -6.159  -2.383  1.00  0.00     0.114 C 
HETATM   27  C23 UNL     1      15.758  -5.368  -1.655  1.00  0.00    -0.042 C 
HETATM   28  C24 UNL     1      16.825  -4.534  -2.315  1.00  0.00     0.047 C 
HETATM   29  C25 UNL     1      15.566  -5.230  -0.146  1.00  0.00     0.026 C 
HETATM   30  C26 UNL     1      16.784  -4.687   0.631  1.00  0.00     0.011 C 
HETATM   31  C27 UNL     1      16.450  -4.399   2.103  1.00  0.00     0.011 C 
HETATM   32  C28 UNL     1      15.824  -5.595   2.881  1.00  0.00    -0.027 C 
HETATM   33  C29 UNL     1      16.977  -6.621   3.099  1.00  0.00     0.016 C 
ENDROOT
BRANCH  26  34
HETATM   34  O5  UNL     1      15.065  -6.277  -3.755  1.00  0.00    -0.357 OA
HETATM   35  H27 UNL     1      14.333  -6.875  -4.019  1.00  0.00     0.218 HD
ENDBRANCH  26  34
TORSDOF 1
ENDMDL
MODEL 4
REMARK minimizedAffinity -9.20558453
REMARK CNNscore 0.295607835
REMARK CNNaffinity 7.10893059
REMARK  1 active torsions:
REMARK  status: ('A' for Active; 'I' for Inactive)
REMARK    1  A    between atoms: C22_26  and  O5_27 
ROOT
HETATM    1  C1  UNL     1     -11.760   6.617  13.487  1.00  0.00     0.014 C 
HETATM    2  C2  UNL     1     -10.631   7.245  13.859  1.00  0.00    -0.085 C 
HETATM    3  C3  UNL     1     -10.682   8.320  14.926  1.00  0.00     0.035 C 
HETATM    4  C4  UNL     1      -9.763   7.966  16.095  1.00  0.00     0.025 C 
HETATM    5  C5  UNL     1      -8.342   7.653  15.621  1.00  0.00     0.055 C 
HETATM    6  C6  UNL     1      -7.551   8.921  15.224  1.00  0.00     0.021 C 
HETATM    7  C7  UNL     1      -6.064   8.646  14.915  1.00  0.00     0.014 C 
HETATM    8  C8  UNL     1      -5.836   7.366  14.045  1.00  0.00    -0.001 C 
HETATM    9  C9  UNL     1      -6.140   7.819  12.582  1.00  0.00     0.019 C 
HETATM   10  C10 UNL     1      -6.844   6.228  14.517  1.00  0.00     0.112 C 
HETATM   11  O1  UNL     1      -6.667   6.085  15.974  1.00  0.00    -0.305 OA
HETATM   12  C11 UNL     1      -7.526   6.915  16.648  1.00  0.00     0.269 C 
HETATM   13  O2  UNL     1      -7.561   7.045  17.857  1.00  0.00    -0.264 OA
HETATM   14  C12 UNL     1      -8.346   6.569  14.525  1.00  0.00     0.050 C 
HETATM   15  C13 UNL     1      -9.221   6.956  13.314  1.00  0.00     0.018 C 
HETATM   16  C14 UNL     1      -9.195   5.911  12.197  1.00  0.00     0.015 C 
HETATM   17  C15 UNL     1      -6.525   4.860  13.975  1.00  0.00     0.187 A 
HETATM   18  O3  UNL     1      -6.312   4.691  12.578  1.00  0.00    -0.372 OA
HETATM   19  C16 UNL     1      -5.148   4.554  13.410  1.00  0.00     0.160 A 
HETATM   20  C17 UNL     1      -4.119   5.639  13.146  1.00  0.00     0.035 C 
HETATM   21  C18 UNL     1      -2.658   5.106  12.900  1.00  0.00    -0.023 C 
HETATM   22  C19 UNL     1      -2.080   4.319  14.108  1.00  0.00     0.016 C 
HETATM   23  C20 UNL     1      -2.672   4.147  11.675  1.00  0.00     0.096 C 
HETATM   24  C21 UNL     1      -1.285   3.800  11.183  1.00  0.00     0.183 C 
HETATM   25  O4  UNL     1      -1.048   2.779  10.533  1.00  0.00    -0.290 OA
HETATM   26  C22 UNL     1      -0.153   4.736  11.456  1.00  0.00     0.114 C 
HETATM   27  C23 UNL     1      -0.358   5.912  12.078  1.00  0.00    -0.042 C 
HETATM   28  C24 UNL     1       0.773   6.883  12.293  1.00  0.00     0.047 C 
HETATM   29  C25 UNL     1      -1.761   6.333  12.511  1.00  0.00     0.026 C 
HETATM   30  C26 UNL     1      -1.820   7.439  13.585  1.00  0.00     0.011 C 
HETATM   31  C27 UNL     1      -3.253   7.937  13.826  1.00  0.00     0.011 C 
HETATM   32  C28 UNL     1      -4.287   6.823  14.168  1.00  0.00    -0.027 C 
HETATM   33  C29 UNL     1      -3.957   6.353  15.616  1.00  0.00     0.016 C 
ENDROOT
BRANCH  26  34
HETATM   34  O5  UNL     1       1.094   4.340  11.013  1.00  0.00    -0.357 OA
HETATM   35  H27 UNL     1       0.942   3.477  10.570  1.00  0.00     0.218 HD
ENDBRANCH  26  34
TORSDOF 1
ENDMDL
MODEL 5
REMARK minimizedAffinity -8.06005192
REMARK CNNscore 0.254367173
REMARK CNNaffinity 5.85090494
REMARK  1 active torsions:
REMARK  status: ('A' for Active; 'I' for Inactive)
REMARK    1  A    between atoms: C22_26  and  O5_27 
ROOT
HETATM    1  C1  UNL     1       5.693  11.778  22.914  1.00  0.00     0.014 C 
HETATM    2  C2  UNL     1       4.543  12.280  22.432  1.00  0.00    -0.085 C 
HETATM    3  C3  UNL     1       4.160  13.715  22.734  1.00  0.00     0.035 C 
HETATM    4  C4  UNL     1       3.961  14.506  21.441  1.00  0.00     0.025 C 
HETATM    5  C5  UNL     1       2.981  13.806  20.496  1.00  0.00     0.055 C 
HETATM    6  C6  UNL     1       1.510  13.944  20.951  1.00  0.00     0.021 C 
HETATM    7  C7  UNL     1       0.495  13.401  19.923  1.00  0.00     0.014 C 
HETATM    8  C8  UNL     1       0.917  12.032  19.295  1.00  0.00    -0.001 C 
HETATM    9  C9  UNL     1       0.527  10.965  20.366  1.00  0.00     0.019 C 
HETATM   10  C10 UNL     1       2.488  12.040  19.036  1.00  0.00     0.112 C 
HETATM   11  O1  UNL     1       2.781  13.254  18.251  1.00  0.00    -0.305 OA
HETATM   12  C11 UNL     1       3.064  14.309  19.080  1.00  0.00     0.269 C 
HETATM   13  O2  UNL     1       3.289  15.445  18.708  1.00  0.00    -0.264 OA
HETATM   14  C12 UNL     1       3.403  12.346  20.236  1.00  0.00     0.050 C 
HETATM   15  C13 UNL     1       3.540  11.529  21.538  1.00  0.00     0.018 C 
HETATM   16  C14 UNL     1       3.912  10.066  21.291  1.00  0.00     0.015 C 
HETATM   17  C15 UNL     1       2.974  10.915  18.162  1.00  0.00     0.187 A 
HETATM   18  O3  UNL     1       2.596   9.576  18.467  1.00  0.00    -0.372 OA
HETATM   19  C16 UNL     1       2.002  10.141  17.287  1.00  0.00     0.160 A 
HETATM   20  C17 UNL     1       0.496  10.292  17.415  1.00  0.00     0.035 C 
HETATM   21  C18 UNL     1      -0.324   9.692  16.213  1.00  0.00    -0.023 C 
HETATM   22  C19 UNL     1       0.010  10.357  14.849  1.00  0.00     0.016 C 
HETATM   23  C20 UNL     1      -0.001   8.175  16.091  1.00  0.00     0.096 C 
HETATM   24  C21 UNL     1      -0.938   7.447  15.153  1.00  0.00     0.183 C 
HETATM   25  O4  UNL     1      -0.632   6.389  14.599  1.00  0.00    -0.290 OA
HETATM   26  C22 UNL     1      -2.304   7.999  14.906  1.00  0.00     0.114 C 
HETATM   27  C23 UNL     1      -2.738   9.098  15.551  1.00  0.00    -0.042 C 
HETATM   28  C24 UNL     1      -4.139   9.614  15.349  1.00  0.00     0.047 C 
HETATM   29  C25 UNL     1      -1.848   9.809  16.569  1.00  0.00     0.026 C 
HETATM   30  C26 UNL     1      -2.243  11.265  16.894  1.00  0.00     0.011 C 
HETATM   31  C27 UNL     1      -1.422  11.842  18.058  1.00  0.00     0.011 C 
HETATM   32  C28 UNL     1       0.123  11.747  17.882  1.00  0.00    -0.027 C 
HETATM   33  C29 UNL     1       0.501  12.792  16.790  1.00  0.00     0.016 C 
ENDROOT
BRANCH  26  34
HETATM   34  O5  UNL     1      -3.095   7.306  14.010  1.00  0.00    -0.357 OA
HETATM   35  H27 UNL     1      -2.548   6.541  13.730  1.00  0.00     0.218 HD
ENDBRANCH  26  34
TORSDOF 1
ENDMDL
MODEL 6
REMARK minimizedAffinity -7.0097785
REMARK CNNscore 0.23224394
REMARK CNNaffinity 6.0659585
REMARK  1 active torsions:
REMARK  status: ('A' for Active; 'I' for Inactive)
REMARK    1  A    between atoms: C22_26  and  O5_27 
ROOT
HETATM    1  C1  UNL     1      -4.986 -10.667   8.409  1.00  0.00     0.014 C 
HETATM    2  C2  UNL     1      -4.580 -10.927   7.154  1.00  0.00    -0.085 C 
HETATM    3  C3  UNL     1      -3.447 -11.905   6.914  1.00  0.00     0.035 C 
HETATM    4  C4  UNL     1      -3.901 -13.049   6.008  1.00  0.00     0.025 C 
HETATM    5  C5  UNL     1      -4.533 -12.529   4.715  1.00  0.00     0.055 C 
HETATM    6  C6  UNL     1      -3.486 -11.989   3.713  1.00  0.00     0.021 C 
HETATM    7  C7  UNL     1      -4.082 -11.625   2.337  1.00  0.00     0.014 C 
HETATM    8  C8  UNL     1      -5.438 -10.851   2.431  1.00  0.00    -0.001 C 
HETATM    9  C9  UNL     1      -5.034  -9.375   2.737  1.00  0.00     0.019 C 
HETATM   10  C10 UNL     1      -6.309 -11.467   3.614  1.00  0.00     0.112 C 
HETATM   11  O1  UNL     1      -6.385 -12.920   3.371  1.00  0.00    -0.305 OA
HETATM   12  C11 UNL     1      -5.351 -13.568   3.996  1.00  0.00     0.269 C 
HETATM   13  O2  UNL     1      -5.133 -14.763   3.923  1.00  0.00    -0.264 OA
HETATM   14  C12 UNL     1      -5.665 -11.525   5.011  1.00  0.00     0.050 C 
HETATM   15  C13 UNL     1      -5.191 -10.335   5.871  1.00  0.00     0.018 C 
HETATM   16  C14 UNL     1      -6.293  -9.307   6.133  1.00  0.00     0.015 C 
HETATM   17  C15 UNL     1      -7.747 -11.022   3.615  1.00  0.00     0.187 A 
HETATM   18  O3  UNL     1      -8.052  -9.633   3.536  1.00  0.00    -0.372 OA
HETATM   19  C16 UNL     1      -8.369 -10.412   2.370  1.00  0.00     0.160 A 
HETATM   20  C17 UNL     1      -7.541 -10.007   1.163  1.00  0.00     0.035 C 
HETATM   21  C18 UNL     1      -8.379  -9.729  -0.140  1.00  0.00    -0.023 C 
HETATM   22  C19 UNL     1      -9.183 -10.965  -0.628  1.00  0.00     0.016 C 
HETATM   23  C20 UNL     1      -9.396  -8.588   0.150  1.00  0.00     0.096 C 
HETATM   24  C21 UNL     1     -10.055  -8.055  -1.102  1.00  0.00     0.183 C 
HETATM   25  O4  UNL     1     -11.145  -7.477  -1.083  1.00  0.00    -0.290 OA
HETATM   26  C22 UNL     1      -9.356  -8.191  -2.415  1.00  0.00     0.114 C 
HETATM   27  C23 UNL     1      -8.123  -8.725  -2.494  1.00  0.00    -0.042 C 
HETATM   28  C24 UNL     1      -7.394  -8.800  -3.810  1.00  0.00     0.047 C 
HETATM   29  C25 UNL     1      -7.393  -9.195  -1.237  1.00  0.00     0.026 C 
HETATM   30  C26 UNL     1      -6.227 -10.177  -1.476  1.00  0.00     0.011 C 
HETATM   31  C27 UNL     1      -5.429 -10.452  -0.192  1.00  0.00     0.011 C 
HETATM   32  C28 UNL     1      -6.280 -10.937   1.019  1.00  0.00    -0.027 C 
HETATM   33  C29 UNL     1      -6.706 -12.399   0.692  1.00  0.00     0.016 C 
ENDROOT
BRANCH  26  34
HETATM   34  O5  UNL     1     -10.030  -7.716  -3.523  1.00  0.00    -0.357 OA
HETATM   35  H27 UNL     1     -10.872  -7.354  -3.171  1.00  0.00     0.218 HD
ENDBRANCH  26  34
TORSDOF 1
ENDMDL
MODEL 7
REMARK minimizedAffinity -7.35134125
REMARK CNNscore 0.227139294
REMARK CNNaffinity 5.95599508
REMARK  1 active torsions:
REMARK  status: ('A' for Active; 'I' for Inactive)
REMARK    1  A    between atoms: C22_26  and  O5_27 
ROOT
HETATM    1  C1  UNL     1       0.457  15.553  18.863  1.00  0.00     0.014 C 
HETATM    2  C2  UNL     1      -0.429  14.542  18.905  1.00  0.00    -0.085 C 
HETATM    3  C3  UNL     1      -1.631  14.630  19.823  1.00  0.00     0.035 C 
HETATM    4  C4  UNL     1      -2.931  14.499  19.028  1.00  0.00     0.025 C 
HETATM    5  C5  UNL     1      -2.931  13.245  18.151  1.00  0.00     0.055 C 
HETATM    6  C6  UNL     1      -3.154  11.948  18.963  1.00  0.00     0.021 C 
HETATM    7  C7  UNL     1      -3.336  10.694  18.081  1.00  0.00     0.014 C 
HETATM    8  C8  UNL     1      -2.326  10.620  16.889  1.00  0.00    -0.001 C 
HETATM    9  C9  UNL     1      -1.003  10.084  17.520  1.00  0.00     0.019 C 
HETATM   10  C10 UNL     1      -2.125  12.079  16.284  1.00  0.00     0.112 C 
HETATM   11  O1  UNL     1      -3.472  12.603  15.987  1.00  0.00    -0.305 OA
HETATM   12  C11 UNL     1      -3.975  13.283  17.067  1.00  0.00     0.269 C 
HETATM   13  O2  UNL     1      -5.086  13.774  17.123  1.00  0.00    -0.264 OA
HETATM   14  C12 UNL     1      -1.681  13.193  17.251  1.00  0.00     0.050 C 
HETATM   15  C13 UNL     1      -0.368  13.258  18.059  1.00  0.00     0.018 C 
HETATM   16  C14 UNL     1       0.881  13.159  17.181  1.00  0.00     0.015 C 
HETATM   17  C15 UNL     1      -1.423  12.102  14.952  1.00  0.00     0.187 A 
HETATM   18  O3  UNL     1      -0.195  11.400  14.795  1.00  0.00    -0.372 OA
HETATM   19  C16 UNL     1      -1.328  10.844  14.107  1.00  0.00     0.160 A 
HETATM   20  C17 UNL     1      -1.711   9.475  14.641  1.00  0.00     0.035 C 
HETATM   21  C18 UNL     1      -1.881   8.367  13.536  1.00  0.00    -0.023 C 
HETATM   22  C19 UNL     1      -2.991   8.696  12.501  1.00  0.00     0.016 C 
HETATM   23  C20 UNL     1      -0.540   8.222  12.760  1.00  0.00     0.096 C 
HETATM   24  C21 UNL     1      -0.504   7.001  11.868  1.00  0.00     0.183 C 
HETATM   25  O4  UNL     1       0.243   6.915  10.891  1.00  0.00    -0.290 OA
HETATM   26  C22 UNL     1      -1.375   5.831  12.191  1.00  0.00     0.114 C 
HETATM   27  C23 UNL     1      -2.144   5.820  13.296  1.00  0.00    -0.042 C 
HETATM   28  C24 UNL     1      -2.970   4.612  13.653  1.00  0.00     0.047 C 
HETATM   29  C25 UNL     1      -2.138   7.002  14.264  1.00  0.00     0.026 C 
HETATM   30  C26 UNL     1      -3.352   7.087  15.214  1.00  0.00     0.011 C 
HETATM   31  C27 UNL     1      -3.180   8.184  16.276  1.00  0.00     0.011 C 
HETATM   32  C28 UNL     1      -2.857   9.599  15.712  1.00  0.00    -0.027 C 
HETATM   33  C29 UNL     1      -4.173  10.115  15.055  1.00  0.00     0.016 C 
ENDROOT
BRANCH  26  34
HETATM   34  O5  UNL     1      -1.322   4.764  11.315  1.00  0.00    -0.357 OA
HETATM   35  H27 UNL     1      -0.663   5.027  10.637  1.00  0.00     0.218 HD
ENDBRANCH  26  34
TORSDOF 1
ENDMDL
MODEL 8
REMARK minimizedAffinity -6.7077527
REMARK CNNscore 0.196910217
REMARK CNNaffinity 6.35509682
REMARK  1 active torsions:
REMARK  status: ('A' for Active; 'I' for Inactive)
REMARK    1  A    between atoms: C22_26  and  O5_27 
ROOT
HETATM    1  C1  UNL     1     -16.177  11.709  20.350  1.00  0.00     0.014 C 
HETATM    2  C2  UNL     1     -15.938  11.457  19.052  1.00  0.00    -0.085 C 
HETATM    3  C3  UNL     1     -16.721  12.192  17.983  1.00  0.00     0.035 C 
HETATM    4  C4  UNL     1     -15.779  12.951  17.047  1.00  0.00     0.025 C 
HETATM    5  C5  UNL     1     -14.691  12.037  16.478  1.00  0.00     0.055 C 
HETATM    6  C6  UNL     1     -15.222  11.091  15.376  1.00  0.00     0.021 C 
HETATM    7  C7  UNL     1     -14.110  10.289  14.666  1.00  0.00     0.014 C 
HETATM    8  C8  UNL     1     -13.041   9.705  15.647  1.00  0.00    -0.001 C 
HETATM    9  C9  UNL     1     -13.703   8.421  16.239  1.00  0.00     0.019 C 
HETATM   10  C10 UNL     1     -12.740  10.775  16.788  1.00  0.00     0.112 C 
HETATM   11  O1  UNL     1     -12.401  12.038  16.104  1.00  0.00    -0.305 OA
HETATM   12  C11 UNL     1     -13.526  12.794  15.900  1.00  0.00     0.269 C 
HETATM   13  O2  UNL     1     -13.551  13.858  15.310  1.00  0.00    -0.264 OA
HETATM   14  C12 UNL     1     -13.938  11.299  17.602  1.00  0.00     0.050 C 
HETATM   15  C13 UNL     1     -14.881  10.479  18.508  1.00  0.00     0.018 C 
HETATM   16  C14 UNL     1     -14.141   9.704  19.599  1.00  0.00     0.015 C 
HETATM   17  C15 UNL     1     -11.520  10.468  17.613  1.00  0.00     0.187 A 
HETATM   18  O3  UNL     1     -11.370   9.175  18.189  1.00  0.00    -0.372 OA
HETATM   19  C16 UNL     1     -10.473   9.489  17.110  1.00  0.00     0.160 A 
HETATM   20  C17 UNL     1     -10.702   8.608  15.895  1.00  0.00     0.035 C 
HETATM   21  C18 UNL     1      -9.400   7.930  15.326  1.00  0.00    -0.023 C 
HETATM   22  C19 UNL     1      -8.329   8.953  14.858  1.00  0.00     0.016 C 
HETATM   23  C20 UNL     1      -8.760   7.054  16.442  1.00  0.00     0.096 C 
HETATM   24  C21 UNL     1      -7.668   6.145  15.923  1.00  0.00     0.183 C 
HETATM   25  O4  UNL     1      -6.779   5.696  16.649  1.00  0.00    -0.290 OA
HETATM   26  C22 UNL     1      -7.674   5.736  14.486  1.00  0.00     0.114 C 
HETATM   27  C23 UNL     1      -8.668   6.112  13.660  1.00  0.00    -0.042 C 
HETATM   28  C24 UNL     1      -8.706   5.643  12.229  1.00  0.00     0.047 C 
HETATM   29  C25 UNL     1      -9.832   6.959  14.172  1.00  0.00     0.026 C 
HETATM   30  C26 UNL     1     -10.644   7.696  13.087  1.00  0.00     0.011 C 
HETATM   31  C27 UNL     1     -11.902   8.366  13.660  1.00  0.00     0.011 C 
HETATM   32  C28 UNL     1     -11.646   9.324  14.861  1.00  0.00    -0.027 C 
HETATM   33  C29 UNL     1     -10.957  10.590  14.268  1.00  0.00     0.016 C 
ENDROOT
BRANCH  26  34
HETATM   34  O5  UNL     1      -6.628   4.936  14.070  1.00  0.00    -0.357 OA
HETATM   35  H27 UNL     1      -6.085   4.791  14.875  1.00  0.00     0.218 HD
ENDBRANCH  26  34
TORSDOF 1
ENDMDL
MODEL 9
REMARK minimizedAffinity -6.3181572
REMARK CNNscore 0.182379246
REMARK CNNaffinity 5.40934706
REMARK  1 active torsions:
REMARK  status: ('A' for Active; 'I' for Inactive)
REMARK    1  A    between atoms: C22_26  and  O5_27 
ROOT
HETATM    1  C1  UNL     1      -6.410  17.171   4.176  1.00  0.00     0.014 C 
HETATM    2  C2  UNL     1      -7.675  16.734   4.297  1.00  0.00    -0.085 C 
HETATM    3  C3  UNL     1      -8.511  17.161   5.488  1.00  0.00     0.035 C 
HETATM    4  C4  UNL     1      -9.786  17.868   5.028  1.00  0.00     0.025 C 
HETATM    5  C5  UNL     1     -10.565  17.026   4.015  1.00  0.00     0.055 C 
HETATM    6  C6  UNL     1     -11.312  15.842   4.670  1.00  0.00     0.021 C 
HETATM    7  C7  UNL     1     -12.244  15.088   3.698  1.00  0.00     0.014 C 
HETATM    8  C8  UNL     1     -11.602  14.832   2.294  1.00  0.00    -0.001 C 
HETATM    9  C9  UNL     1     -10.678  13.591   2.499  1.00  0.00     0.019 C 
HETATM   10  C10 UNL     1     -10.760  16.113   1.865  1.00  0.00     0.112 C 
HETATM   11  O1  UNL     1     -11.663  17.273   1.985  1.00  0.00    -0.305 OA
HETATM   12  C11 UNL     1     -11.578  17.823   3.238  1.00  0.00     0.269 C 
HETATM   13  O2  UNL     1     -12.250  18.757   3.635  1.00  0.00    -0.264 OA
HETATM   14  C12 UNL     1      -9.668  16.602   2.835  1.00  0.00     0.050 C 
HETATM   15  C13 UNL     1      -8.413  15.830   3.294  1.00  0.00     0.018 C 
HETATM   16  C14 UNL     1      -7.538  15.361   2.129  1.00  0.00     0.015 C 
HETATM   17  C15 UNL     1     -10.346  16.121   0.417  1.00  0.00     0.187 A 
HETATM   18  O3  UNL     1      -9.701  14.979  -0.134  1.00  0.00    -0.372 OA
HETATM   19  C16 UNL     1     -11.042  15.221  -0.590  1.00  0.00     0.160 A 
HETATM   20  C17 UNL     1     -12.001  14.122  -0.171  1.00  0.00     0.035 C 
HETATM   21  C18 UNL     1     -12.878  13.539  -1.341  1.00  0.00    -0.023 C 
HETATM   22  C19 UNL     1     -13.789  14.603  -2.014  1.00  0.00     0.016 C 
HETATM   23  C20 UNL     1     -11.936  12.964  -2.437  1.00  0.00     0.096 C 
HETATM   24  C21 UNL     1     -12.669  12.136  -3.469  1.00  0.00     0.183 C 
HETATM   25  O4  UNL     1     -12.224  11.944  -4.603  1.00  0.00    -0.290 OA
HETATM   26  C22 UNL     1     -13.965  11.488  -3.104  1.00  0.00     0.114 C 
HETATM   27  C23 UNL     1     -14.460  11.578  -1.856  1.00  0.00    -0.042 C 
HETATM   28  C24 UNL     1     -15.734  10.869  -1.475  1.00  0.00     0.047 C 
HETATM   29  C25 UNL     1     -13.702  12.335  -0.767  1.00  0.00     0.026 C 
HETATM   30  C26 UNL     1     -14.544  12.757   0.456  1.00  0.00     0.011 C 
HETATM   31  C27 UNL     1     -13.677  13.339   1.583  1.00  0.00     0.011 C 
HETATM   32  C28 UNL     1     -12.748  14.515   1.156  1.00  0.00    -0.027 C 
HETATM   33  C29 UNL     1     -13.681  15.741   0.923  1.00  0.00     0.016 C 
ENDROOT
BRANCH  26  34
HETATM   34  O5  UNL     1     -14.601  10.779  -4.105  1.00  0.00    -0.357 OA
HETATM   35  H27 UNL     1     -14.005  10.850  -4.882  1.00  0.00     0.218 HD
ENDBRANCH  26  34
TORSDOF 1
ENDMDL
