MODEL 1
REMARK minimizedAffinity -5.73089933
REMARK CNNscore 0.613225222
REMARK CNNaffinity 5.69246054
REMARK  5 active torsions:
REMARK  status: ('A' for Active; 'I' for Inactive)
REMARK    1  A    between atoms: C2_2  and  C11_13 
REMARK    2  A    between atoms: C3_3  and  C4_4 
REMARK    3  A    between atoms: C7_7  and  C8_8 
REMARK    4  A    between atoms: C8_8  and  O2_10 
REMARK    5  A    between atoms: C14_16  and  C15_17 
ROOT
HETATM    1  C1  UNL     1       2.724  53.269 -11.262  1.00  0.00     0.049 C 
HETATM    2  C2  UNL     1       2.705  54.219 -10.078  1.00  0.00    -0.044 C 
HETATM    3  C3  UNL     1       1.544  54.661  -9.541  1.00  0.00     0.019 C 
ENDROOT
BRANCH   3   4
HETATM    4  C4  UNL     1       0.200  54.277  -9.978  1.00  0.00    -0.036 A 
HETATM    5  C5  UNL     1      -0.804  55.246 -10.074  1.00  0.00     0.012 A 
HETATM    6  C6  UNL     1      -2.091  54.889 -10.488  1.00  0.00     0.019 A 
HETATM    7  C7  UNL     1      -2.382  53.557 -10.807  1.00  0.00     0.037 A 
HETATM    8  C9  UNL     1      -1.377  52.586 -10.708  1.00  0.00     0.019 A 
HETATM    9  C10 UNL     1      -0.091  52.945 -10.294  1.00  0.00     0.012 A 
BRANCH   7  10
HETATM   10  C8  UNL     1      -3.731  53.130 -11.252  1.00  0.00     0.176 C 
HETATM   11  O1  UNL     1      -4.467  52.362 -10.660  1.00  0.00    -0.646 OA
BRANCH  10  12
HETATM   12  O2  UNL     1      -4.096  53.686 -12.421  1.00  0.00    -0.773 OA
HETATM   13  H7  UNL     1      -4.990  53.319 -12.584  1.00  0.00     0.167 HD
ENDBRANCH  10  12
ENDBRANCH   7  10
ENDBRANCH   3   4
BRANCH   2  14
HETATM   14  C11 UNL     1       3.917  54.713  -9.469  1.00  0.00     0.011 A 
HETATM   15  C12 UNL     1       5.242  54.468  -9.794  1.00  0.00     0.020 A 
HETATM   16  C13 UNL     1       6.165  55.148  -8.948  1.00  0.00     0.016 A 
HETATM   17  C14 UNL     1       5.533  55.903  -7.981  1.00  0.00    -0.013 A 
HETATM   18  S1  UNL     1       3.831  55.772  -8.111  1.00  0.00    -0.094 SA
BRANCH  17  19
HETATM   19  C15 UNL     1       6.143  56.764  -6.900  1.00  0.00     0.017 C 
HETATM   20  C16 UNL     1       7.285  56.029  -6.194  1.00  0.00     0.015 C 
HETATM   21  C17 UNL     1       5.082  57.211  -5.893  1.00  0.00     0.015 C 
ENDBRANCH  17  19
ENDBRANCH   2  14
TORSDOF 5
ENDMDL
MODEL 2
REMARK minimizedAffinity -5.59684896
REMARK CNNscore 0.595165789
REMARK CNNaffinity 5.10972929
REMARK  5 active torsions:
REMARK  status: ('A' for Active; 'I' for Inactive)
REMARK    1  A    between atoms: C2_2  and  C11_13 
REMARK    2  A    between atoms: C3_3  and  C4_4 
REMARK    3  A    between atoms: C7_7  and  C8_8 
REMARK    4  A    between atoms: C8_8  and  O2_10 
REMARK    5  A    between atoms: C14_16  and  C15_17 
ROOT
HETATM    1  C1  UNL     1      -0.703  52.988  -7.649  1.00  0.00     0.049 C 
HETATM    2  C2  UNL     1      -1.281  53.734  -8.838  1.00  0.00    -0.044 C 
HETATM    3  C3  UNL     1      -0.815  54.949  -9.211  1.00  0.00     0.019 C 
ENDROOT
BRANCH   3   4
HETATM    4  C4  UNL     1       0.289  55.671  -8.574  1.00  0.00    -0.036 A 
HETATM    5  C5  UNL     1       1.596  55.492  -9.037  1.00  0.00     0.012 A 
HETATM    6  C6  UNL     1       2.657  56.175  -8.434  1.00  0.00     0.019 A 
HETATM    7  C7  UNL     1       2.415  57.041  -7.360  1.00  0.00     0.037 A 
HETATM    8  C9  UNL     1       1.106  57.218  -6.895  1.00  0.00     0.019 A 
HETATM    9  C10 UNL     1       0.047  56.534  -7.499  1.00  0.00     0.012 A 
BRANCH   7  10
HETATM   10  C8  UNL     1       3.506  57.788  -6.689  1.00  0.00     0.176 C 
HETATM   11  O1  UNL     1       3.375  58.554  -5.752  1.00  0.00    -0.646 OA
BRANCH  10  12
HETATM   12  O2  UNL     1       4.715  57.540  -7.223  1.00  0.00    -0.773 OA
HETATM   13  H7  UNL     1       5.324  58.091  -6.689  1.00  0.00     0.167 HD
ENDBRANCH  10  12
ENDBRANCH   7  10
ENDBRANCH   3   4
BRANCH   2  14
HETATM   14  C11 UNL     1      -2.366  53.199  -9.627  1.00  0.00     0.011 A 
HETATM   15  C12 UNL     1      -3.264  53.845 -10.461  1.00  0.00     0.020 A 
HETATM   16  C13 UNL     1      -4.201  52.962 -11.073  1.00  0.00     0.016 A 
HETATM   17  C14 UNL     1      -4.010  51.650 -10.693  1.00  0.00    -0.013 A 
HETATM   18  S1  UNL     1      -2.702  51.508  -9.598  1.00  0.00    -0.094 SA
BRANCH  17  19
HETATM   19  C15 UNL     1      -4.782  50.419 -11.110  1.00  0.00     0.017 C 
HETATM   20  C16 UNL     1      -5.808  50.030 -10.044  1.00  0.00     0.015 C 
HETATM   21  C17 UNL     1      -3.835  49.253 -11.401  1.00  0.00     0.015 C 
ENDBRANCH  17  19
ENDBRANCH   2  14
TORSDOF 5
ENDMDL
MODEL 3
REMARK minimizedAffinity -6.33675003
REMARK CNNscore 0.584167421
REMARK CNNaffinity 5.688622
REMARK  5 active torsions:
REMARK  status: ('A' for Active; 'I' for Inactive)
REMARK    1  A    between atoms: C2_2  and  C11_13 
REMARK    2  A    between atoms: C3_3  and  C4_4 
REMARK    3  A    between atoms: C7_7  and  C8_8 
REMARK    4  A    between atoms: C8_8  and  O2_10 
REMARK    5  A    between atoms: C14_16  and  C15_17 
ROOT
HETATM    1  C1  UNL     1       0.214  56.271  -7.768  1.00  0.00     0.049 C 
HETATM    2  C2  UNL     1       1.376  55.761  -8.602  1.00  0.00    -0.044 C 
HETATM    3  C3  UNL     1       1.183  54.956  -9.672  1.00  0.00     0.019 C 
ENDROOT
BRANCH   3   4
HETATM    4  C4  UNL     1      -0.116  54.510 -10.182  1.00  0.00    -0.036 A 
HETATM    5  C5  UNL     1      -1.231  55.347 -10.071  1.00  0.00     0.012 A 
HETATM    6  C6  UNL     1      -2.476  54.929 -10.552  1.00  0.00     0.019 A 
HETATM    7  C7  UNL     1      -2.613  53.668 -11.145  1.00  0.00     0.037 A 
HETATM    8  C9  UNL     1      -1.497  52.829 -11.252  1.00  0.00     0.019 A 
HETATM    9  C10 UNL     1      -0.253  53.248 -10.772  1.00  0.00     0.012 A 
BRANCH   7  10
HETATM   10  C8  UNL     1      -3.912  53.181 -11.670  1.00  0.00     0.176 C 
HETATM   11  O1  UNL     1      -4.350  53.383 -12.788  1.00  0.00    -0.646 OA
BRANCH  10  12
HETATM   12  O2  UNL     1      -4.603  52.462 -10.769  1.00  0.00    -0.773 OA
HETATM   13  H7  UNL     1      -5.421  52.212 -11.247  1.00  0.00     0.167 HD
ENDBRANCH  10  12
ENDBRANCH   7  10
ENDBRANCH   3   4
BRANCH   2  14
HETATM   14  C11 UNL     1       2.747  56.092  -8.293  1.00  0.00     0.011 A 
HETATM   15  C12 UNL     1       3.271  57.188  -7.627  1.00  0.00     0.020 A 
HETATM   16  C13 UNL     1       4.691  57.157  -7.520  1.00  0.00     0.016 A 
HETATM   17  C14 UNL     1       5.238  56.037  -8.111  1.00  0.00    -0.013 A 
HETATM   18  S1  UNL     1       4.021  55.043  -8.792  1.00  0.00    -0.094 SA
BRANCH  17  19
HETATM   19  C15 UNL     1       6.689  55.631  -8.216  1.00  0.00     0.017 C 
HETATM   20  C16 UNL     1       6.841  54.345  -9.031  1.00  0.00     0.015 C 
HETATM   21  C17 UNL     1       7.313  55.468  -6.828  1.00  0.00     0.015 C 
ENDBRANCH  17  19
ENDBRANCH   2  14
TORSDOF 5
ENDMDL
MODEL 4
REMARK minimizedAffinity -5.59897995
REMARK CNNscore 0.465416133
REMARK CNNaffinity 5.20388079
REMARK  5 active torsions:
REMARK  status: ('A' for Active; 'I' for Inactive)
REMARK    1  A    between atoms: C2_2  and  C11_13 
REMARK    2  A    between atoms: C3_3  and  C4_4 
REMARK    3  A    between atoms: C7_7  and  C8_8 
REMARK    4  A    between atoms: C8_8  and  O2_10 
REMARK    5  A    between atoms: C14_16  and  C15_17 
ROOT
HETATM    1  C1  UNL     1      -6.892  44.973 -29.966  1.00  0.00     0.049 C 
HETATM    2  C2  UNL     1      -7.500  46.240 -30.538  1.00  0.00    -0.044 C 
HETATM    3  C3  UNL     1      -7.290  47.450 -29.969  1.00  0.00     0.019 C 
ENDROOT
BRANCH   3   4
HETATM    4  C4  UNL     1      -6.454  47.706 -28.793  1.00  0.00    -0.036 A 
HETATM    5  C5  UNL     1      -6.997  47.572 -27.511  1.00  0.00     0.012 A 
HETATM    6  C6  UNL     1      -6.208  47.817 -26.383  1.00  0.00     0.019 A 
HETATM    7  C7  UNL     1      -4.869  48.200 -26.531  1.00  0.00     0.037 A 
HETATM    8  C9  UNL     1      -4.327  48.337 -27.816  1.00  0.00     0.019 A 
HETATM    9  C10 UNL     1      -5.117  48.092 -28.942  1.00  0.00     0.012 A 
BRANCH   7  10
HETATM   10  C8  UNL     1      -3.993  48.470 -25.366  1.00  0.00     0.176 C 
HETATM   11  O1  UNL     1      -2.787  48.629 -25.402  1.00  0.00    -0.646 OA
BRANCH  10  12
HETATM   12  O2  UNL     1      -4.670  48.528 -24.205  1.00  0.00    -0.773 OA
HETATM   13  H7  UNL     1      -3.975  48.709 -23.539  1.00  0.00     0.167 HD
ENDBRANCH  10  12
ENDBRANCH   7  10
ENDBRANCH   3   4
BRANCH   2  14
HETATM   14  C11 UNL     1      -8.345  46.227 -31.709  1.00  0.00     0.011 A 
HETATM   15  C12 UNL     1      -9.726  46.203 -31.811  1.00  0.00     0.020 A 
HETATM   16  C13 UNL     1     -10.192  46.195 -33.158  1.00  0.00     0.016 A 
HETATM   17  C14 UNL     1      -9.158  46.208 -34.071  1.00  0.00    -0.013 A 
HETATM   18  S1  UNL     1      -7.639  46.224 -33.283  1.00  0.00    -0.094 SA
BRANCH  17  19
HETATM   19  C15 UNL     1      -9.224  46.205 -35.581  1.00  0.00     0.017 C 
HETATM   20  C16 UNL     1      -8.418  47.366 -36.166  1.00  0.00     0.015 C 
HETATM   21  C17 UNL     1     -10.675  46.255 -36.064  1.00  0.00     0.015 C 
ENDBRANCH  17  19
ENDBRANCH   2  14
TORSDOF 5
ENDMDL
MODEL 5
REMARK minimizedAffinity -6.1679616
REMARK CNNscore 0.373244703
REMARK CNNaffinity 4.8850646
REMARK  5 active torsions:
REMARK  status: ('A' for Active; 'I' for Inactive)
REMARK    1  A    between atoms: C2_2  and  C11_13 
REMARK    2  A    between atoms: C3_3  and  C4_4 
REMARK    3  A    between atoms: C7_7  and  C8_8 
REMARK    4  A    between atoms: C8_8  and  O2_10 
REMARK    5  A    between atoms: C14_16  and  C15_17 
ROOT
HETATM    1  C1  UNL     1      -7.294  47.273 -26.634  1.00  0.00     0.049 C 
HETATM    2  C2  UNL     1      -6.098  47.801 -27.405  1.00  0.00    -0.044 C 
HETATM    3  C3  UNL     1      -6.112  47.908 -28.754  1.00  0.00     0.019 C 
ENDROOT
BRANCH   3   4
HETATM    4  C4  UNL     1      -7.244  47.581 -29.624  1.00  0.00    -0.036 A 
HETATM    5  C5  UNL     1      -7.355  46.298 -30.169  1.00  0.00     0.012 A 
HETATM    6  C6  UNL     1      -8.430  45.976 -31.003  1.00  0.00     0.019 A 
HETATM    7  C7  UNL     1      -9.402  46.939 -31.299  1.00  0.00     0.037 A 
HETATM    8  C9  UNL     1      -9.290  48.226 -30.755  1.00  0.00     0.019 A 
HETATM    9  C10 UNL     1      -8.214  48.545 -29.922  1.00  0.00     0.012 A 
BRANCH   7  10
HETATM   10  C8  UNL     1     -10.561  46.646 -32.177  1.00  0.00     0.176 C 
HETATM   11  O1  UNL     1     -10.505  46.178 -33.299  1.00  0.00    -0.646 OA
BRANCH  10  12
HETATM   12  O2  UNL     1     -11.739  46.955 -31.607  1.00  0.00    -0.773 OA
HETATM   13  H7  UNL     1     -12.399  46.712 -32.289  1.00  0.00     0.167 HD
ENDBRANCH  10  12
ENDBRANCH   7  10
ENDBRANCH   3   4
BRANCH   2  14
HETATM   14  C11 UNL     1      -4.877  48.204 -26.747  1.00  0.00     0.011 A 
HETATM   15  C12 UNL     1      -3.606  48.390 -27.265  1.00  0.00     0.020 A 
HETATM   16  C13 UNL     1      -2.652  48.795 -26.287  1.00  0.00     0.016 A 
HETATM   17  C14 UNL     1      -3.206  48.907 -25.029  1.00  0.00    -0.013 A 
HETATM   18  S1  UNL     1      -4.873  48.516 -25.051  1.00  0.00    -0.094 SA
BRANCH  17  19
HETATM   19  C15 UNL     1      -2.543  49.305 -23.731  1.00  0.00     0.017 C 
HETATM   20  C16 UNL     1      -2.702  48.209 -22.676  1.00  0.00     0.015 C 
HETATM   21  C17 UNL     1      -3.098  50.635 -23.218  1.00  0.00     0.015 C 
ENDBRANCH  17  19
ENDBRANCH   2  14
TORSDOF 5
ENDMDL
MODEL 6
REMARK minimizedAffinity -5.72203493
REMARK CNNscore 0.370348334
REMARK CNNaffinity 4.90600586
REMARK  5 active torsions:
REMARK  status: ('A' for Active; 'I' for Inactive)
REMARK    1  A    between atoms: C2_2  and  C11_13 
REMARK    2  A    between atoms: C3_3  and  C4_4 
REMARK    3  A    between atoms: C7_7  and  C8_8 
REMARK    4  A    between atoms: C8_8  and  O2_10 
REMARK    5  A    between atoms: C14_16  and  C15_17 
ROOT
HETATM    1  C1  UNL     1      -7.588  45.649 -27.708  1.00  0.00     0.049 C 
HETATM    2  C2  UNL     1      -7.343  46.530 -28.920  1.00  0.00    -0.044 C 
HETATM    3  C3  UNL     1      -6.439  47.536 -28.897  1.00  0.00     0.019 C 
ENDROOT
BRANCH   3   4
HETATM    4  C4  UNL     1      -5.578  47.883 -27.764  1.00  0.00    -0.036 A 
HETATM    5  C5  UNL     1      -6.109  47.915 -26.470  1.00  0.00     0.012 A 
HETATM    6  C6  UNL     1      -5.295  48.248 -25.383  1.00  0.00     0.019 A 
HETATM    7  C7  UNL     1      -3.944  48.554 -25.584  1.00  0.00     0.037 A 
HETATM    8  C9  UNL     1      -3.414  48.527 -26.880  1.00  0.00     0.019 A 
HETATM    9  C10 UNL     1      -4.228  48.193 -27.966  1.00  0.00     0.012 A 
BRANCH   7  10
HETATM   10  C8  UNL     1      -3.042  48.913 -24.463  1.00  0.00     0.176 C 
HETATM   11  O1  UNL     1      -2.964  48.333 -23.396  1.00  0.00    -0.646 OA
BRANCH  10  12
HETATM   12  O2  UNL     1      -2.275  49.984 -24.732  1.00  0.00    -0.773 OA
HETATM   13  H7  UNL     1      -1.742  50.100 -23.918  1.00  0.00     0.167 HD
ENDBRANCH  10  12
ENDBRANCH   7  10
ENDBRANCH   3   4
BRANCH   2  14
HETATM   14  C11 UNL     1      -8.068  46.354 -30.157  1.00  0.00     0.011 A 
HETATM   15  C12 UNL     1      -7.754  46.770 -31.440  1.00  0.00     0.020 A 
HETATM   16  C13 UNL     1      -8.734  46.401 -32.408  1.00  0.00     0.016 A 
HETATM   17  C14 UNL     1      -9.789  45.711 -31.849  1.00  0.00    -0.013 A 
HETATM   18  S1  UNL     1      -9.580  45.524 -30.160  1.00  0.00    -0.094 SA
BRANCH  17  19
HETATM   19  C15 UNL     1     -11.020  45.149 -32.523  1.00  0.00     0.017 C 
HETATM   20  C16 UNL     1     -10.892  43.638 -32.725  1.00  0.00     0.015 C 
HETATM   21  C17 UNL     1     -11.282  45.854 -33.856  1.00  0.00     0.015 C 
ENDBRANCH  17  19
ENDBRANCH   2  14
TORSDOF 5
ENDMDL
MODEL 7
REMARK minimizedAffinity -6.28157854
REMARK CNNscore 0.335828811
REMARK CNNaffinity 5.06806183
REMARK  5 active torsions:
REMARK  status: ('A' for Active; 'I' for Inactive)
REMARK    1  A    between atoms: C2_2  and  C11_13 
REMARK    2  A    between atoms: C3_3  and  C4_4 
REMARK    3  A    between atoms: C7_7  and  C8_8 
REMARK    4  A    between atoms: C8_8  and  O2_10 
REMARK    5  A    between atoms: C14_16  and  C15_17 
ROOT
HETATM    1  C1  UNL     1      -3.781  48.568 -25.397  1.00  0.00     0.049 C 
HETATM    2  C2  UNL     1      -4.063  48.470 -23.908  1.00  0.00    -0.044 C 
HETATM    3  C3  UNL     1      -5.325  48.381 -23.429  1.00  0.00     0.019 C 
ENDROOT
BRANCH   3   4
HETATM    4  C4  UNL     1      -6.545  48.332 -24.239  1.00  0.00    -0.036 A 
HETATM    5  C5  UNL     1      -7.585  49.233 -23.987  1.00  0.00     0.012 A 
HETATM    6  C6  UNL     1      -8.754  49.193 -24.753  1.00  0.00     0.019 A 
HETATM    7  C7  UNL     1      -8.890  48.248 -25.777  1.00  0.00     0.037 A 
HETATM    8  C9  UNL     1      -7.850  47.343 -26.027  1.00  0.00     0.019 A 
HETATM    9  C10 UNL     1      -6.683  47.385 -25.260  1.00  0.00     0.012 A 
BRANCH   7  10
HETATM   10  C8  UNL     1     -10.110  48.166 -26.616  1.00  0.00     0.176 C 
HETATM   11  O1  UNL     1     -10.341  47.318 -27.459  1.00  0.00    -0.646 OA
BRANCH  10  12
HETATM   12  O2  UNL     1     -10.987  49.153 -26.362  1.00  0.00    -0.773 OA
HETATM   13  H7  UNL     1     -11.727  48.973 -26.978  1.00  0.00     0.167 HD
ENDBRANCH  10  12
ENDBRANCH   7  10
ENDBRANCH   3   4
BRANCH   2  14
HETATM   14  C11 UNL     1      -3.007  48.479 -22.923  1.00  0.00     0.011 A 
HETATM   15  C12 UNL     1      -2.492  47.444 -22.160  1.00  0.00     0.020 A 
HETATM   16  C13 UNL     1      -1.441  47.855 -21.289  1.00  0.00     0.016 A 
HETATM   17  C14 UNL     1      -1.171  49.204 -21.393  1.00  0.00    -0.013 A 
HETATM   18  S1  UNL     1      -2.196  49.952 -22.542  1.00  0.00    -0.094 SA
BRANCH  17  19
HETATM   19  C15 UNL     1      -0.143  50.026 -20.651  1.00  0.00     0.017 C 
HETATM   20  C16 UNL     1      -0.562  50.241 -19.195  1.00  0.00     0.015 C 
HETATM   21  C17 UNL     1       0.094  51.366 -21.351  1.00  0.00     0.015 C 
ENDBRANCH  17  19
ENDBRANCH   2  14
TORSDOF 5
ENDMDL
MODEL 8
REMARK minimizedAffinity -6.64896822
REMARK CNNscore 0.334610492
REMARK CNNaffinity 4.76886606
REMARK  5 active torsions:
REMARK  status: ('A' for Active; 'I' for Inactive)
REMARK    1  A    between atoms: C2_2  and  C11_13 
REMARK    2  A    between atoms: C3_3  and  C4_4 
REMARK    3  A    between atoms: C7_7  and  C8_8 
REMARK    4  A    between atoms: C8_8  and  O2_10 
REMARK    5  A    between atoms: C14_16  and  C15_17 
ROOT
HETATM    1  C1  UNL     1      -6.924  47.317 -27.392  1.00  0.00     0.049 C 
HETATM    2  C2  UNL     1      -5.899  47.709 -28.442  1.00  0.00    -0.044 C 
HETATM    3  C3  UNL     1      -4.688  48.208 -28.101  1.00  0.00     0.019 C 
ENDROOT
BRANCH   3   4
HETATM    4  C4  UNL     1      -4.198  48.400 -26.734  1.00  0.00    -0.036 A 
HETATM    5  C5  UNL     1      -5.087  48.313 -25.657  1.00  0.00     0.012 A 
HETATM    6  C6  UNL     1      -4.630  48.497 -24.349  1.00  0.00     0.019 A 
HETATM    7  C7  UNL     1      -3.278  48.773 -24.109  1.00  0.00     0.037 A 
HETATM    8  C9  UNL     1      -2.389  48.864 -25.188  1.00  0.00     0.019 A 
HETATM    9  C10 UNL     1      -2.848  48.679 -26.495  1.00  0.00     0.012 A 
BRANCH   7  10
HETATM   10  C8  UNL     1      -2.746  48.976 -22.741  1.00  0.00     0.176 C 
HETATM   11  O1  UNL     1      -3.161  48.445 -21.727  1.00  0.00    -0.646 OA
BRANCH  10  12
HETATM   12  O2  UNL     1      -1.713  49.837 -22.704  1.00  0.00    -0.773 OA
HETATM   13  H7  UNL     1      -1.471  49.870 -21.755  1.00  0.00     0.167 HD
ENDBRANCH  10  12
ENDBRANCH   7  10
ENDBRANCH   3   4
BRANCH   2  14
HETATM   14  C11 UNL     1      -6.161  47.584 -29.856  1.00  0.00     0.011 A 
HETATM   15  C12 UNL     1      -5.311  47.233 -30.892  1.00  0.00     0.020 A 
HETATM   16  C13 UNL     1      -5.950  47.222 -32.166  1.00  0.00     0.016 A 
HETATM   17  C14 UNL     1      -7.282  47.572 -32.088  1.00  0.00    -0.013 A 
HETATM   18  S1  UNL     1      -7.737  47.912 -30.474  1.00  0.00    -0.094 SA
BRANCH  17  19
HETATM   19  C15 UNL     1      -8.301  47.681 -33.198  1.00  0.00     0.017 C 
HETATM   20  C16 UNL     1      -9.471  46.724 -32.963  1.00  0.00     0.015 C 
HETATM   21  C17 UNL     1      -7.655  47.422 -34.561  1.00  0.00     0.015 C 
ENDBRANCH  17  19
ENDBRANCH   2  14
TORSDOF 5
ENDMDL
MODEL 9
REMARK minimizedAffinity -7.5889535
REMARK CNNscore 0.324771345
REMARK CNNaffinity 5.47740698
REMARK  5 active torsions:
REMARK  status: ('A' for Active; 'I' for Inactive)
REMARK    1  A    between atoms: C2_2  and  C11_13 
REMARK    2  A    between atoms: C3_3  and  C4_4 
REMARK    3  A    between atoms: C7_7  and  C8_8 
REMARK    4  A    between atoms: C8_8  and  O2_10 
REMARK    5  A    between atoms: C14_16  and  C15_17 
ROOT
HETATM    1  C1  UNL     1      -2.143  51.462 -21.618  1.00  0.00     0.049 C 
HETATM    2  C2  UNL     1      -0.709  51.713 -21.186  1.00  0.00    -0.044 C 
HETATM    3  C3  UNL     1       0.244  52.091 -22.069  1.00  0.00     0.019 C 
ENDROOT
BRANCH   3   4
HETATM    4  C4  UNL     1       0.033  52.338 -23.498  1.00  0.00    -0.036 A 
HETATM    5  C5  UNL     1      -0.388  51.295 -24.329  1.00  0.00     0.012 A 
HETATM    6  C6  UNL     1      -0.589  51.520 -25.695  1.00  0.00     0.019 A 
HETATM    7  C7  UNL     1      -0.366  52.791 -26.237  1.00  0.00     0.037 A 
HETATM    8  C9  UNL     1       0.059  53.834 -25.405  1.00  0.00     0.019 A 
HETATM    9  C10 UNL     1       0.259  53.608 -24.040  1.00  0.00     0.012 A 
BRANCH   7  10
HETATM   10  C8  UNL     1      -0.566  53.079 -27.678  1.00  0.00     0.176 C 
HETATM   11  O1  UNL     1       0.232  52.851 -28.569  1.00  0.00    -0.646 OA
BRANCH  10  12
HETATM   12  O2  UNL     1      -1.760  53.641 -27.938  1.00  0.00    -0.773 OA
HETATM   13  H7  UNL     1      -1.750  53.771 -28.909  1.00  0.00     0.167 HD
ENDBRANCH  10  12
ENDBRANCH   7  10
ENDBRANCH   3   4
BRANCH   2  14
HETATM   14  C11 UNL     1      -0.279  51.550 -19.817  1.00  0.00     0.011 A 
HETATM   15  C12 UNL     1      -0.459  50.486 -18.947  1.00  0.00     0.020 A 
HETATM   16  C13 UNL     1       0.119  50.704 -17.663  1.00  0.00     0.016 A 
HETATM   17  C14 UNL     1       0.729  51.937 -17.565  1.00  0.00    -0.013 A 
HETATM   18  S1  UNL     1       0.589  52.814 -19.028  1.00  0.00    -0.094 SA
BRANCH  17  19
HETATM   19  C15 UNL     1       1.450  52.548 -16.386  1.00  0.00     0.017 C 
HETATM   20  C16 UNL     1       2.960  52.589 -16.628  1.00  0.00     0.015 C 
HETATM   21  C17 UNL     1       1.129  51.790 -15.096  1.00  0.00     0.015 C 
ENDBRANCH  17  19
ENDBRANCH   2  14
TORSDOF 5
ENDMDL
