MODEL 1
REMARK minimizedAffinity -9.56823921
REMARK  2 active torsions:
REMARK  status: ('A' for Active; 'I' for Inactive)
REMARK       I    between atoms: C1_2  and  N1_3 
REMARK    1  A    between atoms: C1_2  and  C14_18 
REMARK    2  A    between atoms: N1_3  and  C2_4 
ROOT
HETATM    1  C2  UNL     1      -7.058   3.920  13.628  1.00  0.00     0.135 C 
HETATM    2  C3  UNL     1      -7.828   2.897  12.758  1.00  0.00     0.032 C 
HETATM    3  C4  UNL     1      -6.939   1.730  12.291  1.00  0.00     0.007 C 
HETATM    4  C5  UNL     1      -5.751   2.217  11.439  1.00  0.00     0.042 C 
HETATM    5  C6  UNL     1      -5.078   3.381  12.087  1.00  0.00    -0.021 A 
HETATM    6  C7  UNL     1      -5.695   4.138  13.063  1.00  0.00     0.040 A 
HETATM    7  N2  UNL     1      -4.811   5.091  13.487  1.00  0.00    -0.355 N 
HETATM    8  C8  UNL     1      -3.644   5.004  12.758  1.00  0.00     0.065 A 
HETATM    9  C9  UNL     1      -2.476   5.775  12.814  1.00  0.00     0.061 A 
HETATM   10 CL1  UNL     1      -2.330   7.090  13.912  1.00  0.00    -0.082 Cl
HETATM   11  C10 UNL     1      -1.426   5.452  11.953  1.00  0.00     0.026 A 
HETATM   12  C11 UNL     1      -1.540   4.387  11.062  1.00  0.00     0.003 A 
HETATM   13  C12 UNL     1      -2.711   3.620  11.013  1.00  0.00     0.014 A 
HETATM   14  C13 UNL     1      -3.784   3.931  11.872  1.00  0.00     0.001 A 
HETATM   15  H9  UNL     1      -4.981   5.767  14.222  1.00  0.00     0.166 HD
ENDROOT
BRANCH   1  16
HETATM   16  N1  UNL     1      -7.739   5.194  13.645  1.00  0.00    -0.347 N 
HETATM   17  C1  UNL     1      -8.002   5.849  14.828  1.00  0.00     0.252 C 
HETATM   18  O1  UNL     1      -7.570   5.480  15.913  1.00  0.00    -0.268 OA
HETATM   19  H1  UNL     1      -8.142   5.520  12.779  1.00  0.00     0.163 HD
BRANCH  17  20
HETATM   20  C14 UNL     1      -8.833   7.083  14.732  1.00  0.00     0.034 A 
HETATM   21  C15 UNL     1     -10.101   6.972  14.151  1.00  0.00     0.018 A 
HETATM   22  C16 UNL     1     -10.937   8.090  14.031  1.00  0.00     0.015 A 
HETATM   23  C17 UNL     1     -10.485   9.340  14.493  1.00  0.00    -0.008 A 
HETATM   24  C18 UNL     1     -11.053  10.644  14.526  1.00  0.00     0.030 A 
HETATM   25  C20 UNL     1      -9.210   9.433  15.052  1.00  0.00     0.043 A 
HETATM   26  C19 UNL     1     -10.126  11.490  15.090  1.00  0.00     0.089 A 
HETATM   27  N3  UNL     1      -9.016  10.751  15.399  1.00  0.00    -0.365 N 
HETATM   28  H17 UNL     1      -8.174  11.118  15.822  1.00  0.00     0.165 HD
HETATM   29  C21 UNL     1      -8.357   8.326  15.182  1.00  0.00     0.047 A 
ENDBRANCH  17  20
ENDBRANCH   1  16
TORSDOF 2
ENDMDL
MODEL 2
REMARK minimizedAffinity -9.53358269
REMARK  2 active torsions:
REMARK  status: ('A' for Active; 'I' for Inactive)
REMARK       I    between atoms: C1_2  and  N1_3 
REMARK    1  A    between atoms: C1_2  and  C14_18 
REMARK    2  A    between atoms: N1_3  and  C2_4 
ROOT
HETATM    1  C2  UNL     1      -2.702   6.351  13.586  1.00  0.00     0.135 C 
HETATM    2  C3  UNL     1      -3.596   7.594  13.817  1.00  0.00     0.032 C 
HETATM    3  C4  UNL     1      -4.957   7.237  14.439  1.00  0.00     0.007 C 
HETATM    4  C5  UNL     1      -5.767   6.281  13.542  1.00  0.00     0.042 C 
HETATM    5  C6  UNL     1      -4.912   5.157  13.060  1.00  0.00    -0.021 A 
HETATM    6  C7  UNL     1      -3.533   5.220  13.080  1.00  0.00     0.040 A 
HETATM    7  N2  UNL     1      -3.044   4.027  12.624  1.00  0.00    -0.355 N 
HETATM    8  C8  UNL     1      -4.086   3.207  12.248  1.00  0.00     0.065 A 
HETATM    9  C9  UNL     1      -4.079   1.917  11.704  1.00  0.00     0.061 A 
HETATM   10 CL1  UNL     1      -2.604   1.097  11.381  1.00  0.00    -0.082 Cl
HETATM   11  C10 UNL     1      -5.303   1.308  11.425  1.00  0.00     0.026 A 
HETATM   12  C11 UNL     1      -6.502   1.969  11.686  1.00  0.00     0.003 A 
HETATM   13  C12 UNL     1      -6.501   3.259  12.231  1.00  0.00     0.014 A 
HETATM   14  C13 UNL     1      -5.275   3.893  12.517  1.00  0.00     0.001 A 
HETATM   15  H9  UNL     1      -2.064   3.778  12.561  1.00  0.00     0.166 HD
ENDROOT
BRANCH   1  16
HETATM   16  N1  UNL     1      -1.684   6.627  12.599  1.00  0.00    -0.347 N 
HETATM   17  C1  UNL     1      -0.428   6.070  12.692  1.00  0.00     0.252 C 
HETATM   18  O1  UNL     1      -0.130   5.214  13.516  1.00  0.00    -0.268 OA
HETATM   19  H1  UNL     1      -1.874   7.351  11.922  1.00  0.00     0.163 HD
BRANCH  17  20
HETATM   20  C14 UNL     1       0.580   6.538  11.698  1.00  0.00     0.034 A 
HETATM   21  C15 UNL     1       1.933   6.388  12.022  1.00  0.00     0.018 A 
HETATM   22  C16 UNL     1       2.935   6.801  11.134  1.00  0.00     0.015 A 
HETATM   23  C17 UNL     1       2.568   7.385   9.907  1.00  0.00    -0.008 A 
HETATM   24  C18 UNL     1       3.301   7.906   8.804  1.00  0.00     0.030 A 
HETATM   25  C20 UNL     1       1.214   7.543   9.612  1.00  0.00     0.043 A 
HETATM   26  C19 UNL     1       2.393   8.366   7.878  1.00  0.00     0.089 A 
HETATM   27  N3  UNL     1       1.137   8.148   8.377  1.00  0.00    -0.365 N 
HETATM   28  H17 UNL     1       0.275   8.393   7.908  1.00  0.00     0.165 HD
HETATM   29  C21 UNL     1       0.195   7.135  10.486  1.00  0.00     0.047 A 
ENDBRANCH  17  20
ENDBRANCH   1  16
TORSDOF 2
ENDMDL
MODEL 3
REMARK minimizedAffinity -9.39834023
REMARK  2 active torsions:
REMARK  status: ('A' for Active; 'I' for Inactive)
REMARK       I    between atoms: C1_2  and  N1_3 
REMARK    1  A    between atoms: C1_2  and  C14_18 
REMARK    2  A    between atoms: N1_3  and  C2_4 
ROOT
HETATM    1  C2  UNL     1      -6.921   3.656  13.388  1.00  0.00     0.135 C 
HETATM    2  C3  UNL     1      -7.582   2.622  12.445  1.00  0.00     0.032 C 
HETATM    3  C4  UNL     1      -6.599   1.532  11.980  1.00  0.00     0.007 C 
HETATM    4  C5  UNL     1      -5.406   2.126  11.206  1.00  0.00     0.042 C 
HETATM    5  C6  UNL     1      -4.842   3.303  11.927  1.00  0.00    -0.021 A 
HETATM    6  C7  UNL     1      -5.551   3.982  12.898  1.00  0.00     0.040 A 
HETATM    7  N2  UNL     1      -4.750   4.971  13.399  1.00  0.00    -0.355 N 
HETATM    8  C8  UNL     1      -3.548   4.986  12.726  1.00  0.00     0.065 A 
HETATM    9  C9  UNL     1      -2.437   5.826  12.867  1.00  0.00     0.061 A 
HETATM   10 CL1  UNL     1      -2.427   7.104  14.017  1.00  0.00    -0.082 Cl
HETATM   11  C10 UNL     1      -1.329   5.604  12.047  1.00  0.00     0.026 A 
HETATM   12  C11 UNL     1      -1.332   4.569  11.114  1.00  0.00     0.003 A 
HETATM   13  C12 UNL     1      -2.447   3.733  10.979  1.00  0.00     0.014 A 
HETATM   14  C13 UNL     1      -3.577   3.942  11.796  1.00  0.00     0.001 A 
HETATM   15  H9  UNL     1      -4.999   5.606  14.149  1.00  0.00     0.166 HD
ENDROOT
BRANCH   1  16
HETATM   16  N1  UNL     1      -7.683   4.883  13.417  1.00  0.00    -0.347 N 
HETATM   17  C1  UNL     1      -7.854   5.592  14.586  1.00  0.00     0.252 C 
HETATM   18  O1  UNL     1      -7.274   5.319  15.630  1.00  0.00    -0.268 OA
HETATM   19  H1  UNL     1      -8.206   5.129  12.589  1.00  0.00     0.163 HD
BRANCH  17  20
HETATM   20  C14 UNL     1      -8.775   6.763  14.523  1.00  0.00     0.034 A 
HETATM   21  C15 UNL     1      -8.492   7.859  15.346  1.00  0.00     0.018 A 
HETATM   22  C16 UNL     1      -9.312   8.995  15.336  1.00  0.00     0.015 A 
HETATM   23  C17 UNL     1     -10.440   9.022  14.494  1.00  0.00    -0.008 A 
HETATM   24  C18 UNL     1     -11.459   9.982  14.241  1.00  0.00     0.030 A 
HETATM   25  C20 UNL     1     -10.714   7.911  13.696  1.00  0.00     0.043 A 
HETATM   26  C19 UNL     1     -12.320   9.443  13.314  1.00  0.00     0.089 A 
HETATM   27  N3  UNL     1     -11.866   8.192  12.994  1.00  0.00    -0.365 N 
HETATM   28  H17 UNL     1     -12.308   7.562  12.339  1.00  0.00     0.165 HD
HETATM   29  C21 UNL     1      -9.905   6.765  13.689  1.00  0.00     0.047 A 
ENDBRANCH  17  20
ENDBRANCH   1  16
TORSDOF 2
ENDMDL
MODEL 4
REMARK minimizedAffinity -9.3700161
REMARK  2 active torsions:
REMARK  status: ('A' for Active; 'I' for Inactive)
REMARK       I    between atoms: C1_2  and  N1_3 
REMARK    1  A    between atoms: C1_2  and  C14_18 
REMARK    2  A    between atoms: N1_3  and  C2_4 
ROOT
HETATM    1  C2  UNL     1      -2.726   7.394  13.791  1.00  0.00     0.135 C 
HETATM    2  C3  UNL     1      -3.150   8.863  14.035  1.00  0.00     0.032 C 
HETATM    3  C4  UNL     1      -4.449   8.976  14.853  1.00  0.00     0.007 C 
HETATM    4  C5  UNL     1      -5.635   8.294  14.145  1.00  0.00     0.042 C 
HETATM    5  C6  UNL     1      -5.247   6.941  13.648  1.00  0.00    -0.021 A 
HETATM    6  C7  UNL     1      -3.929   6.566  13.487  1.00  0.00     0.040 A 
HETATM    7  N2  UNL     1      -3.903   5.265  13.068  1.00  0.00    -0.355 N 
HETATM    8  C8  UNL     1      -5.190   4.803  12.895  1.00  0.00     0.065 A 
HETATM    9  C9  UNL     1      -5.659   3.558  12.458  1.00  0.00     0.061 A 
HETATM   10 CL1  UNL     1      -4.572   2.303  12.016  1.00  0.00    -0.082 Cl
HETATM   11  C10 UNL     1      -7.038   3.357  12.387  1.00  0.00     0.026 A 
HETATM   12  C11 UNL     1      -7.924   4.372  12.746  1.00  0.00     0.003 A 
HETATM   13  C12 UNL     1      -7.446   5.614  13.182  1.00  0.00     0.014 A 
HETATM   14  C13 UNL     1      -6.057   5.839  13.258  1.00  0.00     0.001 A 
HETATM   15  H9  UNL     1      -3.067   4.717  12.901  1.00  0.00     0.166 HD
ENDROOT
BRANCH   1  16
HETATM   16  N1  UNL     1      -1.828   7.300  12.664  1.00  0.00    -0.347 N 
HETATM   17  C1  UNL     1      -0.781   6.405  12.656  1.00  0.00     0.252 C 
HETATM   18  O1  UNL     1      -0.619   5.550  13.518  1.00  0.00    -0.268 OA
HETATM   19  H1  UNL     1      -1.903   8.006  11.946  1.00  0.00     0.163 HD
BRANCH  17  20
HETATM   20  C14 UNL     1       0.161   6.496  11.503  1.00  0.00     0.034 A 
HETATM   21  C15 UNL     1       1.198   5.560  11.434  1.00  0.00     0.018 A 
HETATM   22  C16 UNL     1       2.118   5.583  10.377  1.00  0.00     0.015 A 
HETATM   23  C17 UNL     1       1.997   6.571   9.382  1.00  0.00    -0.008 A 
HETATM   24  C18 UNL     1       2.734   6.882   8.205  1.00  0.00     0.030 A 
HETATM   25  C20 UNL     1       0.967   7.507   9.480  1.00  0.00     0.043 A 
HETATM   26  C19 UNL     1       2.151   7.984   7.624  1.00  0.00     0.089 A 
HETATM   27  N3  UNL     1       1.088   8.357   8.404  1.00  0.00    -0.365 N 
HETATM   28  H17 UNL     1       0.479   9.142   8.218  1.00  0.00     0.165 HD
HETATM   29  C21 UNL     1       0.035   7.500  10.529  1.00  0.00     0.047 A 
ENDBRANCH  17  20
ENDBRANCH   1  16
TORSDOF 2
ENDMDL
MODEL 5
REMARK minimizedAffinity -9.14102745
REMARK  2 active torsions:
REMARK  status: ('A' for Active; 'I' for Inactive)
REMARK       I    between atoms: C1_2  and  N1_3 
REMARK    1  A    between atoms: C1_2  and  C14_18 
REMARK    2  A    between atoms: N1_3  and  C2_4 
ROOT
HETATM    1  C2  UNL     1      -9.246   7.607  15.356  1.00  0.00     0.135 C 
HETATM    2  C3  UNL     1      -8.522   8.954  15.114  1.00  0.00     0.032 C 
HETATM    3  C4  UNL     1      -9.386  10.167  15.504  1.00  0.00     0.007 C 
HETATM    4  C5  UNL     1     -10.695  10.226  14.693  1.00  0.00     0.042 C 
HETATM    5  C6  UNL     1     -11.357   8.889  14.661  1.00  0.00    -0.021 A 
HETATM    6  C7  UNL     1     -10.677   7.724  14.953  1.00  0.00     0.040 A 
HETATM    7  N2  UNL     1     -11.563   6.684  14.884  1.00  0.00    -0.355 N 
HETATM    8  C8  UNL     1     -12.800   7.148  14.492  1.00  0.00     0.065 A 
HETATM    9  C9  UNL     1     -13.998   6.462  14.262  1.00  0.00     0.061 A 
HETATM   10 CL1  UNL     1     -14.095   4.755  14.443  1.00  0.00    -0.082 Cl
HETATM   11  C10 UNL     1     -15.121   7.197  13.878  1.00  0.00     0.026 A 
HETATM   12  C11 UNL     1     -15.047   8.581  13.730  1.00  0.00     0.003 A 
HETATM   13  C12 UNL     1     -13.845   9.261  13.964  1.00  0.00     0.014 A 
HETATM   14  C13 UNL     1     -12.699   8.536  14.349  1.00  0.00     0.001 A 
HETATM   15  H9  UNL     1     -11.348   5.714  15.084  1.00  0.00     0.166 HD
ENDROOT
BRANCH   1  16
HETATM   16  N1  UNL     1      -8.649   6.555  14.566  1.00  0.00    -0.347 N 
HETATM   17  C1  UNL     1      -7.546   5.862  15.014  1.00  0.00     0.252 C 
HETATM   18  O1  UNL     1      -7.085   5.985  16.142  1.00  0.00    -0.268 OA
HETATM   19  H1  UNL     1      -8.974   6.441  13.617  1.00  0.00     0.163 HD
BRANCH  17  20
HETATM   20  C14 UNL     1      -6.933   4.899  14.054  1.00  0.00     0.034 A 
HETATM   21  C15 UNL     1      -5.688   5.228  13.506  1.00  0.00     0.018 A 
HETATM   22  C16 UNL     1      -5.051   4.369  12.602  1.00  0.00     0.015 A 
HETATM   23  C17 UNL     1      -5.683   3.166  12.234  1.00  0.00    -0.008 A 
HETATM   24  C18 UNL     1      -5.335   2.094  11.366  1.00  0.00     0.030 A 
HETATM   25  C20 UNL     1      -6.933   2.866  12.778  1.00  0.00     0.043 A 
HETATM   26  C19 UNL     1      -6.364   1.182  11.394  1.00  0.00     0.089 A 
HETATM   27  N3  UNL     1      -7.326   1.658  12.245  1.00  0.00    -0.365 N 
HETATM   28  H17 UNL     1      -8.198   1.193  12.454  1.00  0.00     0.165 HD
HETATM   29  C21 UNL     1      -7.587   3.711  13.686  1.00  0.00     0.047 A 
ENDBRANCH  17  20
ENDBRANCH   1  16
TORSDOF 2
ENDMDL
MODEL 6
REMARK minimizedAffinity -9.09317303
REMARK  2 active torsions:
REMARK  status: ('A' for Active; 'I' for Inactive)
REMARK       I    between atoms: C1_2  and  N1_3 
REMARK    1  A    between atoms: C1_2  and  C14_18 
REMARK    2  A    between atoms: N1_3  and  C2_4 
ROOT
HETATM    1  C2  UNL     1      -0.969   7.279  13.556  1.00  0.00     0.135 C 
HETATM    2  C3  UNL     1      -0.316   6.782  14.868  1.00  0.00     0.032 C 
HETATM    3  C4  UNL     1       1.049   7.441  15.137  1.00  0.00     0.007 C 
HETATM    4  C5  UNL     1       2.060   7.150  14.011  1.00  0.00     0.042 C 
HETATM    5  C6  UNL     1       1.438   7.369  12.672  1.00  0.00    -0.021 A 
HETATM    6  C7  UNL     1       0.070   7.411  12.494  1.00  0.00     0.040 A 
HETATM    7  N2  UNL     1      -0.181   7.673  11.176  1.00  0.00    -0.355 N 
HETATM    8  C8  UNL     1       1.006   7.743  10.478  1.00  0.00     0.065 A 
HETATM    9  C9  UNL     1       1.250   7.961   9.117  1.00  0.00     0.061 A 
HETATM   10 CL1  UNL     1      -0.042   8.182   8.005  1.00  0.00    -0.082 Cl
HETATM   11  C10 UNL     1       2.574   7.994   8.677  1.00  0.00     0.026 A 
HETATM   12  C11 UNL     1       3.626   7.816   9.575  1.00  0.00     0.003 A 
HETATM   13  C12 UNL     1       3.373   7.599  10.935  1.00  0.00     0.014 A 
HETATM   14  C13 UNL     1       2.043   7.559  11.399  1.00  0.00     0.001 A 
HETATM   15  H9  UNL     1      -1.098   7.793  10.764  1.00  0.00     0.166 HD
ENDROOT
BRANCH   1  16
HETATM   16  N1  UNL     1      -1.961   6.339  13.089  1.00  0.00    -0.347 N 
HETATM   17  C1  UNL     1      -3.263   6.391  13.536  1.00  0.00     0.252 C 
HETATM   18  O1  UNL     1      -3.699   7.297  14.237  1.00  0.00    -0.268 OA
HETATM   19  H1  UNL     1      -1.641   5.557  12.537  1.00  0.00     0.163 HD
BRANCH  17  20
HETATM   20  C14 UNL     1      -4.161   5.286  13.095  1.00  0.00     0.034 A 
HETATM   21  C15 UNL     1      -5.524   5.395  13.391  1.00  0.00     0.018 A 
HETATM   22  C16 UNL     1      -6.426   4.396  13.003  1.00  0.00     0.015 A 
HETATM   23  C17 UNL     1      -5.946   3.265  12.317  1.00  0.00    -0.008 A 
HETATM   24  C18 UNL     1      -6.562   2.094  11.793  1.00  0.00     0.030 A 
HETATM   25  C20 UNL     1      -4.581   3.166  12.048  1.00  0.00     0.043 A 
HETATM   26  C19 UNL     1      -5.576   1.318  11.230  1.00  0.00     0.089 A 
HETATM   27  N3  UNL     1      -4.383   1.971  11.393  1.00  0.00    -0.365 N 
HETATM   28  H17 UNL     1      -3.486   1.628  11.079  1.00  0.00     0.165 HD
HETATM   29  C21 UNL     1      -3.661   4.155  12.426  1.00  0.00     0.047 A 
ENDBRANCH  17  20
ENDBRANCH   1  16
TORSDOF 2
ENDMDL
MODEL 7
REMARK minimizedAffinity -8.51251411
REMARK  2 active torsions:
REMARK  status: ('A' for Active; 'I' for Inactive)
REMARK       I    between atoms: C1_2  and  N1_3 
REMARK    1  A    between atoms: C1_2  and  C14_18 
REMARK    2  A    between atoms: N1_3  and  C2_4 
ROOT
HETATM    1  C2  UNL     1       1.727   5.760  10.701  1.00  0.00     0.135 C 
HETATM    2  C3  UNL     1       1.784   6.237   9.229  1.00  0.00     0.032 C 
HETATM    3  C4  UNL     1       3.118   6.922   8.881  1.00  0.00     0.007 C 
HETATM    4  C5  UNL     1       3.368   8.169   9.751  1.00  0.00     0.042 C 
HETATM    5  C6  UNL     1       3.098   7.873  11.188  1.00  0.00    -0.021 A 
HETATM    6  C7  UNL     1       2.345   6.787  11.588  1.00  0.00     0.040 A 
HETATM    7  N2  UNL     1       2.322   6.763  12.955  1.00  0.00    -0.355 N 
HETATM    8  C8  UNL     1       3.000   7.855  13.454  1.00  0.00     0.065 A 
HETATM    9  C9  UNL     1       3.218   8.265  14.775  1.00  0.00     0.061 A 
HETATM   10 CL1  UNL     1       2.586   7.370  16.099  1.00  0.00    -0.082 Cl
HETATM   11  C10 UNL     1       3.963   9.424  14.995  1.00  0.00     0.026 A 
HETATM   12  C11 UNL     1       4.478  10.152  13.924  1.00  0.00     0.003 A 
HETATM   13  C12 UNL     1       4.256   9.735  12.605  1.00  0.00     0.014 A 
HETATM   14  C13 UNL     1       3.504   8.569  12.361  1.00  0.00     0.001 A 
HETATM   15  H9  UNL     1       1.871   6.057  13.523  1.00  0.00     0.166 HD
ENDROOT
BRANCH   1  16
HETATM   16  N1  UNL     1       0.358   5.575  11.126  1.00  0.00    -0.347 N 
HETATM   17  C1  UNL     1      -0.160   4.317  11.342  1.00  0.00     0.252 C 
HETATM   18  O1  UNL     1       0.519   3.297  11.325  1.00  0.00    -0.268 OA
HETATM   19  H1  UNL     1      -0.246   6.384  11.122  1.00  0.00     0.163 HD
BRANCH  17  20
HETATM   20  C14 UNL     1      -1.619   4.243  11.640  1.00  0.00     0.034 A 
HETATM   21  C15 UNL     1      -2.142   5.151  12.567  1.00  0.00     0.018 A 
HETATM   22  C16 UNL     1      -3.504   5.142  12.893  1.00  0.00     0.015 A 
HETATM   23  C17 UNL     1      -4.350   4.196  12.284  1.00  0.00    -0.008 A 
HETATM   24  C18 UNL     1      -5.740   3.909  12.380  1.00  0.00     0.030 A 
HETATM   25  C20 UNL     1      -3.805   3.287  11.376  1.00  0.00     0.043 A 
HETATM   26  C19 UNL     1      -6.008   2.847  11.548  1.00  0.00     0.089 A 
HETATM   27  N3  UNL     1      -4.833   2.475  10.950  1.00  0.00    -0.365 N 
HETATM   28  H17 UNL     1      -4.732   1.716  10.291  1.00  0.00     0.165 HD
HETATM   29  C21 UNL     1      -2.444   3.280  11.035  1.00  0.00     0.047 A 
ENDBRANCH  17  20
ENDBRANCH   1  16
TORSDOF 2
ENDMDL
MODEL 8
REMARK minimizedAffinity -8.46007347
REMARK  2 active torsions:
REMARK  status: ('A' for Active; 'I' for Inactive)
REMARK       I    between atoms: C1_2  and  N1_3 
REMARK    1  A    between atoms: C1_2  and  C14_18 
REMARK    2  A    between atoms: N1_3  and  C2_4 
ROOT
HETATM    1  C2  UNL     1      -3.590   4.459  13.256  1.00  0.00     0.135 C 
HETATM    2  C3  UNL     1      -3.839   3.248  12.324  1.00  0.00     0.032 C 
HETATM    3  C4  UNL     1      -2.535   2.670  11.745  1.00  0.00     0.007 C 
HETATM    4  C5  UNL     1      -1.765   3.711  10.909  1.00  0.00     0.042 C 
HETATM    5  C6  UNL     1      -1.682   5.013  11.634  1.00  0.00    -0.021 A 
HETATM    6  C7  UNL     1      -2.524   5.328  12.680  1.00  0.00     0.040 A 
HETATM    7  N2  UNL     1      -2.167   6.558  13.160  1.00  0.00    -0.355 N 
HETATM    8  C8  UNL     1      -1.140   7.077  12.401  1.00  0.00     0.065 A 
HETATM    9  C9  UNL     1      -0.470   8.303  12.493  1.00  0.00     0.061 A 
HETATM   10 CL1  UNL     1      -0.895   9.462  13.689  1.00  0.00    -0.082 Cl
HETATM   11  C10 UNL     1       0.557   8.567  11.585  1.00  0.00     0.026 A 
HETATM   12  C11 UNL     1       0.905   7.630  10.614  1.00  0.00     0.003 A 
HETATM   13  C12 UNL     1       0.230   6.405  10.529  1.00  0.00     0.014 A 
HETATM   14  C13 UNL     1      -0.812   6.121  11.434  1.00  0.00     0.001 A 
HETATM   15  H9  UNL     1      -2.593   7.028  13.950  1.00  0.00     0.166 HD
ENDROOT
BRANCH   1  16
HETATM   16  N1  UNL     1      -4.787   5.257  13.391  1.00  0.00    -0.347 N 
HETATM   17  C1  UNL     1      -5.070   5.932  14.557  1.00  0.00     0.252 C 
HETATM   18  O1  UNL     1      -4.284   6.018  15.493  1.00  0.00    -0.268 OA
HETATM   19  H1  UNL     1      -5.479   5.189  12.658  1.00  0.00     0.163 HD
BRANCH  17  20
HETATM   20  C14 UNL     1      -6.398   6.605  14.629  1.00  0.00     0.034 A 
HETATM   21  C15 UNL     1      -6.448   7.893  15.172  1.00  0.00     0.018 A 
HETATM   22  C16 UNL     1      -7.661   8.587  15.267  1.00  0.00     0.015 A 
HETATM   23  C17 UNL     1      -8.844   7.969  14.819  1.00  0.00    -0.008 A 
HETATM   24  C18 UNL     1     -10.208   8.369  14.769  1.00  0.00     0.030 A 
HETATM   25  C20 UNL     1      -8.775   6.677  14.298  1.00  0.00     0.043 A 
HETATM   26  C19 UNL     1     -10.931   7.328  14.234  1.00  0.00     0.089 A 
HETATM   27  N3  UNL     1     -10.058   6.310  13.957  1.00  0.00    -0.365 N 
HETATM   28  H17 UNL     1     -10.315   5.417  13.560  1.00  0.00     0.165 HD
HETATM   29  C21 UNL     1      -7.571   5.965  14.193  1.00  0.00     0.047 A 
ENDBRANCH  17  20
ENDBRANCH   1  16
TORSDOF 2
ENDMDL
MODEL 9
REMARK minimizedAffinity -8.45949364
REMARK  2 active torsions:
REMARK  status: ('A' for Active; 'I' for Inactive)
REMARK       I    between atoms: C1_2  and  N1_3 
REMARK    1  A    between atoms: C1_2  and  C14_18 
REMARK    2  A    between atoms: N1_3  and  C2_4 
ROOT
HETATM    1  C2  UNL     1      -0.468   7.735  14.133  1.00  0.00     0.135 C 
HETATM    2  C3  UNL     1       0.093   7.376  15.531  1.00  0.00     0.032 C 
HETATM    3  C4  UNL     1       1.471   8.009  15.795  1.00  0.00     0.007 C 
HETATM    4  C5  UNL     1       2.524   7.542  14.772  1.00  0.00     0.042 C 
HETATM    5  C6  UNL     1       1.983   7.620  13.384  1.00  0.00    -0.021 A 
HETATM    6  C7  UNL     1       0.629   7.695  13.124  1.00  0.00     0.040 A 
HETATM    7  N2  UNL     1       0.459   7.803  11.772  1.00  0.00    -0.355 N 
HETATM    8  C8  UNL     1       1.682   7.740  11.139  1.00  0.00     0.065 A 
HETATM    9  C9  UNL     1       2.005   7.781   9.778  1.00  0.00     0.061 A 
HETATM   10 CL1  UNL     1       0.783   7.915   8.576  1.00  0.00    -0.082 Cl
HETATM   11  C10 UNL     1       3.351   7.708   9.413  1.00  0.00     0.026 A 
HETATM   12  C11 UNL     1       4.345   7.600  10.383  1.00  0.00     0.003 A 
HETATM   13  C12 UNL     1       4.013   7.561  11.744  1.00  0.00     0.014 A 
HETATM   14  C13 UNL     1       2.661   7.630  12.133  1.00  0.00     0.001 A 
HETATM   15  H9  UNL     1      -0.430   7.908  11.297  1.00  0.00     0.166 HD
ENDROOT
BRANCH   1  16
HETATM   16  N1  UNL     1      -1.477   6.784  13.727  1.00  0.00    -0.347 N 
HETATM   17  C1  UNL     1      -2.791   7.163  13.560  1.00  0.00     0.252 C 
HETATM   18  O1  UNL     1      -3.167   8.328  13.608  1.00  0.00    -0.268 OA
HETATM   19  H1  UNL     1      -1.220   5.808  13.708  1.00  0.00     0.163 HD
BRANCH  17  20
HETATM   20  C14 UNL     1      -3.766   6.070  13.278  1.00  0.00     0.034 A 
HETATM   21  C15 UNL     1      -3.341   5.010  12.470  1.00  0.00     0.018 A 
HETATM   22  C16 UNL     1      -4.202   3.948  12.167  1.00  0.00     0.015 A 
HETATM   23  C17 UNL     1      -5.514   3.959  12.676  1.00  0.00    -0.008 A 
HETATM   24  C18 UNL     1      -6.621   3.072  12.569  1.00  0.00     0.030 A 
HETATM   25  C20 UNL     1      -5.924   5.034  13.464  1.00  0.00     0.043 A 
HETATM   26  C19 UNL     1      -7.666   3.619  13.277  1.00  0.00     0.089 A 
HETATM   27  N3  UNL     1      -7.237   4.805  13.810  1.00  0.00    -0.365 N 
HETATM   28  H17 UNL     1      -7.800   5.425  14.376  1.00  0.00     0.165 HD
HETATM   29  C21 UNL     1      -5.077   6.107  13.781  1.00  0.00     0.047 A 
ENDBRANCH  17  20
ENDBRANCH   1  16
TORSDOF 2
ENDMDL
