MODEL 1
REMARK minimizedAffinity -10.5677977
REMARK  5 active torsions:
REMARK  status: ('A' for Active; 'I' for Inactive)
REMARK    1  A    between atoms: C3_3  and  C4_4 
REMARK    2  A    between atoms: C4_4  and  C5_5 
REMARK       I    between atoms: C5_5  and  N1_7 
REMARK    3  A    between atoms: N1_7  and  C6_8 
REMARK    4  A    between atoms: C6_8  and  C7_9 
REMARK    5  A    between atoms: C7_9  and  C8_10 
ROOT
HETATM    1  C1  UNL     1      -5.196   5.896  14.386  1.00  0.00     0.050 C 
HETATM    2  C2  UNL     1      -4.894   4.886  13.308  1.00  0.00    -0.036 A 
HETATM    3  C3  UNL     1      -5.780   3.962  12.877  1.00  0.00     0.033 A 
HETATM    4  C16 UNL     1      -5.454   3.022  11.768  1.00  0.00     0.295 A 
HETATM    5  O2  UNL     1      -6.284   2.223  11.341  1.00  0.00    -0.259 OA
HETATM    6  O3  UNL     1      -4.183   3.080  11.231  1.00  0.00    -0.274 OA
HETATM    7  C17 UNL     1      -3.248   4.026  11.676  1.00  0.00     0.093 A 
HETATM    8  C18 UNL     1      -2.004   4.005  11.043  1.00  0.00     0.075 A 
HETATM    9  C19 UNL     1      -1.028   4.922  11.416  1.00  0.00     0.079 A 
HETATM   10  C20 UNL     1      -1.289   5.839  12.437  1.00  0.00    -0.024 A 
HETATM   11  C21 UNL     1      -2.554   5.844  13.055  1.00  0.00     0.024 A 
HETATM   12  C22 UNL     1      -3.556   4.935  12.684  1.00  0.00     0.005 A 
HETATM   13  C23 UNL     1      -0.251   6.838  12.853  1.00  0.00     0.044 C 
HETATM   14  C24 UNL     1       1.127   6.405  12.377  1.00  0.00     0.042 C 
HETATM   15  C25 UNL     1       1.086   5.925  10.919  1.00  0.00     0.061 C 
HETATM   16  C26 UNL     1       2.466   5.363  10.545  1.00  0.00     0.046 C 
HETATM   17  C27 UNL     1       0.734   7.048   9.930  1.00  0.00     0.046 C 
HETATM   18  O4  UNL     1       0.157   4.839  10.743  1.00  0.00    -0.340 OA
ENDROOT
BRANCH   3  19
HETATM   19  C4  UNL     1      -7.164   3.751  13.437  1.00  0.00     0.148 C 
BRANCH  19  20
HETATM   20  C5  UNL     1      -8.067   4.900  13.021  1.00  0.00     0.222 C 
HETATM   21  O1  UNL     1      -8.378   5.094  11.847  1.00  0.00    -0.273 OA
HETATM   22  N1  UNL     1      -8.500   5.685  14.060  1.00  0.00    -0.360 N 
HETATM   23  H6  UNL     1      -8.177   5.474  15.003  1.00  0.00     0.162 HD
BRANCH  22  24
HETATM   24  C6  UNL     1      -9.286   6.887  13.856  1.00  0.00     0.127 C 
BRANCH  24  25
HETATM   25  C7  UNL     1     -10.606   6.890  14.637  1.00  0.00     0.060 C 
BRANCH  25  26
HETATM   26  C8  UNL     1     -11.753   7.443  13.844  1.00  0.00    -0.029 A 
HETATM   27  C9  UNL     1     -11.716   8.530  12.993  1.00  0.00     0.096 A 
HETATM   28  N2  UNL     1     -12.959   8.692  12.446  1.00  0.00    -0.365 N 
HETATM   29  C10 UNL     1     -13.818   7.730  12.921  1.00  0.00     0.043 A 
HETATM   30  H12 UNL     1     -13.214   9.411  11.782  1.00  0.00     0.165 HD
HETATM   31  C11 UNL     1     -15.169   7.505  12.631  1.00  0.00     0.032 A 
HETATM   32  C15 UNL     1     -13.094   6.938  13.812  1.00  0.00    -0.000 A 
HETATM   33  C12 UNL     1     -15.799   6.432  13.271  1.00  0.00     0.026 A 
HETATM   34  C13 UNL     1     -15.099   5.630  14.169  1.00  0.00     0.035 A 
HETATM   35 CL1  UNL     1     -15.901   4.311  14.933  1.00  0.00    -0.084 Cl
HETATM   36  C14 UNL     1     -13.753   5.870  14.456  1.00  0.00     0.038 A 
ENDBRANCH  25  26
ENDBRANCH  24  25
ENDBRANCH  22  24
ENDBRANCH  19  20
ENDBRANCH   3  19
TORSDOF 5
ENDMDL
MODEL 2
REMARK minimizedAffinity -10.368722
REMARK  5 active torsions:
REMARK  status: ('A' for Active; 'I' for Inactive)
REMARK    1  A    between atoms: C3_3  and  C4_4 
REMARK    2  A    between atoms: C4_4  and  C5_5 
REMARK       I    between atoms: C5_5  and  N1_7 
REMARK    3  A    between atoms: N1_7  and  C6_8 
REMARK    4  A    between atoms: C6_8  and  C7_9 
REMARK    5  A    between atoms: C7_9  and  C8_10 
ROOT
HETATM    1  C1  UNL     1       1.308   7.242  14.835  1.00  0.00     0.050 C 
HETATM    2  C2  UNL     1       0.319   7.993  13.978  1.00  0.00    -0.036 A 
HETATM    3  C3  UNL     1      -0.715   8.706  14.476  1.00  0.00     0.033 A 
HETATM    4  C16 UNL     1      -1.630   9.479  13.592  1.00  0.00     0.295 A 
HETATM    5  O2  UNL     1      -2.533  10.173  14.055  1.00  0.00    -0.259 OA
HETATM    6  O3  UNL     1      -1.430   9.391  12.228  1.00  0.00    -0.274 OA
HETATM    7  C17 UNL     1      -0.370   8.645  11.695  1.00  0.00     0.093 A 
HETATM    8  C18 UNL     1      -0.253   8.649  10.304  1.00  0.00     0.075 A 
HETATM    9  C19 UNL     1       0.783   7.946   9.700  1.00  0.00     0.079 A 
HETATM   10  C20 UNL     1       1.682   7.222  10.484  1.00  0.00    -0.024 A 
HETATM   11  C21 UNL     1       1.547   7.238  11.886  1.00  0.00     0.024 A 
HETATM   12  C22 UNL     1       0.516   7.951  12.515  1.00  0.00     0.005 A 
HETATM   13  C23 UNL     1       2.809   6.459   9.853  1.00  0.00     0.044 C 
HETATM   14  C24 UNL     1       2.535   6.233   8.374  1.00  0.00     0.042 C 
HETATM   15  C25 UNL     1       2.023   7.515   7.701  1.00  0.00     0.061 C 
HETATM   16  C26 UNL     1       1.625   7.188   6.253  1.00  0.00     0.046 C 
HETATM   17  C27 UNL     1       3.075   8.636   7.674  1.00  0.00     0.046 C 
HETATM   18  O4  UNL     1       0.830   8.008   8.336  1.00  0.00    -0.340 OA
ENDROOT
BRANCH   3  19
HETATM   19  C4  UNL     1      -1.079   8.812  15.935  1.00  0.00     0.148 C 
BRANCH  19  20
HETATM   20  C5  UNL     1      -2.483   8.274  16.154  1.00  0.00     0.222 C 
HETATM   21  O1  UNL     1      -3.335   8.905  16.777  1.00  0.00    -0.273 OA
HETATM   22  N1  UNL     1      -2.711   7.040  15.597  1.00  0.00    -0.360 N 
HETATM   23  H6  UNL     1      -1.945   6.570  15.117  1.00  0.00     0.162 HD
BRANCH  22  24
HETATM   24  C6  UNL     1      -3.954   6.316  15.781  1.00  0.00     0.127 C 
BRANCH  24  25
HETATM   25  C7  UNL     1      -5.067   6.765  14.827  1.00  0.00     0.060 C 
BRANCH  25  26
HETATM   26  C8  UNL     1      -5.888   5.622  14.309  1.00  0.00    -0.029 A 
HETATM   27  C9  UNL     1      -7.149   5.255  14.738  1.00  0.00     0.096 A 
HETATM   28  N2  UNL     1      -7.561   4.181  13.997  1.00  0.00    -0.365 N 
HETATM   29  C10 UNL     1      -6.593   3.832  13.085  1.00  0.00     0.043 A 
HETATM   30  H12 UNL     1      -8.450   3.710  14.097  1.00  0.00     0.165 HD
HETATM   31  C11 UNL     1      -6.585   2.814  12.124  1.00  0.00     0.032 A 
HETATM   32  C15 UNL     1      -5.524   4.711  13.265  1.00  0.00    -0.000 A 
HETATM   33  C12 UNL     1      -5.448   2.693  11.318  1.00  0.00     0.026 A 
HETATM   34  C13 UNL     1      -4.366   3.555  11.481  1.00  0.00     0.035 A 
HETATM   35 CL1  UNL     1      -2.984   3.384  10.467  1.00  0.00    -0.084 Cl
HETATM   36  C14 UNL     1      -4.383   4.562  12.450  1.00  0.00     0.038 A 
ENDBRANCH  25  26
ENDBRANCH  24  25
ENDBRANCH  22  24
ENDBRANCH  19  20
ENDBRANCH   3  19
TORSDOF 5
ENDMDL
MODEL 3
REMARK minimizedAffinity -10.2757969
REMARK  5 active torsions:
REMARK  status: ('A' for Active; 'I' for Inactive)
REMARK    1  A    between atoms: C3_3  and  C4_4 
REMARK    2  A    between atoms: C4_4  and  C5_5 
REMARK       I    between atoms: C5_5  and  N1_7 
REMARK    3  A    between atoms: N1_7  and  C6_8 
REMARK    4  A    between atoms: C6_8  and  C7_9 
REMARK    5  A    between atoms: C7_9  and  C8_10 
ROOT
HETATM    1  C1  UNL     1       1.754   7.801  12.843  1.00  0.00     0.050 C 
HETATM    2  C2  UNL     1       2.712   7.247  11.818  1.00  0.00    -0.036 A 
HETATM    3  C3  UNL     1       2.321   6.691  10.650  1.00  0.00     0.033 A 
HETATM    4  C16 UNL     1       3.308   6.210   9.644  1.00  0.00     0.295 A 
HETATM    5  O2  UNL     1       2.947   5.758   8.559  1.00  0.00    -0.259 OA
HETATM    6  O3  UNL     1       4.647   6.292   9.969  1.00  0.00    -0.274 OA
HETATM    7  C17 UNL     1       5.068   6.855  11.182  1.00  0.00     0.093 A 
HETATM    8  C18 UNL     1       6.447   6.905  11.391  1.00  0.00     0.075 A 
HETATM    9  C19 UNL     1       6.945   7.465  12.562  1.00  0.00     0.079 A 
HETATM   10  C20 UNL     1       6.064   7.949  13.530  1.00  0.00    -0.024 A 
HETATM   11  C21 UNL     1       4.677   7.894  13.293  1.00  0.00     0.024 A 
HETATM   12  C22 UNL     1       4.156   7.344  12.113  1.00  0.00     0.005 A 
HETATM   13  C23 UNL     1       6.579   8.559  14.800  1.00  0.00     0.044 C 
HETATM   14  C24 UNL     1       8.026   8.154  15.036  1.00  0.00     0.042 C 
HETATM   15  C25 UNL     1       8.856   8.277  13.750  1.00  0.00     0.061 C 
HETATM   16  C26 UNL     1      10.261   7.715  14.012  1.00  0.00     0.046 C 
HETATM   17  C27 UNL     1       8.995   9.730  13.267  1.00  0.00     0.046 C 
HETATM   18  O4  UNL     1       8.305   7.481  12.685  1.00  0.00    -0.340 OA
ENDROOT
BRANCH   3  19
HETATM   19  C4  UNL     1       0.892   6.477  10.220  1.00  0.00     0.148 C 
BRANCH  19  20
HETATM   20  C5  UNL     1       0.264   5.373  11.055  1.00  0.00     0.222 C 
HETATM   21  O1  UNL     1       0.673   4.214  11.020  1.00  0.00    -0.273 OA
HETATM   22  N1  UNL     1      -0.783   5.784  11.843  1.00  0.00    -0.360 N 
HETATM   23  H6  UNL     1      -1.079   6.758  11.797  1.00  0.00     0.162 HD
BRANCH  22  24
HETATM   24  C6  UNL     1      -1.574   4.861  12.634  1.00  0.00     0.127 C 
BRANCH  24  25
HETATM   25  C7  UNL     1      -3.004   5.353  12.891  1.00  0.00     0.060 C 
BRANCH  25  26
HETATM   26  C8  UNL     1      -4.045   4.331  12.541  1.00  0.00    -0.029 A 
HETATM   27  C9  UNL     1      -3.835   3.139  11.874  1.00  0.00     0.096 A 
HETATM   28  N2  UNL     1      -5.032   2.484  11.775  1.00  0.00    -0.365 N 
HETATM   29  C10 UNL     1      -6.030   3.224  12.366  1.00  0.00     0.043 A 
HETATM   30  H12 UNL     1      -5.169   1.583  11.337  1.00  0.00     0.165 HD
HETATM   31  C11 UNL     1      -7.394   2.943  12.509  1.00  0.00     0.032 A 
HETATM   32  C15 UNL     1      -5.444   4.395  12.844  1.00  0.00    -0.000 A 
HETATM   33  C12 UNL     1      -8.184   3.892  13.167  1.00  0.00     0.026 A 
HETATM   34  C13 UNL     1      -7.624   5.073  13.650  1.00  0.00     0.035 A 
HETATM   35 CL1  UNL     1      -8.622   6.217  14.463  1.00  0.00    -0.084 Cl
HETATM   36  C14 UNL     1      -6.262   5.344  13.493  1.00  0.00     0.038 A 
ENDBRANCH  25  26
ENDBRANCH  24  25
ENDBRANCH  22  24
ENDBRANCH  19  20
ENDBRANCH   3  19
TORSDOF 5
ENDMDL
MODEL 4
REMARK minimizedAffinity -10.2219534
REMARK  5 active torsions:
REMARK  status: ('A' for Active; 'I' for Inactive)
REMARK    1  A    between atoms: C3_3  and  C4_4 
REMARK    2  A    between atoms: C4_4  and  C5_5 
REMARK       I    between atoms: C5_5  and  N1_7 
REMARK    3  A    between atoms: N1_7  and  C6_8 
REMARK    4  A    between atoms: C6_8  and  C7_9 
REMARK    5  A    between atoms: C7_9  and  C8_10 
ROOT
HETATM    1  C1  UNL     1      -1.544   4.739  12.745  1.00  0.00     0.050 C 
HETATM    2  C2  UNL     1      -2.047   6.161  12.758  1.00  0.00    -0.036 A 
HETATM    3  C3  UNL     1      -1.275   7.232  12.471  1.00  0.00     0.033 A 
HETATM    4  C16 UNL     1      -1.833   8.613  12.441  1.00  0.00     0.295 A 
HETATM    5  O2  UNL     1      -1.139   9.577  12.122  1.00  0.00    -0.259 OA
HETATM    6  O3  UNL     1      -3.161   8.776  12.781  1.00  0.00    -0.274 OA
HETATM    7  C17 UNL     1      -3.972   7.676  13.093  1.00  0.00     0.093 A 
HETATM    8  C18 UNL     1      -5.304   7.961  13.398  1.00  0.00     0.075 A 
HETATM    9  C19 UNL     1      -6.176   6.922  13.702  1.00  0.00     0.079 A 
HETATM   10  C20 UNL     1      -5.710   5.606  13.725  1.00  0.00    -0.024 A 
HETATM   11  C21 UNL     1      -4.364   5.344  13.407  1.00  0.00     0.024 A 
HETATM   12  C22 UNL     1      -3.471   6.377  13.086  1.00  0.00     0.005 A 
HETATM   13  C23 UNL     1      -6.635   4.470  14.047  1.00  0.00     0.044 C 
HETATM   14  C24 UNL     1      -7.885   4.984  14.745  1.00  0.00     0.042 C 
HETATM   15  C25 UNL     1      -8.441   6.232  14.044  1.00  0.00     0.061 C 
HETATM   16  C26 UNL     1      -9.607   6.788  14.875  1.00  0.00     0.046 C 
HETATM   17  C27 UNL     1      -8.952   5.940  12.624  1.00  0.00     0.046 C 
HETATM   18  O4  UNL     1      -7.463   7.285  13.981  1.00  0.00    -0.340 OA
ENDROOT
BRANCH   3  19
HETATM   19  C4  UNL     1       0.200   7.188  12.163  1.00  0.00     0.148 C 
BRANCH  19  20
HETATM   20  C5  UNL     1       0.407   6.943  10.678  1.00  0.00     0.222 C 
HETATM   21  O1  UNL     1       0.273   5.830  10.174  1.00  0.00    -0.273 OA
HETATM   22  N1  UNL     1       0.748   8.063   9.961  1.00  0.00    -0.360 N 
HETATM   23  H6  UNL     1       0.866   8.946  10.456  1.00  0.00     0.162 HD
BRANCH  22  24
HETATM   24  C6  UNL     1       1.085   8.016   8.551  1.00  0.00     0.127 C 
BRANCH  24  25
HETATM   25  C7  UNL     1       2.589   8.146   8.280  1.00  0.00     0.060 C 
BRANCH  25  26
HETATM   26  C8  UNL     1       3.417   7.232   9.134  1.00  0.00    -0.029 A 
HETATM   27  C9  UNL     1       3.375   5.850   9.140  1.00  0.00     0.096 A 
HETATM   28  N2  UNL     1       4.301   5.395  10.038  1.00  0.00    -0.365 N 
HETATM   29  C10 UNL     1       4.955   6.452  10.626  1.00  0.00     0.043 A 
HETATM   30  H12 UNL     1       4.487   4.422  10.241  1.00  0.00     0.165 HD
HETATM   31  C11 UNL     1       5.975   6.459  11.585  1.00  0.00     0.032 A 
HETATM   32  C15 UNL     1       4.412   7.619  10.089  1.00  0.00    -0.000 A 
HETATM   33  C12 UNL     1       6.460   7.703  12.004  1.00  0.00     0.026 A 
HETATM   34  C13 UNL     1       5.931   8.883  11.487  1.00  0.00     0.035 A 
HETATM   35 CL1  UNL     1       6.556  10.398  12.018  1.00  0.00    -0.084 Cl
HETATM   36  C14 UNL     1       4.907   8.862  10.536  1.00  0.00     0.038 A 
ENDBRANCH  25  26
ENDBRANCH  24  25
ENDBRANCH  22  24
ENDBRANCH  19  20
ENDBRANCH   3  19
TORSDOF 5
ENDMDL
MODEL 5
REMARK minimizedAffinity -10.1991405
REMARK  5 active torsions:
REMARK  status: ('A' for Active; 'I' for Inactive)
REMARK    1  A    between atoms: C3_3  and  C4_4 
REMARK    2  A    between atoms: C4_4  and  C5_5 
REMARK       I    between atoms: C5_5  and  N1_7 
REMARK    3  A    between atoms: N1_7  and  C6_8 
REMARK    4  A    between atoms: C6_8  and  C7_9 
REMARK    5  A    between atoms: C7_9  and  C8_10 
ROOT
HETATM    1  C1  UNL     1       1.954   7.931  12.747  1.00  0.00     0.050 C 
HETATM    2  C2  UNL     1       2.946   7.358  11.766  1.00  0.00    -0.036 A 
HETATM    3  C3  UNL     1       2.596   6.777  10.598  1.00  0.00     0.033 A 
HETATM    4  C16 UNL     1       3.617   6.277   9.636  1.00  0.00     0.295 A 
HETATM    5  O2  UNL     1       3.293   5.802   8.549  1.00  0.00    -0.259 OA
HETATM    6  O3  UNL     1       4.944   6.367  10.004  1.00  0.00    -0.274 OA
HETATM    7  C17 UNL     1       5.323   6.956  11.219  1.00  0.00     0.093 A 
HETATM    8  C18 UNL     1       6.695   7.011  11.473  1.00  0.00     0.075 A 
HETATM    9  C19 UNL     1       7.152   7.596  12.649  1.00  0.00     0.079 A 
HETATM   10  C20 UNL     1       6.238   8.099  13.577  1.00  0.00    -0.024 A 
HETATM   11  C21 UNL     1       4.860   8.037  13.294  1.00  0.00     0.024 A 
HETATM   12  C22 UNL     1       4.380   7.462  12.108  1.00  0.00     0.005 A 
HETATM   13  C23 UNL     1       6.710   8.735  14.850  1.00  0.00     0.044 C 
HETATM   14  C24 UNL     1       8.148   8.336  15.144  1.00  0.00     0.042 C 
HETATM   15  C25 UNL     1       9.021   8.434  13.884  1.00  0.00     0.061 C 
HETATM   16  C26 UNL     1      10.417   7.879  14.205  1.00  0.00     0.046 C 
HETATM   17  C27 UNL     1       9.176   9.877  13.377  1.00  0.00     0.046 C 
HETATM   18  O4  UNL     1       8.507   7.616  12.817  1.00  0.00    -0.340 OA
ENDROOT
BRANCH   3  19
HETATM   19  C4  UNL     1       1.182   6.552  10.124  1.00  0.00     0.148 C 
BRANCH  19  20
HETATM   20  C5  UNL     1       0.558   5.404  10.898  1.00  0.00     0.222 C 
HETATM   21  O1  UNL     1       1.143   4.336  11.069  1.00  0.00    -0.273 OA
HETATM   22  N1  UNL     1      -0.700   5.665  11.385  1.00  0.00    -0.360 N 
HETATM   23  H6  UNL     1      -1.128   6.566  11.179  1.00  0.00     0.162 HD
BRANCH  22  24
HETATM   24  C6  UNL     1      -1.500   4.662  12.062  1.00  0.00     0.127 C 
BRANCH  24  25
HETATM   25  C7  UNL     1      -1.935   5.081  13.471  1.00  0.00     0.060 C 
BRANCH  25  26
HETATM   26  C8  UNL     1      -3.393   5.422  13.555  1.00  0.00    -0.029 A 
HETATM   27  C9  UNL     1      -3.940   6.563  14.111  1.00  0.00     0.096 A 
HETATM   28  N2  UNL     1      -5.299   6.505  13.965  1.00  0.00    -0.365 N 
HETATM   29  C10 UNL     1      -5.660   5.344  13.321  1.00  0.00     0.043 A 
HETATM   30  H12 UNL     1      -5.949   7.213  14.278  1.00  0.00     0.165 HD
HETATM   31  C11 UNL     1      -6.926   4.875  12.953  1.00  0.00     0.032 A 
HETATM   32  C15 UNL     1      -4.486   4.637  13.063  1.00  0.00    -0.000 A 
HETATM   33  C12 UNL     1      -6.993   3.642  12.296  1.00  0.00     0.026 A 
HETATM   34  C13 UNL     1      -5.836   2.914  12.031  1.00  0.00     0.035 A 
HETATM   35 CL1  UNL     1      -5.952   1.403  11.211  1.00  0.00    -0.084 Cl
HETATM   36  C14 UNL     1      -4.579   3.390  12.410  1.00  0.00     0.038 A 
ENDBRANCH  25  26
ENDBRANCH  24  25
ENDBRANCH  22  24
ENDBRANCH  19  20
ENDBRANCH   3  19
TORSDOF 5
ENDMDL
MODEL 6
REMARK minimizedAffinity -9.93990707
REMARK  5 active torsions:
REMARK  status: ('A' for Active; 'I' for Inactive)
REMARK    1  A    between atoms: C3_3  and  C4_4 
REMARK    2  A    between atoms: C4_4  and  C5_5 
REMARK       I    between atoms: C5_5  and  N1_7 
REMARK    3  A    between atoms: N1_7  and  C6_8 
REMARK    4  A    between atoms: C6_8  and  C7_9 
REMARK    5  A    between atoms: C7_9  and  C8_10 
ROOT
HETATM    1  C1  UNL     1      -2.173   5.131  13.965  1.00  0.00     0.050 C 
HETATM    2  C2  UNL     1      -2.203   6.591  13.588  1.00  0.00    -0.036 A 
HETATM    3  C3  UNL     1      -3.040   7.493  14.146  1.00  0.00     0.033 A 
HETATM    4  C16 UNL     1      -2.992   8.936  13.782  1.00  0.00     0.295 A 
HETATM    5  O2  UNL     1      -3.716   9.761  14.335  1.00  0.00    -0.259 OA
HETATM    6  O3  UNL     1      -2.101   9.320  12.799  1.00  0.00    -0.274 OA
HETATM    7  C17 UNL     1      -1.234   8.394  12.202  1.00  0.00     0.093 A 
HETATM    8  C18 UNL     1      -0.361   8.902  11.238  1.00  0.00     0.075 A 
HETATM    9  C19 UNL     1       0.541   8.050  10.612  1.00  0.00     0.079 A 
HETATM   10  C20 UNL     1       0.552   6.691  10.931  1.00  0.00    -0.024 A 
HETATM   11  C21 UNL     1      -0.334   6.204  11.911  1.00  0.00     0.024 A 
HETATM   12  C22 UNL     1      -1.243   7.050  12.563  1.00  0.00     0.005 A 
HETATM   13  C23 UNL     1       1.519   5.755  10.269  1.00  0.00     0.044 C 
HETATM   14  C24 UNL     1       2.070   6.374   8.993  1.00  0.00     0.042 C 
HETATM   15  C25 UNL     1       2.471   7.840   9.214  1.00  0.00     0.061 C 
HETATM   16  C26 UNL     1       2.876   8.450   7.864  1.00  0.00     0.046 C 
HETATM   17  C27 UNL     1       3.648   7.996  10.191  1.00  0.00     0.046 C 
HETATM   18  O4  UNL     1       1.364   8.628   9.687  1.00  0.00    -0.340 OA
ENDROOT
BRANCH   3  19
HETATM   19  C4  UNL     1      -4.105   7.181  15.168  1.00  0.00     0.148 C 
BRANCH  19  20
HETATM   20  C5  UNL     1      -5.425   6.909  14.467  1.00  0.00     0.222 C 
HETATM   21  O1  UNL     1      -5.712   7.427  13.390  1.00  0.00    -0.273 OA
HETATM   22  N1  UNL     1      -6.253   6.040  15.135  1.00  0.00    -0.360 N 
HETATM   23  H6  UNL     1      -5.954   5.672  16.037  1.00  0.00     0.162 HD
BRANCH  22  24
HETATM   24  C6  UNL     1      -7.595   5.734  14.679  1.00  0.00     0.127 C 
BRANCH  24  25
HETATM   25  C7  UNL     1      -7.680   5.471  13.170  1.00  0.00     0.060 C 
BRANCH  25  26
HETATM   26  C8  UNL     1      -7.444   4.034  12.813  1.00  0.00    -0.029 A 
HETATM   27  C9  UNL     1      -8.344   2.994  12.951  1.00  0.00     0.096 A 
HETATM   28  N2  UNL     1      -7.753   1.849  12.490  1.00  0.00    -0.365 N 
HETATM   29  C10 UNL     1      -6.478   2.115  12.050  1.00  0.00     0.043 A 
HETATM   30  H12 UNL     1      -8.189   0.937  12.468  1.00  0.00     0.165 HD
HETATM   31  C11 UNL     1      -5.520   1.258  11.493  1.00  0.00     0.032 A 
HETATM   32  C15 UNL     1      -6.249   3.476  12.253  1.00  0.00    -0.000 A 
HETATM   33  C12 UNL     1      -4.289   1.814  11.129  1.00  0.00     0.026 A 
HETATM   34  C13 UNL     1      -4.034   3.169  11.326  1.00  0.00     0.035 A 
HETATM   35 CL1  UNL     1      -2.511   3.823  10.859  1.00  0.00    -0.084 Cl
HETATM   36  C14 UNL     1      -4.996   4.011  11.889  1.00  0.00     0.038 A 
ENDBRANCH  25  26
ENDBRANCH  24  25
ENDBRANCH  22  24
ENDBRANCH  19  20
ENDBRANCH   3  19
TORSDOF 5
ENDMDL
MODEL 7
REMARK minimizedAffinity -9.6652689
REMARK  5 active torsions:
REMARK  status: ('A' for Active; 'I' for Inactive)
REMARK    1  A    between atoms: C3_3  and  C4_4 
REMARK    2  A    between atoms: C4_4  and  C5_5 
REMARK       I    between atoms: C5_5  and  N1_7 
REMARK    3  A    between atoms: N1_7  and  C6_8 
REMARK    4  A    between atoms: C6_8  and  C7_9 
REMARK    5  A    between atoms: C7_9  and  C8_10 
ROOT
HETATM    1  C1  UNL     1       2.172   7.283  13.274  1.00  0.00     0.050 C 
HETATM    2  C2  UNL     1       3.114   7.035  12.123  1.00  0.00    -0.036 A 
HETATM    3  C3  UNL     1       2.710   6.654  10.891  1.00  0.00     0.033 A 
HETATM    4  C16 UNL     1       3.675   6.478   9.771  1.00  0.00     0.295 A 
HETATM    5  O2  UNL     1       3.294   6.188   8.638  1.00  0.00    -0.259 OA
HETATM    6  O3  UNL     1       5.016   6.654  10.045  1.00  0.00    -0.274 OA
HETATM    7  C17 UNL     1       5.453   7.037  11.321  1.00  0.00     0.093 A 
HETATM    8  C18 UNL     1       6.830   7.207  11.475  1.00  0.00     0.075 A 
HETATM    9  C19 UNL     1       7.340   7.604  12.705  1.00  0.00     0.079 A 
HETATM   10  C20 UNL     1       6.477   7.803  13.785  1.00  0.00    -0.024 A 
HETATM   11  C21 UNL     1       5.092   7.631  13.603  1.00  0.00     0.024 A 
HETATM   12  C22 UNL     1       4.556   7.243  12.366  1.00  0.00     0.005 A 
HETATM   13  C23 UNL     1       7.006   8.232  15.121  1.00  0.00     0.044 C 
HETATM   14  C24 UNL     1       8.500   7.960  15.214  1.00  0.00     0.042 C 
HETATM   15  C25 UNL     1       9.227   8.406  13.937  1.00  0.00     0.061 C 
HETATM   16  C26 UNL     1      10.698   7.972  14.029  1.00  0.00     0.046 C 
HETATM   17  C27 UNL     1       9.182   9.928  13.725  1.00  0.00     0.046 C 
HETATM   18  O4  UNL     1       8.696   7.755  12.769  1.00  0.00    -0.340 OA
ENDROOT
BRANCH   3  19
HETATM   19  C4  UNL     1       1.286   6.357  10.493  1.00  0.00     0.148 C 
BRANCH  19  20
HETATM   20  C5  UNL     1       0.447   7.618  10.604  1.00  0.00     0.222 C 
HETATM   21  O1  UNL     1       0.655   8.606   9.902  1.00  0.00    -0.273 OA
HETATM   22  N1  UNL     1      -0.551   7.554  11.545  1.00  0.00    -0.360 N 
HETATM   23  H6  UNL     1      -0.643   6.709  12.106  1.00  0.00     0.162 HD
BRANCH  22  24
HETATM   24  C6  UNL     1      -1.393   8.690  11.870  1.00  0.00     0.127 C 
BRANCH  24  25
HETATM   25  C7  UNL     1      -1.854   8.706  13.332  1.00  0.00     0.060 C 
BRANCH  25  26
HETATM   26  C8  UNL     1      -3.277   8.260  13.501  1.00  0.00    -0.029 A 
HETATM   27  C9  UNL     1      -4.341   9.042  13.906  1.00  0.00     0.096 A 
HETATM   28  N2  UNL     1      -5.469   8.268  13.907  1.00  0.00    -0.365 N 
HETATM   29  C10 UNL     1      -5.168   6.986  13.509  1.00  0.00     0.043 A 
HETATM   30  H12 UNL     1      -6.395   8.588  14.157  1.00  0.00     0.165 HD
HETATM   31  C11 UNL     1      -6.001   5.872  13.354  1.00  0.00     0.032 A 
HETATM   32  C15 UNL     1      -3.796   6.946  13.260  1.00  0.00    -0.000 A 
HETATM   33  C12 UNL     1      -5.412   4.678  12.926  1.00  0.00     0.026 A 
HETATM   34  C13 UNL     1      -4.043   4.610  12.676  1.00  0.00     0.035 A 
HETATM   35 CL1  UNL     1      -3.350   3.127  12.142  1.00  0.00    -0.084 Cl
HETATM   36  C14 UNL     1      -3.222   5.728  12.842  1.00  0.00     0.038 A 
ENDBRANCH  25  26
ENDBRANCH  24  25
ENDBRANCH  22  24
ENDBRANCH  19  20
ENDBRANCH   3  19
TORSDOF 5
ENDMDL
MODEL 8
REMARK minimizedAffinity -9.66243553
REMARK  5 active torsions:
REMARK  status: ('A' for Active; 'I' for Inactive)
REMARK    1  A    between atoms: C3_3  and  C4_4 
REMARK    2  A    between atoms: C4_4  and  C5_5 
REMARK       I    between atoms: C5_5  and  N1_7 
REMARK    3  A    between atoms: N1_7  and  C6_8 
REMARK    4  A    between atoms: C6_8  and  C7_9 
REMARK    5  A    between atoms: C7_9  and  C8_10 
ROOT
HETATM    1  C1  UNL     1      -5.354   6.146  14.484  1.00  0.00     0.050 C 
HETATM    2  C2  UNL     1      -5.086   5.096  13.435  1.00  0.00    -0.036 A 
HETATM    3  C3  UNL     1      -6.002   4.188  13.032  1.00  0.00     0.033 A 
HETATM    4  C16 UNL     1      -5.709   3.208  11.950  1.00  0.00     0.295 A 
HETATM    5  O2  UNL     1      -6.565   2.423  11.548  1.00  0.00    -0.259 OA
HETATM    6  O3  UNL     1      -4.438   3.209  11.410  1.00  0.00    -0.274 OA
HETATM    7  C17 UNL     1      -3.472   4.137  11.826  1.00  0.00     0.093 A 
HETATM    8  C18 UNL     1      -2.231   4.058  11.193  1.00  0.00     0.075 A 
HETATM    9  C19 UNL     1      -1.226   4.954  11.538  1.00  0.00     0.079 A 
HETATM   10  C20 UNL     1      -1.455   5.908  12.531  1.00  0.00    -0.024 A 
HETATM   11  C21 UNL     1      -2.717   5.971  13.151  1.00  0.00     0.024 A 
HETATM   12  C22 UNL     1      -3.749   5.084  12.808  1.00  0.00     0.005 A 
HETATM   13  C23 UNL     1      -0.385   6.886  12.917  1.00  0.00     0.044 C 
HETATM   14  C24 UNL     1       0.977   6.395  12.452  1.00  0.00     0.042 C 
HETATM   15  C25 UNL     1       0.918   5.875  11.008  1.00  0.00     0.061 C 
HETATM   16  C26 UNL     1       2.278   5.258  10.648  1.00  0.00     0.046 C 
HETATM   17  C27 UNL     1       0.599   6.979   9.988  1.00  0.00     0.046 C 
HETATM   18  O4  UNL     1      -0.045   4.815  10.866  1.00  0.00    -0.340 OA
ENDROOT
BRANCH   3  19
HETATM   19  C4  UNL     1      -7.391   4.038  13.600  1.00  0.00     0.148 C 
BRANCH  19  20
HETATM   20  C5  UNL     1      -8.240   5.233  13.203  1.00  0.00     0.222 C 
HETATM   21  O1  UNL     1      -8.302   5.635  12.043  1.00  0.00    -0.273 OA
HETATM   22  N1  UNL     1      -8.926   5.812  14.243  1.00  0.00    -0.360 N 
HETATM   23  H6  UNL     1      -8.802   5.436  15.182  1.00  0.00     0.162 HD
BRANCH  22  24
HETATM   24  C6  UNL     1      -9.710   7.022  14.085  1.00  0.00     0.127 C 
BRANCH  24  25
HETATM   25  C7  UNL     1     -10.818   6.896  13.032  1.00  0.00     0.060 C 
BRANCH  25  26
HETATM   26  C8  UNL     1     -12.193   7.054  13.610  1.00  0.00    -0.029 A 
HETATM   27  C9  UNL     1     -12.898   6.105  14.326  1.00  0.00     0.096 A 
HETATM   28  N2  UNL     1     -14.098   6.648  14.696  1.00  0.00    -0.365 N 
HETATM   29  C10 UNL     1     -14.198   7.940  14.236  1.00  0.00     0.043 A 
HETATM   30  H12 UNL     1     -14.810   6.174  15.234  1.00  0.00     0.165 HD
HETATM   31  C11 UNL     1     -15.233   8.872  14.385  1.00  0.00     0.032 A 
HETATM   32  C15 UNL     1     -13.023   8.219  13.539  1.00  0.00    -0.000 A 
HETATM   33  C12 UNL     1     -15.057  10.132  13.805  1.00  0.00     0.026 A 
HETATM   34  C13 UNL     1     -13.895  10.434  13.099  1.00  0.00     0.035 A 
HETATM   35 CL1  UNL     1     -13.706  11.999  12.403  1.00  0.00    -0.084 Cl
HETATM   36  C14 UNL     1     -12.873   9.493  12.951  1.00  0.00     0.038 A 
ENDBRANCH  25  26
ENDBRANCH  24  25
ENDBRANCH  22  24
ENDBRANCH  19  20
ENDBRANCH   3  19
TORSDOF 5
ENDMDL
MODEL 9
REMARK minimizedAffinity -9.5683279
REMARK  5 active torsions:
REMARK  status: ('A' for Active; 'I' for Inactive)
REMARK    1  A    between atoms: C3_3  and  C4_4 
REMARK    2  A    between atoms: C4_4  and  C5_5 
REMARK       I    between atoms: C5_5  and  N1_7 
REMARK    3  A    between atoms: N1_7  and  C6_8 
REMARK    4  A    between atoms: C6_8  and  C7_9 
REMARK    5  A    between atoms: C7_9  and  C8_10 
ROOT
HETATM    1  C1  UNL     1       0.609   5.826  12.421  1.00  0.00     0.050 C 
HETATM    2  C2  UNL     1       0.063   6.441  13.685  1.00  0.00    -0.036 A 
HETATM    3  C3  UNL     1       0.808   7.164  14.550  1.00  0.00     0.033 A 
HETATM    4  C16 UNL     1       0.209   7.800  15.756  1.00  0.00     0.295 A 
HETATM    5  O2  UNL     1       0.879   8.505  16.507  1.00  0.00    -0.259 OA
HETATM    6  O3  UNL     1      -1.130   7.573  16.003  1.00  0.00    -0.274 OA
HETATM    7  C17 UNL     1      -1.914   6.814  15.122  1.00  0.00     0.093 A 
HETATM    8  C18 UNL     1      -3.260   6.672  15.463  1.00  0.00     0.075 A 
HETATM    9  C19 UNL     1      -4.106   5.948  14.631  1.00  0.00     0.079 A 
HETATM   10  C20 UNL     1      -3.601   5.348  13.476  1.00  0.00    -0.024 A 
HETATM   11  C21 UNL     1      -2.241   5.511  13.150  1.00  0.00     0.024 A 
HETATM   12  C22 UNL     1      -1.373   6.248  13.970  1.00  0.00     0.005 A 
HETATM   13  C23 UNL     1      -4.497   4.565  12.564  1.00  0.00     0.044 C 
HETATM   14  C24 UNL     1      -5.777   4.169  13.285  1.00  0.00     0.042 C 
HETATM   15  C25 UNL     1      -6.356   5.350  14.078  1.00  0.00     0.061 C 
HETATM   16  C26 UNL     1      -7.555   4.853  14.900  1.00  0.00     0.046 C 
HETATM   17  C27 UNL     1      -6.828   6.501  13.176  1.00  0.00     0.046 C 
HETATM   18  O4  UNL     1      -5.409   5.863  15.033  1.00  0.00    -0.340 OA
ENDROOT
BRANCH   3  19
HETATM   19  C4  UNL     1       2.290   7.414  14.428  1.00  0.00     0.148 C 
BRANCH  19  20
HETATM   20  C5  UNL     1       2.536   8.613  13.529  1.00  0.00     0.222 C 
HETATM   21  O1  UNL     1       1.639   9.127  12.865  1.00  0.00    -0.273 OA
HETATM   22  N1  UNL     1       3.833   9.066  13.530  1.00  0.00    -0.360 N 
HETATM   23  H6  UNL     1       4.526   8.569  14.088  1.00  0.00     0.162 HD
BRANCH  22  24
HETATM   24  C6  UNL     1       4.288  10.134  12.662  1.00  0.00     0.127 C 
BRANCH  24  25
HETATM   25  C7  UNL     1       5.218   9.653  11.541  1.00  0.00     0.060 C 
BRANCH  25  26
HETATM   26  C8  UNL     1       5.110   8.179  11.286  1.00  0.00    -0.029 A 
HETATM   27  C9  UNL     1       5.783   7.177  11.959  1.00  0.00     0.096 A 
HETATM   28  N2  UNL     1       5.389   5.972  11.443  1.00  0.00    -0.365 N 
HETATM   29  C10 UNL     1       4.468   6.161  10.440  1.00  0.00     0.043 A 
HETATM   30  H12 UNL     1       5.721   5.069  11.755  1.00  0.00     0.165 HD
HETATM   31  C11 UNL     1       3.794   5.224   9.648  1.00  0.00     0.032 A 
HETATM   32  C15 UNL     1       4.283   7.537  10.308  1.00  0.00    -0.000 A 
HETATM   33  C12 UNL     1       2.896   5.712   8.692  1.00  0.00     0.026 A 
HETATM   34  C13 UNL     1       2.697   7.081   8.537  1.00  0.00     0.035 A 
HETATM   35 CL1  UNL     1       1.578   7.649   7.356  1.00  0.00    -0.084 Cl
HETATM   36  C14 UNL     1       3.382   8.006   9.329  1.00  0.00     0.038 A 
ENDBRANCH  25  26
ENDBRANCH  24  25
ENDBRANCH  22  24
ENDBRANCH  19  20
ENDBRANCH   3  19
TORSDOF 5
ENDMDL
