MODEL 1
REMARK minimizedAffinity -8.4695425
REMARK CNNscore 0.342255712
REMARK CNNaffinity 6.40354013
REMARK  16 active torsions:
REMARK  status: ('A' for Active; 'I' for Inactive)
REMARK    1  A    between atoms: S1_2  and  C2_3 
REMARK    2  A    between atoms: C2_3  and  C3_4 
REMARK    3  A    between atoms: C3_4  and  C4_5 
REMARK    4  A    between atoms: C4_5  and  N1_6 
REMARK    5  A    between atoms: C4_5  and  C33_44 
REMARK       I    between atoms: N1_6  and  C5_7 
REMARK    6  A    between atoms: C5_7  and  C6_9 
REMARK    7  A    between atoms: C6_9  and  N2_11 
REMARK       I    between atoms: N2_11  and  C8_12 
REMARK    8  A    between atoms: C8_12  and  C9_14 
REMARK    9  A    between atoms: C9_14  and  C10_15 
REMARK   10  A    between atoms: C10_15  and  C11_16 
REMARK   11  A    between atoms: C11_16  and  O4_18 
REMARK   12  A    between atoms: O4_18  and  C12_19 
REMARK   13  A    between atoms: C12_19  and  C13_20 
REMARK   14  A    between atoms: C13_20  and  C14_22 
REMARK   15  A    between atoms: C14_22  and  O6_23 
REMARK   16  A    between atoms: C33_44  and  O10_46 
ROOT
HETATM    1  C12 UNL     1       0.047  10.980  15.994  1.00  0.00     0.260 C 
ENDROOT
BRANCH   1   2
HETATM    2  O4  UNL     1       0.316  10.577  17.331  1.00  0.00    -0.314 OA
BRANCH   2   3
HETATM    3  C11 UNL     1      -0.518  11.111  18.267  1.00  0.00     0.259 C 
HETATM    4  O3  UNL     1      -1.516  11.771  18.019  1.00  0.00    -0.265 OA
BRANCH   3   5
HETATM    5  C10 UNL     1       0.003  10.801  19.652  1.00  0.00     0.120 C 
BRANCH   5   6
HETATM    6  C9  UNL     1       1.208  11.666  19.996  1.00  0.00     0.112 C 
BRANCH   6   7
HETATM    7  C8  UNL     1       2.396  10.825  20.428  1.00  0.00     0.218 C 
HETATM    8  N2  UNL     1       3.132  11.414  21.432  1.00  0.00    -0.348 N 
HETATM    9  H14 UNL     1       3.055  12.422  21.525  1.00  0.00     0.163 HD
HETATM   10  O2  UNL     1       2.670   9.740  19.930  1.00  0.00    -0.274 OA
BRANCH   8  11
HETATM   11  C6  UNL     1       4.385  10.832  21.900  1.00  0.00     0.172 C 
HETATM   12  C7  UNL     1       4.120   9.911  23.085  1.00  0.00     0.042 C 
BRANCH  11  13
HETATM   13  C5  UNL     1       5.356  11.963  22.305  1.00  0.00     0.240 C 
HETATM   14  N1  UNL     1       6.604  11.867  21.728  1.00  0.00    -0.345 N 
HETATM   15  H9  UNL     1       6.651  11.367  20.846  1.00  0.00     0.163 HD
HETATM   16  O1  UNL     1       5.059  12.832  23.123  1.00  0.00    -0.271 OA
BRANCH  14  17
HETATM   17  C4  UNL     1       7.628  12.901  21.924  1.00  0.00     0.183 C 
BRANCH  17  18
HETATM   18  C3  UNL     1       6.945  14.228  22.276  1.00  0.00     0.046 C 
BRANCH  18  19
HETATM   19  C2  UNL     1       7.232  15.332  21.256  1.00  0.00     0.076 C 
BRANCH  19  20
HETATM   20  S1  UNL     1       8.756  16.249  21.663  1.00  0.00    -0.173 SA
HETATM   21  C1  UNL     1       9.820  15.706  20.302  1.00  0.00     0.089 C 
ENDBRANCH  19  20
ENDBRANCH  18  19
ENDBRANCH  17  18
BRANCH  17  22
HETATM   22  C33 UNL     1       8.540  12.425  23.055  1.00  0.00     0.163 C 
HETATM   23  O9  UNL     1       8.811  11.268  23.328  1.00  0.00    -0.648 OA
BRANCH  22  24
HETATM   24  O10 UNL     1       9.025  13.434  23.808  1.00  0.00    -0.775 OA
HETATM   25  H46 UNL     1       9.613  12.999  24.462  1.00  0.00     0.167 HD
ENDBRANCH  22  24
ENDBRANCH  17  22
ENDBRANCH  14  17
ENDBRANCH  11  13
ENDBRANCH   8  11
ENDBRANCH   6   7
ENDBRANCH   5   6
ENDBRANCH   3   5
ENDBRANCH   2   3
ENDBRANCH   1   2
BRANCH   1  26
HETATM   26  C13 UNL     1       0.454  10.042  14.861  1.00  0.00     0.185 C 
HETATM   27  O5  UNL     1       1.624   9.645  14.764  1.00  0.00    -0.292 OA
BRANCH  26  28
HETATM   28  C14 UNL     1      -0.595   9.578  13.833  1.00  0.00     0.128 C 
HETATM   29  C15 UNL     1      -0.064   8.867  12.568  1.00  0.00     0.047 C 
HETATM   30  C16 UNL     1      -1.171   7.895  12.113  1.00  0.00     0.009 C 
HETATM   31  C17 UNL     1      -2.314   8.100  13.107  1.00  0.00     0.002 C 
HETATM   32  C18 UNL     1      -3.402   7.024  13.244  1.00  0.00     0.003 C 
HETATM   33  C31 UNL     1      -1.617   8.533  14.415  1.00  0.00     0.005 C 
HETATM   34  C19 UNL     1      -2.981   5.574  12.920  1.00  0.00     0.010 C 
HETATM   35  C28 UNL     1      -4.109   7.040  14.623  1.00  0.00     0.072 C 
HETATM   36  C20 UNL     1      -3.984   4.530  13.444  1.00  0.00     0.035 C 
HETATM   37  C21 UNL     1      -5.369   5.116  13.577  1.00  0.00    -0.067 C 
HETATM   38  C22 UNL     1      -6.384   4.645  12.828  1.00  0.00     0.053 C 
HETATM   39  C26 UNL     1      -5.505   6.321  14.534  1.00  0.00    -0.009 C 
HETATM   40  C23 UNL     1      -7.725   5.274  12.851  1.00  0.00     0.149 C 
HETATM   41  O7  UNL     1      -8.628   4.782  12.178  1.00  0.00    -0.293 OA
HETATM   42  C24 UNL     1      -7.939   6.491  13.721  1.00  0.00     0.084 C 
HETATM   43  C25 UNL     1      -6.634   7.238  13.993  1.00  0.00     0.022 C 
HETATM   44  C27 UNL     1      -5.885   5.789  15.936  1.00  0.00     0.021 C 
HETATM   45  C29 UNL     1      -4.043   8.414  15.291  1.00  0.00     0.133 C 
HETATM   46  O8  UNL     1      -5.016   8.921  15.856  1.00  0.00    -0.297 OA
HETATM   47  C30 UNL     1      -2.683   9.105  15.374  1.00  0.00     0.091 C 
HETATM   48  C32 UNL     1      -0.846   7.374  15.110  1.00  0.00     0.019 C 
BRANCH  28  49
HETATM   49  O6  UNL     1      -1.272  10.758  13.378  1.00  0.00    -0.381 OA
HETATM   50  H21 UNL     1      -1.408  11.348  14.146  1.00  0.00     0.211 HD
ENDBRANCH  28  49
ENDBRANCH  26  28
ENDBRANCH   1  26
TORSDOF 16
ENDMDL
MODEL 2
REMARK minimizedAffinity -7.36408424
REMARK CNNscore 0.327809513
REMARK CNNaffinity 7.33012247
REMARK  16 active torsions:
REMARK  status: ('A' for Active; 'I' for Inactive)
REMARK    1  A    between atoms: S1_2  and  C2_3 
REMARK    2  A    between atoms: C2_3  and  C3_4 
REMARK    3  A    between atoms: C3_4  and  C4_5 
REMARK    4  A    between atoms: C4_5  and  N1_6 
REMARK    5  A    between atoms: C4_5  and  C33_44 
REMARK       I    between atoms: N1_6  and  C5_7 
REMARK    6  A    between atoms: C5_7  and  C6_9 
REMARK    7  A    between atoms: C6_9  and  N2_11 
REMARK       I    between atoms: N2_11  and  C8_12 
REMARK    8  A    between atoms: C8_12  and  C9_14 
REMARK    9  A    between atoms: C9_14  and  C10_15 
REMARK   10  A    between atoms: C10_15  and  C11_16 
REMARK   11  A    between atoms: C11_16  and  O4_18 
REMARK   12  A    between atoms: O4_18  and  C12_19 
REMARK   13  A    between atoms: C12_19  and  C13_20 
REMARK   14  A    between atoms: C13_20  and  C14_22 
REMARK   15  A    between atoms: C14_22  and  O6_23 
REMARK   16  A    between atoms: C33_44  and  O10_46 
ROOT
HETATM    1  C12 UNL     1      -4.705   4.460  12.559  1.00  0.00     0.260 C 
ENDROOT
BRANCH   1   2
HETATM    2  O4  UNL     1      -3.409   3.882  12.466  1.00  0.00    -0.314 OA
BRANCH   2   3
HETATM    3  C11 UNL     1      -2.816   4.002  11.245  1.00  0.00     0.259 C 
HETATM    4  O3  UNL     1      -3.297   3.606  10.193  1.00  0.00    -0.265 OA
BRANCH   3   5
HETATM    5  C10 UNL     1      -1.461   4.654  11.396  1.00  0.00     0.120 C 
BRANCH   5   6
HETATM    6  C9  UNL     1      -1.020   4.682  12.853  1.00  0.00     0.112 C 
BRANCH   6   7
HETATM    7  C8  UNL     1      -0.325   5.985  13.204  1.00  0.00     0.218 C 
HETATM    8  N2  UNL     1       0.962   5.800  13.658  1.00  0.00    -0.348 N 
HETATM    9  H14 UNL     1       1.184   4.888  14.045  1.00  0.00     0.163 HD
HETATM   10  O2  UNL     1      -0.858   7.083  13.096  1.00  0.00    -0.274 OA
BRANCH   8  11
HETATM   11  C6  UNL     1       1.756   6.912  14.169  1.00  0.00     0.172 C 
HETATM   12  C7  UNL     1       0.847   7.931  14.847  1.00  0.00     0.042 C 
BRANCH  11  13
HETATM   13  C5  UNL     1       2.526   7.570  13.004  1.00  0.00     0.240 C 
HETATM   14  N1  UNL     1       3.877   7.293  12.994  1.00  0.00    -0.345 N 
HETATM   15  H9  UNL     1       4.158   6.427  13.444  1.00  0.00     0.163 HD
HETATM   16  O1  UNL     1       1.990   8.329  12.199  1.00  0.00    -0.271 OA
BRANCH  14  17
HETATM   17  C4  UNL     1       4.753   7.756  11.911  1.00  0.00     0.183 C 
BRANCH  17  18
HETATM   18  C3  UNL     1       5.967   8.472  12.514  1.00  0.00     0.046 C 
BRANCH  18  19
HETATM   19  C2  UNL     1       5.673   9.086  13.885  1.00  0.00     0.076 C 
BRANCH  19  20
HETATM   20  S1  UNL     1       7.193   9.289  14.874  1.00  0.00    -0.173 SA
HETATM   21  C1  UNL     1       8.056   7.758  14.439  1.00  0.00     0.089 C 
ENDBRANCH  19  20
ENDBRANCH  18  19
ENDBRANCH  17  18
BRANCH  17  22
HETATM   22  C33 UNL     1       5.172   6.523  11.111  1.00  0.00     0.163 C 
HETATM   23  O9  UNL     1       6.150   5.825  11.317  1.00  0.00    -0.648 OA
BRANCH  22  24
HETATM   24  O10 UNL     1       4.358   6.265  10.066  1.00  0.00    -0.775 OA
HETATM   25  H46 UNL     1       4.715   5.442   9.668  1.00  0.00     0.167 HD
ENDBRANCH  22  24
ENDBRANCH  17  22
ENDBRANCH  14  17
ENDBRANCH  11  13
ENDBRANCH   8  11
ENDBRANCH   6   7
ENDBRANCH   5   6
ENDBRANCH   3   5
ENDBRANCH   2   3
ENDBRANCH   1   2
BRANCH   1  26
HETATM   26  C13 UNL     1      -4.957   5.496  13.651  1.00  0.00     0.185 C 
HETATM   27  O5  UNL     1      -4.150   6.417  13.841  1.00  0.00    -0.292 OA
BRANCH  26  28
HETATM   28  C14 UNL     1      -6.225   5.404  14.521  1.00  0.00     0.128 C 
HETATM   29  C15 UNL     1      -6.048   5.643  16.037  1.00  0.00     0.047 C 
HETATM   30  C16 UNL     1      -7.382   6.225  16.548  1.00  0.00     0.009 C 
HETATM   31  C17 UNL     1      -8.292   6.272  15.320  1.00  0.00     0.002 C 
HETATM   32  C18 UNL     1      -9.534   7.176  15.331  1.00  0.00     0.003 C 
HETATM   33  C31 UNL     1      -7.327   6.455  14.129  1.00  0.00     0.005 C 
HETATM   34  C19 UNL     1      -9.461   8.436  16.220  1.00  0.00     0.010 C 
HETATM   35  C28 UNL     1      -9.998   7.595  13.913  1.00  0.00     0.072 C 
HETATM   36  C20 UNL     1     -10.554   9.467  15.886  1.00  0.00     0.035 C 
HETATM   37  C21 UNL     1     -11.758   8.809  15.259  1.00  0.00    -0.067 C 
HETATM   38  C22 UNL     1     -12.951   8.831  15.884  1.00  0.00     0.053 C 
HETATM   39  C26 UNL     1     -11.504   8.048  13.939  1.00  0.00    -0.009 C 
HETATM   40  C23 UNL     1     -14.122   8.097  15.352  1.00  0.00     0.149 C 
HETATM   41  O7  UNL     1     -15.199   8.182  15.940  1.00  0.00    -0.293 OA
HETATM   42  C24 UNL     1     -13.955   7.283  14.090  1.00  0.00     0.084 C 
HETATM   43  C25 UNL     1     -12.503   6.862  13.868  1.00  0.00     0.022 C 
HETATM   44  C27 UNL     1     -11.756   9.019  12.761  1.00  0.00     0.021 C 
HETATM   45  C29 UNL     1      -9.561   6.595  12.842  1.00  0.00     0.133 C 
HETATM   46  O8  UNL     1     -10.315   6.223  11.939  1.00  0.00    -0.297 OA
HETATM   47  C30 UNL     1      -8.096   6.161  12.823  1.00  0.00     0.091 C 
HETATM   48  C32 UNL     1      -6.698   7.877  14.065  1.00  0.00     0.019 C 
BRANCH  28  49
HETATM   49  O6  UNL     1      -6.721   4.064  14.380  1.00  0.00    -0.381 OA
HETATM   50  H21 UNL     1      -6.617   3.797  13.445  1.00  0.00     0.211 HD
ENDBRANCH  28  49
ENDBRANCH  26  28
ENDBRANCH   1  26
TORSDOF 16
ENDMDL
MODEL 3
REMARK minimizedAffinity -7.67595387
REMARK CNNscore 0.292944133
REMARK CNNaffinity 6.21481848
REMARK  16 active torsions:
REMARK  status: ('A' for Active; 'I' for Inactive)
REMARK    1  A    between atoms: S1_2  and  C2_3 
REMARK    2  A    between atoms: C2_3  and  C3_4 
REMARK    3  A    between atoms: C3_4  and  C4_5 
REMARK    4  A    between atoms: C4_5  and  N1_6 
REMARK    5  A    between atoms: C4_5  and  C33_44 
REMARK       I    between atoms: N1_6  and  C5_7 
REMARK    6  A    between atoms: C5_7  and  C6_9 
REMARK    7  A    between atoms: C6_9  and  N2_11 
REMARK       I    between atoms: N2_11  and  C8_12 
REMARK    8  A    between atoms: C8_12  and  C9_14 
REMARK    9  A    between atoms: C9_14  and  C10_15 
REMARK   10  A    between atoms: C10_15  and  C11_16 
REMARK   11  A    between atoms: C11_16  and  O4_18 
REMARK   12  A    between atoms: O4_18  and  C12_19 
REMARK   13  A    between atoms: C12_19  and  C13_20 
REMARK   14  A    between atoms: C13_20  and  C14_22 
REMARK   15  A    between atoms: C14_22  and  O6_23 
REMARK   16  A    between atoms: C33_44  and  O10_46 
ROOT
HETATM    1  C12 UNL     1       2.150   9.383  14.034  1.00  0.00     0.260 C 
ENDROOT
BRANCH   1   2
HETATM    2  O4  UNL     1       3.172   9.390  15.022  1.00  0.00    -0.314 OA
BRANCH   2   3
HETATM    3  C11 UNL     1       3.990   8.300  15.006  1.00  0.00     0.259 C 
HETATM    4  O3  UNL     1       4.029   7.443  15.877  1.00  0.00    -0.265 OA
BRANCH   3   5
HETATM    5  C10 UNL     1       4.868   8.338  13.777  1.00  0.00     0.120 C 
BRANCH   5   6
HETATM    6  C9  UNL     1       6.073   7.420  13.928  1.00  0.00     0.112 C 
BRANCH   6   7
HETATM    7  C8  UNL     1       7.300   8.179  14.400  1.00  0.00     0.218 C 
HETATM    8  N2  UNL     1       8.253   7.359  14.962  1.00  0.00    -0.348 N 
HETATM    9  H14 UNL     1       7.933   6.467  15.325  1.00  0.00     0.163 HD
HETATM   10  O2  UNL     1       7.423   9.393  14.294  1.00  0.00    -0.274 OA
BRANCH   8  11
HETATM   11  C6  UNL     1       9.449   7.904  15.594  1.00  0.00     0.172 C 
HETATM   12  C7  UNL     1       9.056   8.918  16.662  1.00  0.00     0.042 C 
BRANCH  11  13
HETATM   13  C5  UNL     1      10.338   8.571  14.521  1.00  0.00     0.240 C 
HETATM   14  N1  UNL     1      10.442   9.941  14.649  1.00  0.00    -0.345 N 
HETATM   15  H9  UNL     1      10.301  10.314  15.583  1.00  0.00     0.163 HD
HETATM   16  O1  UNL     1      10.849   7.942  13.597  1.00  0.00    -0.271 OA
BRANCH  14  17
HETATM   17  C4  UNL     1      11.317  10.733  13.777  1.00  0.00     0.183 C 
BRANCH  17  18
HETATM   18  C3  UNL     1      12.709  10.091  13.738  1.00  0.00     0.046 C 
BRANCH  18  19
HETATM   19  C2  UNL     1      13.705  10.777  14.676  1.00  0.00     0.076 C 
BRANCH  19  20
HETATM   20  S1  UNL     1      13.757  12.581  14.404  1.00  0.00    -0.173 SA
HETATM   21  C1  UNL     1      13.196  13.157  16.026  1.00  0.00     0.089 C 
ENDBRANCH  19  20
ENDBRANCH  18  19
ENDBRANCH  17  18
BRANCH  17  22
HETATM   22  C33 UNL     1      10.673  10.755  12.390  1.00  0.00     0.163 C 
HETATM   23  O9  UNL     1      11.221  11.048  11.342  1.00  0.00    -0.648 OA
BRANCH  22  24
HETATM   24  O10 UNL     1       9.359  10.448  12.409  1.00  0.00    -0.775 OA
HETATM   25  H46 UNL     1       9.084  10.463  11.467  1.00  0.00     0.167 HD
ENDBRANCH  22  24
ENDBRANCH  17  22
ENDBRANCH  14  17
ENDBRANCH  11  13
ENDBRANCH   8  11
ENDBRANCH   6   7
ENDBRANCH   5   6
ENDBRANCH   3   5
ENDBRANCH   2   3
ENDBRANCH   1   2
BRANCH   1  26
HETATM   26  C13 UNL     1       0.699   9.492  14.495  1.00  0.00     0.185 C 
HETATM   27  O5  UNL     1       0.432   9.876  15.644  1.00  0.00    -0.292 OA
BRANCH  26  28
HETATM   28  C14 UNL     1      -0.444   9.129  13.529  1.00  0.00     0.128 C 
HETATM   29  C15 UNL     1      -0.048   8.411  12.219  1.00  0.00     0.047 C 
HETATM   30  C16 UNL     1      -1.252   7.534  11.819  1.00  0.00     0.009 C 
HETATM   31  C17 UNL     1      -2.312   7.800  12.888  1.00  0.00     0.002 C 
HETATM   32  C18 UNL     1      -3.467   6.803  13.076  1.00  0.00     0.003 C 
HETATM   33  C31 UNL     1      -1.503   8.150  14.156  1.00  0.00     0.005 C 
HETATM   34  C19 UNL     1      -3.177   5.334  12.699  1.00  0.00     0.010 C 
HETATM   35  C28 UNL     1      -4.081   6.840  14.498  1.00  0.00     0.072 C 
HETATM   36  C20 UNL     1      -4.220   4.356  13.268  1.00  0.00     0.035 C 
HETATM   37  C21 UNL     1      -5.546   5.039  13.500  1.00  0.00    -0.067 C 
HETATM   38  C22 UNL     1      -6.638   4.662  12.809  1.00  0.00     0.053 C 
HETATM   39  C26 UNL     1      -5.531   6.228  14.486  1.00  0.00    -0.009 C 
HETATM   40  C23 UNL     1      -7.924   5.387  12.931  1.00  0.00     0.149 C 
HETATM   41  O7  UNL     1      -8.903   4.978  12.308  1.00  0.00    -0.293 OA
HETATM   42  C24 UNL     1      -7.992   6.596  13.834  1.00  0.00     0.084 C 
HETATM   43  C25 UNL     1      -6.620   7.239  14.035  1.00  0.00     0.022 C 
HETATM   44  C27 UNL     1      -5.861   5.694  15.899  1.00  0.00     0.021 C 
HETATM   45  C29 UNL     1      -3.871   8.190  15.184  1.00  0.00     0.133 C 
HETATM   46  O8  UNL     1      -4.766   8.754  15.820  1.00  0.00    -0.297 OA
HETATM   47  C30 UNL     1      -2.460   8.777  15.193  1.00  0.00     0.091 C 
HETATM   48  C32 UNL     1      -0.779   6.921  14.779  1.00  0.00     0.019 C 
BRANCH  28  49
HETATM   49  O6  UNL     1      -1.058  10.367  13.139  1.00  0.00    -0.381 OA
HETATM   50  H21 UNL     1      -1.101  10.947  13.925  1.00  0.00     0.211 HD
ENDBRANCH  28  49
ENDBRANCH  26  28
ENDBRANCH   1  26
TORSDOF 16
ENDMDL
MODEL 4
REMARK minimizedAffinity -8.72957611
REMARK CNNscore 0.237144276
REMARK CNNaffinity 7.35354996
REMARK  16 active torsions:
REMARK  status: ('A' for Active; 'I' for Inactive)
REMARK    1  A    between atoms: S1_2  and  C2_3 
REMARK    2  A    between atoms: C2_3  and  C3_4 
REMARK    3  A    between atoms: C3_4  and  C4_5 
REMARK    4  A    between atoms: C4_5  and  N1_6 
REMARK    5  A    between atoms: C4_5  and  C33_44 
REMARK       I    between atoms: N1_6  and  C5_7 
REMARK    6  A    between atoms: C5_7  and  C6_9 
REMARK    7  A    between atoms: C6_9  and  N2_11 
REMARK       I    between atoms: N2_11  and  C8_12 
REMARK    8  A    between atoms: C8_12  and  C9_14 
REMARK    9  A    between atoms: C9_14  and  C10_15 
REMARK   10  A    between atoms: C10_15  and  C11_16 
REMARK   11  A    between atoms: C11_16  and  O4_18 
REMARK   12  A    between atoms: O4_18  and  C12_19 
REMARK   13  A    between atoms: C12_19  and  C13_20 
REMARK   14  A    between atoms: C13_20  and  C14_22 
REMARK   15  A    between atoms: C14_22  and  O6_23 
REMARK   16  A    between atoms: C33_44  and  O10_46 
ROOT
HETATM    1  C12 UNL     1      -6.029   3.843  12.816  1.00  0.00     0.260 C 
ENDROOT
BRANCH   1   2
HETATM    2  O4  UNL     1      -4.856   3.206  12.325  1.00  0.00    -0.314 OA
BRANCH   2   3
HETATM    3  C11 UNL     1      -4.645   3.350  10.986  1.00  0.00     0.259 C 
HETATM    4  O3  UNL     1      -5.508   3.241  10.127  1.00  0.00    -0.265 OA
BRANCH   3   5
HETATM    5  C10 UNL     1      -3.181   3.618  10.725  1.00  0.00     0.120 C 
BRANCH   5   6
HETATM    6  C9  UNL     1      -2.330   2.395  11.040  1.00  0.00     0.112 C 
BRANCH   6   7
HETATM    7  C8  UNL     1      -0.925   2.785  11.463  1.00  0.00     0.218 C 
HETATM    8  N2  UNL     1      -0.869   4.027  12.054  1.00  0.00    -0.348 N 
HETATM    9  H14 UNL     1      -1.621   4.672  11.836  1.00  0.00     0.163 HD
HETATM   10  O2  UNL     1       0.054   2.068  11.291  1.00  0.00    -0.274 OA
BRANCH   8  11
HETATM   11  C6  UNL     1       0.404   4.642  12.414  1.00  0.00     0.172 C 
HETATM   12  C7  UNL     1       0.189   5.675  13.515  1.00  0.00     0.042 C 
BRANCH  11  13
HETATM   13  C5  UNL     1       1.022   5.310  11.166  1.00  0.00     0.240 C 
HETATM   14  N1  UNL     1       2.399   5.250  11.120  1.00  0.00    -0.345 N 
HETATM   15  H9  UNL     1       2.830   4.483  11.626  1.00  0.00     0.163 HD
HETATM   16  O1  UNL     1       0.347   5.900  10.326  1.00  0.00    -0.271 OA
BRANCH  14  17
HETATM   17  C4  UNL     1       3.155   5.750   9.965  1.00  0.00     0.183 C 
BRANCH  17  18
HETATM   18  C3  UNL     1       4.480   6.351  10.450  1.00  0.00     0.046 C 
BRANCH  18  19
HETATM   19  C2  UNL     1       4.367   6.998  11.832  1.00  0.00     0.076 C 
BRANCH  19  20
HETATM   20  S1  UNL     1       3.924   8.764  11.717  1.00  0.00    -0.173 SA
HETATM   21  C1  UNL     1       5.391   9.399  10.867  1.00  0.00     0.089 C 
ENDBRANCH  19  20
ENDBRANCH  18  19
ENDBRANCH  17  18
BRANCH  17  22
HETATM   22  C33 UNL     1       3.390   4.562   9.031  1.00  0.00     0.163 C 
HETATM   23  O9  UNL     1       3.488   4.604   7.817  1.00  0.00    -0.648 OA
BRANCH  22  24
HETATM   24  O10 UNL     1       3.442   3.379   9.678  1.00  0.00    -0.775 OA
HETATM   25  H46 UNL     1       3.629   2.718   8.977  1.00  0.00     0.167 HD
ENDBRANCH  22  24
ENDBRANCH  17  22
ENDBRANCH  14  17
ENDBRANCH  11  13
ENDBRANCH   8  11
ENDBRANCH   6   7
ENDBRANCH   5   6
ENDBRANCH   3   5
ENDBRANCH   2   3
ENDBRANCH   1   2
BRANCH   1  26
HETATM   26  C13 UNL     1      -5.865   5.021  13.771  1.00  0.00     0.185 C 
HETATM   27  O5  UNL     1      -4.845   5.725  13.730  1.00  0.00    -0.292 OA
BRANCH  26  28
HETATM   28  C14 UNL     1      -6.973   5.346  14.789  1.00  0.00     0.128 C 
HETATM   29  C15 UNL     1      -6.518   5.819  16.189  1.00  0.00     0.047 C 
HETATM   30  C16 UNL     1      -7.632   6.741  16.725  1.00  0.00     0.009 C 
HETATM   31  C17 UNL     1      -8.705   6.743  15.636  1.00  0.00     0.002 C 
HETATM   32  C18 UNL     1      -9.755   7.864  15.608  1.00  0.00     0.003 C 
HETATM   33  C31 UNL     1      -7.927   6.507  14.324  1.00  0.00     0.005 C 
HETATM   34  C19 UNL     1      -9.325   9.225  16.197  1.00  0.00     0.010 C 
HETATM   35  C28 UNL     1     -10.361   8.101  14.202  1.00  0.00     0.072 C 
HETATM   36  C20 UNL     1     -10.263  10.375  15.790  1.00  0.00     0.035 C 
HETATM   37  C21 UNL     1     -11.648   9.868  15.468  1.00  0.00    -0.067 C 
HETATM   38  C22 UNL     1     -12.703  10.244  16.216  1.00  0.00     0.053 C 
HETATM   39  C26 UNL     1     -11.743   8.843  14.316  1.00  0.00    -0.009 C 
HETATM   40  C23 UNL     1     -14.053   9.675  15.998  1.00  0.00     0.149 C 
HETATM   41  O7  UNL     1     -14.991  10.080  16.682  1.00  0.00    -0.293 OA
HETATM   42  C24 UNL     1     -14.233   8.626  14.925  1.00  0.00     0.084 C 
HETATM   43  C25 UNL     1     -12.929   7.889  14.620  1.00  0.00     0.022 C 
HETATM   44  C27 UNL     1     -12.009   9.612  13.001  1.00  0.00     0.021 C 
HETATM   45  C29 UNL     1     -10.280   6.854  13.320  1.00  0.00     0.133 C 
HETATM   46  O8  UNL     1     -11.221   6.482  12.614  1.00  0.00    -0.297 OA
HETATM   47  C30 UNL     1      -8.933   6.139  13.213  1.00  0.00     0.091 C 
HETATM   48  C32 UNL     1      -7.081   7.738  13.886  1.00  0.00     0.019 C 
BRANCH  28  49
HETATM   49  O6  UNL     1      -7.708   4.131  14.995  1.00  0.00    -0.381 OA
HETATM   50  H21 UNL     1      -7.803   3.681  14.132  1.00  0.00     0.211 HD
ENDBRANCH  28  49
ENDBRANCH  26  28
ENDBRANCH   1  26
TORSDOF 16
ENDMDL
MODEL 5
REMARK minimizedAffinity -7.58037901
REMARK CNNscore 0.223871052
REMARK CNNaffinity 6.08075094
REMARK  16 active torsions:
REMARK  status: ('A' for Active; 'I' for Inactive)
REMARK    1  A    between atoms: S1_2  and  C2_3 
REMARK    2  A    between atoms: C2_3  and  C3_4 
REMARK    3  A    between atoms: C3_4  and  C4_5 
REMARK    4  A    between atoms: C4_5  and  N1_6 
REMARK    5  A    between atoms: C4_5  and  C33_44 
REMARK       I    between atoms: N1_6  and  C5_7 
REMARK    6  A    between atoms: C5_7  and  C6_9 
REMARK    7  A    between atoms: C6_9  and  N2_11 
REMARK       I    between atoms: N2_11  and  C8_12 
REMARK    8  A    between atoms: C8_12  and  C9_14 
REMARK    9  A    between atoms: C9_14  and  C10_15 
REMARK   10  A    between atoms: C10_15  and  C11_16 
REMARK   11  A    between atoms: C11_16  and  O4_18 
REMARK   12  A    between atoms: O4_18  and  C12_19 
REMARK   13  A    between atoms: C12_19  and  C13_20 
REMARK   14  A    between atoms: C13_20  and  C14_22 
REMARK   15  A    between atoms: C14_22  and  O6_23 
REMARK   16  A    between atoms: C33_44  and  O10_46 
ROOT
HETATM    1  C12 UNL     1      -4.145   6.807  14.282  1.00  0.00     0.260 C 
ENDROOT
BRANCH   1   2
HETATM    2  O4  UNL     1      -5.242   6.229  14.980  1.00  0.00    -0.314 OA
BRANCH   2   3
HETATM    3  C11 UNL     1      -6.127   7.127  15.497  1.00  0.00     0.259 C 
HETATM    4  O3  UNL     1      -5.976   8.340  15.489  1.00  0.00    -0.265 OA
BRANCH   3   5
HETATM    5  C10 UNL     1      -7.293   6.394  16.118  1.00  0.00     0.120 C 
BRANCH   5   6
HETATM    6  C9  UNL     1      -8.579   7.202  16.004  1.00  0.00     0.112 C 
BRANCH   6   7
HETATM    7  C8  UNL     1      -9.296   6.933  14.693  1.00  0.00     0.218 C 
HETATM    8  N2  UNL     1     -10.437   7.688  14.542  1.00  0.00    -0.348 N 
HETATM    9  H14 UNL     1     -10.868   8.041  15.390  1.00  0.00     0.163 HD
HETATM   10  O2  UNL     1      -8.899   6.124  13.862  1.00  0.00    -0.274 OA
BRANCH   8  11
HETATM   11  C6  UNL     1     -11.339   7.487  13.413  1.00  0.00     0.172 C 
HETATM   12  C7  UNL     1     -11.558   8.807  12.682  1.00  0.00     0.042 C 
BRANCH  11  13
HETATM   13  C5  UNL     1     -12.684   6.928  13.925  1.00  0.00     0.240 C 
HETATM   14  N1  UNL     1     -13.679   7.875  14.046  1.00  0.00    -0.345 N 
HETATM   15  H9  UNL     1     -13.593   8.691  13.446  1.00  0.00     0.163 HD
HETATM   16  O1  UNL     1     -12.831   5.754  14.260  1.00  0.00    -0.271 OA
BRANCH  14  17
HETATM   17  C4  UNL     1     -15.049   7.513  14.429  1.00  0.00     0.183 C 
BRANCH  17  18
HETATM   18  C3  UNL     1     -15.592   6.472  13.443  1.00  0.00     0.046 C 
BRANCH  18  19
HETATM   19  C2  UNL     1     -17.027   6.766  13.001  1.00  0.00     0.076 C 
BRANCH  19  20
HETATM   20  S1  UNL     1     -17.383   8.556  13.009  1.00  0.00    -0.173 SA
HETATM   21  C1  UNL     1     -18.148   8.729  11.377  1.00  0.00     0.089 C 
ENDBRANCH  19  20
ENDBRANCH  18  19
ENDBRANCH  17  18
BRANCH  17  22
HETATM   22  C33 UNL     1     -14.987   6.956  15.852  1.00  0.00     0.163 C 
HETATM   23  O9  UNL     1     -15.726   6.114  16.332  1.00  0.00    -0.648 OA
BRANCH  22  24
HETATM   24  O10 UNL     1     -14.022   7.525  16.605  1.00  0.00    -0.775 OA
HETATM   25  H46 UNL     1     -14.069   7.059  17.467  1.00  0.00     0.167 HD
ENDBRANCH  22  24
ENDBRANCH  17  22
ENDBRANCH  14  17
ENDBRANCH  11  13
ENDBRANCH   8  11
ENDBRANCH   6   7
ENDBRANCH   5   6
ENDBRANCH   3   5
ENDBRANCH   2   3
ENDBRANCH   1   2
BRANCH   1  26
HETATM   26  C13 UNL     1      -2.789   6.853  14.980  1.00  0.00     0.185 C 
HETATM   27  O5  UNL     1      -2.659   7.444  16.062  1.00  0.00    -0.292 OA
BRANCH  26  28
HETATM   28  C14 UNL     1      -1.572   6.156  14.343  1.00  0.00     0.128 C 
HETATM   29  C15 UNL     1      -1.855   5.199  13.163  1.00  0.00     0.047 C 
HETATM   30  C16 UNL     1      -0.601   5.224  12.267  1.00  0.00     0.009 C 
HETATM   31  C17 UNL     1       0.375   6.165  12.974  1.00  0.00     0.002 C 
HETATM   32  C18 UNL     1       1.545   6.775  12.187  1.00  0.00     0.003 C 
HETATM   33  C31 UNL     1      -0.528   7.161  13.732  1.00  0.00     0.005 C 
HETATM   34  C19 UNL     1       1.327   6.971  10.670  1.00  0.00     0.010 C 
HETATM   35  C28 UNL     1       2.061   8.106  12.790  1.00  0.00     0.072 C 
HETATM   36  C20 UNL     1       2.360   7.920  10.037  1.00  0.00     0.035 C 
HETATM   37  C21 UNL     1       3.645   7.943  10.829  1.00  0.00    -0.067 C 
HETATM   38  C22 UNL     1       4.793   7.504  10.279  1.00  0.00     0.053 C 
HETATM   39  C26 UNL     1       3.526   8.401  12.299  1.00  0.00    -0.009 C 
HETATM   40  C23 UNL     1       6.045   7.406  11.066  1.00  0.00     0.149 C 
HETATM   41  O7  UNL     1       7.075   7.036  10.506  1.00  0.00    -0.293 OA
HETATM   42  C24 UNL     1       6.013   7.785  12.528  1.00  0.00     0.084 C 
HETATM   43  C25 UNL     1       4.611   7.656  13.123  1.00  0.00     0.022 C 
HETATM   44  C27 UNL     1       3.776   9.926  12.356  1.00  0.00     0.021 C 
HETATM   45  C29 UNL     1       1.763   8.217  14.286  1.00  0.00     0.133 C 
HETATM   46  O8  UNL     1       2.594   8.635  15.096  1.00  0.00    -0.297 OA
HETATM   47  C30 UNL     1       0.336   7.929  14.754  1.00  0.00     0.091 C 
HETATM   48  C32 UNL     1      -1.254   8.166  12.791  1.00  0.00     0.019 C 
BRANCH  28  49
HETATM   49  O6  UNL     1      -0.972   5.358  15.373  1.00  0.00    -0.381 OA
HETATM   50  H21 UNL     1      -1.001   5.865  16.209  1.00  0.00     0.211 HD
ENDBRANCH  28  49
ENDBRANCH  26  28
ENDBRANCH   1  26
TORSDOF 16
ENDMDL
MODEL 6
REMARK minimizedAffinity -7.87269163
REMARK CNNscore 0.212702051
REMARK CNNaffinity 6.79684258
REMARK  16 active torsions:
REMARK  status: ('A' for Active; 'I' for Inactive)
REMARK    1  A    between atoms: S1_2  and  C2_3 
REMARK    2  A    between atoms: C2_3  and  C3_4 
REMARK    3  A    between atoms: C3_4  and  C4_5 
REMARK    4  A    between atoms: C4_5  and  N1_6 
REMARK    5  A    between atoms: C4_5  and  C33_44 
REMARK       I    between atoms: N1_6  and  C5_7 
REMARK    6  A    between atoms: C5_7  and  C6_9 
REMARK    7  A    between atoms: C6_9  and  N2_11 
REMARK       I    between atoms: N2_11  and  C8_12 
REMARK    8  A    between atoms: C8_12  and  C9_14 
REMARK    9  A    between atoms: C9_14  and  C10_15 
REMARK   10  A    between atoms: C10_15  and  C11_16 
REMARK   11  A    between atoms: C11_16  and  O4_18 
REMARK   12  A    between atoms: O4_18  and  C12_19 
REMARK   13  A    between atoms: C12_19  and  C13_20 
REMARK   14  A    between atoms: C13_20  and  C14_22 
REMARK   15  A    between atoms: C14_22  and  O6_23 
REMARK   16  A    between atoms: C33_44  and  O10_46 
ROOT
HETATM    1  C12 UNL     1      -4.430   5.397  14.330  1.00  0.00     0.260 C 
ENDROOT
BRANCH   1   2
HETATM    2  O4  UNL     1      -3.694   6.425  13.678  1.00  0.00    -0.314 OA
BRANCH   2   3
HETATM    3  C11 UNL     1      -3.192   7.382  14.508  1.00  0.00     0.259 C 
HETATM    4  O3  UNL     1      -3.833   7.967  15.369  1.00  0.00    -0.265 OA
BRANCH   3   5
HETATM    5  C10 UNL     1      -1.741   7.640  14.171  1.00  0.00     0.120 C 
BRANCH   5   6
HETATM    6  C9  UNL     1      -1.360   7.004  12.841  1.00  0.00     0.112 C 
BRANCH   6   7
HETATM    7  C8  UNL     1      -0.964   8.048  11.813  1.00  0.00     0.218 C 
HETATM    8  N2  UNL     1      -0.087   7.564  10.869  1.00  0.00    -0.348 N 
HETATM    9  H14 UNL     1       0.464   6.751  11.129  1.00  0.00     0.163 HD
HETATM   10  O2  UNL     1      -1.381   9.200  11.828  1.00  0.00    -0.274 OA
BRANCH   8  11
HETATM   11  C6  UNL     1       0.516   8.439   9.870  1.00  0.00     0.172 C 
HETATM   12  C7  UNL     1      -0.473   8.695   8.739  1.00  0.00     0.042 C 
BRANCH  11  13
HETATM   13  C5  UNL     1       1.801   7.781   9.320  1.00  0.00     0.240 C 
HETATM   14  N1  UNL     1       2.588   7.189  10.286  1.00  0.00    -0.345 N 
HETATM   15  H9  UNL     1       2.108   6.883  11.127  1.00  0.00     0.163 HD
HETATM   16  O1  UNL     1       2.124   7.842   8.136  1.00  0.00    -0.271 OA
BRANCH  14  17
HETATM   17  C4  UNL     1       3.799   6.436   9.941  1.00  0.00     0.183 C 
BRANCH  17  18
HETATM   18  C3  UNL     1       4.792   6.513  11.107  1.00  0.00     0.046 C 
BRANCH  18  19
HETATM   19  C2  UNL     1       4.345   7.482  12.203  1.00  0.00     0.076 C 
BRANCH  19  20
HETATM   20  S1  UNL     1       5.764   8.334  12.972  1.00  0.00    -0.173 SA
HETATM   21  C1  UNL     1       5.628   7.701  14.664  1.00  0.00     0.089 C 
ENDBRANCH  19  20
ENDBRANCH  18  19
ENDBRANCH  17  18
BRANCH  17  22
HETATM   22  C33 UNL     1       3.372   4.994   9.666  1.00  0.00     0.163 C 
HETATM   23  O9  UNL     1       3.742   4.293   8.739  1.00  0.00    -0.648 OA
BRANCH  22  24
HETATM   24  O10 UNL     1       2.464   4.530  10.550  1.00  0.00    -0.775 OA
HETATM   25  H46 UNL     1       2.307   3.599  10.283  1.00  0.00     0.167 HD
ENDBRANCH  22  24
ENDBRANCH  17  22
ENDBRANCH  14  17
ENDBRANCH  11  13
ENDBRANCH   8  11
ENDBRANCH   6   7
ENDBRANCH   5   6
ENDBRANCH   3   5
ENDBRANCH   2   3
ENDBRANCH   1   2
BRANCH   1  26
HETATM   26  C13 UNL     1      -5.878   5.166  13.906  1.00  0.00     0.185 C 
HETATM   27  O5  UNL     1      -6.140   4.759  12.765  1.00  0.00    -0.292 OA
BRANCH  26  28
HETATM   28  C14 UNL     1      -7.023   5.432  14.901  1.00  0.00     0.128 C 
HETATM   29  C15 UNL     1      -6.619   5.854  16.332  1.00  0.00     0.047 C 
HETATM   30  C16 UNL     1      -7.764   6.736  16.869  1.00  0.00     0.009 C 
HETATM   31  C17 UNL     1      -8.803   6.766  15.748  1.00  0.00     0.002 C 
HETATM   32  C18 UNL     1      -9.871   7.871  15.732  1.00  0.00     0.003 C 
HETATM   33  C31 UNL     1      -7.981   6.596  14.453  1.00  0.00     0.005 C 
HETATM   34  C19 UNL     1      -9.482   9.213  16.388  1.00  0.00     0.010 C 
HETATM   35  C28 UNL     1     -10.437   8.154  14.317  1.00  0.00     0.072 C 
HETATM   36  C20 UNL     1     -10.426  10.364  15.998  1.00  0.00     0.035 C 
HETATM   37  C21 UNL     1     -11.792   9.849  15.612  1.00  0.00    -0.067 C 
HETATM   38  C22 UNL     1     -12.875  10.177  16.341  1.00  0.00     0.053 C 
HETATM   39  C26 UNL     1     -11.834   8.870  14.418  1.00  0.00    -0.009 C 
HETATM   40  C23 UNL     1     -14.209   9.596  16.058  1.00  0.00     0.149 C 
HETATM   41  O7  UNL     1     -15.174   9.959  16.728  1.00  0.00    -0.293 OA
HETATM   42  C24 UNL     1     -14.337   8.589  14.939  1.00  0.00     0.084 C 
HETATM   43  C25 UNL     1     -13.012   7.886  14.645  1.00  0.00     0.022 C 
HETATM   44  C27 UNL     1     -12.072   9.688  13.127  1.00  0.00     0.021 C 
HETATM   45  C29 UNL     1     -10.307   6.946  13.389  1.00  0.00     0.133 C 
HETATM   46  O8  UNL     1     -11.220   6.588  12.640  1.00  0.00    -0.297 OA
HETATM   47  C30 UNL     1      -8.946   6.258  13.297  1.00  0.00     0.091 C 
HETATM   48  C32 UNL     1      -7.143   7.856  14.091  1.00  0.00     0.019 C 
BRANCH  28  49
HETATM   49  O6  UNL     1      -7.743   4.198  15.035  1.00  0.00    -0.381 OA
HETATM   50  H21 UNL     1      -7.803   3.782  14.152  1.00  0.00     0.211 HD
ENDBRANCH  28  49
ENDBRANCH  26  28
ENDBRANCH   1  26
TORSDOF 16
ENDMDL
MODEL 7
REMARK minimizedAffinity -7.33920717
REMARK CNNscore 0.208435789
REMARK CNNaffinity 5.86329412
REMARK  16 active torsions:
REMARK  status: ('A' for Active; 'I' for Inactive)
REMARK    1  A    between atoms: S1_2  and  C2_3 
REMARK    2  A    between atoms: C2_3  and  C3_4 
REMARK    3  A    between atoms: C3_4  and  C4_5 
REMARK    4  A    between atoms: C4_5  and  N1_6 
REMARK    5  A    between atoms: C4_5  and  C33_44 
REMARK       I    between atoms: N1_6  and  C5_7 
REMARK    6  A    between atoms: C5_7  and  C6_9 
REMARK    7  A    between atoms: C6_9  and  N2_11 
REMARK       I    between atoms: N2_11  and  C8_12 
REMARK    8  A    between atoms: C8_12  and  C9_14 
REMARK    9  A    between atoms: C9_14  and  C10_15 
REMARK   10  A    between atoms: C10_15  and  C11_16 
REMARK   11  A    between atoms: C11_16  and  O4_18 
REMARK   12  A    between atoms: O4_18  and  C12_19 
REMARK   13  A    between atoms: C12_19  and  C13_20 
REMARK   14  A    between atoms: C13_20  and  C14_22 
REMARK   15  A    between atoms: C14_22  and  O6_23 
REMARK   16  A    between atoms: C33_44  and  O10_46 
ROOT
HETATM    1  C12 UNL     1       4.821   7.291  11.977  1.00  0.00     0.260 C 
ENDROOT
BRANCH   1   2
HETATM    2  O4  UNL     1       3.731   7.538  11.098  1.00  0.00    -0.314 OA
BRANCH   2   3
HETATM    3  C11 UNL     1       2.946   6.454  10.841  1.00  0.00     0.259 C 
HETATM    4  O3  UNL     1       3.305   5.462  10.223  1.00  0.00    -0.265 OA
BRANCH   3   5
HETATM    5  C10 UNL     1       1.559   6.684  11.396  1.00  0.00     0.120 C 
BRANCH   5   6
HETATM    6  C9  UNL     1       0.493   6.094  10.483  1.00  0.00     0.112 C 
BRANCH   6   7
HETATM    7  C8  UNL     1      -0.343   5.049  11.199  1.00  0.00     0.218 C 
HETATM    8  N2  UNL     1      -1.429   5.588  11.852  1.00  0.00    -0.348 N 
HETATM    9  H14 UNL     1      -1.375   6.572  12.096  1.00  0.00     0.163 HD
HETATM   10  O2  UNL     1      -0.073   3.854  11.198  1.00  0.00    -0.274 OA
BRANCH   8  11
HETATM   11  C6  UNL     1      -2.285   4.773  12.707  1.00  0.00     0.172 C 
HETATM   12  C7  UNL     1      -2.633   3.468  12.000  1.00  0.00     0.042 C 
BRANCH  11  13
HETATM   13  C5  UNL     1      -3.570   5.560  13.045  1.00  0.00     0.240 C 
HETATM   14  N1  UNL     1      -3.344   6.756  13.693  1.00  0.00    -0.345 N 
HETATM   15  H9  UNL     1      -2.440   7.188  13.530  1.00  0.00     0.163 HD
HETATM   16  O1  UNL     1      -4.696   5.123  12.816  1.00  0.00    -0.271 OA
BRANCH  14  17
HETATM   17  C4  UNL     1      -4.438   7.681  14.011  1.00  0.00     0.183 C 
BRANCH  17  18
HETATM   18  C3  UNL     1      -5.258   7.113  15.176  1.00  0.00     0.046 C 
BRANCH  18  19
HETATM   19  C2  UNL     1      -6.767   7.182  14.929  1.00  0.00     0.076 C 
BRANCH  19  20
HETATM   20  S1  UNL     1      -7.705   7.265  16.492  1.00  0.00    -0.173 SA
HETATM   21  C1  UNL     1      -9.361   6.856  15.885  1.00  0.00     0.089 C 
ENDBRANCH  19  20
ENDBRANCH  18  19
ENDBRANCH  17  18
BRANCH  17  22
HETATM   22  C33 UNL     1      -3.803   9.023  14.377  1.00  0.00     0.163 C 
HETATM   23  O9  UNL     1      -2.613   9.286  14.369  1.00  0.00    -0.648 OA
BRANCH  22  24
HETATM   24  O10 UNL     1      -4.702   9.946  14.777  1.00  0.00    -0.775 OA
HETATM   25  H46 UNL     1      -4.173  10.755  14.944  1.00  0.00     0.167 HD
ENDBRANCH  22  24
ENDBRANCH  17  22
ENDBRANCH  14  17
ENDBRANCH  11  13
ENDBRANCH   8  11
ENDBRANCH   6   7
ENDBRANCH   5   6
ENDBRANCH   3   5
ENDBRANCH   2   3
ENDBRANCH   1   2
BRANCH   1  26
HETATM   26  C13 UNL     1       4.889   8.079  13.282  1.00  0.00     0.185 C 
HETATM   27  O5  UNL     1       4.016   8.916  13.556  1.00  0.00    -0.292 OA
BRANCH  26  28
HETATM   28  C14 UNL     1       6.044   7.831  14.271  1.00  0.00     0.128 C 
HETATM   29  C15 UNL     1       7.264   7.048  13.735  1.00  0.00     0.047 C 
HETATM   30  C16 UNL     1       8.487   7.541  14.535  1.00  0.00     0.009 C 
HETATM   31  C17 UNL     1       7.929   8.564  15.525  1.00  0.00     0.002 C 
HETATM   32  C18 UNL     1       8.879   9.575  16.187  1.00  0.00     0.003 C 
HETATM   33  C31 UNL     1       6.693   9.156  14.815  1.00  0.00     0.005 C 
HETATM   34  C19 UNL     1      10.139   9.963  15.383  1.00  0.00     0.010 C 
HETATM   35  C28 UNL     1       8.166  10.870  16.651  1.00  0.00     0.072 C 
HETATM   36  C20 UNL     1      10.819  11.236  15.919  1.00  0.00     0.035 C 
HETATM   37  C21 UNL     1      10.515  11.448  17.382  1.00  0.00    -0.067 C 
HETATM   38  C22 UNL     1      11.503  11.414  18.296  1.00  0.00     0.053 C 
HETATM   39  C26 UNL     1       9.022  11.605  17.748  1.00  0.00    -0.009 C 
HETATM   40  C23 UNL     1      11.223  11.503  19.748  1.00  0.00     0.149 C 
HETATM   41  O7  UNL     1      12.164  11.506  20.540  1.00  0.00    -0.293 OA
HETATM   42  C24 UNL     1       9.786  11.608  20.204  1.00  0.00     0.084 C 
HETATM   43  C25 UNL     1       8.815  11.030  19.175  1.00  0.00     0.022 C 
HETATM   44  C27 UNL     1       8.672  13.111  17.731  1.00  0.00     0.021 C 
HETATM   45  C29 UNL     1       6.679  10.646  16.924  1.00  0.00     0.133 C 
HETATM   46  O8  UNL     1       6.110  11.117  17.912  1.00  0.00    -0.297 OA
HETATM   47  C30 UNL     1       5.854   9.933  15.853  1.00  0.00     0.091 C 
HETATM   48  C32 UNL     1       7.060  10.089  13.625  1.00  0.00     0.019 C 
BRANCH  28  49
HETATM   49  O6  UNL     1       5.502   7.047  15.343  1.00  0.00    -0.381 OA
HETATM   50  H21 UNL     1       4.605   7.381  15.544  1.00  0.00     0.211 HD
ENDBRANCH  28  49
ENDBRANCH  26  28
ENDBRANCH   1  26
TORSDOF 16
ENDMDL
MODEL 8
REMARK minimizedAffinity -7.60898256
REMARK CNNscore 0.207144246
REMARK CNNaffinity 7.04991198
REMARK  16 active torsions:
REMARK  status: ('A' for Active; 'I' for Inactive)
REMARK    1  A    between atoms: S1_2  and  C2_3 
REMARK    2  A    between atoms: C2_3  and  C3_4 
REMARK    3  A    between atoms: C3_4  and  C4_5 
REMARK    4  A    between atoms: C4_5  and  N1_6 
REMARK    5  A    between atoms: C4_5  and  C33_44 
REMARK       I    between atoms: N1_6  and  C5_7 
REMARK    6  A    between atoms: C5_7  and  C6_9 
REMARK    7  A    between atoms: C6_9  and  N2_11 
REMARK       I    between atoms: N2_11  and  C8_12 
REMARK    8  A    between atoms: C8_12  and  C9_14 
REMARK    9  A    between atoms: C9_14  and  C10_15 
REMARK   10  A    between atoms: C10_15  and  C11_16 
REMARK   11  A    between atoms: C11_16  and  O4_18 
REMARK   12  A    between atoms: O4_18  and  C12_19 
REMARK   13  A    between atoms: C12_19  and  C13_20 
REMARK   14  A    between atoms: C13_20  and  C14_22 
REMARK   15  A    between atoms: C14_22  and  O6_23 
REMARK   16  A    between atoms: C33_44  and  O10_46 
ROOT
HETATM    1  C12 UNL     1      -5.735   5.210  13.354  1.00  0.00     0.260 C 
ENDROOT
BRANCH   1   2
HETATM    2  O4  UNL     1      -5.738   3.789  13.320  1.00  0.00    -0.314 OA
BRANCH   2   3
HETATM    3  C11 UNL     1      -6.680   3.238  12.504  1.00  0.00     0.259 C 
HETATM    4  O3  UNL     1      -7.865   3.124  12.782  1.00  0.00    -0.265 OA
BRANCH   3   5
HETATM    5  C10 UNL     1      -6.030   2.751  11.229  1.00  0.00     0.120 C 
BRANCH   5   6
HETATM    6  C9  UNL     1      -4.628   2.217  11.491  1.00  0.00     0.112 C 
BRANCH   6   7
HETATM    7  C8  UNL     1      -3.561   3.171  10.986  1.00  0.00     0.218 C 
HETATM    8  N2  UNL     1      -2.593   3.440  11.928  1.00  0.00    -0.348 N 
HETATM    9  H14 UNL     1      -2.850   3.300  12.900  1.00  0.00     0.163 HD
HETATM   10  O2  UNL     1      -3.567   3.653   9.859  1.00  0.00    -0.274 OA
BRANCH   8  11
HETATM   11  C6  UNL     1      -1.552   4.432  11.687  1.00  0.00     0.172 C 
HETATM   12  C7  UNL     1      -0.190   3.751  11.624  1.00  0.00     0.042 C 
BRANCH  11  13
HETATM   13  C5  UNL     1      -1.574   5.484  12.819  1.00  0.00     0.240 C 
HETATM   14  N1  UNL     1      -0.883   6.640  12.526  1.00  0.00    -0.345 N 
HETATM   15  H9  UNL     1      -0.790   6.867  11.541  1.00  0.00     0.163 HD
HETATM   16  O1  UNL     1      -2.104   5.276  13.908  1.00  0.00    -0.271 OA
BRANCH  14  17
HETATM   17  C4  UNL     1      -0.871   7.786  13.443  1.00  0.00     0.183 C 
BRANCH  17  18
HETATM   18  C3  UNL     1       0.514   8.445  13.412  1.00  0.00     0.046 C 
BRANCH  18  19
HETATM   19  C2  UNL     1       1.602   7.512  12.877  1.00  0.00     0.076 C 
BRANCH  19  20
HETATM   20  S1  UNL     1       3.186   8.386  12.641  1.00  0.00    -0.173 SA
HETATM   21  C1  UNL     1       4.135   7.092  11.802  1.00  0.00     0.089 C 
ENDBRANCH  19  20
ENDBRANCH  18  19
ENDBRANCH  17  18
BRANCH  17  22
HETATM   22  C33 UNL     1      -1.959   8.752  12.973  1.00  0.00     0.163 C 
HETATM   23  O9  UNL     1      -3.138   8.490  12.810  1.00  0.00    -0.648 OA
BRANCH  22  24
HETATM   24  O10 UNL     1      -1.490   9.985  12.690  1.00  0.00    -0.775 OA
HETATM   25  H46 UNL     1      -2.284  10.504  12.439  1.00  0.00     0.167 HD
ENDBRANCH  22  24
ENDBRANCH  17  22
ENDBRANCH  14  17
ENDBRANCH  11  13
ENDBRANCH   8  11
ENDBRANCH   6   7
ENDBRANCH   5   6
ENDBRANCH   3   5
ENDBRANCH   2   3
ENDBRANCH   1   2
BRANCH   1  26
HETATM   26  C13 UNL     1      -5.841   5.901  14.710  1.00  0.00     0.185 C 
HETATM   27  O5  UNL     1      -4.832   6.373  15.255  1.00  0.00    -0.292 OA
BRANCH  26  28
HETATM   28  C14 UNL     1      -7.209   6.022  15.407  1.00  0.00     0.128 C 
HETATM   29  C15 UNL     1      -7.204   6.518  16.871  1.00  0.00     0.047 C 
HETATM   30  C16 UNL     1      -8.548   7.241  17.093  1.00  0.00     0.009 C 
HETATM   31  C17 UNL     1      -9.296   7.109  15.766  1.00  0.00     0.002 C 
HETATM   32  C18 UNL     1     -10.466   8.056  15.458  1.00  0.00     0.003 C 
HETATM   33  C31 UNL     1      -8.182   7.035  14.700  1.00  0.00     0.005 C 
HETATM   34  C19 UNL     1     -10.418   9.450  16.122  1.00  0.00     0.010 C 
HETATM   35  C28 UNL     1     -10.724   8.237  13.941  1.00  0.00     0.072 C 
HETATM   36  C20 UNL     1     -11.390  10.452  15.474  1.00  0.00     0.035 C 
HETATM   37  C21 UNL     1     -12.550   9.747  14.815  1.00  0.00    -0.067 C 
HETATM   38  C22 UNL     1     -13.806   9.934  15.264  1.00  0.00     0.053 C 
HETATM   39  C26 UNL     1     -12.188   8.754  13.689  1.00  0.00    -0.009 C 
HETATM   40  C23 UNL     1     -14.951   9.170  14.715  1.00  0.00     0.149 C 
HETATM   41  O7  UNL     1     -16.083   9.406  15.132  1.00  0.00    -0.293 OA
HETATM   42  C24 UNL     1     -14.685   8.138  13.643  1.00  0.00     0.084 C 
HETATM   43  C25 UNL     1     -13.248   7.620  13.690  1.00  0.00     0.022 C 
HETATM   44  C27 UNL     1     -12.228   9.510  12.341  1.00  0.00     0.021 C 
HETATM   45  C29 UNL     1     -10.227   7.044  13.123  1.00  0.00     0.133 C 
HETATM   46  O8  UNL     1     -10.887   6.551  12.205  1.00  0.00    -0.297 OA
HETATM   47  C30 UNL     1      -8.803   6.549  13.373  1.00  0.00     0.091 C 
HETATM   48  C32 UNL     1      -7.456   8.394  14.478  1.00  0.00     0.019 C 
BRANCH  28  49
HETATM   49  O6  UNL     1      -7.773   4.702  15.432  1.00  0.00    -0.381 OA
HETATM   50  H21 UNL     1      -7.573   4.269  14.579  1.00  0.00     0.211 HD
ENDBRANCH  28  49
ENDBRANCH  26  28
ENDBRANCH   1  26
TORSDOF 16
ENDMDL
MODEL 9
REMARK minimizedAffinity -8.17432404
REMARK CNNscore 0.196800739
REMARK CNNaffinity 5.96950483
REMARK  16 active torsions:
REMARK  status: ('A' for Active; 'I' for Inactive)
REMARK    1  A    between atoms: S1_2  and  C2_3 
REMARK    2  A    between atoms: C2_3  and  C3_4 
REMARK    3  A    between atoms: C3_4  and  C4_5 
REMARK    4  A    between atoms: C4_5  and  N1_6 
REMARK    5  A    between atoms: C4_5  and  C33_44 
REMARK       I    between atoms: N1_6  and  C5_7 
REMARK    6  A    between atoms: C5_7  and  C6_9 
REMARK    7  A    between atoms: C6_9  and  N2_11 
REMARK       I    between atoms: N2_11  and  C8_12 
REMARK    8  A    between atoms: C8_12  and  C9_14 
REMARK    9  A    between atoms: C9_14  and  C10_15 
REMARK   10  A    between atoms: C10_15  and  C11_16 
REMARK   11  A    between atoms: C11_16  and  O4_18 
REMARK   12  A    between atoms: O4_18  and  C12_19 
REMARK   13  A    between atoms: C12_19  and  C13_20 
REMARK   14  A    between atoms: C13_20  and  C14_22 
REMARK   15  A    between atoms: C14_22  and  O6_23 
REMARK   16  A    between atoms: C33_44  and  O10_46 
ROOT
HETATM    1  C12 UNL     1       4.284   7.332  12.187  1.00  0.00     0.260 C 
ENDROOT
BRANCH   1   2
HETATM    2  O4  UNL     1       4.023   7.962  10.939  1.00  0.00    -0.314 OA
BRANCH   2   3
HETATM    3  C11 UNL     1       3.928   7.111   9.878  1.00  0.00     0.259 C 
HETATM    4  O3  UNL     1       4.460   6.013   9.813  1.00  0.00    -0.265 OA
BRANCH   3   5
HETATM    5  C10 UNL     1       3.105   7.751   8.783  1.00  0.00     0.120 C 
BRANCH   5   6
HETATM    6  C9  UNL     1       1.698   7.171   8.737  1.00  0.00     0.112 C 
BRANCH   6   7
HETATM    7  C8  UNL     1       0.773   7.867   9.719  1.00  0.00     0.218 C 
HETATM    8  N2  UNL     1       0.501   7.103  10.832  1.00  0.00    -0.348 N 
HETATM    9  H14 UNL     1       0.617   6.098  10.737  1.00  0.00     0.163 HD
HETATM   10  O2  UNL     1       0.314   8.988   9.534  1.00  0.00    -0.274 OA
BRANCH   8  11
HETATM   11  C6  UNL     1      -0.468   7.533  11.833  1.00  0.00     0.172 C 
HETATM   12  C7  UNL     1       0.247   8.246  12.975  1.00  0.00     0.042 C 
BRANCH  11  13
HETATM   13  C5  UNL     1      -1.236   6.303  12.365  1.00  0.00     0.240 C 
HETATM   14  N1  UNL     1      -1.218   5.218  11.516  1.00  0.00    -0.345 N 
HETATM   15  H9  UNL     1      -0.430   5.163  10.877  1.00  0.00     0.163 HD
HETATM   16  O1  UNL     1      -1.864   6.319  13.422  1.00  0.00    -0.271 OA
BRANCH  14  17
HETATM   17  C4  UNL     1      -1.817   3.931  11.893  1.00  0.00     0.183 C 
BRANCH  17  18
HETATM   18  C3  UNL     1      -3.300   3.930  11.504  1.00  0.00     0.046 C 
BRANCH  18  19
HETATM   19  C2  UNL     1      -4.134   2.964  12.350  1.00  0.00     0.076 C 
BRANCH  19  20
HETATM   20  S1  UNL     1      -5.705   2.530  11.529  1.00  0.00    -0.173 SA
HETATM   21  C1  UNL     1      -5.432   3.294   9.910  1.00  0.00     0.089 C 
ENDBRANCH  19  20
ENDBRANCH  18  19
ENDBRANCH  17  18
BRANCH  17  22
HETATM   22  C33 UNL     1      -1.044   2.840  11.152  1.00  0.00     0.163 C 
HETATM   23  O9  UNL     1       0.068   2.425  11.429  1.00  0.00    -0.648 OA
BRANCH  22  24
HETATM   24  O10 UNL     1      -1.700   2.363  10.073  1.00  0.00    -0.775 OA
HETATM   25  H46 UNL     1      -1.118   1.656   9.718  1.00  0.00     0.167 HD
ENDBRANCH  22  24
ENDBRANCH  17  22
ENDBRANCH  14  17
ENDBRANCH  11  13
ENDBRANCH   8  11
ENDBRANCH   6   7
ENDBRANCH   5   6
ENDBRANCH   3   5
ENDBRANCH   2   3
ENDBRANCH   1   2
BRANCH   1  26
HETATM   26  C13 UNL     1       4.510   8.216  13.410  1.00  0.00     0.185 C 
HETATM   27  O5  UNL     1       3.746   9.162  13.650  1.00  0.00    -0.292 OA
BRANCH  26  28
HETATM   28  C14 UNL     1       5.690   7.931  14.357  1.00  0.00     0.128 C 
HETATM   29  C15 UNL     1       6.859   7.098  13.784  1.00  0.00     0.047 C 
HETATM   30  C16 UNL     1       8.129   7.549  14.534  1.00  0.00     0.009 C 
HETATM   31  C17 UNL     1       7.648   8.600  15.535  1.00  0.00     0.002 C 
HETATM   32  C18 UNL     1       8.660   9.578  16.152  1.00  0.00     0.003 C 
HETATM   33  C31 UNL     1       6.410   9.234  14.866  1.00  0.00     0.005 C 
HETATM   34  C19 UNL     1       9.903   9.912  15.299  1.00  0.00     0.010 C 
HETATM   35  C28 UNL     1       8.015  10.904  16.631  1.00  0.00     0.072 C 
HETATM   36  C20 UNL     1      10.651  11.162  15.798  1.00  0.00     0.035 C 
HETATM   37  C21 UNL     1      10.410  11.396  17.269  1.00  0.00    -0.067 C 
HETATM   38  C22 UNL     1      11.429  11.330  18.146  1.00  0.00     0.053 C 
HETATM   39  C26 UNL     1       8.939  11.613  17.688  1.00  0.00    -0.009 C 
HETATM   40  C23 UNL     1      11.207  11.442  19.607  1.00  0.00     0.149 C 
HETATM   41  O7  UNL     1      12.176  11.415  20.363  1.00  0.00    -0.293 OA
HETATM   42  C24 UNL     1       9.793  11.605  20.114  1.00  0.00     0.084 C 
HETATM   43  C25 UNL     1       8.763  11.058  19.127  1.00  0.00     0.022 C 
HETATM   44  C27 UNL     1       8.646  13.132  17.671  1.00  0.00     0.021 C 
HETATM   45  C29 UNL     1       6.531  10.740  16.960  1.00  0.00     0.133 C 
HETATM   46  O8  UNL     1       6.018  11.240  17.964  1.00  0.00    -0.297 OA
HETATM   47  C30 UNL     1       5.641  10.050  15.926  1.00  0.00     0.091 C 
HETATM   48  C32 UNL     1       6.768  10.144  13.655  1.00  0.00     0.019 C 
BRANCH  28  49
HETATM   49  O6  UNL     1       5.159   7.177  15.456  1.00  0.00    -0.381 OA
HETATM   50  H21 UNL     1       4.284   7.547  15.686  1.00  0.00     0.211 HD
ENDBRANCH  28  49
ENDBRANCH  26  28
ENDBRANCH   1  26
TORSDOF 16
ENDMDL
