MODEL 1
REMARK minimizedAffinity -8.29492283
REMARK CNNscore 0.607446909
REMARK CNNaffinity 6.80053186
REMARK  8 active torsions:
REMARK  status: ('A' for Active; 'I' for Inactive)
REMARK    1  A    between atoms: C2_2  and  C3_3 
REMARK    2  A    between atoms: C2_2  and  C29_30 
REMARK    3  A    between atoms: C3_3  and  C4_4 
REMARK    4  A    between atoms: C4_4  and  C5_5 
REMARK    5  A    between atoms: C5_5  and  C7_7 
REMARK    6  A    between atoms: C29_30  and  C31_32 
REMARK    7  A    between atoms: C31_32  and  O2_33 
REMARK    8  A    between atoms: O2_33  and  C32_34 
ROOT
HETATM    1  C7  UNL     1      -3.101   9.965  17.013  1.00  0.00    -0.002 C 
HETATM    2  C8  UNL     1      -4.411  10.308  16.234  1.00  0.00     0.006 C 
HETATM    3  C9  UNL     1      -4.371   9.546  14.889  1.00  0.00     0.011 C 
HETATM    4  C10 UNL     1      -3.217   8.553  15.060  1.00  0.00    -0.032 C 
HETATM    5  C11 UNL     1      -3.818   7.344  15.878  1.00  0.00     0.016 C 
HETATM    6  C12 UNL     1      -2.619   7.900  13.787  1.00  0.00     0.004 C 
HETATM    7  C13 UNL     1      -2.241   8.818  12.576  1.00  0.00     0.007 C 
HETATM    8  C14 UNL     1      -0.817   8.571  11.976  1.00  0.00     0.007 C 
HETATM    9  C15 UNL     1      -0.563   7.071  11.769  1.00  0.00     0.010 C 
HETATM   10  C16 UNL     1       0.771   6.481  11.310  1.00  0.00     0.018 C 
HETATM   11  C17 UNL     1       1.899   6.737  12.316  1.00  0.00     0.023 C 
HETATM   12  C18 UNL     1       1.178   7.037   9.937  1.00  0.00     0.023 C 
HETATM   13  C19 UNL     1       0.537   4.951  11.162  1.00  0.00     0.135 C 
HETATM   14  O1  UNL     1       1.487   4.179  11.000  1.00  0.00    -0.297 OA
HETATM   15  C20 UNL     1      -0.911   4.415  11.104  1.00  0.00     0.080 C 
HETATM   16  C21 UNL     1      -1.907   5.083  12.088  1.00  0.00     0.018 C 
HETATM   17  C22 UNL     1      -1.168   6.179  12.835  1.00  0.00    -0.026 A 
HETATM   18  C23 UNL     1      -1.014   5.653  14.226  1.00  0.00     0.021 A 
HETATM   19  C24 UNL     1      -1.389   7.080  14.148  1.00  0.00    -0.027 A 
HETATM   20  C25 UNL     1      -0.364   7.843  15.025  1.00  0.00     0.011 C 
HETATM   21  C26 UNL     1      -1.009   8.497  16.271  1.00  0.00     0.011 C 
HETATM   22  C27 UNL     1      -2.175   9.419  15.876  1.00  0.00    -0.032 C 
HETATM   23  C28 UNL     1      -1.572  10.646  15.133  1.00  0.00     0.016 C 
ENDROOT
BRANCH   1  24
HETATM   24  C5  UNL     1      -2.637  11.139  17.922  1.00  0.00    -0.014 C 
HETATM   25  C6  UNL     1      -3.352  12.453  17.588  1.00  0.00     0.010 C 
BRANCH  24  26
HETATM   26  C4  UNL     1      -1.099  11.356  17.890  1.00  0.00     0.009 C 
BRANCH  26  27
HETATM   27  C3  UNL     1      -0.359  10.942  19.170  1.00  0.00     0.034 C 
BRANCH  27  28
HETATM   28  C2  UNL     1       1.155  10.961  19.009  1.00  0.00    -0.083 C 
HETATM   29  C1  UNL     1       1.710  10.336  17.953  1.00  0.00     0.015 C 
BRANCH  28  30
HETATM   30  C29 UNL     1       1.957  11.695  20.093  1.00  0.00     0.034 C 
HETATM   31  C30 UNL     1       1.301  13.045  20.412  1.00  0.00     0.017 C 
BRANCH  30  32
HETATM   32  C31 UNL     1       2.171  10.927  21.416  1.00  0.00     0.187 C 
BRANCH  32  33
HETATM   33  O2  UNL     1       2.378   9.531  21.141  1.00  0.00    -0.321 OA
BRANCH  33  34
HETATM   34  C32 UNL     1       2.348   8.733  22.242  1.00  0.00     0.254 C 
HETATM   35  C33 UNL     1       3.169   9.338  23.339  1.00  0.00     0.126 C 
HETATM   36  O3  UNL     1       1.743   7.673  22.334  1.00  0.00    -0.266 OA
ENDBRANCH  33  34
ENDBRANCH  32  33
ENDBRANCH  30  32
ENDBRANCH  28  30
ENDBRANCH  27  28
ENDBRANCH  26  27
ENDBRANCH  24  26
ENDBRANCH   1  24
TORSDOF 8
ENDMDL
MODEL 2
REMARK minimizedAffinity -6.90961504
REMARK CNNscore 0.541518509
REMARK CNNaffinity 6.6506362
REMARK  8 active torsions:
REMARK  status: ('A' for Active; 'I' for Inactive)
REMARK    1  A    between atoms: C2_2  and  C3_3 
REMARK    2  A    between atoms: C2_2  and  C29_30 
REMARK    3  A    between atoms: C3_3  and  C4_4 
REMARK    4  A    between atoms: C4_4  and  C5_5 
REMARK    5  A    between atoms: C5_5  and  C7_7 
REMARK    6  A    between atoms: C29_30  and  C31_32 
REMARK    7  A    between atoms: C31_32  and  O2_33 
REMARK    8  A    between atoms: O2_33  and  C32_34 
ROOT
HETATM    1  C7  UNL     1      -0.590  12.783  19.416  1.00  0.00    -0.002 C 
HETATM    2  C8  UNL     1      -1.477  14.015  19.049  1.00  0.00     0.006 C 
HETATM    3  C9  UNL     1      -2.320  13.634  17.810  1.00  0.00     0.011 C 
HETATM    4  C10 UNL     1      -2.138  12.118  17.689  1.00  0.00    -0.032 C 
HETATM    5  C11 UNL     1      -3.144  11.488  18.730  1.00  0.00     0.016 C 
HETATM    6  C12 UNL     1      -2.501  11.442  16.342  1.00  0.00     0.004 C 
HETATM    7  C13 UNL     1      -1.950  12.064  15.014  1.00  0.00     0.007 C 
HETATM    8  C14 UNL     1      -1.289  11.043  14.029  1.00  0.00     0.007 C 
HETATM    9  C15 UNL     1      -2.172   9.799  13.856  1.00  0.00     0.010 C 
HETATM   10  C16 UNL     1      -1.764   8.562  13.055  1.00  0.00     0.018 C 
HETATM   11  C17 UNL     1      -0.541   7.857  13.653  1.00  0.00     0.023 C 
HETATM   12  C18 UNL     1      -1.479   8.921  11.590  1.00  0.00     0.023 C 
HETATM   13  C19 UNL     1      -2.990   7.605  13.088  1.00  0.00     0.135 C 
HETATM   14  O1  UNL     1      -2.891   6.438  12.698  1.00  0.00    -0.297 OA
HETATM   15  C20 UNL     1      -4.367   8.165  13.508  1.00  0.00     0.080 C 
HETATM   16  C21 UNL     1      -4.348   9.157  14.699  1.00  0.00     0.018 C 
HETATM   17  C22 UNL     1      -2.902   9.367  15.112  1.00  0.00    -0.026 A 
HETATM   18  C23 UNL     1      -2.775   8.661  16.424  1.00  0.00     0.021 A 
HETATM   19  C24 UNL     1      -2.101   9.974  16.367  1.00  0.00    -0.027 A 
HETATM   20  C25 UNL     1      -0.645   9.732  16.840  1.00  0.00     0.011 C 
HETATM   21  C26 UNL     1      -0.320  10.444  18.176  1.00  0.00     0.011 C 
HETATM   22  C27 UNL     1      -0.617  11.951  18.092  1.00  0.00    -0.032 C 
HETATM   23  C28 UNL     1       0.422  12.580  17.120  1.00  0.00     0.016 C 
ENDROOT
BRANCH   1  24
HETATM   24  C5  UNL     1       0.761  13.207  20.060  1.00  0.00    -0.014 C 
HETATM   25  C6  UNL     1       1.323  14.493  19.446  1.00  0.00     0.010 C 
BRANCH  24  26
HETATM   26  C4  UNL     1       1.836  12.085  20.004  1.00  0.00     0.009 C 
BRANCH  26  27
HETATM   27  C3  UNL     1       1.640  10.947  21.016  1.00  0.00     0.034 C 
BRANCH  27  28
HETATM   28  C2  UNL     1       2.855  10.736  21.909  1.00  0.00    -0.083 C 
HETATM   29  C1  UNL     1       3.134   9.496  22.353  1.00  0.00     0.015 C 
BRANCH  28  30
HETATM   30  C29 UNL     1       3.682  11.982  22.257  1.00  0.00     0.034 C 
HETATM   31  C30 UNL     1       2.944  12.832  23.299  1.00  0.00     0.017 C 
BRANCH  30  32
HETATM   32  C31 UNL     1       5.120  11.725  22.759  1.00  0.00     0.187 C 
BRANCH  32  33
HETATM   33  O2  UNL     1       6.030  12.630  22.113  1.00  0.00    -0.321 OA
BRANCH  33  34
HETATM   34  C32 UNL     1       7.014  13.107  22.924  1.00  0.00     0.254 C 
HETATM   35  C33 UNL     1       8.051  12.050  23.151  1.00  0.00     0.126 C 
HETATM   36  O3  UNL     1       7.057  14.232  23.403  1.00  0.00    -0.266 OA
ENDBRANCH  33  34
ENDBRANCH  32  33
ENDBRANCH  30  32
ENDBRANCH  28  30
ENDBRANCH  27  28
ENDBRANCH  26  27
ENDBRANCH  24  26
ENDBRANCH   1  24
TORSDOF 8
ENDMDL
MODEL 3
REMARK minimizedAffinity -6.47776222
REMARK CNNscore 0.430362493
REMARK CNNaffinity 6.55485535
REMARK  8 active torsions:
REMARK  status: ('A' for Active; 'I' for Inactive)
REMARK    1  A    between atoms: C2_2  and  C3_3 
REMARK    2  A    between atoms: C2_2  and  C29_30 
REMARK    3  A    between atoms: C3_3  and  C4_4 
REMARK    4  A    between atoms: C4_4  and  C5_5 
REMARK    5  A    between atoms: C5_5  and  C7_7 
REMARK    6  A    between atoms: C29_30  and  C31_32 
REMARK    7  A    between atoms: C31_32  and  O2_33 
REMARK    8  A    between atoms: O2_33  and  C32_34 
ROOT
HETATM    1  C7  UNL     1     -16.071   5.445  20.691  1.00  0.00    -0.002 C 
HETATM    2  C8  UNL     1     -14.748   6.225  20.404  1.00  0.00     0.006 C 
HETATM    3  C9  UNL     1     -13.785   5.966  21.586  1.00  0.00     0.011 C 
HETATM    4  C10 UNL     1     -14.439   4.813  22.352  1.00  0.00    -0.032 C 
HETATM    5  C11 UNL     1     -14.037   3.503  21.567  1.00  0.00     0.016 C 
HETATM    6  C12 UNL     1     -13.978   4.547  23.808  1.00  0.00     0.004 C 
HETATM    7  C13 UNL     1     -13.896   5.754  24.804  1.00  0.00     0.007 C 
HETATM    8  C14 UNL     1     -14.573   5.512  26.194  1.00  0.00     0.007 C 
HETATM    9  C15 UNL     1     -14.164   4.151  26.774  1.00  0.00     0.010 C 
HETATM   10  C16 UNL     1     -14.738   3.558  28.061  1.00  0.00     0.018 C 
HETATM   11  C17 UNL     1     -16.243   3.285  27.956  1.00  0.00     0.023 C 
HETATM   12  C18 UNL     1     -14.470   4.478  29.261  1.00  0.00     0.023 C 
HETATM   13  C19 UNL     1     -13.977   2.222  28.296  1.00  0.00     0.135 C 
HETATM   14  O1  UNL     1     -14.363   1.418  29.149  1.00  0.00    -0.297 OA
HETATM   15  C20 UNL     1     -12.662   1.963  27.529  1.00  0.00     0.080 C 
HETATM   16  C21 UNL     1     -12.662   2.400  26.041  1.00  0.00     0.018 C 
HETATM   17  C22 UNL     1     -14.000   3.053  25.743  1.00  0.00    -0.026 A 
HETATM   18  C23 UNL     1     -14.716   2.070  24.873  1.00  0.00     0.021 A 
HETATM   19  C24 UNL     1     -14.852   3.478  24.448  1.00  0.00    -0.027 A 
HETATM   20  C25 UNL     1     -16.372   3.735  24.287  1.00  0.00     0.011 C 
HETATM   21  C26 UNL     1     -16.782   4.018  22.821  1.00  0.00     0.011 C 
HETATM   22  C27 UNL     1     -15.972   5.184  22.230  1.00  0.00    -0.032 C 
HETATM   23  C28 UNL     1     -16.422   6.484  22.957  1.00  0.00     0.016 C 
ENDROOT
BRANCH   1  24
HETATM   24  C5  UNL     1     -17.313   6.158  20.084  1.00  0.00    -0.014 C 
HETATM   25  C6  UNL     1     -18.575   5.292  20.154  1.00  0.00     0.010 C 
BRANCH  24  26
HETATM   26  C4  UNL     1     -17.082   6.633  18.622  1.00  0.00     0.009 C 
BRANCH  26  27
HETATM   27  C3  UNL     1     -17.096   5.517  17.567  1.00  0.00     0.034 C 
BRANCH  27  28
HETATM   28  C2  UNL     1     -16.223   5.835  16.361  1.00  0.00    -0.083 C 
HETATM   29  C1  UNL     1     -15.296   6.807  16.460  1.00  0.00     0.015 C 
BRANCH  28  30
HETATM   30  C29 UNL     1     -16.478   5.015  15.088  1.00  0.00     0.034 C 
HETATM   31  C30 UNL     1     -16.517   5.939  13.864  1.00  0.00     0.017 C 
BRANCH  30  32
HETATM   32  C31 UNL     1     -15.482   3.867  14.809  1.00  0.00     0.187 C 
BRANCH  32  33
HETATM   33  O2  UNL     1     -15.864   2.699  15.555  1.00  0.00    -0.321 OA
BRANCH  33  34
HETATM   34  C32 UNL     1     -15.180   1.572  15.218  1.00  0.00     0.254 C 
HETATM   35  C33 UNL     1     -15.539   1.148  13.827  1.00  0.00     0.126 C 
HETATM   36  O3  UNL     1     -14.386   0.982  15.938  1.00  0.00    -0.266 OA
ENDBRANCH  33  34
ENDBRANCH  32  33
ENDBRANCH  30  32
ENDBRANCH  28  30
ENDBRANCH  27  28
ENDBRANCH  26  27
ENDBRANCH  24  26
ENDBRANCH   1  24
TORSDOF 8
ENDMDL
MODEL 4
REMARK minimizedAffinity -6.56604385
REMARK CNNscore 0.411217988
REMARK CNNaffinity 6.60420084
REMARK  8 active torsions:
REMARK  status: ('A' for Active; 'I' for Inactive)
REMARK    1  A    between atoms: C2_2  and  C3_3 
REMARK    2  A    between atoms: C2_2  and  C29_30 
REMARK    3  A    between atoms: C3_3  and  C4_4 
REMARK    4  A    between atoms: C4_4  and  C5_5 
REMARK    5  A    between atoms: C5_5  and  C7_7 
REMARK    6  A    between atoms: C29_30  and  C31_32 
REMARK    7  A    between atoms: C31_32  and  O2_33 
REMARK    8  A    between atoms: O2_33  and  C32_34 
ROOT
HETATM    1  C7  UNL     1     -15.192   5.991  24.184  1.00  0.00    -0.002 C 
HETATM    2  C8  UNL     1     -14.827   5.706  25.676  1.00  0.00     0.006 C 
HETATM    3  C9  UNL     1     -14.047   6.930  26.210  1.00  0.00     0.011 C 
HETATM    4  C10 UNL     1     -14.254   8.001  25.135  1.00  0.00    -0.032 C 
HETATM    5  C11 UNL     1     -15.679   8.618  25.424  1.00  0.00     0.016 C 
HETATM    6  C12 UNL     1     -13.299   9.221  25.124  1.00  0.00     0.004 C 
HETATM    7  C13 UNL     1     -11.755   8.971  25.212  1.00  0.00     0.007 C 
HETATM    8  C14 UNL     1     -10.898   9.745  24.156  1.00  0.00     0.007 C 
HETATM    9  C15 UNL     1     -11.322  11.219  24.081  1.00  0.00     0.010 C 
HETATM   10  C16 UNL     1     -10.766  12.222  23.070  1.00  0.00     0.018 C 
HETATM   11  C17 UNL     1     -11.107  11.843  21.624  1.00  0.00     0.023 C 
HETATM   12  C18 UNL     1      -9.243  12.365  23.212  1.00  0.00     0.023 C 
HETATM   13  C19 UNL     1     -11.415  13.591  23.420  1.00  0.00     0.135 C 
HETATM   14  O1  UNL     1     -11.314  14.553  22.653  1.00  0.00    -0.297 OA
HETATM   15  C20 UNL     1     -12.091  13.770  24.798  1.00  0.00     0.080 C 
HETATM   16  C21 UNL     1     -12.932  12.563  25.288  1.00  0.00     0.018 C 
HETATM   17  C22 UNL     1     -12.808  11.454  24.258  1.00  0.00    -0.026 A 
HETATM   18  C23 UNL     1     -14.147  11.402  23.593  1.00  0.00     0.021 A 
HETATM   19  C24 UNL     1     -13.560  10.080  23.895  1.00  0.00    -0.027 A 
HETATM   20  C25 UNL     1     -13.599   9.278  22.570  1.00  0.00     0.011 C 
HETATM   21  C26 UNL     1     -14.548   8.056  22.635  1.00  0.00     0.011 C 
HETATM   22  C27 UNL     1     -14.191   7.135  23.813  1.00  0.00    -0.032 C 
HETATM   23  C28 UNL     1     -12.819   6.473  23.492  1.00  0.00     0.016 C 
ENDROOT
BRANCH   1  24
HETATM   24  C5  UNL     1     -15.257   4.686  23.339  1.00  0.00    -0.014 C 
HETATM   25  C6  UNL     1     -16.577   4.552  22.573  1.00  0.00     0.010 C 
BRANCH  24  26
HETATM   26  C4  UNL     1     -15.006   3.407  24.184  1.00  0.00     0.009 C 
BRANCH  26  27
HETATM   27  C3  UNL     1     -13.807   2.558  23.737  1.00  0.00     0.034 C 
BRANCH  27  28
HETATM   28  C2  UNL     1     -12.810   2.307  24.861  1.00  0.00    -0.083 C 
HETATM   29  C1  UNL     1     -11.511   2.127  24.557  1.00  0.00     0.015 C 
BRANCH  28  30
HETATM   30  C29 UNL     1     -13.376   2.261  26.288  1.00  0.00     0.034 C 
HETATM   31  C30 UNL     1     -14.422   1.146  26.406  1.00  0.00     0.017 C 
BRANCH  30  32
HETATM   32  C31 UNL     1     -12.341   2.090  27.423  1.00  0.00     0.187 C 
BRANCH  32  33
HETATM   33  O2  UNL     1     -13.003   1.661  28.624  1.00  0.00    -0.321 OA
BRANCH  33  34
HETATM   34  C32 UNL     1     -13.426   2.677  29.424  1.00  0.00     0.254 C 
HETATM   35  C33 UNL     1     -12.366   3.731  29.520  1.00  0.00     0.126 C 
HETATM   36  O3  UNL     1     -14.511   2.734  29.988  1.00  0.00    -0.266 OA
ENDBRANCH  33  34
ENDBRANCH  32  33
ENDBRANCH  30  32
ENDBRANCH  28  30
ENDBRANCH  27  28
ENDBRANCH  26  27
ENDBRANCH  24  26
ENDBRANCH   1  24
TORSDOF 8
ENDMDL
MODEL 5
REMARK minimizedAffinity -7.46147633
REMARK CNNscore 0.354880303
REMARK CNNaffinity 6.55184317
REMARK  8 active torsions:
REMARK  status: ('A' for Active; 'I' for Inactive)
REMARK    1  A    between atoms: C2_2  and  C3_3 
REMARK    2  A    between atoms: C2_2  and  C29_30 
REMARK    3  A    between atoms: C3_3  and  C4_4 
REMARK    4  A    between atoms: C4_4  and  C5_5 
REMARK    5  A    between atoms: C5_5  and  C7_7 
REMARK    6  A    between atoms: C29_30  and  C31_32 
REMARK    7  A    between atoms: C31_32  and  O2_33 
REMARK    8  A    between atoms: O2_33  and  C32_34 
ROOT
HETATM    1  C7  UNL     1      -2.728   9.026  15.594  1.00  0.00    -0.002 C 
HETATM    2  C8  UNL     1      -3.946   8.633  14.698  1.00  0.00     0.006 C 
HETATM    3  C9  UNL     1      -3.395   7.920  13.442  1.00  0.00     0.011 C 
HETATM    4  C10 UNL     1      -1.929   7.640  13.787  1.00  0.00    -0.032 C 
HETATM    5  C11 UNL     1      -1.947   6.338  14.679  1.00  0.00     0.016 C 
HETATM    6  C12 UNL     1      -0.956   7.303  12.628  1.00  0.00     0.004 C 
HETATM    7  C13 UNL     1      -0.947   8.221  11.359  1.00  0.00     0.007 C 
HETATM    8  C14 UNL     1       0.471   8.680  10.884  1.00  0.00     0.007 C 
HETATM    9  C15 UNL     1       1.446   7.495  10.845  1.00  0.00     0.010 C 
HETATM   10  C16 UNL     1       2.939   7.620  10.536  1.00  0.00     0.018 C 
HETATM   11  C17 UNL     1       3.682   8.455  11.585  1.00  0.00     0.023 C 
HETATM   12  C18 UNL     1       3.166   8.230   9.146  1.00  0.00     0.023 C 
HETATM   13  C19 UNL     1       3.499   6.169  10.527  1.00  0.00     0.135 C 
HETATM   14  O1  UNL     1       4.716   5.962  10.505  1.00  0.00    -0.297 OA
HETATM   15  C20 UNL     1       2.513   4.985  10.425  1.00  0.00     0.080 C 
HETATM   16  C21 UNL     1       1.218   5.122  11.268  1.00  0.00     0.018 C 
HETATM   17  C22 UNL     1       1.244   6.478  11.951  1.00  0.00    -0.026 A 
HETATM   18  C23 UNL     1       1.484   6.173  13.395  1.00  0.00     0.021 A 
HETATM   19  C24 UNL     1       0.472   7.220  13.150  1.00  0.00    -0.027 A 
HETATM   20  C25 UNL     1       0.892   8.436  14.014  1.00  0.00     0.011 C 
HETATM   21  C26 UNL     1      -0.120   8.751  15.142  1.00  0.00     0.011 C 
HETATM   22  C27 UNL     1      -1.538   8.951  14.581  1.00  0.00    -0.032 C 
HETATM   23  C28 UNL     1      -1.534  10.274  13.761  1.00  0.00     0.016 C 
ENDROOT
BRANCH   1  24
HETATM   24  C5  UNL     1      -2.997  10.323  16.410  1.00  0.00    -0.014 C 
HETATM   25  C6  UNL     1      -3.809  11.353  15.618  1.00  0.00     0.010 C 
BRANCH  24  26
HETATM   26  C4  UNL     1      -1.694  10.980  16.946  1.00  0.00     0.009 C 
BRANCH  26  27
HETATM   27  C3  UNL     1      -1.271  10.530  18.351  1.00  0.00     0.034 C 
BRANCH  27  28
HETATM   28  C2  UNL     1      -0.219  11.440  18.971  1.00  0.00    -0.083 C 
HETATM   29  C1  UNL     1      -0.512  12.739  19.171  1.00  0.00     0.015 C 
BRANCH  28  30
HETATM   30  C29 UNL     1       1.133  10.799  19.315  1.00  0.00     0.034 C 
HETATM   31  C30 UNL     1       2.280  11.686  18.815  1.00  0.00     0.017 C 
BRANCH  30  32
HETATM   32  C31 UNL     1       1.372  10.478  20.807  1.00  0.00     0.187 C 
BRANCH  32  33
HETATM   33  O2  UNL     1       2.283   9.373  20.927  1.00  0.00    -0.321 OA
BRANCH  33  34
HETATM   34  C32 UNL     1       3.012   9.371  22.076  1.00  0.00     0.254 C 
HETATM   35  C33 UNL     1       4.230  10.227  21.914  1.00  0.00     0.126 C 
HETATM   36  O3  UNL     1       2.726   8.762  23.098  1.00  0.00    -0.266 OA
ENDBRANCH  33  34
ENDBRANCH  32  33
ENDBRANCH  30  32
ENDBRANCH  28  30
ENDBRANCH  27  28
ENDBRANCH  26  27
ENDBRANCH  24  26
ENDBRANCH   1  24
TORSDOF 8
ENDMDL
MODEL 6
REMARK minimizedAffinity -8.02834702
REMARK CNNscore 0.33815971
REMARK CNNaffinity 6.97298956
REMARK  8 active torsions:
REMARK  status: ('A' for Active; 'I' for Inactive)
REMARK    1  A    between atoms: C2_2  and  C3_3 
REMARK    2  A    between atoms: C2_2  and  C29_30 
REMARK    3  A    between atoms: C3_3  and  C4_4 
REMARK    4  A    between atoms: C4_4  and  C5_5 
REMARK    5  A    between atoms: C5_5  and  C7_7 
REMARK    6  A    between atoms: C29_30  and  C31_32 
REMARK    7  A    between atoms: C31_32  and  O2_33 
REMARK    8  A    between atoms: O2_33  and  C32_34 
ROOT
HETATM    1  C7  UNL     1      -7.919   6.543  14.291  1.00  0.00    -0.002 C 
HETATM    2  C8  UNL     1      -7.990   5.930  15.727  1.00  0.00     0.006 C 
HETATM    3  C9  UNL     1      -6.588   6.062  16.364  1.00  0.00     0.011 C 
HETATM    4  C10 UNL     1      -5.841   7.014  15.424  1.00  0.00    -0.032 C 
HETATM    5  C11 UNL     1      -6.308   8.465  15.835  1.00  0.00     0.016 C 
HETATM    6  C12 UNL     1      -4.294   7.066  15.513  1.00  0.00     0.004 C 
HETATM    7  C13 UNL     1      -3.494   5.719  15.511  1.00  0.00     0.007 C 
HETATM    8  C14 UNL     1      -2.287   5.668  14.516  1.00  0.00     0.007 C 
HETATM    9  C15 UNL     1      -1.434   6.940  14.623  1.00  0.00     0.010 C 
HETATM   10  C16 UNL     1      -0.250   7.260  13.709  1.00  0.00     0.018 C 
HETATM   11  C17 UNL     1      -0.672   7.426  12.245  1.00  0.00     0.023 C 
HETATM   12  C18 UNL     1       0.832   6.175  13.807  1.00  0.00     0.023 C 
HETATM   13  C19 UNL     1       0.352   8.594  14.236  1.00  0.00     0.135 C 
HETATM   14  O1  UNL     1       1.195   9.209  13.578  1.00  0.00    -0.297 OA
HETATM   15  C20 UNL     1      -0.032   9.083  15.650  1.00  0.00     0.080 C 
HETATM   16  C21 UNL     1      -1.523   8.904  16.035  1.00  0.00     0.018 C 
HETATM   17  C22 UNL     1      -2.225   8.206  14.883  1.00  0.00    -0.026 A 
HETATM   18  C23 UNL     1      -3.089   9.261  14.270  1.00  0.00     0.021 A 
HETATM   19  C24 UNL     1      -3.735   7.939  14.398  1.00  0.00    -0.027 A 
HETATM   20  C25 UNL     1      -4.291   7.592  12.994  1.00  0.00     0.011 C 
HETATM   21  C26 UNL     1      -5.837   7.528  12.959  1.00  0.00     0.011 C 
HETATM   22  C27 UNL     1      -6.380   6.547  14.012  1.00  0.00    -0.032 C 
HETATM   23  C28 UNL     1      -5.979   5.112  13.565  1.00  0.00     0.016 C 
ENDROOT
BRANCH   1  24
HETATM   24  C5  UNL     1      -8.903   5.845  13.309  1.00  0.00    -0.014 C 
HETATM   25  C6  UNL     1      -8.186   5.236  12.099  1.00  0.00     0.010 C 
BRANCH  24  26
HETATM   26  C4  UNL     1     -10.042   6.786  12.827  1.00  0.00     0.009 C 
BRANCH  26  27
HETATM   27  C3  UNL     1     -11.224   6.925  13.797  1.00  0.00     0.034 C 
BRANCH  27  28
HETATM   28  C2  UNL     1     -12.384   7.714  13.205  1.00  0.00    -0.083 C 
HETATM   29  C1  UNL     1     -12.225   9.029  12.959  1.00  0.00     0.015 C 
BRANCH  28  30
HETATM   30  C29 UNL     1     -13.682   6.940  12.939  1.00  0.00     0.034 C 
HETATM   31  C30 UNL     1     -14.016   6.041  14.137  1.00  0.00     0.017 C 
BRANCH  30  32
HETATM   32  C31 UNL     1     -14.925   7.793  12.602  1.00  0.00     0.187 C 
BRANCH  32  33
HETATM   33  O2  UNL     1     -15.889   6.992  11.898  1.00  0.00    -0.321 OA
BRANCH  33  34
HETATM   34  C32 UNL     1     -17.183   7.251  12.232  1.00  0.00     0.254 C 
HETATM   35  C33 UNL     1     -17.422   6.903  13.670  1.00  0.00     0.126 C 
HETATM   36  O3  UNL     1     -18.035   7.700  11.478  1.00  0.00    -0.266 OA
ENDBRANCH  33  34
ENDBRANCH  32  33
ENDBRANCH  30  32
ENDBRANCH  28  30
ENDBRANCH  27  28
ENDBRANCH  26  27
ENDBRANCH  24  26
ENDBRANCH   1  24
TORSDOF 8
ENDMDL
MODEL 7
REMARK minimizedAffinity -6.44981718
REMARK CNNscore 0.333076
REMARK CNNaffinity 6.21084929
REMARK  8 active torsions:
REMARK  status: ('A' for Active; 'I' for Inactive)
REMARK    1  A    between atoms: C2_2  and  C3_3 
REMARK    2  A    between atoms: C2_2  and  C29_30 
REMARK    3  A    between atoms: C3_3  and  C4_4 
REMARK    4  A    between atoms: C4_4  and  C5_5 
REMARK    5  A    between atoms: C5_5  and  C7_7 
REMARK    6  A    between atoms: C29_30  and  C31_32 
REMARK    7  A    between atoms: C31_32  and  O2_33 
REMARK    8  A    between atoms: O2_33  and  C32_34 
ROOT
HETATM    1  C7  UNL     1     -16.079   5.462  20.694  1.00  0.00    -0.002 C 
HETATM    2  C8  UNL     1     -14.770   6.267  20.415  1.00  0.00     0.006 C 
HETATM    3  C9  UNL     1     -13.800   6.008  21.591  1.00  0.00     0.011 C 
HETATM    4  C10 UNL     1     -14.433   4.833  22.343  1.00  0.00    -0.032 C 
HETATM    5  C11 UNL     1     -14.012   3.541  21.538  1.00  0.00     0.016 C 
HETATM    6  C12 UNL     1     -13.964   4.555  23.794  1.00  0.00     0.004 C 
HETATM    7  C13 UNL     1     -13.898   5.749  24.806  1.00  0.00     0.007 C 
HETATM    8  C14 UNL     1     -14.568   5.478  26.194  1.00  0.00     0.007 C 
HETATM    9  C15 UNL     1     -14.135   4.116  26.755  1.00  0.00     0.010 C 
HETATM   10  C16 UNL     1     -14.696   3.496  28.035  1.00  0.00     0.018 C 
HETATM   11  C17 UNL     1     -16.197   3.200  27.930  1.00  0.00     0.023 C 
HETATM   12  C18 UNL     1     -14.440   4.403  29.247  1.00  0.00     0.023 C 
HETATM   13  C19 UNL     1     -13.914   2.169  28.249  1.00  0.00     0.135 C 
HETATM   14  O1  UNL     1     -14.284   1.347  29.092  1.00  0.00    -0.297 OA
HETATM   15  C20 UNL     1     -12.596   1.942  27.475  1.00  0.00     0.080 C 
HETATM   16  C21 UNL     1     -12.607   2.399  25.994  1.00  0.00     0.018 C 
HETATM   17  C22 UNL     1     -13.956   3.034  25.708  1.00  0.00    -0.026 A 
HETATM   18  C23 UNL     1     -14.660   2.052  24.826  1.00  0.00     0.021 A 
HETATM   19  C24 UNL     1     -14.819   3.463  24.421  1.00  0.00    -0.027 A 
HETATM   20  C25 UNL     1     -16.343   3.698  24.267  1.00  0.00     0.011 C 
HETATM   21  C26 UNL     1     -16.762   3.995  22.807  1.00  0.00     0.011 C 
HETATM   22  C27 UNL     1     -15.972   5.181  22.230  1.00  0.00    -0.032 C 
HETATM   23  C28 UNL     1     -16.441   6.464  22.976  1.00  0.00     0.016 C 
ENDROOT
BRANCH   1  24
HETATM   24  C5  UNL     1     -17.335   6.163  20.100  1.00  0.00    -0.014 C 
HETATM   25  C6  UNL     1     -18.496   5.189  19.874  1.00  0.00     0.010 C 
BRANCH  24  26
HETATM   26  C4  UNL     1     -17.031   6.933  18.785  1.00  0.00     0.009 C 
BRANCH  26  27
HETATM   27  C3  UNL     1     -17.062   6.078  17.510  1.00  0.00     0.034 C 
BRANCH  27  28
HETATM   28  C2  UNL     1     -15.962   6.448  16.525  1.00  0.00    -0.083 C 
HETATM   29  C1  UNL     1     -15.031   7.350  16.889  1.00  0.00     0.015 C 
BRANCH  28  30
HETATM   30  C29 UNL     1     -16.004   5.760  15.153  1.00  0.00     0.034 C 
HETATM   31  C30 UNL     1     -16.639   4.369  15.278  1.00  0.00     0.017 C 
BRANCH  30  32
HETATM   32  C31 UNL     1     -16.727   6.533  14.027  1.00  0.00     0.187 C 
BRANCH  32  33
HETATM   33  O2  UNL     1     -16.187   6.152  12.751  1.00  0.00    -0.321 OA
BRANCH  33  34
HETATM   34  C32 UNL     1     -15.511   7.145  12.111  1.00  0.00     0.254 C 
HETATM   35  C33 UNL     1     -14.219   7.425  12.816  1.00  0.00     0.126 C 
HETATM   36  O3  UNL     1     -15.892   7.731  11.106  1.00  0.00    -0.266 OA
ENDBRANCH  33  34
ENDBRANCH  32  33
ENDBRANCH  30  32
ENDBRANCH  28  30
ENDBRANCH  27  28
ENDBRANCH  26  27
ENDBRANCH  24  26
ENDBRANCH   1  24
TORSDOF 8
ENDMDL
MODEL 8
REMARK minimizedAffinity -8.10798264
REMARK CNNscore 0.304145753
REMARK CNNaffinity 6.79053116
REMARK  8 active torsions:
REMARK  status: ('A' for Active; 'I' for Inactive)
REMARK    1  A    between atoms: C2_2  and  C3_3 
REMARK    2  A    between atoms: C2_2  and  C29_30 
REMARK    3  A    between atoms: C3_3  and  C4_4 
REMARK    4  A    between atoms: C4_4  and  C5_5 
REMARK    5  A    between atoms: C5_5  and  C7_7 
REMARK    6  A    between atoms: C29_30  and  C31_32 
REMARK    7  A    between atoms: C31_32  and  O2_33 
REMARK    8  A    between atoms: O2_33  and  C32_34 
ROOT
HETATM    1  C7  UNL     1      -1.207   6.163  12.039  1.00  0.00    -0.002 C 
HETATM    2  C8  UNL     1      -1.428   4.976  13.031  1.00  0.00     0.006 C 
HETATM    3  C9  UNL     1      -1.787   5.576  14.410  1.00  0.00     0.011 C 
HETATM    4  C10 UNL     1      -2.073   7.051  14.110  1.00  0.00    -0.032 C 
HETATM    5  C11 UNL     1      -3.552   7.090  13.561  1.00  0.00     0.016 C 
HETATM    6  C12 UNL     1      -2.072   8.051  15.294  1.00  0.00     0.004 C 
HETATM    7  C13 UNL     1      -0.873   8.025  16.302  1.00  0.00     0.007 C 
HETATM    8  C14 UNL     1      -0.246   9.424  16.620  1.00  0.00     0.007 C 
HETATM    9  C15 UNL     1      -1.339  10.458  16.924  1.00  0.00     0.010 C 
HETATM   10  C16 UNL     1      -1.072  11.945  17.159  1.00  0.00     0.018 C 
HETATM   11  C17 UNL     1      -0.483  12.635  15.923  1.00  0.00     0.023 C 
HETATM   12  C18 UNL     1      -0.132  12.156  18.355  1.00  0.00     0.023 C 
HETATM   13  C19 UNL     1      -2.449  12.579  17.508  1.00  0.00     0.135 C 
HETATM   14  O1  UNL     1      -2.586  13.805  17.552  1.00  0.00    -0.297 OA
HETATM   15  C20 UNL     1      -3.618  11.656  17.915  1.00  0.00     0.080 C 
HETATM   16  C21 UNL     1      -3.751  10.348  17.093  1.00  0.00     0.018 C 
HETATM   17  C22 UNL     1      -2.602  10.297  16.102  1.00  0.00    -0.026 A 
HETATM   18  C23 UNL     1      -3.238  10.538  14.770  1.00  0.00     0.021 A 
HETATM   19  C24 UNL     1      -2.212   9.476  14.776  1.00  0.00    -0.027 A 
HETATM   20  C25 UNL     1      -1.224   9.825  13.634  1.00  0.00     0.011 C 
HETATM   21  C26 UNL     1      -1.241   8.786  12.486  1.00  0.00     0.011 C 
HETATM   22  C27 UNL     1      -0.977   7.366  13.013  1.00  0.00    -0.032 C 
HETATM   23  C28 UNL     1       0.504   7.310  13.487  1.00  0.00     0.016 C 
ENDROOT
BRANCH   1  24
HETATM   24  C5  UNL     1      -0.162   5.820  10.939  1.00  0.00    -0.014 C 
HETATM   25  C6  UNL     1       0.619   4.540  11.255  1.00  0.00     0.010 C 
BRANCH  24  26
HETATM   26  C4  UNL     1       0.828   6.985  10.662  1.00  0.00     0.009 C 
BRANCH  26  27
HETATM   27  C3  UNL     1       0.608   7.723   9.334  1.00  0.00     0.034 C 
BRANCH  27  28
HETATM   28  C2  UNL     1       1.739   7.498   8.340  1.00  0.00    -0.083 C 
HETATM   29  C1  UNL     1       1.471   7.538   7.021  1.00  0.00     0.015 C 
BRANCH  28  30
HETATM   30  C29 UNL     1       3.131   7.223   8.928  1.00  0.00     0.034 C 
HETATM   31  C30 UNL     1       3.381   8.128  10.141  1.00  0.00     0.017 C 
BRANCH  30  32
HETATM   32  C31 UNL     1       3.418   5.760   9.336  1.00  0.00     0.187 C 
BRANCH  32  33
HETATM   33  O2  UNL     1       3.012   4.872   8.281  1.00  0.00    -0.321 OA
BRANCH  33  34
HETATM   34  C32 UNL     1       3.946   3.943   7.942  1.00  0.00     0.254 C 
HETATM   35  C33 UNL     1       3.850   3.626   6.481  1.00  0.00     0.126 C 
HETATM   36  O3  UNL     1       4.752   3.432   8.708  1.00  0.00    -0.266 OA
ENDBRANCH  33  34
ENDBRANCH  32  33
ENDBRANCH  30  32
ENDBRANCH  28  30
ENDBRANCH  27  28
ENDBRANCH  26  27
ENDBRANCH  24  26
ENDBRANCH   1  24
TORSDOF 8
ENDMDL
MODEL 9
REMARK minimizedAffinity -7.69359398
REMARK CNNscore 0.288753569
REMARK CNNaffinity 6.9966507
REMARK  8 active torsions:
REMARK  status: ('A' for Active; 'I' for Inactive)
REMARK    1  A    between atoms: C2_2  and  C3_3 
REMARK    2  A    between atoms: C2_2  and  C29_30 
REMARK    3  A    between atoms: C3_3  and  C4_4 
REMARK    4  A    between atoms: C4_4  and  C5_5 
REMARK    5  A    between atoms: C5_5  and  C7_7 
REMARK    6  A    between atoms: C29_30  and  C31_32 
REMARK    7  A    between atoms: C31_32  and  O2_33 
REMARK    8  A    between atoms: O2_33  and  C32_34 
ROOT
HETATM    1  C7  UNL     1      -0.085   7.296  13.228  1.00  0.00    -0.002 C 
HETATM    2  C8  UNL     1       0.362   5.934  13.852  1.00  0.00     0.006 C 
HETATM    3  C9  UNL     1      -0.913   5.179  14.292  1.00  0.00     0.011 C 
HETATM    4  C10 UNL     1      -2.055   5.962  13.636  1.00  0.00    -0.032 C 
HETATM    5  C11 UNL     1      -2.111   5.454  12.142  1.00  0.00     0.016 C 
HETATM    6  C12 UNL     1      -3.493   5.748  14.172  1.00  0.00     0.004 C 
HETATM    7  C13 UNL     1      -3.739   5.814  15.718  1.00  0.00     0.007 C 
HETATM    8  C14 UNL     1      -4.943   6.711  16.159  1.00  0.00     0.007 C 
HETATM    9  C15 UNL     1      -6.186   6.416  15.307  1.00  0.00     0.010 C 
HETATM   10  C16 UNL     1      -7.496   7.199  15.401  1.00  0.00     0.018 C 
HETATM   11  C17 UNL     1      -7.326   8.670  15.004  1.00  0.00     0.023 C 
HETATM   12  C18 UNL     1      -8.088   7.119  16.816  1.00  0.00     0.023 C 
HETATM   13  C19 UNL     1      -8.485   6.502  14.423  1.00  0.00     0.135 C 
HETATM   14  O1  UNL     1      -9.561   7.030  14.131  1.00  0.00    -0.297 OA
HETATM   15  C20 UNL     1      -8.156   5.083  13.910  1.00  0.00     0.080 C 
HETATM   16  C21 UNL     1      -6.671   4.836  13.539  1.00  0.00     0.018 C 
HETATM   17  C22 UNL     1      -5.891   6.100  13.855  1.00  0.00    -0.026 A 
HETATM   18  C23 UNL     1      -5.547   6.678  12.519  1.00  0.00     0.021 A 
HETATM   19  C24 UNL     1      -4.452   6.726  13.509  1.00  0.00    -0.027 A 
HETATM   20  C25 UNL     1      -3.963   8.197  13.539  1.00  0.00     0.011 C 
HETATM   21  C26 UNL     1      -2.515   8.360  13.017  1.00  0.00     0.011 C 
HETATM   22  C27 UNL     1      -1.539   7.451  13.783  1.00  0.00    -0.032 C 
HETATM   23  C28 UNL     1      -1.431   7.998  15.236  1.00  0.00     0.016 C 
ENDROOT
BRANCH   1  24
HETATM   24  C5  UNL     1       0.973   8.414  13.447  1.00  0.00    -0.014 C 
HETATM   25  C6  UNL     1       0.332   9.780  13.716  1.00  0.00     0.010 C 
BRANCH  24  26
HETATM   26  C4  UNL     1       1.983   8.530  12.271  1.00  0.00     0.009 C 
BRANCH  26  27
HETATM   27  C3  UNL     1       1.355   8.490  10.871  1.00  0.00     0.034 C 
BRANCH  27  28
HETATM   28  C2  UNL     1       1.770   7.261  10.073  1.00  0.00    -0.083 C 
HETATM   29  C1  UNL     1       1.098   6.107  10.250  1.00  0.00     0.015 C 
BRANCH  28  30
HETATM   30  C29 UNL     1       2.959   7.427   9.117  1.00  0.00     0.034 C 
HETATM   31  C30 UNL     1       2.604   8.416   7.999  1.00  0.00     0.017 C 
BRANCH  30  32
HETATM   32  C31 UNL     1       4.292   7.868   9.761  1.00  0.00     0.187 C 
BRANCH  32  33
HETATM   33  O2  UNL     1       5.012   6.715  10.229  1.00  0.00    -0.321 OA
BRANCH  33  34
HETATM   34  C32 UNL     1       6.118   7.007  10.967  1.00  0.00     0.254 C 
HETATM   35  C33 UNL     1       5.740   7.202  12.403  1.00  0.00     0.126 C 
HETATM   36  O3  UNL     1       7.258   7.100  10.532  1.00  0.00    -0.266 OA
ENDBRANCH  33  34
ENDBRANCH  32  33
ENDBRANCH  30  32
ENDBRANCH  28  30
ENDBRANCH  27  28
ENDBRANCH  26  27
ENDBRANCH  24  26
ENDBRANCH   1  24
TORSDOF 8
ENDMDL
