MODEL 1
REMARK minimizedAffinity -8.34002209
REMARK CNNscore 0.499846488
REMARK CNNaffinity 6.95446968
REMARK  6 active torsions:
REMARK  status: ('A' for Active; 'I' for Inactive)
REMARK    1  A    between atoms: O1_2  and  C2_3 
REMARK    2  A    between atoms: C7_9  and  C8_10 
REMARK    3  A    between atoms: C8_10  and  C9_11 
REMARK    4  A    between atoms: C9_11  and  N2_12 
REMARK       I    between atoms: N2_12  and  C10_13 
REMARK    5  A    between atoms: C10_13  and  C11_15 
REMARK    6  A    between atoms: C16_21  and  C17_22 
ROOT
HETATM    1  C11 UNL     1     -10.534   8.534  15.420  1.00  0.00     0.034 A 
HETATM    2  C12 UNL     1      -9.328   9.201  15.675  1.00  0.00     0.020 A 
HETATM    3  C13 UNL     1      -8.115   8.644  15.263  1.00  0.00     0.040 A 
HETATM    4  C14 UNL     1      -8.108   7.415  14.607  1.00  0.00     0.103 A 
HETATM    5  O3  UNL     1      -6.893   6.914  14.225  1.00  0.00    -0.303 OA
HETATM    6  C15 UNL     1      -6.847   5.669  13.588  1.00  0.00     0.144 A 
HETATM    7  C16 UNL     1      -5.630   5.205  13.252  1.00  0.00     0.054 C 
HETATM    8  C23 UNL     1      -8.119   4.912  13.301  1.00  0.00     0.280 A 
HETATM    9  O4  UNL     1      -8.175   3.829  12.727  1.00  0.00    -0.265 OA
HETATM   10  N3  UNL     1      -9.275   5.511  13.723  1.00  0.00    -0.319 N 
HETATM   11  C24 UNL     1      -9.303   6.743  14.369  1.00  0.00     0.070 A 
HETATM   12  C25 UNL     1     -10.521   7.291  14.773  1.00  0.00     0.049 A 
HETATM   13  H20 UNL     1     -10.124   4.994  13.538  1.00  0.00     0.169 HD
ENDROOT
BRANCH   1  14
HETATM   14  C10 UNL     1     -11.800   9.165  15.880  1.00  0.00     0.251 C 
HETATM   15  N2  UNL     1     -12.020   9.174  17.242  1.00  0.00    -0.357 N 
HETATM   16  H12 UNL     1     -11.444   8.604  17.844  1.00  0.00     0.162 HD
HETATM   17  O2  UNL     1     -12.596   9.610  15.062  1.00  0.00    -0.268 OA
BRANCH  15  18
HETATM   18  C9  UNL     1     -13.258   9.696  17.797  1.00  0.00     0.127 C 
BRANCH  18  19
HETATM   19  C8  UNL     1     -13.016  10.680  18.945  1.00  0.00     0.060 C 
BRANCH  19  20
HETATM   20  C7  UNL     1     -12.485  10.004  20.169  1.00  0.00    -0.029 A 
HETATM   21  C6  UNL     1     -11.237  10.184  20.733  1.00  0.00     0.096 A 
HETATM   22  N1  UNL     1     -11.145   9.381  21.839  1.00  0.00    -0.365 N 
HETATM   23  C5  UNL     1     -12.313   8.679  22.015  1.00  0.00     0.043 A 
HETATM   24  H6  UNL     1     -10.338   9.309  22.442  1.00  0.00     0.165 HD
HETATM   25  C4  UNL     1     -12.671   7.753  23.001  1.00  0.00     0.033 A 
HETATM   26  C26 UNL     1     -13.173   9.046  20.982  1.00  0.00     0.001 A 
HETATM   27  C3  UNL     1     -13.950   7.183  22.929  1.00  0.00     0.039 A 
HETATM   28  C2  UNL     1     -14.837   7.525  21.909  1.00  0.00     0.069 A 
HETATM   29  C27 UNL     1     -14.453   8.456  20.933  1.00  0.00     0.051 A 
BRANCH  28  30
HETATM   30  O1  UNL     1     -16.103   7.029  21.748  1.00  0.00    -0.356 OA
HETATM   31  C1  UNL     1     -17.027   7.263  22.803  1.00  0.00     0.210 C 
ENDBRANCH  28  30
ENDBRANCH  19  20
ENDBRANCH  18  19
ENDBRANCH  15  18
ENDBRANCH   1  14
BRANCH   7  32
HETATM   32  C17 UNL     1      -5.300   3.941  12.593  1.00  0.00    -0.032 A 
HETATM   33  C18 UNL     1      -6.324   3.075  12.191  1.00  0.00     0.011 A 
HETATM   34  C19 UNL     1      -6.018   1.872  11.552  1.00  0.00     0.003 A 
HETATM   35  C20 UNL     1      -4.687   1.530  11.310  1.00  0.00     0.024 A 
HETATM   36  C21 UNL     1      -3.668   2.393  11.710  1.00  0.00     0.034 A 
HETATM   37 CL1  UNL     1      -2.026   1.972  11.407  1.00  0.00    -0.084 Cl
HETATM   38  C22 UNL     1      -3.966   3.597  12.347  1.00  0.00     0.035 A 
ENDBRANCH   7  32
TORSDOF 6
ENDMDL
MODEL 2
REMARK minimizedAffinity -10.0067167
REMARK CNNscore 0.314951837
REMARK CNNaffinity 7.15797043
REMARK  6 active torsions:
REMARK  status: ('A' for Active; 'I' for Inactive)
REMARK    1  A    between atoms: O1_2  and  C2_3 
REMARK    2  A    between atoms: C7_9  and  C8_10 
REMARK    3  A    between atoms: C8_10  and  C9_11 
REMARK    4  A    between atoms: C9_11  and  N2_12 
REMARK       I    between atoms: N2_12  and  C10_13 
REMARK    5  A    between atoms: C10_13  and  C11_15 
REMARK    6  A    between atoms: C16_21  and  C17_22 
ROOT
HETATM    1  C11 UNL     1      -2.459   4.412  12.498  1.00  0.00     0.034 A 
HETATM    2  C12 UNL     1      -3.238   3.281  12.216  1.00  0.00     0.020 A 
HETATM    3  C13 UNL     1      -4.627   3.331  12.356  1.00  0.00     0.040 A 
HETATM    4  C14 UNL     1      -5.235   4.508  12.789  1.00  0.00     0.103 A 
HETATM    5  O3  UNL     1      -6.598   4.503  12.910  1.00  0.00    -0.303 OA
HETATM    6  C15 UNL     1      -7.238   5.659  13.368  1.00  0.00     0.144 A 
HETATM    7  C16 UNL     1      -8.577   5.601  13.494  1.00  0.00     0.054 C 
HETATM    8  C23 UNL     1      -6.440   6.896  13.691  1.00  0.00     0.280 A 
HETATM    9  O4  UNL     1      -6.919   7.958  14.074  1.00  0.00    -0.265 OA
HETATM   10  N3  UNL     1      -5.085   6.787  13.529  1.00  0.00    -0.319 N 
HETATM   11  C24 UNL     1      -4.461   5.625  13.086  1.00  0.00     0.070 A 
HETATM   12  C25 UNL     1      -3.073   5.589  12.947  1.00  0.00     0.049 A 
HETATM   13  H20 UNL     1      -4.553   7.617  13.757  1.00  0.00     0.169 HD
ENDROOT
BRANCH   1  14
HETATM   14  C10 UNL     1      -0.984   4.310  12.336  1.00  0.00     0.251 C 
HETATM   15  N2  UNL     1      -0.256   5.448  12.620  1.00  0.00    -0.357 N 
HETATM   16  H12 UNL     1      -0.734   6.330  12.730  1.00  0.00     0.162 HD
HETATM   17  O2  UNL     1      -0.482   3.267  11.936  1.00  0.00    -0.268 OA
BRANCH  15  18
HETATM   18  C9  UNL     1       1.184   5.484  12.424  1.00  0.00     0.127 C 
BRANCH  18  19
HETATM   19  C8  UNL     1       1.705   6.902  12.172  1.00  0.00     0.060 C 
BRANCH  19  20
HETATM   20  C7  UNL     1       1.340   7.407  10.812  1.00  0.00    -0.029 A 
HETATM   21  C6  UNL     1       0.508   8.471  10.525  1.00  0.00     0.096 A 
HETATM   22  N1  UNL     1       0.434   8.604   9.164  1.00  0.00    -0.365 N 
HETATM   23  C5  UNL     1       1.207   7.649   8.550  1.00  0.00     0.043 A 
HETATM   24  H6  UNL     1      -0.109   9.302   8.675  1.00  0.00     0.165 HD
HETATM   25  C4  UNL     1       1.435   7.406   7.191  1.00  0.00     0.033 A 
HETATM   26  C26 UNL     1       1.787   6.880   9.558  1.00  0.00     0.001 A 
HETATM   27  C3  UNL     1       2.283   6.343   6.849  1.00  0.00     0.039 A 
HETATM   28  C2  UNL     1       2.880   5.552   7.830  1.00  0.00     0.069 A 
HETATM   29  C27 UNL     1       2.634   5.816   9.185  1.00  0.00     0.051 A 
BRANCH  28  30
HETATM   30  O1  UNL     1       3.720   4.495   7.605  1.00  0.00    -0.356 OA
HETATM   31  C1  UNL     1       3.607   3.836   6.351  1.00  0.00     0.210 C 
ENDBRANCH  28  30
ENDBRANCH  19  20
ENDBRANCH  18  19
ENDBRANCH  15  18
ENDBRANCH   1  14
BRANCH   7  32
HETATM   32  C17 UNL     1      -9.483   6.652  13.957  1.00  0.00    -0.032 A 
HETATM   33  C18 UNL     1     -10.459   7.162  13.092  1.00  0.00     0.011 A 
HETATM   34  C19 UNL     1     -11.336   8.157  13.529  1.00  0.00     0.003 A 
HETATM   35  C20 UNL     1     -11.243   8.644  14.833  1.00  0.00     0.024 A 
HETATM   36  C21 UNL     1     -10.272   8.134  15.694  1.00  0.00     0.034 A 
HETATM   37 CL1  UNL     1     -10.162   8.733  17.304  1.00  0.00    -0.084 Cl
HETATM   38  C22 UNL     1      -9.394   7.140  15.264  1.00  0.00     0.035 A 
ENDBRANCH   7  32
TORSDOF 6
ENDMDL
MODEL 3
REMARK minimizedAffinity -9.21734428
REMARK CNNscore 0.268873423
REMARK CNNaffinity 6.97841406
REMARK  6 active torsions:
REMARK  status: ('A' for Active; 'I' for Inactive)
REMARK    1  A    between atoms: O1_2  and  C2_3 
REMARK    2  A    between atoms: C7_9  and  C8_10 
REMARK    3  A    between atoms: C8_10  and  C9_11 
REMARK    4  A    between atoms: C9_11  and  N2_12 
REMARK       I    between atoms: N2_12  and  C10_13 
REMARK    5  A    between atoms: C10_13  and  C11_15 
REMARK    6  A    between atoms: C16_21  and  C17_22 
ROOT
HETATM    1  C11 UNL     1      -4.499   8.224  14.467  1.00  0.00     0.034 A 
HETATM    2  C12 UNL     1      -3.881   9.479  14.564  1.00  0.00     0.020 A 
HETATM    3  C13 UNL     1      -2.669   9.718  13.912  1.00  0.00     0.040 A 
HETATM    4  C14 UNL     1      -2.070   8.699  13.173  1.00  0.00     0.103 A 
HETATM    5  O3  UNL     1      -0.883   8.985  12.555  1.00  0.00    -0.303 OA
HETATM    6  C15 UNL     1      -0.242   7.977  11.827  1.00  0.00     0.144 A 
HETATM    7  C16 UNL     1       0.934   8.297  11.256  1.00  0.00     0.054 C 
HETATM    8  C23 UNL     1      -0.866   6.611  11.704  1.00  0.00     0.280 A 
HETATM    9  O4  UNL     1      -0.387   5.678  11.068  1.00  0.00    -0.265 OA
HETATM   10  N3  UNL     1      -2.055   6.440  12.359  1.00  0.00    -0.319 N 
HETATM   11  C24 UNL     1      -2.674   7.448  13.091  1.00  0.00     0.070 A 
HETATM   12  C25 UNL     1      -3.887   7.198  13.735  1.00  0.00     0.049 A 
HETATM   13  H20 UNL     1      -2.464   5.518  12.282  1.00  0.00     0.169 HD
ENDROOT
BRANCH   1  14
HETATM   14  C10 UNL     1      -5.788   8.017  15.181  1.00  0.00     0.251 C 
HETATM   15  N2  UNL     1      -5.934   6.816  15.845  1.00  0.00    -0.357 N 
HETATM   16  H12 UNL     1      -5.278   6.068  15.671  1.00  0.00     0.162 HD
HETATM   17  O2  UNL     1      -6.662   8.873  15.129  1.00  0.00    -0.268 OA
BRANCH  15  18
HETATM   18  C9  UNL     1      -7.179   6.475  16.511  1.00  0.00     0.127 C 
BRANCH  18  19
HETATM   19  C8  UNL     1      -7.795   5.179  15.977  1.00  0.00     0.060 C 
BRANCH  19  20
HETATM   20  C7  UNL     1      -7.835   5.144  14.482  1.00  0.00    -0.029 A 
HETATM   21  C6  UNL     1      -6.984   4.441  13.652  1.00  0.00     0.096 A 
HETATM   22  N1  UNL     1      -7.356   4.678  12.355  1.00  0.00    -0.365 N 
HETATM   23  C5  UNL     1      -8.442   5.520  12.318  1.00  0.00     0.043 A 
HETATM   24  H6  UNL     1      -6.904   4.292  11.539  1.00  0.00     0.165 HD
HETATM   25  C4  UNL     1      -9.155   6.027  11.227  1.00  0.00     0.033 A 
HETATM   26  C26 UNL     1      -8.764   5.833  13.638  1.00  0.00     0.001 A 
HETATM   27  C3  UNL     1     -10.234   6.882  11.491  1.00  0.00     0.039 A 
HETATM   28  C2  UNL     1     -10.586   7.218  12.799  1.00  0.00     0.069 A 
HETATM   29  C27 UNL     1      -9.853   6.697  13.874  1.00  0.00     0.051 A 
BRANCH  28  30
HETATM   30  O1  UNL     1     -11.618   8.041  13.164  1.00  0.00    -0.356 OA
HETATM   31  C1  UNL     1     -11.871   9.167  12.335  1.00  0.00     0.210 C 
ENDBRANCH  28  30
ENDBRANCH  19  20
ENDBRANCH  18  19
ENDBRANCH  15  18
ENDBRANCH   1  14
BRANCH   7  32
HETATM   32  C17 UNL     1       1.810   7.438  10.459  1.00  0.00    -0.032 A 
HETATM   33  C18 UNL     1       2.827   6.708  11.084  1.00  0.00     0.011 A 
HETATM   34  C19 UNL     1       3.661   5.877  10.331  1.00  0.00     0.003 A 
HETATM   35  C20 UNL     1       3.478   5.771   8.952  1.00  0.00     0.024 A 
HETATM   36  C21 UNL     1       2.463   6.498   8.331  1.00  0.00     0.034 A 
HETATM   37 CL1  UNL     1       2.237   6.363   6.630  1.00  0.00    -0.084 Cl
HETATM   38  C22 UNL     1       1.627   7.328   9.076  1.00  0.00     0.035 A 
ENDBRANCH   7  32
TORSDOF 6
ENDMDL
MODEL 4
REMARK minimizedAffinity -8.54950047
REMARK CNNscore 0.264870495
REMARK CNNaffinity 6.45117331
REMARK  6 active torsions:
REMARK  status: ('A' for Active; 'I' for Inactive)
REMARK    1  A    between atoms: O1_2  and  C2_3 
REMARK    2  A    between atoms: C7_9  and  C8_10 
REMARK    3  A    between atoms: C8_10  and  C9_11 
REMARK    4  A    between atoms: C9_11  and  N2_12 
REMARK       I    between atoms: N2_12  and  C10_13 
REMARK    5  A    between atoms: C10_13  and  C11_15 
REMARK    6  A    between atoms: C16_21  and  C17_22 
ROOT
HETATM    1  C11 UNL     1     -11.376   8.279  15.048  1.00  0.00     0.034 A 
HETATM    2  C12 UNL     1     -10.359   9.167  15.427  1.00  0.00     0.020 A 
HETATM    3  C13 UNL     1      -9.022   8.854  15.175  1.00  0.00     0.040 A 
HETATM    4  C14 UNL     1      -8.701   7.648  14.553  1.00  0.00     0.103 A 
HETATM    5  O3  UNL     1      -7.375   7.391  14.329  1.00  0.00    -0.303 OA
HETATM    6  C15 UNL     1      -7.016   6.178  13.732  1.00  0.00     0.144 A 
HETATM    7  C16 UNL     1      -5.701   5.957  13.553  1.00  0.00     0.054 C 
HETATM    8  C23 UNL     1      -8.075   5.189  13.317  1.00  0.00     0.280 A 
HETATM    9  O4  UNL     1      -7.853   4.116  12.767  1.00  0.00    -0.265 OA
HETATM   10  N3  UNL     1      -9.366   5.554  13.585  1.00  0.00    -0.319 N 
HETATM   11  C24 UNL     1      -9.708   6.758  14.193  1.00  0.00     0.070 A 
HETATM   12  C25 UNL     1     -11.048   7.061  14.437  1.00  0.00     0.049 A 
HETATM   13  H20 UNL     1     -10.072   4.883  13.314  1.00  0.00     0.169 HD
ENDROOT
BRANCH   1  14
HETATM   14  C10 UNL     1     -12.786   8.654  15.340  1.00  0.00     0.251 C 
HETATM   15  N2  UNL     1     -13.346   8.096  16.471  1.00  0.00    -0.357 N 
HETATM   16  H12 UNL     1     -12.877   7.331  16.934  1.00  0.00     0.162 HD
HETATM   17  O2  UNL     1     -13.394   9.393  14.576  1.00  0.00    -0.268 OA
BRANCH  15  18
HETATM   18  C9  UNL     1     -14.739   8.333  16.811  1.00  0.00     0.127 C 
BRANCH  18  19
HETATM   19  C8  UNL     1     -15.571   7.047  16.805  1.00  0.00     0.060 C 
BRANCH  19  20
HETATM   20  C7  UNL     1     -16.258   6.822  15.496  1.00  0.00    -0.029 A 
HETATM   21  C6  UNL     1     -16.767   7.794  14.656  1.00  0.00     0.096 A 
HETATM   22  N1  UNL     1     -17.315   7.174  13.564  1.00  0.00    -0.365 N 
HETATM   23  C5  UNL     1     -17.171   5.811  13.669  1.00  0.00     0.043 A 
HETATM   24  H6  UNL     1     -17.762   7.644  12.790  1.00  0.00     0.165 HD
HETATM   25  C4  UNL     1     -17.571   4.791  12.800  1.00  0.00     0.033 A 
HETATM   26  C26 UNL     1     -16.514   5.558  14.872  1.00  0.00     0.001 A 
HETATM   27  C3  UNL     1     -17.291   3.468  13.171  1.00  0.00     0.039 A 
HETATM   28  C2  UNL     1     -16.635   3.177  14.368  1.00  0.00     0.069 A 
HETATM   29  C27 UNL     1     -16.246   4.219  15.221  1.00  0.00     0.051 A 
BRANCH  28  30
HETATM   30  O1  UNL     1     -16.315   1.926  14.822  1.00  0.00    -0.356 OA
HETATM   31  C1  UNL     1     -14.947   1.547  14.761  1.00  0.00     0.210 C 
ENDBRANCH  28  30
ENDBRANCH  19  20
ENDBRANCH  18  19
ENDBRANCH  15  18
ENDBRANCH   1  14
BRANCH   7  32
HETATM   32  C17 UNL     1      -5.058   4.780  12.969  1.00  0.00    -0.032 A 
HETATM   33  C18 UNL     1      -3.679   4.591  13.123  1.00  0.00     0.011 A 
HETATM   34  C19 UNL     1      -3.059   3.464  12.578  1.00  0.00     0.003 A 
HETATM   35  C20 UNL     1      -3.814   2.521  11.881  1.00  0.00     0.024 A 
HETATM   36  C21 UNL     1      -5.188   2.709  11.730  1.00  0.00     0.034 A 
HETATM   37 CL1  UNL     1      -6.119   1.542  10.873  1.00  0.00    -0.084 Cl
HETATM   38  C22 UNL     1      -5.813   3.831  12.272  1.00  0.00     0.035 A 
ENDBRANCH   7  32
TORSDOF 6
ENDMDL
MODEL 5
REMARK minimizedAffinity -8.28850651
REMARK CNNscore 0.193326697
REMARK CNNaffinity 6.52939177
REMARK  6 active torsions:
REMARK  status: ('A' for Active; 'I' for Inactive)
REMARK    1  A    between atoms: O1_2  and  C2_3 
REMARK    2  A    between atoms: C7_9  and  C8_10 
REMARK    3  A    between atoms: C8_10  and  C9_11 
REMARK    4  A    between atoms: C9_11  and  N2_12 
REMARK       I    between atoms: N2_12  and  C10_13 
REMARK    5  A    between atoms: C10_13  and  C11_15 
REMARK    6  A    between atoms: C16_21  and  C17_22 
ROOT
HETATM    1  C11 UNL     1     -11.508   7.300  13.933  1.00  0.00     0.034 A 
HETATM    2  C12 UNL     1     -12.059   8.252  13.064  1.00  0.00     0.020 A 
HETATM    3  C13 UNL     1     -13.408   8.182  12.707  1.00  0.00     0.040 A 
HETATM    4  C14 UNL     1     -14.201   7.152  13.210  1.00  0.00     0.103 A 
HETATM    5  O3  UNL     1     -15.516   7.129  12.829  1.00  0.00    -0.303 OA
HETATM    6  C15 UNL     1     -16.334   6.093  13.293  1.00  0.00     0.144 A 
HETATM    7  C16 UNL     1     -17.612   6.097  12.874  1.00  0.00     0.054 C 
HETATM    8  C23 UNL     1     -15.781   5.043  14.222  1.00  0.00     0.280 A 
HETATM    9  O4  UNL     1     -16.430   4.116  14.695  1.00  0.00    -0.265 OA
HETATM   10  N3  UNL     1     -14.456   5.169  14.539  1.00  0.00    -0.319 N 
HETATM   11  C24 UNL     1     -13.651   6.196  14.058  1.00  0.00     0.070 A 
HETATM   12  C25 UNL     1     -12.306   6.258  14.425  1.00  0.00     0.049 A 
HETATM   13  H20 UNL     1     -14.088   4.455  15.154  1.00  0.00     0.169 HD
ENDROOT
BRANCH   1  14
HETATM   14  C10 UNL     1     -10.066   7.415  14.282  1.00  0.00     0.251 C 
HETATM   15  N2  UNL     1      -9.290   6.297  14.054  1.00  0.00    -0.357 N 
HETATM   16  H12 UNL     1      -9.735   5.413  13.855  1.00  0.00     0.162 HD
HETATM   17  O2  UNL     1      -9.636   8.450  14.777  1.00  0.00    -0.268 OA
BRANCH  15  18
HETATM   18  C9  UNL     1      -7.886   6.272  14.428  1.00  0.00     0.127 C 
BRANCH  18  19
HETATM   19  C8  UNL     1      -7.425   4.885  14.885  1.00  0.00     0.060 C 
BRANCH  19  20
HETATM   20  C7  UNL     1      -6.983   4.029  13.741  1.00  0.00    -0.029 A 
HETATM   21  C6  UNL     1      -7.700   3.004  13.154  1.00  0.00     0.096 A 
HETATM   22  N1  UNL     1      -6.943   2.473  12.144  1.00  0.00    -0.365 N 
HETATM   23  C5  UNL     1      -5.741   3.135  12.051  1.00  0.00     0.043 A 
HETATM   24  H6  UNL     1      -7.220   1.707  11.548  1.00  0.00     0.165 HD
HETATM   25  C4  UNL     1      -4.668   2.941  11.176  1.00  0.00     0.033 A 
HETATM   26  C26 UNL     1      -5.735   4.115  13.043  1.00  0.00     0.001 A 
HETATM   27  C3  UNL     1      -3.550   3.776  11.317  1.00  0.00     0.039 A 
HETATM   28  C2  UNL     1      -3.508   4.767  12.298  1.00  0.00     0.069 A 
HETATM   29  C27 UNL     1      -4.598   4.940  13.163  1.00  0.00     0.051 A 
BRANCH  28  30
HETATM   30  O1  UNL     1      -2.470   5.632  12.518  1.00  0.00    -0.356 OA
HETATM   31  C1  UNL     1      -2.028   5.782  13.860  1.00  0.00     0.210 C 
ENDBRANCH  28  30
ENDBRANCH  19  20
ENDBRANCH  18  19
ENDBRANCH  15  18
ENDBRANCH   1  14
BRANCH   7  32
HETATM   32  C17 UNL     1     -18.667   5.136  13.195  1.00  0.00    -0.032 A 
HETATM   33  C18 UNL     1     -19.537   5.387  14.263  1.00  0.00     0.011 A 
HETATM   34  C19 UNL     1     -20.554   4.480  14.570  1.00  0.00     0.003 A 
HETATM   35  C20 UNL     1     -20.707   3.321  13.808  1.00  0.00     0.024 A 
HETATM   36  C21 UNL     1     -19.842   3.073  12.744  1.00  0.00     0.034 A 
HETATM   37 CL1  UNL     1     -20.035   1.644  11.803  1.00  0.00    -0.084 Cl
HETATM   38  C22 UNL     1     -18.825   3.975  12.432  1.00  0.00     0.035 A 
ENDBRANCH   7  32
TORSDOF 6
ENDMDL
MODEL 6
REMARK minimizedAffinity -9.70020103
REMARK CNNscore 0.187003851
REMARK CNNaffinity 6.79380989
REMARK  6 active torsions:
REMARK  status: ('A' for Active; 'I' for Inactive)
REMARK    1  A    between atoms: O1_2  and  C2_3 
REMARK    2  A    between atoms: C7_9  and  C8_10 
REMARK    3  A    between atoms: C8_10  and  C9_11 
REMARK    4  A    between atoms: C9_11  and  N2_12 
REMARK       I    between atoms: N2_12  and  C10_13 
REMARK    5  A    between atoms: C10_13  and  C11_15 
REMARK    6  A    between atoms: C16_21  and  C17_22 
ROOT
HETATM    1  C11 UNL     1      -4.000   5.179  13.558  1.00  0.00     0.034 A 
HETATM    2  C12 UNL     1      -4.006   5.916  14.751  1.00  0.00     0.020 A 
HETATM    3  C13 UNL     1      -5.190   6.493  15.215  1.00  0.00     0.040 A 
HETATM    4  C14 UNL     1      -6.365   6.344  14.480  1.00  0.00     0.103 A 
HETATM    5  O3  UNL     1      -7.497   6.930  14.979  1.00  0.00    -0.303 OA
HETATM    6  C15 UNL     1      -8.687   6.822  14.252  1.00  0.00     0.144 A 
HETATM    7  C16 UNL     1      -9.769   7.434  14.768  1.00  0.00     0.054 C 
HETATM    8  C23 UNL     1      -8.725   6.048  12.960  1.00  0.00     0.280 A 
HETATM    9  O4  UNL     1      -9.727   5.882  12.272  1.00  0.00    -0.265 OA
HETATM   10  N3  UNL     1      -7.536   5.500  12.561  1.00  0.00    -0.319 N 
HETATM   11  C24 UNL     1      -6.356   5.628  13.287  1.00  0.00     0.070 A 
HETATM   12  C25 UNL     1      -5.180   5.043  12.814  1.00  0.00     0.049 A 
HETATM   13  H20 UNL     1      -7.565   4.991  11.688  1.00  0.00     0.169 HD
ENDROOT
BRANCH   1  14
HETATM   14  C10 UNL     1      -2.714   4.585  13.103  1.00  0.00     0.251 C 
HETATM   15  N2  UNL     1      -1.577   5.327  13.345  1.00  0.00    -0.357 N 
HETATM   16  H12 UNL     1      -1.663   6.292  13.628  1.00  0.00     0.162 HD
HETATM   17  O2  UNL     1      -2.710   3.509  12.517  1.00  0.00    -0.268 OA
BRANCH  15  18
HETATM   18  C9  UNL     1      -0.276   4.879  12.876  1.00  0.00     0.127 C 
BRANCH  18  19
HETATM   19  C8  UNL     1       0.766   6.001  12.876  1.00  0.00     0.060 C 
BRANCH  19  20
HETATM   20  C7  UNL     1       0.633   6.899  11.687  1.00  0.00    -0.029 A 
HETATM   21  C6  UNL     1      -0.133   8.045  11.602  1.00  0.00     0.096 A 
HETATM   22  N1  UNL     1       0.019   8.572  10.347  1.00  0.00    -0.365 N 
HETATM   23  C5  UNL     1       0.877   7.795   9.606  1.00  0.00     0.043 A 
HETATM   24  H6  UNL     1      -0.431   9.410  10.008  1.00  0.00     0.165 HD
HETATM   25  C4  UNL     1       1.323   7.945   8.289  1.00  0.00     0.033 A 
HETATM   26  C26 UNL     1       1.277   6.735  10.418  1.00  0.00     0.001 A 
HETATM   27  C3  UNL     1       2.208   6.982   7.784  1.00  0.00     0.039 A 
HETATM   28  C2  UNL     1       2.630   5.908   8.568  1.00  0.00     0.069 A 
HETATM   29  C27 UNL     1       2.167   5.781   9.884  1.00  0.00     0.051 A 
BRANCH  28  30
HETATM   30  O1  UNL     1       3.489   4.918   8.173  1.00  0.00    -0.356 OA
HETATM   31  C1  UNL     1       3.930   4.009   9.172  1.00  0.00     0.210 C 
ENDBRANCH  28  30
ENDBRANCH  19  20
ENDBRANCH  18  19
ENDBRANCH  15  18
ENDBRANCH   1  14
BRANCH   7  32
HETATM   32  C17 UNL     1     -11.122   7.489  14.214  1.00  0.00    -0.032 A 
HETATM   33  C18 UNL     1     -11.470   8.512  13.323  1.00  0.00     0.011 A 
HETATM   34  C19 UNL     1     -12.756   8.565  12.781  1.00  0.00     0.003 A 
HETATM   35  C20 UNL     1     -13.697   7.594  13.124  1.00  0.00     0.024 A 
HETATM   36  C21 UNL     1     -13.349   6.575  14.009  1.00  0.00     0.034 A 
HETATM   37 CL1  UNL     1     -14.512   5.376  14.428  1.00  0.00    -0.084 Cl
HETATM   38  C22 UNL     1     -12.067   6.515  14.554  1.00  0.00     0.035 A 
ENDBRANCH   7  32
TORSDOF 6
ENDMDL
MODEL 7
REMARK minimizedAffinity -8.45401192
REMARK CNNscore 0.167702049
REMARK CNNaffinity 6.84298468
REMARK  6 active torsions:
REMARK  status: ('A' for Active; 'I' for Inactive)
REMARK    1  A    between atoms: O1_2  and  C2_3 
REMARK    2  A    between atoms: C7_9  and  C8_10 
REMARK    3  A    between atoms: C8_10  and  C9_11 
REMARK    4  A    between atoms: C9_11  and  N2_12 
REMARK       I    between atoms: N2_12  and  C10_13 
REMARK    5  A    between atoms: C10_13  and  C11_15 
REMARK    6  A    between atoms: C16_21  and  C17_22 
ROOT
HETATM    1  C11 UNL     1      -7.732   7.724  14.919  1.00  0.00     0.034 A 
HETATM    2  C12 UNL     1      -8.066   9.043  15.258  1.00  0.00     0.020 A 
HETATM    3  C13 UNL     1      -9.405   9.434  15.327  1.00  0.00     0.040 A 
HETATM    4  C14 UNL     1     -10.409   8.509  15.046  1.00  0.00     0.103 A 
HETATM    5  O3  UNL     1     -11.704   8.943  15.128  1.00  0.00    -0.303 OA
HETATM    6  C15 UNL     1     -12.736   8.048  14.826  1.00  0.00     0.144 A 
HETATM    7  C16 UNL     1     -13.992   8.525  14.897  1.00  0.00     0.054 C 
HETATM    8  C23 UNL     1     -12.422   6.623  14.447  1.00  0.00     0.280 A 
HETATM    9  O4  UNL     1     -13.262   5.767  14.191  1.00  0.00    -0.265 OA
HETATM   10  N3  UNL     1     -11.094   6.299  14.402  1.00  0.00    -0.319 N 
HETATM   11  C24 UNL     1     -10.078   7.205  14.692  1.00  0.00     0.070 A 
HETATM   12  C25 UNL     1      -8.744   6.801  14.622  1.00  0.00     0.049 A 
HETATM   13  H20 UNL     1     -10.889   5.345  14.137  1.00  0.00     0.169 HD
ENDROOT
BRANCH   1  14
HETATM   14  C10 UNL     1      -6.292   7.356  14.855  1.00  0.00     0.251 C 
HETATM   15  N2  UNL     1      -5.604   7.765  13.731  1.00  0.00    -0.357 N 
HETATM   16  H12 UNL     1      -6.116   8.110  12.932  1.00  0.00     0.162 HD
HETATM   17  O2  UNL     1      -5.788   6.694  15.754  1.00  0.00    -0.268 OA
BRANCH  15  18
HETATM   18  C9  UNL     1      -4.213   7.396  13.528  1.00  0.00     0.127 C 
BRANCH  18  19
HETATM   19  C8  UNL     1      -3.854   6.070  14.205  1.00  0.00     0.060 C 
BRANCH  19  20
HETATM   20  C7  UNL     1      -3.646   4.967  13.217  1.00  0.00    -0.029 A 
HETATM   21  C6  UNL     1      -2.469   4.659  12.562  1.00  0.00     0.096 A 
HETATM   22  N1  UNL     1      -2.700   3.585  11.744  1.00  0.00    -0.365 N 
HETATM   23  C5  UNL     1      -4.008   3.177  11.853  1.00  0.00     0.043 A 
HETATM   24  H6  UNL     1      -2.014   3.150  11.145  1.00  0.00     0.165 HD
HETATM   25  C4  UNL     1      -4.685   2.132  11.216  1.00  0.00     0.033 A 
HETATM   26  C26 UNL     1      -4.629   4.027  12.768  1.00  0.00     0.001 A 
HETATM   27  C3  UNL     1      -6.041   1.948  11.522  1.00  0.00     0.039 A 
HETATM   28  C2  UNL     1      -6.695   2.779  12.432  1.00  0.00     0.069 A 
HETATM   29  C27 UNL     1      -5.993   3.819  13.056  1.00  0.00     0.051 A 
BRANCH  28  30
HETATM   30  O1  UNL     1      -8.010   2.685  12.800  1.00  0.00    -0.356 OA
HETATM   31  C1  UNL     1      -8.800   3.860  12.684  1.00  0.00     0.210 C 
ENDBRANCH  28  30
ENDBRANCH  19  20
ENDBRANCH  18  19
ENDBRANCH  15  18
ENDBRANCH   1  14
BRANCH   7  32
HETATM   32  C17 UNL     1     -15.241   7.814  14.624  1.00  0.00    -0.032 A 
HETATM   33  C18 UNL     1     -15.761   7.792  13.324  1.00  0.00     0.011 A 
HETATM   34  C19 UNL     1     -16.947   7.106  13.052  1.00  0.00     0.003 A 
HETATM   35  C20 UNL     1     -17.616   6.438  14.078  1.00  0.00     0.024 A 
HETATM   36  C21 UNL     1     -17.096   6.459  15.371  1.00  0.00     0.034 A 
HETATM   37 CL1  UNL     1     -17.921   5.629  16.635  1.00  0.00    -0.084 Cl
HETATM   38  C22 UNL     1     -15.912   7.141  15.649  1.00  0.00     0.035 A 
ENDBRANCH   7  32
TORSDOF 6
ENDMDL
MODEL 8
REMARK minimizedAffinity -9.83485126
REMARK CNNscore 0.150460035
REMARK CNNaffinity 6.95482111
REMARK  6 active torsions:
REMARK  status: ('A' for Active; 'I' for Inactive)
REMARK    1  A    between atoms: O1_2  and  C2_3 
REMARK    2  A    between atoms: C7_9  and  C8_10 
REMARK    3  A    between atoms: C8_10  and  C9_11 
REMARK    4  A    between atoms: C9_11  and  N2_12 
REMARK       I    between atoms: N2_12  and  C10_13 
REMARK    5  A    between atoms: C10_13  and  C11_15 
REMARK    6  A    between atoms: C16_21  and  C17_22 
ROOT
HETATM    1  C11 UNL     1      -3.828   4.490  12.647  1.00  0.00     0.034 A 
HETATM    2  C12 UNL     1      -4.869   3.608  12.323  1.00  0.00     0.020 A 
HETATM    3  C13 UNL     1      -6.193   3.946  12.610  1.00  0.00     0.040 A 
HETATM    4  C14 UNL     1      -6.475   5.160  13.233  1.00  0.00     0.103 A 
HETATM    5  O3  UNL     1      -7.789   5.442  13.493  1.00  0.00    -0.303 OA
HETATM    6  C15 UNL     1      -8.106   6.641  14.141  1.00  0.00     0.144 A 
HETATM    7  C16 UNL     1      -9.407   6.865  14.397  1.00  0.00     0.054 C 
HETATM    8  C23 UNL     1      -7.018   7.615  14.516  1.00  0.00     0.280 A 
HETATM    9  O4  UNL     1      -7.206   8.696  15.064  1.00  0.00    -0.265 OA
HETATM   10  N3  UNL     1      -5.743   7.231  14.204  1.00  0.00    -0.319 N 
HETATM   11  C24 UNL     1      -5.442   6.029  13.572  1.00  0.00     0.070 A 
HETATM   12  C25 UNL     1      -4.115   5.704  13.286  1.00  0.00     0.049 A 
HETATM   13  H20 UNL     1      -5.016   7.883  14.468  1.00  0.00     0.169 HD
ENDROOT
BRANCH   1  14
HETATM   14  C10 UNL     1      -2.434   4.085  12.323  1.00  0.00     0.251 C 
HETATM   15  N2  UNL     1      -1.443   4.989  12.646  1.00  0.00    -0.357 N 
HETATM   16  H12 UNL     1      -1.693   5.935  12.895  1.00  0.00     0.162 HD
HETATM   17  O2  UNL     1      -2.220   3.014  11.768  1.00  0.00    -0.268 OA
BRANCH  15  18
HETATM   18  C9  UNL     1      -0.053   4.731  12.306  1.00  0.00     0.127 C 
BRANCH  18  19
HETATM   19  C8  UNL     1       0.819   5.985  12.412  1.00  0.00     0.060 C 
BRANCH  19  20
HETATM   20  C7  UNL     1       0.728   6.844  11.191  1.00  0.00    -0.029 A 
HETATM   21  C6  UNL     1      -0.015   8.000  11.051  1.00  0.00     0.096 A 
HETATM   22  N1  UNL     1       0.172   8.481   9.783  1.00  0.00    -0.365 N 
HETATM   23  C5  UNL     1       1.030   7.664   9.086  1.00  0.00     0.043 A 
HETATM   24  H6  UNL     1      -0.255   9.315   9.406  1.00  0.00     0.165 HD
HETATM   25  C4  UNL     1       1.506   7.762   7.774  1.00  0.00     0.033 A 
HETATM   26  C26 UNL     1       1.394   6.625   9.942  1.00  0.00     0.001 A 
HETATM   27  C3  UNL     1       2.382   6.766   7.321  1.00  0.00     0.039 A 
HETATM   28  C2  UNL     1       2.768   5.711   8.148  1.00  0.00     0.069 A 
HETATM   29  C27 UNL     1       2.276   5.637   9.459  1.00  0.00     0.051 A 
BRANCH  28  30
HETATM   30  O1  UNL     1       3.616   4.693   7.805  1.00  0.00    -0.356 OA
HETATM   31  C1  UNL     1       3.490   4.162   6.492  1.00  0.00     0.210 C 
ENDBRANCH  28  30
ENDBRANCH  19  20
ENDBRANCH  18  19
ENDBRANCH  15  18
ENDBRANCH   1  14
BRANCH   7  32
HETATM   32  C17 UNL     1     -10.006   8.020  15.067  1.00  0.00    -0.032 A 
HETATM   33  C18 UNL     1      -9.874   8.169  16.452  1.00  0.00     0.011 A 
HETATM   34  C19 UNL     1     -10.433   9.275  17.097  1.00  0.00     0.003 A 
HETATM   35  C20 UNL     1     -11.124  10.236  16.360  1.00  0.00     0.024 A 
HETATM   36  C21 UNL     1     -11.254  10.088  14.980  1.00  0.00     0.034 A 
HETATM   37 CL1  UNL     1     -12.103  11.278  14.071  1.00  0.00    -0.084 Cl
HETATM   38  C22 UNL     1     -10.697   8.987  14.329  1.00  0.00     0.035 A 
ENDBRANCH   7  32
TORSDOF 6
ENDMDL
MODEL 9
REMARK minimizedAffinity -9.07792759
REMARK CNNscore 0.146423414
REMARK CNNaffinity 6.07994509
REMARK  6 active torsions:
REMARK  status: ('A' for Active; 'I' for Inactive)
REMARK    1  A    between atoms: O1_2  and  C2_3 
REMARK    2  A    between atoms: C7_9  and  C8_10 
REMARK    3  A    between atoms: C8_10  and  C9_11 
REMARK    4  A    between atoms: C9_11  and  N2_12 
REMARK       I    between atoms: N2_12  and  C10_13 
REMARK    5  A    between atoms: C10_13  and  C11_15 
REMARK    6  A    between atoms: C16_21  and  C17_22 
ROOT
HETATM    1  C11 UNL     1      -2.283   9.121  15.479  1.00  0.00     0.034 A 
HETATM    2  C12 UNL     1      -3.168   9.762  16.357  1.00  0.00     0.020 A 
HETATM    3  C13 UNL     1      -2.684  10.404  17.499  1.00  0.00     0.040 A 
HETATM    4  C14 UNL     1      -1.317  10.394  17.769  1.00  0.00     0.103 A 
HETATM    5  O3  UNL     1      -0.895  11.037  18.901  1.00  0.00    -0.303 OA
HETATM    6  C15 UNL     1       0.468  11.024  19.216  1.00  0.00     0.144 A 
HETATM    7  C16 UNL     1       0.834  11.648  20.350  1.00  0.00     0.054 C 
HETATM    8  C23 UNL     1       1.454  10.339  18.305  1.00  0.00     0.280 A 
HETATM    9  O4  UNL     1       2.666  10.299  18.490  1.00  0.00    -0.265 OA
HETATM   10  N3  UNL     1       0.921   9.734  17.200  1.00  0.00    -0.319 N 
HETATM   11  C24 UNL     1      -0.439   9.743  16.907  1.00  0.00     0.070 A 
HETATM   12  C25 UNL     1      -0.910   9.101  15.761  1.00  0.00     0.049 A 
HETATM   13  H20 UNL     1       1.586   9.266  16.598  1.00  0.00     0.169 HD
ENDROOT
BRANCH   1  14
HETATM   14  C10 UNL     1      -2.846   8.448  14.277  1.00  0.00     0.251 C 
HETATM   15  N2  UNL     1      -2.960   7.075  14.341  1.00  0.00    -0.357 N 
HETATM   16  H12 UNL     1      -2.497   6.570  15.083  1.00  0.00     0.162 HD
HETATM   17  O2  UNL     1      -3.146   9.108  13.290  1.00  0.00    -0.268 OA
BRANCH  15  18
HETATM   18  C9  UNL     1      -3.425   6.308  13.197  1.00  0.00     0.127 C 
BRANCH  18  19
HETATM   19  C8  UNL     1      -2.369   5.328  12.679  1.00  0.00     0.060 C 
BRANCH  19  20
HETATM   20  C7  UNL     1      -2.979   4.089  12.104  1.00  0.00    -0.029 A 
HETATM   21  C6  UNL     1      -2.337   3.132  11.342  1.00  0.00     0.096 A 
HETATM   22  N1  UNL     1      -3.247   2.163  11.012  1.00  0.00    -0.365 N 
HETATM   23  C5  UNL     1      -4.476   2.463  11.549  1.00  0.00     0.043 A 
HETATM   24  H6  UNL     1      -3.050   1.343  10.456  1.00  0.00     0.165 HD
HETATM   25  C4  UNL     1      -5.687   1.767  11.476  1.00  0.00     0.033 A 
HETATM   26  C26 UNL     1      -4.341   3.667  12.237  1.00  0.00     0.001 A 
HETATM   27  C3  UNL     1      -6.799   2.320  12.128  1.00  0.00     0.039 A 
HETATM   28  C2  UNL     1      -6.702   3.524  12.827  1.00  0.00     0.069 A 
HETATM   29  C27 UNL     1      -5.476   4.201  12.883  1.00  0.00     0.051 A 
BRANCH  28  30
HETATM   30  O1  UNL     1      -7.722   4.146  13.495  1.00  0.00    -0.356 OA
HETATM   31  C1  UNL     1      -8.367   5.224  12.831  1.00  0.00     0.210 C 
ENDBRANCH  28  30
ENDBRANCH  19  20
ENDBRANCH  18  19
ENDBRANCH  15  18
ENDBRANCH   1  14
BRANCH   7  32
HETATM   32  C17 UNL     1       2.178  11.775  20.915  1.00  0.00    -0.032 A 
HETATM   33  C18 UNL     1       2.965  12.889  20.600  1.00  0.00     0.011 A 
HETATM   34  C19 UNL     1       4.244  13.023  21.143  1.00  0.00     0.003 A 
HETATM   35  C20 UNL     1       4.741  12.045  22.005  1.00  0.00     0.024 A 
HETATM   36  C21 UNL     1       3.956  10.937  22.320  1.00  0.00     0.034 A 
HETATM   37 CL1  UNL     1       4.569   9.734  23.388  1.00  0.00    -0.084 Cl
HETATM   38  C22 UNL     1       2.677  10.797  21.782  1.00  0.00     0.035 A 
ENDBRANCH   7  32
TORSDOF 6
ENDMDL
