MODEL 1
REMARK minimizedAffinity -9.96513939
REMARK  7 active torsions:
REMARK  status: ('A' for Active; 'I' for Inactive)
REMARK    1  A    between atoms: C2_2  and  C30_32 
REMARK    2  A    between atoms: C3_3  and  C4_4 
REMARK    3  A    between atoms: C4_4  and  O1_5 
REMARK    4  A    between atoms: C4_4  and  C5_6 
REMARK    5  A    between atoms: C5_6  and  C6_7 
REMARK    6  A    between atoms: C6_7  and  C8_9 
REMARK    7  A    between atoms: C30_32  and  O3_33 
ROOT
HETATM    1  C8  UNL     1      -0.587  52.370 -21.867  1.00  0.00    -0.002 C 
HETATM    2  C9  UNL     1       0.842  53.001 -21.852  1.00  0.00     0.007 C 
HETATM    3  C10 UNL     1       1.410  52.831 -20.427  1.00  0.00     0.015 C 
HETATM    4  C11 UNL     1       0.194  52.425 -19.575  1.00  0.00    -0.013 C 
HETATM    5  C12 UNL     1      -0.560  53.759 -19.234  1.00  0.00     0.021 C 
HETATM    6  C13 UNL     1       0.440  51.743 -18.226  1.00  0.00    -0.070 C 
HETATM    7  C14 UNL     1       1.417  52.171 -17.417  1.00  0.00    -0.022 C 
HETATM    8  C15 UNL     1       1.545  51.773 -15.992  1.00  0.00     0.034 C 
HETATM    9  C16 UNL     1       0.202  51.338 -15.338  1.00  0.00     0.013 C 
HETATM   10  C17 UNL     1       0.458  50.931 -13.828  1.00  0.00     0.018 C 
HETATM   11  C18 UNL     1       1.398  51.941 -13.121  1.00  0.00     0.023 C 
HETATM   12  C19 UNL     1      -0.830  50.894 -12.975  1.00  0.00     0.023 C 
HETATM   13  C20 UNL     1       1.112  49.541 -13.789  1.00  0.00     0.135 C 
HETATM   14  O2  UNL     1       2.021  49.268 -13.003  1.00  0.00    -0.297 OA
HETATM   15  C21 UNL     1       0.532  48.459 -14.675  1.00  0.00     0.080 C 
HETATM   16  C22 UNL     1       0.313  48.931 -16.106  1.00  0.00     0.017 C 
HETATM   17  C23 UNL     1      -0.515  50.250 -16.233  1.00  0.00    -0.031 C 
HETATM   18  C24 UNL     1      -1.953  49.952 -15.752  1.00  0.00     0.016 C 
HETATM   19  C25 UNL     1      -0.550  50.658 -17.791  1.00  0.00     0.024 C 
HETATM   20  C26 UNL     1      -1.941  50.942 -18.417  1.00  0.00     0.010 C 
HETATM   21  C27 UNL     1      -1.946  51.151 -19.957  1.00  0.00     0.011 C 
HETATM   22  C28 UNL     1      -0.571  51.488 -20.572  1.00  0.00    -0.029 C 
HETATM   23  C29 UNL     1       0.195  50.169 -20.915  1.00  0.00     0.016 C 
ENDROOT
BRANCH   1  24
HETATM   24  C6  UNL     1      -0.938  51.733 -23.247  1.00  0.00    -0.011 C 
HETATM   25  C7  UNL     1      -2.116  50.757 -23.141  1.00  0.00     0.010 C 
BRANCH  24  26
HETATM   26  C5  UNL     1      -1.255  52.849 -24.284  1.00  0.00     0.040 C 
BRANCH  26  27
HETATM   27  C4  UNL     1      -0.035  53.609 -24.828  1.00  0.00     0.141 C 
BRANCH  27  28
HETATM   28  C3  UNL     1       1.106  52.677 -25.149  1.00  0.00     0.009 C 
HETATM   29  C2  UNL     1       1.304  51.891 -26.232  1.00  0.00    -0.062 C 
HETATM   30  C1  UNL     1       0.320  51.748 -27.366  1.00  0.00     0.045 C 
BRANCH  29  31
HETATM   31  C30 UNL     1       2.546  51.046 -26.424  1.00  0.00     0.198 C 
BRANCH  31  32
HETATM   32  O3  UNL     1       3.350  51.513 -27.498  1.00  0.00    -0.397 OA
HETATM   33  H48 UNL     1       3.678  52.388 -27.231  1.00  0.00     0.209 HD
ENDBRANCH  31  32
ENDBRANCH  29  31
ENDBRANCH  27  28
BRANCH  27  34
HETATM   34  O1  UNL     1      -0.393  54.376 -25.970  1.00  0.00    -0.392 OA
HETATM   35  H6  UNL     1       0.439  54.659 -26.386  1.00  0.00     0.210 HD
ENDBRANCH  27  34
ENDBRANCH  26  27
ENDBRANCH  24  26
ENDBRANCH   1  24
TORSDOF 7
ENDMDL
MODEL 2
REMARK minimizedAffinity -9.68550491
REMARK  7 active torsions:
REMARK  status: ('A' for Active; 'I' for Inactive)
REMARK    1  A    between atoms: C2_2  and  C30_32 
REMARK    2  A    between atoms: C3_3  and  C4_4 
REMARK    3  A    between atoms: C4_4  and  O1_5 
REMARK    4  A    between atoms: C4_4  and  C5_6 
REMARK    5  A    between atoms: C5_6  and  C6_7 
REMARK    6  A    between atoms: C6_7  and  C8_9 
REMARK    7  A    between atoms: C30_32  and  O3_33 
ROOT
HETATM    1  C8  UNL     1      -1.021  51.527 -21.378  1.00  0.00    -0.002 C 
HETATM    2  C9  UNL     1      -0.208  50.247 -21.003  1.00  0.00     0.007 C 
HETATM    3  C10 UNL     1      -1.169  49.043 -21.094  1.00  0.00     0.015 C 
HETATM    4  C11 UNL     1      -2.569  49.675 -21.181  1.00  0.00    -0.013 C 
HETATM    5  C12 UNL     1      -2.977  50.029 -19.707  1.00  0.00     0.021 C 
HETATM    6  C13 UNL     1      -3.723  48.827 -21.728  1.00  0.00    -0.070 C 
HETATM    7  C14 UNL     1      -3.844  47.540 -21.378  1.00  0.00    -0.022 C 
HETATM    8  C15 UNL     1      -5.066  46.731 -21.616  1.00  0.00     0.034 C 
HETATM    9  C16 UNL     1      -6.366  47.575 -21.735  1.00  0.00     0.013 C 
HETATM   10  C17 UNL     1      -7.599  46.613 -21.995  1.00  0.00     0.018 C 
HETATM   11  C18 UNL     1      -7.542  45.361 -21.081  1.00  0.00     0.023 C 
HETATM   12  C19 UNL     1      -8.965  47.275 -21.709  1.00  0.00     0.023 C 
HETATM   13  C20 UNL     1      -7.574  46.153 -23.461  1.00  0.00     0.135 C 
HETATM   14  O2  UNL     1      -7.844  44.996 -23.787  1.00  0.00    -0.297 OA
HETATM   15  C21 UNL     1      -7.315  47.196 -24.527  1.00  0.00     0.080 C 
HETATM   16  C22 UNL     1      -6.119  48.080 -24.201  1.00  0.00     0.017 C 
HETATM   17  C23 UNL     1      -6.169  48.740 -22.785  1.00  0.00    -0.031 C 
HETATM   18  C24 UNL     1      -7.345  49.744 -22.774  1.00  0.00     0.016 C 
HETATM   19  C25 UNL     1      -4.786  49.539 -22.568  1.00  0.00     0.024 C 
HETATM   20  C26 UNL     1      -4.889  51.024 -22.129  1.00  0.00     0.010 C 
HETATM   21  C27 UNL     1      -3.545  51.804 -22.109  1.00  0.00     0.011 C 
HETATM   22  C28 UNL     1      -2.280  50.920 -22.087  1.00  0.00    -0.029 C 
HETATM   23  C29 UNL     1      -1.862  50.556 -23.550  1.00  0.00     0.016 C 
ENDROOT
BRANCH   1  24
HETATM   24  C6  UNL     1      -0.145  52.592 -22.108  1.00  0.00    -0.011 C 
HETATM   25  C7  UNL     1       1.143  52.896 -21.337  1.00  0.00     0.010 C 
BRANCH  24  26
HETATM   26  C5  UNL     1       0.191  52.108 -23.549  1.00  0.00     0.040 C 
BRANCH  26  27
HETATM   27  C4  UNL     1       0.296  53.215 -24.608  1.00  0.00     0.141 C 
BRANCH  27  28
HETATM   28  C3  UNL     1       1.197  52.813 -25.749  1.00  0.00     0.009 C 
HETATM   29  C2  UNL     1       1.021  51.868 -26.701  1.00  0.00    -0.062 C 
HETATM   30  C1  UNL     1      -0.165  50.938 -26.761  1.00  0.00     0.045 C 
BRANCH  29  31
HETATM   31  C30 UNL     1       2.012  51.627 -27.819  1.00  0.00     0.198 C 
BRANCH  31  32
HETATM   32  O3  UNL     1       3.340  51.487 -27.338  1.00  0.00    -0.397 OA
HETATM   33  H48 UNL     1       3.353  50.672 -26.808  1.00  0.00     0.209 HD
ENDBRANCH  31  32
ENDBRANCH  29  31
ENDBRANCH  27  28
BRANCH  27  34
HETATM   34  O1  UNL     1      -0.993  53.571 -25.090  1.00  0.00    -0.392 OA
HETATM   35  H6  UNL     1      -0.853  54.110 -25.887  1.00  0.00     0.210 HD
ENDBRANCH  27  34
ENDBRANCH  26  27
ENDBRANCH  24  26
ENDBRANCH   1  24
TORSDOF 7
ENDMDL
MODEL 3
REMARK minimizedAffinity -9.63965034
REMARK  7 active torsions:
REMARK  status: ('A' for Active; 'I' for Inactive)
REMARK    1  A    between atoms: C2_2  and  C30_32 
REMARK    2  A    between atoms: C3_3  and  C4_4 
REMARK    3  A    between atoms: C4_4  and  O1_5 
REMARK    4  A    between atoms: C4_4  and  C5_6 
REMARK    5  A    between atoms: C5_6  and  C6_7 
REMARK    6  A    between atoms: C6_7  and  C8_9 
REMARK    7  A    between atoms: C30_32  and  O3_33 
ROOT
HETATM    1  C8  UNL     1      -0.758  52.559 -21.914  1.00  0.00    -0.002 C 
HETATM    2  C9  UNL     1       0.720  53.052 -22.025  1.00  0.00     0.007 C 
HETATM    3  C10 UNL     1       1.387  52.836 -20.651  1.00  0.00     0.015 C 
HETATM    4  C11 UNL     1       0.214  52.551 -19.696  1.00  0.00    -0.013 C 
HETATM    5  C12 UNL     1      -0.381  53.952 -19.310  1.00  0.00     0.021 C 
HETATM    6  C13 UNL     1       0.507  51.855 -18.363  1.00  0.00    -0.070 C 
HETATM    7  C14 UNL     1       1.585  52.193 -17.643  1.00  0.00    -0.022 C 
HETATM    8  C15 UNL     1       1.794  51.793 -16.229  1.00  0.00     0.034 C 
HETATM    9  C16 UNL     1       0.476  51.489 -15.460  1.00  0.00     0.013 C 
HETATM   10  C17 UNL     1       0.818  51.067 -13.971  1.00  0.00     0.018 C 
HETATM   11  C18 UNL     1       1.905  51.988 -13.358  1.00  0.00     0.023 C 
HETATM   12  C19 UNL     1      -0.391  51.157 -13.014  1.00  0.00     0.023 C 
HETATM   13  C20 UNL     1       1.340  49.622 -13.969  1.00  0.00     0.135 C 
HETATM   14  O2  UNL     1       2.282  49.269 -13.257  1.00  0.00    -0.297 OA
HETATM   15  C21 UNL     1       0.589  48.596 -14.790  1.00  0.00     0.080 C 
HETATM   16  C22 UNL     1       0.296  49.079 -16.204  1.00  0.00     0.017 C 
HETATM   17  C23 UNL     1      -0.412  50.469 -16.278  1.00  0.00    -0.031 C 
HETATM   18  C24 UNL     1      -1.827  50.310 -15.676  1.00  0.00     0.016 C 
HETATM   19  C25 UNL     1      -0.539  50.871 -17.833  1.00  0.00     0.024 C 
HETATM   20  C26 UNL     1      -1.946  51.282 -18.346  1.00  0.00     0.010 C 
HETATM   21  C27 UNL     1      -2.060  51.483 -19.882  1.00  0.00     0.011 C 
HETATM   22  C28 UNL     1      -0.716  51.686 -20.614  1.00  0.00    -0.029 C 
HETATM   23  C29 UNL     1      -0.109  50.298 -21.002  1.00  0.00     0.016 C 
ENDROOT
BRANCH   1  24
HETATM   24  C6  UNL     1      -1.282  51.950 -23.252  1.00  0.00    -0.011 C 
HETATM   25  C7  UNL     1      -2.775  52.231 -23.460  1.00  0.00     0.010 C 
BRANCH  24  26
HETATM   26  C5  UNL     1      -0.458  52.507 -24.449  1.00  0.00     0.040 C 
BRANCH  26  27
HETATM   27  C4  UNL     1       0.088  51.450 -25.421  1.00  0.00     0.141 C 
BRANCH  27  28
HETATM   28  C3  UNL     1      -1.022  50.684 -26.095  1.00  0.00     0.009 C 
HETATM   29  C2  UNL     1      -1.967  51.113 -26.964  1.00  0.00    -0.062 C 
HETATM   30  C1  UNL     1      -2.129  52.548 -27.399  1.00  0.00     0.045 C 
BRANCH  29  31
HETATM   31  C30 UNL     1      -2.987  50.190 -27.596  1.00  0.00     0.198 C 
BRANCH  31  32
HETATM   32  O3  UNL     1      -3.409  50.651 -28.871  1.00  0.00    -0.397 OA
HETATM   33  H48 UNL     1      -2.629  50.600 -29.450  1.00  0.00     0.209 HD
ENDBRANCH  31  32
ENDBRANCH  29  31
ENDBRANCH  27  28
BRANCH  27  34
HETATM   34  O1  UNL     1       0.940  52.053 -26.387  1.00  0.00    -0.392 OA
HETATM   35  H6  UNL     1       1.082  51.390 -27.084  1.00  0.00     0.210 HD
ENDBRANCH  27  34
ENDBRANCH  26  27
ENDBRANCH  24  26
ENDBRANCH   1  24
TORSDOF 7
ENDMDL
MODEL 4
REMARK minimizedAffinity -9.29843807
REMARK  7 active torsions:
REMARK  status: ('A' for Active; 'I' for Inactive)
REMARK    1  A    between atoms: C2_2  and  C30_32 
REMARK    2  A    between atoms: C3_3  and  C4_4 
REMARK    3  A    between atoms: C4_4  and  O1_5 
REMARK    4  A    between atoms: C4_4  and  C5_6 
REMARK    5  A    between atoms: C5_6  and  C6_7 
REMARK    6  A    between atoms: C6_7  and  C8_9 
REMARK    7  A    between atoms: C30_32  and  O3_33 
ROOT
HETATM    1  C8  UNL     1      -2.146  49.692 -23.387  1.00  0.00    -0.002 C 
HETATM    2  C9  UNL     1      -3.344  48.689 -23.367  1.00  0.00     0.007 C 
HETATM    3  C10 UNL     1      -3.558  48.249 -21.904  1.00  0.00     0.015 C 
HETATM    4  C11 UNL     1      -2.292  48.725 -21.171  1.00  0.00    -0.013 C 
HETATM    5  C12 UNL     1      -1.194  47.639 -21.452  1.00  0.00     0.021 C 
HETATM    6  C13 UNL     1      -2.338  48.869 -19.646  1.00  0.00    -0.070 C 
HETATM    7  C14 UNL     1      -2.957  47.948 -18.896  1.00  0.00    -0.022 C 
HETATM    8  C15 UNL     1      -2.809  47.845 -17.423  1.00  0.00     0.034 C 
HETATM    9  C16 UNL     1      -1.480  48.445 -16.881  1.00  0.00     0.013 C 
HETATM   10  C17 UNL     1      -1.432  48.288 -15.305  1.00  0.00     0.018 C 
HETATM   11  C18 UNL     1      -1.910  46.880 -14.862  1.00  0.00     0.023 C 
HETATM   12  C19 UNL     1      -0.014  48.451 -14.714  1.00  0.00     0.023 C 
HETATM   13  C20 UNL     1      -2.353  49.341 -14.670  1.00  0.00     0.135 C 
HETATM   14  O2  UNL     1      -3.072  49.083 -13.703  1.00  0.00    -0.297 OA
HETATM   15  C21 UNL     1      -2.275  50.759 -15.194  1.00  0.00     0.080 C 
HETATM   16  C22 UNL     1      -2.323  50.824 -16.714  1.00  0.00     0.017 C 
HETATM   17  C23 UNL     1      -1.277  49.913 -17.433  1.00  0.00    -0.031 C 
HETATM   18  C24 UNL     1       0.131  50.468 -17.116  1.00  0.00     0.016 C 
HETATM   19  C25 UNL     1      -1.544  50.017 -19.019  1.00  0.00     0.024 C 
HETATM   20  C26 UNL     1      -0.328  50.362 -19.920  1.00  0.00     0.010 C 
HETATM   21  C27 UNL     1      -0.664  50.633 -21.413  1.00  0.00     0.011 C 
HETATM   22  C28 UNL     1      -2.035  50.100 -21.878  1.00  0.00    -0.029 C 
HETATM   23  C29 UNL     1      -3.141  51.171 -21.602  1.00  0.00     0.016 C 
ENDROOT
BRANCH   1  24
HETATM   24  C6  UNL     1      -2.308  50.786 -24.487  1.00  0.00    -0.011 C 
HETATM   25  C7  UNL     1      -3.773  50.968 -24.900  1.00  0.00     0.010 C 
BRANCH  24  26
HETATM   26  C5  UNL     1      -1.718  52.136 -23.985  1.00  0.00     0.040 C 
BRANCH  26  27
HETATM   27  C4  UNL     1      -0.825  52.879 -24.991  1.00  0.00     0.141 C 
BRANCH  27  28
HETATM   28  C3  UNL     1       0.510  52.198 -25.163  1.00  0.00     0.009 C 
HETATM   29  C2  UNL     1       1.121  51.761 -26.288  1.00  0.00    -0.062 C 
HETATM   30  C1  UNL     1       0.508  51.827 -27.665  1.00  0.00     0.045 C 
BRANCH  29  31
HETATM   31  C30 UNL     1       2.501  51.140 -26.291  1.00  0.00     0.198 C 
BRANCH  31  32
HETATM   32  O3  UNL     1       3.264  51.533 -27.422  1.00  0.00    -0.397 OA
HETATM   33  H48 UNL     1       3.417  52.489 -27.326  1.00  0.00     0.209 HD
ENDBRANCH  31  32
ENDBRANCH  29  31
ENDBRANCH  27  28
BRANCH  27  34
HETATM   34  O1  UNL     1      -1.485  53.011 -26.243  1.00  0.00    -0.392 OA
HETATM   35  H6  UNL     1      -0.810  53.292 -26.885  1.00  0.00     0.210 HD
ENDBRANCH  27  34
ENDBRANCH  26  27
ENDBRANCH  24  26
ENDBRANCH   1  24
TORSDOF 7
ENDMDL
MODEL 5
REMARK minimizedAffinity -9.21533775
REMARK  7 active torsions:
REMARK  status: ('A' for Active; 'I' for Inactive)
REMARK    1  A    between atoms: C2_2  and  C30_32 
REMARK    2  A    between atoms: C3_3  and  C4_4 
REMARK    3  A    between atoms: C4_4  and  O1_5 
REMARK    4  A    between atoms: C4_4  and  C5_6 
REMARK    5  A    between atoms: C5_6  and  C6_7 
REMARK    6  A    between atoms: C6_7  and  C8_9 
REMARK    7  A    between atoms: C30_32  and  O3_33 
ROOT
HETATM    1  C8  UNL     1      -3.416  50.417 -25.253  1.00  0.00    -0.002 C 
HETATM    2  C9  UNL     1      -2.770  51.433 -24.258  1.00  0.00     0.007 C 
HETATM    3  C10 UNL     1      -3.468  51.255 -22.893  1.00  0.00     0.015 C 
HETATM    4  C11 UNL     1      -4.710  50.402 -23.206  1.00  0.00    -0.013 C 
HETATM    5  C12 UNL     1      -5.793  51.398 -23.753  1.00  0.00     0.021 C 
HETATM    6  C13 UNL     1      -5.393  49.653 -22.057  1.00  0.00    -0.070 C 
HETATM    7  C14 UNL     1      -5.555  50.242 -20.865  1.00  0.00    -0.022 C 
HETATM    8  C15 UNL     1      -6.446  49.718 -19.799  1.00  0.00     0.034 C 
HETATM    9  C16 UNL     1      -7.604  48.825 -20.329  1.00  0.00     0.013 C 
HETATM   10  C17 UNL     1      -8.481  48.319 -19.110  1.00  0.00     0.018 C 
HETATM   11  C18 UNL     1      -8.755  49.461 -18.098  1.00  0.00     0.023 C 
HETATM   12  C19 UNL     1      -9.872  47.794 -19.531  1.00  0.00     0.023 C 
HETATM   13  C20 UNL     1      -7.729  47.191 -18.387  1.00  0.00     0.135 C 
HETATM   14  O2  UNL     1      -7.713  47.099 -17.159  1.00  0.00    -0.297 OA
HETATM   15  C21 UNL     1      -7.088  46.111 -19.232  1.00  0.00     0.080 C 
HETATM   16  C22 UNL     1      -6.267  46.679 -20.382  1.00  0.00     0.017 C 
HETATM   17  C23 UNL     1      -7.034  47.699 -21.282  1.00  0.00    -0.031 C 
HETATM   18  C24 UNL     1      -8.157  46.931 -22.016  1.00  0.00     0.016 C 
HETATM   19  C25 UNL     1      -5.991  48.278 -22.365  1.00  0.00     0.024 C 
HETATM   20  C26 UNL     1      -6.414  48.218 -23.858  1.00  0.00     0.010 C 
HETATM   21  C27 UNL     1      -5.310  48.614 -24.877  1.00  0.00     0.011 C 
HETATM   22  C28 UNL     1      -4.135  49.419 -24.283  1.00  0.00    -0.029 C 
HETATM   23  C29 UNL     1      -3.047  48.440 -23.730  1.00  0.00     0.016 C 
ENDROOT
BRANCH   1  24
HETATM   24  C6  UNL     1      -2.394  49.889 -26.307  1.00  0.00    -0.011 C 
HETATM   25  C7  UNL     1      -2.793  48.512 -26.848  1.00  0.00     0.010 C 
BRANCH  24  26
HETATM   26  C5  UNL     1      -2.259  50.909 -27.475  1.00  0.00     0.040 C 
BRANCH  26  27
HETATM   27  C4  UNL     1      -1.318  52.094 -27.210  1.00  0.00     0.141 C 
BRANCH  27  28
HETATM   28  C3  UNL     1       0.129  51.669 -27.207  1.00  0.00     0.009 C 
HETATM   29  C2  UNL     1       1.051  51.744 -26.220  1.00  0.00    -0.062 C 
HETATM   30  C1  UNL     1       0.799  52.364 -24.869  1.00  0.00     0.045 C 
BRANCH  29  31
HETATM   31  C30 UNL     1       2.463  51.215 -26.367  1.00  0.00     0.198 C 
BRANCH  31  32
HETATM   32  O3  UNL     1       3.219  51.962 -27.309  1.00  0.00    -0.397 OA
HETATM   33  H48 UNL     1       3.320  52.852 -26.931  1.00  0.00     0.209 HD
ENDBRANCH  31  32
ENDBRANCH  29  31
ENDBRANCH  27  28
BRANCH  27  34
HETATM   34  O1  UNL     1      -1.535  53.126 -28.163  1.00  0.00    -0.392 OA
HETATM   35  H6  UNL     1      -0.788  53.744 -28.080  1.00  0.00     0.210 HD
ENDBRANCH  27  34
ENDBRANCH  26  27
ENDBRANCH  24  26
ENDBRANCH   1  24
TORSDOF 7
ENDMDL
MODEL 6
REMARK minimizedAffinity -9.20312881
REMARK  7 active torsions:
REMARK  status: ('A' for Active; 'I' for Inactive)
REMARK    1  A    between atoms: C2_2  and  C30_32 
REMARK    2  A    between atoms: C3_3  and  C4_4 
REMARK    3  A    between atoms: C4_4  and  O1_5 
REMARK    4  A    between atoms: C4_4  and  C5_6 
REMARK    5  A    between atoms: C5_6  and  C6_7 
REMARK    6  A    between atoms: C6_7  and  C8_9 
REMARK    7  A    between atoms: C30_32  and  O3_33 
ROOT
HETATM    1  C8  UNL     1      -4.904  48.200 -21.104  1.00  0.00    -0.002 C 
HETATM    2  C9  UNL     1      -4.186  48.985 -19.961  1.00  0.00     0.007 C 
HETATM    3  C10 UNL     1      -3.117  49.885 -20.615  1.00  0.00     0.015 C 
HETATM    4  C11 UNL     1      -3.004  49.360 -22.057  1.00  0.00    -0.013 C 
HETATM    5  C12 UNL     1      -2.064  48.106 -21.989  1.00  0.00     0.021 C 
HETATM    6  C13 UNL     1      -2.387  50.272 -23.122  1.00  0.00    -0.070 C 
HETATM    7  C14 UNL     1      -1.306  51.010 -22.839  1.00  0.00    -0.022 C 
HETATM    8  C15 UNL     1      -0.476  51.689 -23.867  1.00  0.00     0.034 C 
HETATM    9  C16 UNL     1      -0.556  51.031 -25.274  1.00  0.00     0.013 C 
HETATM   10  C17 UNL     1       0.358  51.837 -26.287  1.00  0.00     0.018 C 
HETATM   11  C18 UNL     1       1.727  52.196 -25.652  1.00  0.00     0.023 C 
HETATM   12  C19 UNL     1       0.692  51.050 -27.574  1.00  0.00     0.023 C 
HETATM   13  C20 UNL     1      -0.358  53.138 -26.679  1.00  0.00     0.135 C 
HETATM   14  O2  UNL     1       0.246  54.207 -26.796  1.00  0.00    -0.297 OA
HETATM   15  C21 UNL     1      -1.827  53.060 -27.036  1.00  0.00     0.080 C 
HETATM   16  C22 UNL     1      -2.633  52.267 -26.017  1.00  0.00     0.017 C 
HETATM   17  C23 UNL     1      -2.065  50.845 -25.707  1.00  0.00    -0.031 C 
HETATM   18  C24 UNL     1      -2.206  49.991 -26.988  1.00  0.00     0.016 C 
HETATM   19  C25 UNL     1      -2.967  50.201 -24.537  1.00  0.00     0.024 C 
HETATM   20  C26 UNL     1      -3.547  48.784 -24.790  1.00  0.00     0.010 C 
HETATM   21  C27 UNL     1      -4.556  48.279 -23.722  1.00  0.00     0.011 C 
HETATM   22  C28 UNL     1      -4.503  49.027 -22.372  1.00  0.00    -0.029 C 
HETATM   23  C29 UNL     1      -5.434  50.283 -22.425  1.00  0.00     0.016 C 
ENDROOT
BRANCH   1  24
HETATM   24  C6  UNL     1      -6.408  47.932 -20.784  1.00  0.00    -0.011 C 
HETATM   25  C7  UNL     1      -6.836  48.584 -19.465  1.00  0.00     0.010 C 
BRANCH  24  26
HETATM   26  C5  UNL     1      -7.300  48.444 -21.953  1.00  0.00     0.040 C 
BRANCH  26  27
HETATM   27  C4  UNL     1      -8.207  47.387 -22.601  1.00  0.00     0.141 C 
BRANCH  27  28
HETATM   28  C3  UNL     1      -8.996  47.958 -23.753  1.00  0.00     0.009 C 
HETATM   29  C2  UNL     1      -8.642  48.121 -25.048  1.00  0.00    -0.062 C 
HETATM   30  C1  UNL     1      -7.278  47.794 -25.602  1.00  0.00     0.045 C 
BRANCH  29  31
HETATM   31  C30 UNL     1      -9.585  48.668 -26.099  1.00  0.00     0.198 C 
BRANCH  31  32
HETATM   32  O3  UNL     1      -9.682  50.083 -26.048  1.00  0.00    -0.397 OA
HETATM   33  H48 UNL     1      -8.804  50.424 -26.293  1.00  0.00     0.209 HD
ENDBRANCH  31  32
ENDBRANCH  29  31
ENDBRANCH  27  28
BRANCH  27  34
HETATM   34  O1  UNL     1      -7.444  46.265 -23.024  1.00  0.00    -0.392 OA
HETATM   35  H6  UNL     1      -8.022  45.737 -23.601  1.00  0.00     0.210 HD
ENDBRANCH  27  34
ENDBRANCH  26  27
ENDBRANCH  24  26
ENDBRANCH   1  24
TORSDOF 7
ENDMDL
MODEL 7
REMARK minimizedAffinity -9.1886034
REMARK  7 active torsions:
REMARK  status: ('A' for Active; 'I' for Inactive)
REMARK    1  A    between atoms: C2_2  and  C30_32 
REMARK    2  A    between atoms: C3_3  and  C4_4 
REMARK    3  A    between atoms: C4_4  and  O1_5 
REMARK    4  A    between atoms: C4_4  and  C5_6 
REMARK    5  A    between atoms: C5_6  and  C6_7 
REMARK    6  A    between atoms: C6_7  and  C8_9 
REMARK    7  A    between atoms: C30_32  and  O3_33 
ROOT
HETATM    1  C8  UNL     1      -2.305  51.001 -23.772  1.00  0.00    -0.002 C 
HETATM    2  C9  UNL     1      -3.492  51.543 -24.631  1.00  0.00     0.007 C 
HETATM    3  C10 UNL     1      -4.683  50.582 -24.436  1.00  0.00     0.015 C 
HETATM    4  C11 UNL     1      -4.071  49.343 -23.759  1.00  0.00    -0.013 C 
HETATM    5  C12 UNL     1      -3.431  48.491 -24.912  1.00  0.00     0.021 C 
HETATM    6  C13 UNL     1      -5.001  48.381 -23.013  1.00  0.00    -0.070 C 
HETATM    7  C14 UNL     1      -6.193  48.053 -23.528  1.00  0.00    -0.022 C 
HETATM    8  C15 UNL     1      -7.024  46.926 -23.035  1.00  0.00     0.034 C 
HETATM    9  C16 UNL     1      -6.210  45.807 -22.325  1.00  0.00     0.013 C 
HETATM   10  C17 UNL     1      -7.195  44.666 -21.837  1.00  0.00     0.018 C 
HETATM   11  C18 UNL     1      -8.244  44.319 -22.926  1.00  0.00     0.023 C 
HETATM   12  C19 UNL     1      -6.480  43.336 -21.510  1.00  0.00     0.023 C 
HETATM   13  C20 UNL     1      -7.935  45.148 -20.579  1.00  0.00     0.135 C 
HETATM   14  O2  UNL     1      -9.132  44.918 -20.396  1.00  0.00    -0.297 OA
HETATM   15  C21 UNL     1      -7.124  45.827 -19.496  1.00  0.00     0.080 C 
HETATM   16  C22 UNL     1      -6.201  46.906 -20.047  1.00  0.00     0.017 C 
HETATM   17  C23 UNL     1      -5.276  46.432 -21.213  1.00  0.00    -0.031 C 
HETATM   18  C24 UNL     1      -4.281  45.399 -20.636  1.00  0.00     0.016 C 
HETATM   19  C25 UNL     1      -4.461  47.717 -21.744  1.00  0.00     0.024 C 
HETATM   20  C26 UNL     1      -2.917  47.584 -21.842  1.00  0.00     0.010 C 
HETATM   21  C27 UNL     1      -2.158  48.897 -22.180  1.00  0.00     0.011 C 
HETATM   22  C28 UNL     1      -3.030  50.012 -22.797  1.00  0.00    -0.029 C 
HETATM   23  C29 UNL     1      -3.678  50.869 -21.660  1.00  0.00     0.016 C 
ENDROOT
BRANCH   1  24
HETATM   24  C6  UNL     1      -1.411  52.148 -23.207  1.00  0.00    -0.011 C 
HETATM   25  C7  UNL     1      -0.258  51.604 -22.355  1.00  0.00     0.010 C 
BRANCH  24  26
HETATM   26  C5  UNL     1      -0.856  53.015 -24.374  1.00  0.00     0.040 C 
BRANCH  26  27
HETATM   27  C4  UNL     1       0.669  53.195 -24.395  1.00  0.00     0.141 C 
BRANCH  27  28
HETATM   28  C3  UNL     1       1.310  52.410 -25.512  1.00  0.00     0.009 C 
HETATM   29  C2  UNL     1       1.085  52.461 -26.845  1.00  0.00    -0.062 C 
HETATM   30  C1  UNL     1       0.037  53.328 -27.495  1.00  0.00     0.045 C 
BRANCH  29  31
HETATM   31  C30 UNL     1       1.863  51.633 -27.846  1.00  0.00     0.198 C 
BRANCH  31  32
HETATM   32  O3  UNL     1       3.222  51.473 -27.468  1.00  0.00    -0.397 OA
HETATM   33  H48 UNL     1       3.217  50.944 -26.652  1.00  0.00     0.209 HD
ENDBRANCH  31  32
ENDBRANCH  29  31
ENDBRANCH  27  28
BRANCH  27  34
HETATM   34  O1  UNL     1       1.009  54.572 -24.491  1.00  0.00    -0.392 OA
HETATM   35  H6  UNL     1       1.956  54.610 -24.708  1.00  0.00     0.210 HD
ENDBRANCH  27  34
ENDBRANCH  26  27
ENDBRANCH  24  26
ENDBRANCH   1  24
TORSDOF 7
ENDMDL
MODEL 8
REMARK minimizedAffinity -9.0831604
REMARK  7 active torsions:
REMARK  status: ('A' for Active; 'I' for Inactive)
REMARK    1  A    between atoms: C2_2  and  C30_32 
REMARK    2  A    between atoms: C3_3  and  C4_4 
REMARK    3  A    between atoms: C4_4  and  O1_5 
REMARK    4  A    between atoms: C4_4  and  C5_6 
REMARK    5  A    between atoms: C5_6  and  C6_7 
REMARK    6  A    between atoms: C6_7  and  C8_9 
REMARK    7  A    between atoms: C30_32  and  O3_33 
ROOT
HETATM    1  C8  UNL     1      -6.007  48.555 -20.938  1.00  0.00    -0.002 C 
HETATM    2  C9  UNL     1      -5.655  49.673 -19.906  1.00  0.00     0.007 C 
HETATM    3  C10 UNL     1      -4.576  50.573 -20.545  1.00  0.00     0.015 C 
HETATM    4  C11 UNL     1      -4.087  49.775 -21.767  1.00  0.00    -0.013 C 
HETATM    5  C12 UNL     1      -3.049  48.734 -21.217  1.00  0.00     0.021 C 
HETATM    6  C13 UNL     1      -3.355  50.525 -22.885  1.00  0.00    -0.070 C 
HETATM    7  C14 UNL     1      -2.455  51.472 -22.591  1.00  0.00    -0.022 C 
HETATM    8  C15 UNL     1      -1.499  52.038 -23.576  1.00  0.00     0.034 C 
HETATM    9  C16 UNL     1      -1.189  51.089 -24.769  1.00  0.00     0.013 C 
HETATM   10  C17 UNL     1      -0.170  51.797 -25.755  1.00  0.00     0.018 C 
HETATM   11  C18 UNL     1       0.973  52.501 -24.979  1.00  0.00     0.023 C 
HETATM   12  C19 UNL     1       0.528  50.816 -26.724  1.00  0.00     0.023 C 
HETATM   13  C20 UNL     1      -0.924  52.850 -26.582  1.00  0.00     0.135 C 
HETATM   14  O2  UNL     1      -0.435  53.951 -26.839  1.00  0.00    -0.297 OA
HETATM   15  C21 UNL     1      -2.258  52.460 -27.180  1.00  0.00     0.080 C 
HETATM   16  C22 UNL     1      -3.176  51.784 -26.171  1.00  0.00     0.017 C 
HETATM   17  C23 UNL     1      -2.533  50.573 -25.422  1.00  0.00    -0.031 C 
HETATM   18  C24 UNL     1      -2.288  49.453 -26.458  1.00  0.00     0.016 C 
HETATM   19  C25 UNL     1      -3.594  50.058 -24.323  1.00  0.00     0.024 C 
HETATM   20  C26 UNL     1      -3.939  48.545 -24.328  1.00  0.00     0.010 C 
HETATM   21  C27 UNL     1      -5.097  48.125 -23.381  1.00  0.00     0.011 C 
HETATM   22  C28 UNL     1      -5.430  49.144 -22.270  1.00  0.00    -0.029 C 
HETATM   23  C29 UNL     1      -6.462  50.191 -22.803  1.00  0.00     0.016 C 
ENDROOT
BRANCH   1  24
HETATM   24  C6  UNL     1      -7.504  48.121 -20.854  1.00  0.00    -0.011 C 
HETATM   25  C7  UNL     1      -7.770  46.833 -21.641  1.00  0.00     0.010 C 
BRANCH  24  26
HETATM   26  C5  UNL     1      -7.923  47.940 -19.366  1.00  0.00     0.040 C 
BRANCH  26  27
HETATM   27  C4  UNL     1      -8.972  48.937 -18.850  1.00  0.00     0.141 C 
BRANCH  27  28
HETATM   28  C3  UNL     1     -10.342  48.313 -18.764  1.00  0.00     0.009 C 
HETATM   29  C2  UNL     1     -10.884  47.544 -17.792  1.00  0.00    -0.062 C 
HETATM   30  C1  UNL     1     -10.143  47.089 -16.560  1.00  0.00     0.045 C 
BRANCH  29  31
HETATM   31  C30 UNL     1     -12.310  47.038 -17.838  1.00  0.00     0.198 C 
BRANCH  31  32
HETATM   32  O3  UNL     1     -13.078  47.498 -16.736  1.00  0.00    -0.397 OA
HETATM   33  H48 UNL     1     -13.148  48.463 -16.838  1.00  0.00     0.209 HD
ENDBRANCH  31  32
ENDBRANCH  29  31
ENDBRANCH  27  28
BRANCH  27  34
HETATM   34  O1  UNL     1      -8.581  49.465 -17.589  1.00  0.00    -0.392 OA
HETATM   35  H6  UNL     1      -9.361  49.916 -17.223  1.00  0.00     0.210 HD
ENDBRANCH  27  34
ENDBRANCH  26  27
ENDBRANCH  24  26
ENDBRANCH   1  24
TORSDOF 7
ENDMDL
MODEL 9
REMARK minimizedAffinity -9.07304859
REMARK  7 active torsions:
REMARK  status: ('A' for Active; 'I' for Inactive)
REMARK    1  A    between atoms: C2_2  and  C30_32 
REMARK    2  A    between atoms: C3_3  and  C4_4 
REMARK    3  A    between atoms: C4_4  and  O1_5 
REMARK    4  A    between atoms: C4_4  and  C5_6 
REMARK    5  A    between atoms: C5_6  and  C6_7 
REMARK    6  A    between atoms: C6_7  and  C8_9 
REMARK    7  A    between atoms: C30_32  and  O3_33 
ROOT
HETATM    1  C8  UNL     1      -1.589  50.881 -22.835  1.00  0.00    -0.002 C 
HETATM    2  C9  UNL     1      -1.842  50.264 -24.248  1.00  0.00     0.007 C 
HETATM    3  C10 UNL     1      -3.034  49.293 -24.125  1.00  0.00     0.015 C 
HETATM    4  C11 UNL     1      -3.223  49.108 -22.609  1.00  0.00    -0.013 C 
HETATM    5  C12 UNL     1      -2.163  48.037 -22.167  1.00  0.00     0.021 C 
HETATM    6  C13 UNL     1      -4.568  48.581 -22.098  1.00  0.00    -0.070 C 
HETATM    7  C14 UNL     1      -5.197  47.589 -22.741  1.00  0.00    -0.022 C 
HETATM    8  C15 UNL     1      -6.337  46.827 -22.172  1.00  0.00     0.034 C 
HETATM    9  C16 UNL     1      -6.374  46.820 -20.617  1.00  0.00     0.013 C 
HETATM   10  C17 UNL     1      -7.630  45.987 -20.123  1.00  0.00     0.018 C 
HETATM   11  C18 UNL     1      -7.790  44.673 -20.930  1.00  0.00     0.023 C 
HETATM   12  C19 UNL     1      -7.536  45.557 -18.642  1.00  0.00     0.023 C 
HETATM   13  C20 UNL     1      -8.897  46.836 -20.309  1.00  0.00     0.135 C 
HETATM   14  O2  UNL     1      -9.954  46.351 -20.714  1.00  0.00    -0.297 OA
HETATM   15  C21 UNL     1      -8.851  48.284 -19.870  1.00  0.00     0.080 C 
HETATM   16  C22 UNL     1      -7.615  49.011 -20.382  1.00  0.00     0.017 C 
HETATM   17  C23 UNL     1      -6.264  48.295 -20.060  1.00  0.00    -0.031 C 
HETATM   18  C24 UNL     1      -6.065  48.329 -18.527  1.00  0.00     0.016 C 
HETATM   19  C25 UNL     1      -5.084  49.134 -20.767  1.00  0.00     0.024 C 
HETATM   20  C26 UNL     1      -3.884  49.555 -19.878  1.00  0.00     0.010 C 
HETATM   21  C27 UNL     1      -2.864  50.515 -20.550  1.00  0.00     0.011 C 
HETATM   22  C28 UNL     1      -2.930  50.558 -22.092  1.00  0.00    -0.029 C 
HETATM   23  C29 UNL     1      -3.984  51.619 -22.548  1.00  0.00     0.016 C 
ENDROOT
BRANCH   1  24
HETATM   24  C6  UNL     1      -1.069  52.350 -22.915  1.00  0.00    -0.011 C 
HETATM   25  C7  UNL     1       0.268  52.522 -22.186  1.00  0.00     0.010 C 
BRANCH  24  26
HETATM   26  C5  UNL     1      -0.932  52.787 -24.402  1.00  0.00     0.040 C 
BRANCH  26  27
HETATM   27  C4  UNL     1       0.406  53.443 -24.776  1.00  0.00     0.141 C 
BRANCH  27  28
HETATM   28  C3  UNL     1       1.194  52.594 -25.742  1.00  0.00     0.009 C 
HETATM   29  C2  UNL     1       1.012  52.395 -27.067  1.00  0.00    -0.062 C 
HETATM   30  C1  UNL     1      -0.128  52.978 -27.863  1.00  0.00     0.045 C 
BRANCH  29  31
HETATM   31  C30 UNL     1       1.938  51.543 -27.909  1.00  0.00     0.198 C 
BRANCH  31  32
HETATM   32  O3  UNL     1       3.260  51.515 -27.390  1.00  0.00    -0.397 OA
HETATM   33  H48 UNL     1       3.205  51.058 -26.533  1.00  0.00     0.209 HD
ENDBRANCH  31  32
ENDBRANCH  29  31
ENDBRANCH  27  28
BRANCH  27  34
HETATM   34  O1  UNL     1       0.193  54.743 -25.310  1.00  0.00    -0.392 OA
HETATM   35  H6  UNL     1       1.033  55.019 -25.715  1.00  0.00     0.210 HD
ENDBRANCH  27  34
ENDBRANCH  26  27
ENDBRANCH  24  26
ENDBRANCH   1  24
TORSDOF 7
ENDMDL
