MODEL 1
REMARK minimizedAffinity -8.72574902
REMARK CNNscore 0.330465764
REMARK CNNaffinity 7.05149317
REMARK  13 active torsions:
REMARK  status: ('A' for Active; 'I' for Inactive)
REMARK    1  A    between atoms: O1_2  and  C2_3 
REMARK    2  A    between atoms: C12_14  and  C13_15 
REMARK    3  A    between atoms: C13_15  and  C15_17 
REMARK    4  A    between atoms: C15_17  and  C16_18 
REMARK    5  A    between atoms: C17_19  and  C18_20 
REMARK    6  A    between atoms: C18_20  and  O3_23 
REMARK    7  A    between atoms: C29_32  and  O4_33 
REMARK    8  A    between atoms: O4_33  and  C30_34 
REMARK    9  A    between atoms: C31_36  and  C32_37 
REMARK   10  A    between atoms: C32_37  and  O6_38 
REMARK   11  A    between atoms: C33_39  and  O7_40 
REMARK   12  A    between atoms: C34_41  and  O8_42 
REMARK   13  A    between atoms: C35_43  and  O9_44 
ROOT
HETATM    1  C2  UNL     1      -5.414  48.656 -21.022  1.00  0.00     0.270 C 
HETATM    2  O2  UNL     1      -6.023  47.839 -19.995  1.00  0.00    -0.344 OA
HETATM    3  C3  UNL     1      -4.982  47.394 -19.102  1.00  0.00     0.095 C 
HETATM    4  C4  UNL     1      -4.873  48.507 -18.066  1.00  0.00     0.008 C 
HETATM    5  C5  UNL     1      -4.205  49.643 -18.314  1.00  0.00    -0.021 C 
HETATM    6  C6  UNL     1      -3.570  49.907 -19.664  1.00  0.00     0.030 C 
HETATM    7  C7  UNL     1      -3.878  48.746 -20.706  1.00  0.00     0.024 C 
HETATM    8  C8  UNL     1      -3.088  48.936 -22.020  1.00  0.00     0.016 C 
HETATM    9  C9  UNL     1      -1.630  49.415 -21.901  1.00  0.00     0.011 C 
HETATM   10  C10 UNL     1      -1.493  50.645 -20.984  1.00  0.00    -0.032 C 
HETATM   11  C11 UNL     1      -2.253  51.837 -21.653  1.00  0.00     0.016 C 
HETATM   12  C12 UNL     1      -0.058  51.121 -20.608  1.00  0.00    -0.002 C 
HETATM   13  C22 UNL     1      -0.307  51.930 -19.292  1.00  0.00     0.006 C 
HETATM   14  C23 UNL     1      -1.695  51.516 -18.755  1.00  0.00     0.011 C 
HETATM   15  C24 UNL     1      -2.047  50.249 -19.558  1.00  0.00    -0.029 C 
HETATM   16  C25 UNL     1      -1.245  49.086 -18.864  1.00  0.00     0.016 C 
HETATM   17  C26 UNL     1      -3.728  47.372 -20.009  1.00  0.00     0.039 C 
HETATM   18  C27 UNL     1      -3.685  46.175 -20.973  1.00  0.00     0.011 C 
HETATM   19  C28 UNL     1      -3.925  44.850 -20.261  1.00  0.00     0.033 C 
HETATM   20  C29 UNL     1      -5.254  44.854 -19.502  1.00  0.00     0.136 C 
HETATM   21  C36 UNL     1      -5.329  46.009 -18.450  1.00  0.00     0.014 C 
HETATM   22  C37 UNL     1      -6.753  46.022 -17.820  1.00  0.00     0.021 C 
HETATM   23  C38 UNL     1      -4.325  45.677 -17.311  1.00  0.00     0.021 C 
ENDROOT
BRANCH  20  24
HETATM   24  O4  UNL     1      -6.298  44.998 -20.476  1.00  0.00    -0.352 OA
BRANCH  24  25
HETATM   25  C30 UNL     1      -7.413  44.132 -20.238  1.00  0.00     0.292 C 
HETATM   26  O5  UNL     1      -6.973  42.784 -20.335  1.00  0.00    -0.348 OA
HETATM   27  C31 UNL     1      -7.320  42.097 -21.538  1.00  0.00     0.179 C 
HETATM   28  C33 UNL     1      -7.155  42.996 -22.773  1.00  0.00     0.180 C 
HETATM   29  C34 UNL     1      -8.025  44.262 -22.669  1.00  0.00     0.183 C 
HETATM   30  C35 UNL     1      -8.510  44.534 -21.242  1.00  0.00     0.204 C 
BRANCH  27  31
HETATM   31  C32 UNL     1      -6.431  40.843 -21.642  1.00  0.00     0.198 C 
BRANCH  31  32
HETATM   32  O6  UNL     1      -5.407  40.787 -20.650  1.00  0.00    -0.398 OA
HETATM   33  H50 UNL     1      -5.677  41.389 -19.918  1.00  0.00     0.209 HD
ENDBRANCH  31  32
ENDBRANCH  27  31
BRANCH  28  34
HETATM   34  O7  UNL     1      -7.525  42.280 -23.974  1.00  0.00    -0.390 OA
HETATM   35  H52 UNL     1      -7.291  42.881 -24.710  1.00  0.00     0.210 HD
ENDBRANCH  28  34
BRANCH  29  36
HETATM   36  O8  UNL     1      -7.268  45.367 -23.191  1.00  0.00    -0.390 OA
HETATM   37  H54 UNL     1      -6.740  45.729 -22.446  1.00  0.00     0.210 HD
ENDBRANCH  29  36
BRANCH  30  38
HETATM   38  O9  UNL     1      -9.717  43.812 -20.971  1.00  0.00    -0.388 OA
HETATM   39  H56 UNL     1     -10.426  44.185 -21.529  1.00  0.00     0.210 HD
ENDBRANCH  30  38
ENDBRANCH  24  25
ENDBRANCH  20  24
BRANCH   1  40
HETATM   40  O1  UNL     1      -6.006  49.943 -21.150  1.00  0.00    -0.365 OA
HETATM   41  C1  UNL     1      -7.021  49.979 -22.142  1.00  0.00     0.204 C 
ENDBRANCH   1  40
BRANCH  12  42
HETATM   42  C13 UNL     1       0.811  51.929 -21.616  1.00  0.00    -0.010 C 
HETATM   43  C14 UNL     1       1.569  53.086 -20.953  1.00  0.00     0.010 C 
BRANCH  42  44
HETATM   44  C15 UNL     1      -0.083  52.472 -22.768  1.00  0.00     0.031 C 
BRANCH  44  45
HETATM   45  C16 UNL     1       0.230  51.862 -24.108  1.00  0.00    -0.027 C 
HETATM   46  C17 UNL     1       0.735  52.567 -25.138  1.00  0.00     0.006 C 
BRANCH  46  47
HETATM   47  C18 UNL     1       1.074  52.078 -26.533  1.00  0.00     0.070 C 
HETATM   48  C19 UNL     1       2.473  51.434 -26.531  1.00  0.00     0.050 C 
HETATM   49  C20 UNL     1       0.087  51.028 -27.069  1.00  0.00     0.050 C 
BRANCH  47  50
HETATM   50  O3  UNL     1       0.978  53.177 -27.461  1.00  0.00    -0.382 OA
HETATM   51  C21 UNL     1      -0.311  53.485 -27.972  1.00  0.00     0.202 C 
ENDBRANCH  47  50
ENDBRANCH  46  47
ENDBRANCH  44  45
ENDBRANCH  42  44
ENDBRANCH  12  42
TORSDOF 13
ENDMDL
MODEL 2
REMARK minimizedAffinity -7.39499235
REMARK CNNscore 0.320055485
REMARK CNNaffinity 6.55133057
REMARK  13 active torsions:
REMARK  status: ('A' for Active; 'I' for Inactive)
REMARK    1  A    between atoms: O1_2  and  C2_3 
REMARK    2  A    between atoms: C12_14  and  C13_15 
REMARK    3  A    between atoms: C13_15  and  C15_17 
REMARK    4  A    between atoms: C15_17  and  C16_18 
REMARK    5  A    between atoms: C17_19  and  C18_20 
REMARK    6  A    between atoms: C18_20  and  O3_23 
REMARK    7  A    between atoms: C29_32  and  O4_33 
REMARK    8  A    between atoms: O4_33  and  C30_34 
REMARK    9  A    between atoms: C31_36  and  C32_37 
REMARK   10  A    between atoms: C32_37  and  O6_38 
REMARK   11  A    between atoms: C33_39  and  O7_40 
REMARK   12  A    between atoms: C34_41  and  O8_42 
REMARK   13  A    between atoms: C35_43  and  O9_44 
ROOT
HETATM    1  C2  UNL     1     -10.452  44.639 -28.648  1.00  0.00     0.270 C 
HETATM    2  O2  UNL     1      -9.347  45.418 -28.134  1.00  0.00    -0.344 OA
HETATM    3  C3  UNL     1      -9.886  46.592 -27.493  1.00  0.00     0.095 C 
HETATM    4  C4  UNL     1     -10.158  46.148 -26.060  1.00  0.00     0.008 C 
HETATM    5  C5  UNL     1     -11.250  45.441 -25.733  1.00  0.00    -0.021 C 
HETATM    6  C6  UNL     1     -12.244  44.993 -26.784  1.00  0.00     0.030 C 
HETATM    7  C7  UNL     1     -11.778  45.384 -28.254  1.00  0.00     0.024 C 
HETATM    8  C8  UNL     1     -12.874  45.080 -29.299  1.00  0.00     0.016 C 
HETATM    9  C9  UNL     1     -14.328  45.401 -28.907  1.00  0.00     0.011 C 
HETATM   10  C10 UNL     1     -14.700  44.828 -27.526  1.00  0.00    -0.032 C 
HETATM   11  C11 UNL     1     -14.643  43.268 -27.615  1.00  0.00     0.016 C 
HETATM   12  C12 UNL     1     -16.069  45.240 -26.908  1.00  0.00    -0.002 C 
HETATM   13  C22 UNL     1     -15.838  44.986 -25.382  1.00  0.00     0.006 C 
HETATM   14  C23 UNL     1     -14.312  44.900 -25.157  1.00  0.00     0.011 C 
HETATM   15  C24 UNL     1     -13.707  45.448 -26.464  1.00  0.00    -0.029 C 
HETATM   16  C25 UNL     1     -13.806  47.013 -26.337  1.00  0.00     0.016 C 
HETATM   17  C26 UNL     1     -11.214  46.825 -28.251  1.00  0.00     0.039 C 
HETATM   18  C27 UNL     1     -11.027  47.435 -29.651  1.00  0.00     0.011 C 
HETATM   19  C28 UNL     1     -10.132  48.666 -29.631  1.00  0.00     0.033 C 
HETATM   20  C29 UNL     1      -8.766  48.356 -29.016  1.00  0.00     0.136 C 
HETATM   21  C36 UNL     1      -8.886  47.801 -27.559  1.00  0.00     0.014 C 
HETATM   22  C37 UNL     1      -7.470  47.391 -27.059  1.00  0.00     0.021 C 
HETATM   23  C38 UNL     1      -9.376  48.962 -26.650  1.00  0.00     0.021 C 
ENDROOT
BRANCH  20  24
HETATM   24  O4  UNL     1      -8.127  47.392 -29.866  1.00  0.00    -0.352 OA
BRANCH  24  25
HETATM   25  C30 UNL     1      -7.007  47.924 -30.580  1.00  0.00     0.292 C 
HETATM   26  O5  UNL     1      -7.382  48.124 -31.936  1.00  0.00    -0.348 OA
HETATM   27  C31 UNL     1      -6.898  47.159 -32.869  1.00  0.00     0.179 C 
HETATM   28  C33 UNL     1      -6.981  45.732 -32.306  1.00  0.00     0.180 C 
HETATM   29  C34 UNL     1      -6.175  45.593 -31.001  1.00  0.00     0.183 C 
HETATM   30  C35 UNL     1      -5.837  46.946 -30.365  1.00  0.00     0.204 C 
BRANCH  27  31
HETATM   31  C32 UNL     1      -7.723  47.293 -34.163  1.00  0.00     0.198 C 
BRANCH  31  32
HETATM   32  O6  UNL     1      -6.950  47.697 -35.293  1.00  0.00    -0.398 OA
HETATM   33  H50 UNL     1      -6.008  47.496 -35.087  1.00  0.00     0.209 HD
ENDBRANCH  31  32
ENDBRANCH  27  31
BRANCH  28  34
HETATM   34  O7  UNL     1      -6.472  44.777 -33.265  1.00  0.00    -0.390 OA
HETATM   35  H52 UNL     1      -6.659  43.900 -32.874  1.00  0.00     0.210 HD
ENDBRANCH  28  34
BRANCH  29  36
HETATM   36  O8  UNL     1      -6.921  44.757 -30.102  1.00  0.00    -0.390 OA
HETATM   37  H54 UNL     1      -7.531  45.345 -29.605  1.00  0.00     0.210 HD
ENDBRANCH  29  36
BRANCH  30  38
HETATM   38  O9  UNL     1      -4.633  47.483 -30.926  1.00  0.00    -0.388 OA
HETATM   39  H56 UNL     1      -3.890  46.910 -30.656  1.00  0.00     0.210 HD
ENDBRANCH  30  38
ENDBRANCH  24  25
ENDBRANCH  20  24
BRANCH   1  40
HETATM   40  O1  UNL     1     -10.450  43.288 -28.204  1.00  0.00    -0.365 OA
HETATM   41  C1  UNL     1      -9.252  42.939 -27.527  1.00  0.00     0.204 C 
ENDBRANCH   1  40
BRANCH  12  42
HETATM   42  C13 UNL     1     -17.399  44.593 -27.397  1.00  0.00    -0.010 C 
HETATM   43  C14 UNL     1     -18.154  43.869 -26.275  1.00  0.00     0.010 C 
BRANCH  42  44
HETATM   44  C15 UNL     1     -17.109  43.607 -28.564  1.00  0.00     0.031 C 
BRANCH  44  45
HETATM   45  C16 UNL     1     -18.148  43.643 -29.652  1.00  0.00    -0.027 C 
HETATM   46  C17 UNL     1     -18.440  42.582 -30.427  1.00  0.00     0.006 C 
BRANCH  46  47
HETATM   47  C18 UNL     1     -19.445  42.495 -31.559  1.00  0.00     0.070 C 
HETATM   48  C19 UNL     1     -20.247  43.807 -31.644  1.00  0.00     0.050 C 
HETATM   49  C20 UNL     1     -18.798  42.263 -32.935  1.00  0.00     0.050 C 
BRANCH  47  50
HETATM   50  O3  UNL     1     -20.293  41.347 -31.358  1.00  0.00    -0.382 OA
HETATM   51  C21 UNL     1     -21.547  41.567 -30.729  1.00  0.00     0.202 C 
ENDBRANCH  47  50
ENDBRANCH  46  47
ENDBRANCH  44  45
ENDBRANCH  42  44
ENDBRANCH  12  42
TORSDOF 13
ENDMDL
MODEL 3
REMARK minimizedAffinity -8.56863022
REMARK CNNscore 0.313769639
REMARK CNNaffinity 7.27108383
REMARK  13 active torsions:
REMARK  status: ('A' for Active; 'I' for Inactive)
REMARK    1  A    between atoms: O1_2  and  C2_3 
REMARK    2  A    between atoms: C12_14  and  C13_15 
REMARK    3  A    between atoms: C13_15  and  C15_17 
REMARK    4  A    between atoms: C15_17  and  C16_18 
REMARK    5  A    between atoms: C17_19  and  C18_20 
REMARK    6  A    between atoms: C18_20  and  O3_23 
REMARK    7  A    between atoms: C29_32  and  O4_33 
REMARK    8  A    between atoms: O4_33  and  C30_34 
REMARK    9  A    between atoms: C31_36  and  C32_37 
REMARK   10  A    between atoms: C32_37  and  O6_38 
REMARK   11  A    between atoms: C33_39  and  O7_40 
REMARK   12  A    between atoms: C34_41  and  O8_42 
REMARK   13  A    between atoms: C35_43  and  O9_44 
ROOT
HETATM    1  C2  UNL     1      -5.463  48.390 -20.477  1.00  0.00     0.270 C 
HETATM    2  O2  UNL     1      -5.927  47.533 -19.408  1.00  0.00    -0.344 OA
HETATM    3  C3  UNL     1      -4.777  47.092 -18.658  1.00  0.00     0.095 C 
HETATM    4  C4  UNL     1      -4.568  48.181 -17.612  1.00  0.00     0.008 C 
HETATM    5  C5  UNL     1      -3.958  49.338 -17.906  1.00  0.00    -0.021 C 
HETATM    6  C6  UNL     1      -3.496  49.651 -19.315  1.00  0.00     0.030 C 
HETATM    7  C7  UNL     1      -3.902  48.508 -20.344  1.00  0.00     0.024 C 
HETATM    8  C8  UNL     1      -3.279  48.750 -21.737  1.00  0.00     0.016 C 
HETATM    9  C9  UNL     1      -1.827  49.260 -21.780  1.00  0.00     0.011 C 
HETATM   10  C10 UNL     1      -1.607  50.471 -20.853  1.00  0.00    -0.032 C 
HETATM   11  C11 UNL     1      -2.467  51.661 -21.393  1.00  0.00     0.016 C 
HETATM   12  C12 UNL     1      -0.148  50.971 -20.638  1.00  0.00    -0.002 C 
HETATM   13  C22 UNL     1      -0.255  51.742 -19.280  1.00  0.00     0.006 C 
HETATM   14  C23 UNL     1      -1.559  51.281 -18.593  1.00  0.00     0.011 C 
HETATM   15  C24 UNL     1      -1.979  50.026 -19.383  1.00  0.00    -0.029 C 
HETATM   16  C25 UNL     1      -1.075  48.867 -18.821  1.00  0.00     0.016 C 
HETATM   17  C26 UNL     1      -3.641  47.122 -19.708  1.00  0.00     0.039 C 
HETATM   18  C27 UNL     1      -3.689  45.950 -20.703  1.00  0.00     0.011 C 
HETATM   19  C28 UNL     1      -3.814  44.603 -20.004  1.00  0.00     0.033 C 
HETATM   20  C29 UNL     1      -5.042  44.556 -19.092  1.00  0.00     0.136 C 
HETATM   21  C36 UNL     1      -5.014  45.682 -18.007  1.00  0.00     0.014 C 
HETATM   22  C37 UNL     1      -6.352  45.646 -17.211  1.00  0.00     0.021 C 
HETATM   23  C38 UNL     1      -3.874  45.347 -17.005  1.00  0.00     0.021 C 
ENDROOT
BRANCH  20  24
HETATM   24  O4  UNL     1      -6.198  44.699 -19.930  1.00  0.00    -0.352 OA
BRANCH  24  25
HETATM   25  C30 UNL     1      -6.357  46.023 -20.449  1.00  0.00     0.292 C 
HETATM   26  O5  UNL     1      -7.589  46.553 -19.980  1.00  0.00    -0.348 OA
HETATM   27  C31 UNL     1      -8.660  46.579 -20.924  1.00  0.00     0.179 C 
HETATM   28  C33 UNL     1      -8.706  45.295 -21.767  1.00  0.00     0.180 C 
HETATM   29  C34 UNL     1      -7.388  45.076 -22.533  1.00  0.00     0.183 C 
HETATM   30  C35 UNL     1      -6.233  45.918 -21.981  1.00  0.00     0.204 C 
BRANCH  27  31
HETATM   31  C32 UNL     1      -9.975  46.779 -20.146  1.00  0.00     0.198 C 
BRANCH  31  32
HETATM   32  O6  UNL     1     -10.382  48.144 -20.058  1.00  0.00    -0.398 OA
HETATM   33  H50 UNL     1      -9.918  48.633 -20.777  1.00  0.00     0.209 HD
ENDBRANCH  31  32
ENDBRANCH  27  31
BRANCH  28  34
HETATM   34  O7  UNL     1      -9.789  45.354 -22.723  1.00  0.00    -0.390 OA
HETATM   35  H52 UNL     1      -9.812  44.467 -23.135  1.00  0.00     0.210 HD
ENDBRANCH  28  34
BRANCH  29  36
HETATM   36  O8  UNL     1      -7.082  43.672 -22.502  1.00  0.00    -0.390 OA
HETATM   37  H54 UNL     1      -6.573  43.509 -21.678  1.00  0.00     0.210 HD
ENDBRANCH  29  36
BRANCH  30  38
HETATM   38  O9  UNL     1      -6.233  47.225 -22.569  1.00  0.00    -0.388 OA
HETATM   39  H56 UNL     1      -6.017  47.131 -23.516  1.00  0.00     0.210 HD
ENDBRANCH  30  38
ENDBRANCH  24  25
ENDBRANCH  20  24
BRANCH   1  40
HETATM   40  O1  UNL     1      -6.093  49.665 -20.499  1.00  0.00    -0.365 OA
HETATM   41  C1  UNL     1      -7.259  49.710 -19.690  1.00  0.00     0.204 C 
ENDBRANCH   1  40
BRANCH  12  42
HETATM   42  C13 UNL     1       0.577  51.825 -21.720  1.00  0.00    -0.010 C 
HETATM   43  C14 UNL     1       1.376  52.990 -21.121  1.00  0.00     0.010 C 
BRANCH  42  44
HETATM   44  C15 UNL     1      -0.458  52.365 -22.748  1.00  0.00     0.031 C 
BRANCH  44  45
HETATM   45  C16 UNL     1       0.145  52.709 -24.083  1.00  0.00    -0.027 C 
HETATM   46  C17 UNL     1       0.306  51.810 -25.072  1.00  0.00     0.006 C 
BRANCH  46  47
HETATM   47  C18 UNL     1       0.912  52.025 -26.446  1.00  0.00     0.070 C 
HETATM   48  C19 UNL     1       2.362  51.508 -26.460  1.00  0.00     0.050 C 
HETATM   49  C20 UNL     1       0.154  51.297 -27.568  1.00  0.00     0.050 C 
BRANCH  47  50
HETATM   50  O3  UNL     1       0.824  53.422 -26.794  1.00  0.00    -0.382 OA
HETATM   51  C21 UNL     1      -0.232  53.811 -27.659  1.00  0.00     0.202 C 
ENDBRANCH  47  50
ENDBRANCH  46  47
ENDBRANCH  44  45
ENDBRANCH  42  44
ENDBRANCH  12  42
TORSDOF 13
ENDMDL
MODEL 4
REMARK minimizedAffinity -8.28922939
REMARK CNNscore 0.310882688
REMARK CNNaffinity 6.96766806
REMARK  13 active torsions:
REMARK  status: ('A' for Active; 'I' for Inactive)
REMARK    1  A    between atoms: O1_2  and  C2_3 
REMARK    2  A    between atoms: C12_14  and  C13_15 
REMARK    3  A    between atoms: C13_15  and  C15_17 
REMARK    4  A    between atoms: C15_17  and  C16_18 
REMARK    5  A    between atoms: C17_19  and  C18_20 
REMARK    6  A    between atoms: C18_20  and  O3_23 
REMARK    7  A    between atoms: C29_32  and  O4_33 
REMARK    8  A    between atoms: O4_33  and  C30_34 
REMARK    9  A    between atoms: C31_36  and  C32_37 
REMARK   10  A    between atoms: C32_37  and  O6_38 
REMARK   11  A    between atoms: C33_39  and  O7_40 
REMARK   12  A    between atoms: C34_41  and  O8_42 
REMARK   13  A    between atoms: C35_43  and  O9_44 
ROOT
HETATM    1  C2  UNL     1      -1.949  49.108 -21.488  1.00  0.00     0.270 C 
HETATM    2  O2  UNL     1      -2.436  50.335 -22.080  1.00  0.00    -0.344 OA
HETATM    3  C3  UNL     1      -3.868  50.230 -22.211  1.00  0.00     0.095 C 
HETATM    4  C4  UNL     1      -4.407  50.732 -20.877  1.00  0.00     0.008 C 
HETATM    5  C5  UNL     1      -4.428  49.955 -19.784  1.00  0.00    -0.021 C 
HETATM    6  C6  UNL     1      -3.861  48.551 -19.803  1.00  0.00     0.030 C 
HETATM    7  C7  UNL     1      -3.194  48.194 -21.202  1.00  0.00     0.024 C 
HETATM    8  C8  UNL     1      -2.775  46.709 -21.271  1.00  0.00     0.016 C 
HETATM    9  C9  UNL     1      -3.740  45.676 -20.662  1.00  0.00     0.011 C 
HETATM   10  C10 UNL     1      -4.188  46.065 -19.240  1.00  0.00    -0.032 C 
HETATM   11  C11 UNL     1      -2.931  46.036 -18.309  1.00  0.00     0.016 C 
HETATM   12  C12 UNL     1      -5.318  45.223 -18.574  1.00  0.00    -0.002 C 
HETATM   13  C22 UNL     1      -5.877  46.208 -17.494  1.00  0.00     0.006 C 
HETATM   14  C23 UNL     1      -5.401  47.627 -17.877  1.00  0.00     0.011 C 
HETATM   15  C24 UNL     1      -4.893  47.476 -19.324  1.00  0.00    -0.029 C 
HETATM   16  C25 UNL     1      -6.189  47.489 -20.217  1.00  0.00     0.016 C 
HETATM   17  C26 UNL     1      -4.096  48.706 -22.350  1.00  0.00     0.039 C 
HETATM   18  C27 UNL     1      -3.730  48.151 -23.737  1.00  0.00     0.011 C 
HETATM   19  C28 UNL     1      -4.366  48.951 -24.866  1.00  0.00     0.033 C 
HETATM   20  C29 UNL     1      -3.989  50.431 -24.787  1.00  0.00     0.136 C 
HETATM   21  C36 UNL     1      -4.404  51.074 -23.422  1.00  0.00     0.014 C 
HETATM   22  C37 UNL     1      -3.869  52.536 -23.372  1.00  0.00     0.021 C 
HETATM   23  C38 UNL     1      -5.955  51.150 -23.388  1.00  0.00     0.021 C 
ENDROOT
BRANCH  20  24
HETATM   24  O4  UNL     1      -2.568  50.517 -24.966  1.00  0.00    -0.352 OA
BRANCH  24  25
HETATM   25  C30 UNL     1      -2.134  50.062 -26.252  1.00  0.00     0.292 C 
HETATM   26  O5  UNL     1      -0.713  50.090 -26.291  1.00  0.00    -0.348 OA
HETATM   27  C31 UNL     1      -0.129  51.171 -27.018  1.00  0.00     0.179 C 
HETATM   28  C33 UNL     1      -0.865  52.494 -26.758  1.00  0.00     0.180 C 
HETATM   29  C34 UNL     1      -2.352  52.397 -27.146  1.00  0.00     0.183 C 
HETATM   30  C35 UNL     1      -2.833  50.950 -27.298  1.00  0.00     0.204 C 
BRANCH  27  31
HETATM   31  C32 UNL     1       1.354  51.271 -26.608  1.00  0.00     0.198 C 
BRANCH  31  32
HETATM   32  O6  UNL     1       1.654  52.435 -25.839  1.00  0.00    -0.398 OA
HETATM   33  H50 UNL     1       0.805  52.762 -25.461  1.00  0.00     0.209 HD
ENDBRANCH  31  32
ENDBRANCH  27  31
BRANCH  28  34
HETATM   34  O7  UNL     1      -0.261  53.568 -27.516  1.00  0.00    -0.390 OA
HETATM   35  H52 UNL     1      -0.716  54.379 -27.213  1.00  0.00     0.210 HD
ENDBRANCH  28  34
BRANCH  29  36
HETATM   36  O8  UNL     1      -3.118  53.109 -26.161  1.00  0.00    -0.390 OA
HETATM   37  H54 UNL     1      -3.315  52.474 -25.439  1.00  0.00     0.210 HD
ENDBRANCH  29  36
BRANCH  30  38
HETATM   38  O9  UNL     1      -2.567  50.463 -28.619  1.00  0.00    -0.388 OA
HETATM   39  H56 UNL     1      -3.129  50.959 -29.244  1.00  0.00     0.210 HD
ENDBRANCH  30  38
ENDBRANCH  24  25
ENDBRANCH  20  24
BRANCH   1  40
HETATM   40  O1  UNL     1      -1.160  49.313 -20.322  1.00  0.00    -0.365 OA
HETATM   41  C1  UNL     1      -0.600  50.617 -20.266  1.00  0.00     0.204 C 
ENDBRANCH   1  40
BRANCH  12  42
HETATM   42  C13 UNL     1      -5.022  43.821 -17.964  1.00  0.00    -0.010 C 
HETATM   43  C14 UNL     1      -5.107  43.809 -16.433  1.00  0.00     0.010 C 
BRANCH  42  44
HETATM   44  C15 UNL     1      -3.619  43.330 -18.422  1.00  0.00     0.031 C 
BRANCH  44  45
HETATM   45  C16 UNL     1      -3.535  41.839 -18.605  1.00  0.00    -0.027 C 
HETATM   46  C17 UNL     1      -4.504  41.113 -19.191  1.00  0.00     0.006 C 
BRANCH  46  47
HETATM   47  C18 UNL     1      -4.547  39.614 -19.418  1.00  0.00     0.070 C 
HETATM   48  C19 UNL     1      -3.701  38.902 -18.347  1.00  0.00     0.050 C 
HETATM   49  C20 UNL     1      -5.966  39.025 -19.347  1.00  0.00     0.050 C 
BRANCH  47  50
HETATM   50  O3  UNL     1      -4.098  39.320 -20.756  1.00  0.00    -0.382 OA
HETATM   51  C21 UNL     1      -4.534  38.099 -21.335  1.00  0.00     0.202 C 
ENDBRANCH  47  50
ENDBRANCH  46  47
ENDBRANCH  44  45
ENDBRANCH  42  44
ENDBRANCH  12  42
TORSDOF 13
ENDMDL
MODEL 5
REMARK minimizedAffinity -8.03810406
REMARK CNNscore 0.270456702
REMARK CNNaffinity 7.02225685
REMARK  13 active torsions:
REMARK  status: ('A' for Active; 'I' for Inactive)
REMARK    1  A    between atoms: O1_2  and  C2_3 
REMARK    2  A    between atoms: C12_14  and  C13_15 
REMARK    3  A    between atoms: C13_15  and  C15_17 
REMARK    4  A    between atoms: C15_17  and  C16_18 
REMARK    5  A    between atoms: C17_19  and  C18_20 
REMARK    6  A    between atoms: C18_20  and  O3_23 
REMARK    7  A    between atoms: C29_32  and  O4_33 
REMARK    8  A    between atoms: O4_33  and  C30_34 
REMARK    9  A    between atoms: C31_36  and  C32_37 
REMARK   10  A    between atoms: C32_37  and  O6_38 
REMARK   11  A    between atoms: C33_39  and  O7_40 
REMARK   12  A    between atoms: C34_41  and  O8_42 
REMARK   13  A    between atoms: C35_43  and  O9_44 
ROOT
HETATM    1  C2  UNL     1      -1.894  49.048 -21.512  1.00  0.00     0.270 C 
HETATM    2  O2  UNL     1      -2.327  50.303 -22.088  1.00  0.00    -0.344 OA
HETATM    3  C3  UNL     1      -3.764  50.268 -22.205  1.00  0.00     0.095 C 
HETATM    4  C4  UNL     1      -4.264  50.785 -20.860  1.00  0.00     0.008 C 
HETATM    5  C5  UNL     1      -4.311  50.001 -19.773  1.00  0.00    -0.021 C 
HETATM    6  C6  UNL     1      -3.813  48.570 -19.810  1.00  0.00     0.030 C 
HETATM    7  C7  UNL     1      -3.179  48.194 -21.219  1.00  0.00     0.024 C 
HETATM    8  C8  UNL     1      -2.834  46.691 -21.305  1.00  0.00     0.016 C 
HETATM    9  C9  UNL     1      -3.842  45.701 -20.693  1.00  0.00     0.011 C 
HETATM   10  C10 UNL     1      -4.255  46.098 -19.263  1.00  0.00    -0.032 C 
HETATM   11  C11 UNL     1      -2.991  46.001 -18.347  1.00  0.00     0.016 C 
HETATM   12  C12 UNL     1      -5.417  45.307 -18.591  1.00  0.00    -0.002 C 
HETATM   13  C22 UNL     1      -5.915  46.309 -17.497  1.00  0.00     0.006 C 
HETATM   14  C23 UNL     1      -5.375  47.706 -17.874  1.00  0.00     0.011 C 
HETATM   15  C24 UNL     1      -4.891  47.543 -19.328  1.00  0.00    -0.029 C 
HETATM   16  C25 UNL     1      -6.195  47.627 -20.206  1.00  0.00     0.016 C 
HETATM   17  C26 UNL     1      -4.068  48.758 -22.353  1.00  0.00     0.039 C 
HETATM   18  C27 UNL     1      -3.745  48.199 -23.749  1.00  0.00     0.011 C 
HETATM   19  C28 UNL     1      -4.353  49.038 -24.864  1.00  0.00     0.033 C 
HETATM   20  C29 UNL     1      -3.903  50.498 -24.777  1.00  0.00     0.136 C 
HETATM   21  C36 UNL     1      -4.272  51.148 -23.403  1.00  0.00     0.014 C 
HETATM   22  C37 UNL     1      -3.666  52.582 -23.347  1.00  0.00     0.021 C 
HETATM   23  C38 UNL     1      -5.817  51.299 -23.350  1.00  0.00     0.021 C 
ENDROOT
BRANCH  20  24
HETATM   24  O4  UNL     1      -2.481  50.515 -24.971  1.00  0.00    -0.352 OA
BRANCH  24  25
HETATM   25  C30 UNL     1      -2.085  50.063 -26.270  1.00  0.00     0.292 C 
HETATM   26  O5  UNL     1      -0.667  50.096 -26.352  1.00  0.00    -0.348 OA
HETATM   27  C31 UNL     1      -0.108  51.180 -27.095  1.00  0.00     0.179 C 
HETATM   28  C33 UNL     1      -0.840  52.500 -26.812  1.00  0.00     0.180 C 
HETATM   29  C34 UNL     1      -2.338  52.399 -27.155  1.00  0.00     0.183 C 
HETATM   30  C35 UNL     1      -2.818  50.950 -27.294  1.00  0.00     0.204 C 
BRANCH  27  31
HETATM   31  C32 UNL     1       1.386  51.285 -26.730  1.00  0.00     0.198 C 
BRANCH  31  32
HETATM   32  O6  UNL     1       1.710  52.461 -25.991  1.00  0.00    -0.398 OA
HETATM   33  H50 UNL     1       0.872  52.797 -25.595  1.00  0.00     0.209 HD
ENDBRANCH  31  32
ENDBRANCH  27  31
BRANCH  28  34
HETATM   34  O7  UNL     1      -0.263  53.577 -27.586  1.00  0.00    -0.390 OA
HETATM   35  H52 UNL     1      -0.711  54.386 -27.269  1.00  0.00     0.210 HD
ENDBRANCH  28  34
BRANCH  29  36
HETATM   36  O8  UNL     1      -3.076  53.107 -26.146  1.00  0.00    -0.390 OA
HETATM   37  H54 UNL     1      -3.250  52.470 -25.419  1.00  0.00     0.210 HD
ENDBRANCH  29  36
BRANCH  30  38
HETATM   38  O9  UNL     1      -2.591  50.466 -28.623  1.00  0.00    -0.388 OA
HETATM   39  H56 UNL     1      -3.173  50.960 -29.230  1.00  0.00     0.210 HD
ENDBRANCH  30  38
ENDBRANCH  24  25
ENDBRANCH  20  24
BRANCH   1  40
HETATM   40  O1  UNL     1      -1.084  49.205 -20.353  1.00  0.00    -0.365 OA
HETATM   41  C1  UNL     1      -0.458  50.478 -20.295  1.00  0.00     0.204 C 
ENDBRANCH   1  40
BRANCH  12  42
HETATM   42  C13 UNL     1      -5.183  43.887 -17.997  1.00  0.00    -0.010 C 
HETATM   43  C14 UNL     1      -6.095  42.824 -18.623  1.00  0.00     0.010 C 
BRANCH  42  44
HETATM   44  C15 UNL     1      -5.387  43.919 -16.455  1.00  0.00     0.031 C 
BRANCH  44  45
HETATM   45  C16 UNL     1      -4.107  43.775 -15.677  1.00  0.00    -0.027 C 
HETATM   46  C17 UNL     1      -3.316  42.689 -15.755  1.00  0.00     0.006 C 
BRANCH  46  47
HETATM   47  C18 UNL     1      -2.021  42.416 -15.015  1.00  0.00     0.070 C 
HETATM   48  C19 UNL     1      -2.156  42.863 -13.548  1.00  0.00     0.050 C 
HETATM   49  C20 UNL     1      -1.622  40.931 -15.008  1.00  0.00     0.050 C 
BRANCH  47  50
HETATM   50  O3  UNL     1      -0.935  43.081 -15.693  1.00  0.00    -0.382 OA
HETATM   51  C21 UNL     1      -0.300  42.376 -16.749  1.00  0.00     0.202 C 
ENDBRANCH  47  50
ENDBRANCH  46  47
ENDBRANCH  44  45
ENDBRANCH  42  44
ENDBRANCH  12  42
TORSDOF 13
ENDMDL
MODEL 6
REMARK minimizedAffinity -7.2688899
REMARK CNNscore 0.251541227
REMARK CNNaffinity 6.26887894
REMARK  13 active torsions:
REMARK  status: ('A' for Active; 'I' for Inactive)
REMARK    1  A    between atoms: O1_2  and  C2_3 
REMARK    2  A    between atoms: C12_14  and  C13_15 
REMARK    3  A    between atoms: C13_15  and  C15_17 
REMARK    4  A    between atoms: C15_17  and  C16_18 
REMARK    5  A    between atoms: C17_19  and  C18_20 
REMARK    6  A    between atoms: C18_20  and  O3_23 
REMARK    7  A    between atoms: C29_32  and  O4_33 
REMARK    8  A    between atoms: O4_33  and  C30_34 
REMARK    9  A    between atoms: C31_36  and  C32_37 
REMARK   10  A    between atoms: C32_37  and  O6_38 
REMARK   11  A    between atoms: C33_39  and  O7_40 
REMARK   12  A    between atoms: C34_41  and  O8_42 
REMARK   13  A    between atoms: C35_43  and  O9_44 
ROOT
HETATM    1  C2  UNL     1     -12.090  43.685 -24.827  1.00  0.00     0.270 C 
HETATM    2  O2  UNL     1     -13.090  43.427 -25.841  1.00  0.00    -0.344 OA
HETATM    3  C3  UNL     1     -13.127  44.562 -26.731  1.00  0.00     0.095 C 
HETATM    4  C4  UNL     1     -12.069  44.249 -27.783  1.00  0.00     0.008 C 
HETATM    5  C5  UNL     1     -10.762  44.444 -27.554  1.00  0.00    -0.021 C 
HETATM    6  C6  UNL     1     -10.261  44.931 -26.210  1.00  0.00     0.030 C 
HETATM    7  C7  UNL     1     -11.438  45.077 -25.150  1.00  0.00     0.024 C 
HETATM    8  C8  UNL     1     -10.947  45.736 -23.842  1.00  0.00     0.016 C 
HETATM    9  C9  UNL     1      -9.960  46.910 -23.972  1.00  0.00     0.011 C 
HETATM   10  C10 UNL     1      -8.781  46.579 -24.907  1.00  0.00    -0.032 C 
HETATM   11  C11 UNL     1      -7.949  45.427 -24.253  1.00  0.00     0.016 C 
HETATM   12  C12 UNL     1      -7.809  47.734 -25.294  1.00  0.00    -0.002 C 
HETATM   13  C22 UNL     1      -7.171  47.203 -26.621  1.00  0.00     0.006 C 
HETATM   14  C23 UNL     1      -8.081  46.072 -27.148  1.00  0.00     0.011 C 
HETATM   15  C24 UNL     1      -9.376  46.216 -26.325  1.00  0.00    -0.029 C 
HETATM   16  C25 UNL     1     -10.165  47.396 -27.006  1.00  0.00     0.016 C 
HETATM   17  C26 UNL     1     -12.666  45.730 -25.827  1.00  0.00     0.039 C 
HETATM   18  C27 UNL     1     -13.747  46.215 -24.847  1.00  0.00     0.011 C 
HETATM   19  C28 UNL     1     -15.075  46.489 -25.539  1.00  0.00     0.033 C 
HETATM   20  C29 UNL     1     -15.579  45.257 -26.293  1.00  0.00     0.136 C 
HETATM   21  C36 UNL     1     -14.551  44.759 -27.362  1.00  0.00     0.014 C 
HETATM   22  C37 UNL     1     -15.080  43.434 -27.988  1.00  0.00     0.021 C 
HETATM   23  C38 UNL     1     -14.500  45.816 -28.499  1.00  0.00     0.021 C 
ENDROOT
BRANCH  20  24
HETATM   24  O4  UNL     1     -15.821  44.233 -25.319  1.00  0.00    -0.352 OA
BRANCH  24  25
HETATM   25  C30 UNL     1     -17.092  43.593 -25.478  1.00  0.00     0.292 C 
HETATM   26  O5  UNL     1     -18.063  44.579 -25.798  1.00  0.00    -0.348 OA
HETATM   27  C31 UNL     1     -18.937  44.964 -24.737  1.00  0.00     0.179 C 
HETATM   28  C33 UNL     1     -18.187  45.103 -23.403  1.00  0.00     0.180 C 
HETATM   29  C34 UNL     1     -17.493  43.787 -23.007  1.00  0.00     0.183 C 
HETATM   30  C35 UNL     1     -17.361  42.809 -24.179  1.00  0.00     0.204 C 
BRANCH  27  31
HETATM   31  C32 UNL     1     -19.612  46.292 -25.135  1.00  0.00     0.198 C 
BRANCH  31  32
HETATM   32  O6  UNL     1     -18.864  47.446 -24.756  1.00  0.00    -0.398 OA
HETATM   33  H50 UNL     1     -17.934  47.155 -24.609  1.00  0.00     0.209 HD
ENDBRANCH  31  32
ENDBRANCH  27  31
BRANCH  28  34
HETATM   34  O7  UNL     1     -19.097  45.480 -22.345  1.00  0.00    -0.390 OA
HETATM   35  H52 UNL     1     -18.527  45.649 -21.568  1.00  0.00     0.210 HD
ENDBRANCH  28  34
BRANCH  29  36
HETATM   36  O8  UNL     1     -16.213  44.110 -22.440  1.00  0.00    -0.390 OA
HETATM   37  H54 UNL     1     -15.576  44.164 -23.186  1.00  0.00     0.210 HD
ENDBRANCH  29  36
BRANCH  30  38
HETATM   38  O9  UNL     1     -18.548  42.018 -24.316  1.00  0.00    -0.388 OA
HETATM   39  H56 UNL     1     -18.615  41.434 -23.536  1.00  0.00     0.210 HD
ENDBRANCH  30  38
ENDBRANCH  24  25
ENDBRANCH  20  24
BRANCH   1  40
HETATM   40  O1  UNL     1     -11.115  42.654 -24.716  1.00  0.00    -0.365 OA
HETATM   41  C1  UNL     1     -11.167  41.990 -23.462  1.00  0.00     0.204 C 
ENDBRANCH   1  40
BRANCH  12  42
HETATM   42  C13 UNL     1      -6.720  48.235 -24.301  1.00  0.00    -0.010 C 
HETATM   43  C14 UNL     1      -7.115  49.538 -23.594  1.00  0.00     0.010 C 
BRANCH  42  44
HETATM   44  C15 UNL     1      -5.369  48.425 -25.048  1.00  0.00     0.031 C 
BRANCH  44  45
HETATM   45  C16 UNL     1      -4.510  49.515 -24.467  1.00  0.00    -0.027 C 
HETATM   46  C17 UNL     1      -3.687  50.279 -25.209  1.00  0.00     0.006 C 
BRANCH  46  47
HETATM   47  C18 UNL     1      -2.764  51.389 -24.745  1.00  0.00     0.070 C 
HETATM   48  C19 UNL     1      -3.439  52.186 -23.614  1.00  0.00     0.050 C 
HETATM   49  C20 UNL     1      -1.417  50.879 -24.207  1.00  0.00     0.050 C 
BRANCH  47  50
HETATM   50  O3  UNL     1      -2.415  52.221 -25.869  1.00  0.00    -0.382 OA
HETATM   51  C21 UNL     1      -2.783  51.758 -27.160  1.00  0.00     0.202 C 
ENDBRANCH  47  50
ENDBRANCH  46  47
ENDBRANCH  44  45
ENDBRANCH  42  44
ENDBRANCH  12  42
TORSDOF 13
ENDMDL
MODEL 7
REMARK minimizedAffinity -8.35779285
REMARK CNNscore 0.248692244
REMARK CNNaffinity 6.62377405
REMARK  13 active torsions:
REMARK  status: ('A' for Active; 'I' for Inactive)
REMARK    1  A    between atoms: O1_2  and  C2_3 
REMARK    2  A    between atoms: C12_14  and  C13_15 
REMARK    3  A    between atoms: C13_15  and  C15_17 
REMARK    4  A    between atoms: C15_17  and  C16_18 
REMARK    5  A    between atoms: C17_19  and  C18_20 
REMARK    6  A    between atoms: C18_20  and  O3_23 
REMARK    7  A    between atoms: C29_32  and  O4_33 
REMARK    8  A    between atoms: O4_33  and  C30_34 
REMARK    9  A    between atoms: C31_36  and  C32_37 
REMARK   10  A    between atoms: C32_37  and  O6_38 
REMARK   11  A    between atoms: C33_39  and  O7_40 
REMARK   12  A    between atoms: C34_41  and  O8_42 
REMARK   13  A    between atoms: C35_43  and  O9_44 
ROOT
HETATM    1  C2  UNL     1      -4.117  47.363 -21.343  1.00  0.00     0.270 C 
HETATM    2  O2  UNL     1      -4.148  47.684 -22.753  1.00  0.00    -0.344 OA
HETATM    3  C3  UNL     1      -3.907  49.099 -22.894  1.00  0.00     0.095 C 
HETATM    4  C4  UNL     1      -2.388  49.218 -22.963  1.00  0.00     0.008 C 
HETATM    5  C5  UNL     1      -1.623  49.175 -21.863  1.00  0.00    -0.021 C 
HETATM    6  C6  UNL     1      -2.225  48.946 -20.492  1.00  0.00     0.030 C 
HETATM    7  C7  UNL     1      -3.793  48.687 -20.563  1.00  0.00     0.024 C 
HETATM    8  C8  UNL     1      -4.425  48.628 -19.154  1.00  0.00     0.016 C 
HETATM    9  C9  UNL     1      -3.920  49.643 -18.113  1.00  0.00     0.011 C 
HETATM   10  C10 UNL     1      -2.382  49.682 -18.034  1.00  0.00    -0.032 C 
HETATM   11  C11 UNL     1      -1.886  48.293 -17.512  1.00  0.00     0.016 C 
HETATM   12  C12 UNL     1      -1.721  50.799 -17.173  1.00  0.00    -0.002 C 
HETATM   13  C22 UNL     1      -0.282  50.886 -17.782  1.00  0.00     0.006 C 
HETATM   14  C23 UNL     1      -0.329  50.204 -19.167  1.00  0.00     0.011 C 
HETATM   15  C24 UNL     1      -1.834  50.062 -19.467  1.00  0.00    -0.029 C 
HETATM   16  C25 UNL     1      -2.288  51.484 -19.966  1.00  0.00     0.016 C 
HETATM   17  C26 UNL     1      -4.437  49.679 -21.561  1.00  0.00     0.039 C 
HETATM   18  C27 UNL     1      -5.971  49.748 -21.485  1.00  0.00     0.011 C 
HETATM   19  C28 UNL     1      -6.581  50.419 -22.707  1.00  0.00     0.033 C 
HETATM   20  C29 UNL     1      -6.160  49.719 -24.001  1.00  0.00     0.136 C 
HETATM   21  C36 UNL     1      -4.606  49.683 -24.173  1.00  0.00     0.014 C 
HETATM   22  C37 UNL     1      -4.261  48.843 -25.438  1.00  0.00     0.021 C 
HETATM   23  C38 UNL     1      -4.125  51.136 -24.440  1.00  0.00     0.021 C 
ENDROOT
BRANCH  20  24
HETATM   24  O4  UNL     1      -6.688  48.385 -23.952  1.00  0.00    -0.352 OA
BRANCH  24  25
HETATM   25  C30 UNL     1      -8.118  48.347 -23.899  1.00  0.00     0.292 C 
HETATM   26  O5  UNL     1      -8.522  47.089 -23.375  1.00  0.00    -0.348 OA
HETATM   27  C31 UNL     1      -9.018  46.146 -24.325  1.00  0.00     0.179 C 
HETATM   28  C33 UNL     1      -8.188  46.151 -25.618  1.00  0.00     0.180 C 
HETATM   29  C34 UNL     1      -8.178  47.542 -26.276  1.00  0.00     0.183 C 
HETATM   30  C35 UNL     1      -8.624  48.654 -25.320  1.00  0.00     0.204 C 
BRANCH  27  31
HETATM   31  C32 UNL     1      -9.005  44.754 -23.663  1.00  0.00     0.198 C 
BRANCH  31  32
HETATM   32  O6  UNL     1      -7.791  44.035 -23.872  1.00  0.00    -0.398 OA
HETATM   33  H50 UNL     1      -7.101  44.694 -24.118  1.00  0.00     0.209 HD
ENDBRANCH  31  32
ENDBRANCH  27  31
BRANCH  28  34
HETATM   34  O7  UNL     1      -8.720  45.197 -26.566  1.00  0.00    -0.390 OA
HETATM   35  H52 UNL     1      -8.078  45.189 -27.304  1.00  0.00     0.210 HD
ENDBRANCH  28  34
BRANCH  29  36
HETATM   36  O8  UNL     1      -6.859  47.784 -26.791  1.00  0.00    -0.390 OA
HETATM   37  H54 UNL     1      -6.335  48.180 -26.060  1.00  0.00     0.210 HD
ENDBRANCH  29  36
BRANCH  30  38
HETATM   38  O9  UNL     1     -10.051  48.781 -25.321  1.00  0.00    -0.388 OA
HETATM   39  H56 UNL     1     -10.326  49.109 -26.199  1.00  0.00     0.210 HD
ENDBRANCH  30  38
ENDBRANCH  24  25
ENDBRANCH  20  24
BRANCH   1  40
HETATM   40  O1  UNL     1      -3.207  46.318 -21.017  1.00  0.00    -0.365 OA
HETATM   41  C1  UNL     1      -3.855  45.187 -20.455  1.00  0.00     0.204 C 
ENDBRANCH   1  40
BRANCH  12  42
HETATM   42  C13 UNL     1      -1.675  50.695 -15.620  1.00  0.00    -0.010 C 
HETATM   43  C14 UNL     1      -1.268  49.300 -15.130  1.00  0.00     0.010 C 
BRANCH  42  44
HETATM   44  C15 UNL     1      -3.057  51.085 -15.022  1.00  0.00     0.031 C 
BRANCH  44  45
HETATM   45  C16 UNL     1      -3.065  51.150 -13.518  1.00  0.00    -0.027 C 
HETATM   46  C17 UNL     1      -3.251  52.291 -12.831  1.00  0.00     0.006 C 
BRANCH  46  47
HETATM   47  C18 UNL     1      -3.263  52.490 -11.328  1.00  0.00     0.070 C 
HETATM   48  C19 UNL     1      -3.806  53.892 -10.994  1.00  0.00     0.050 C 
HETATM   49  C20 UNL     1      -4.138  51.469 -10.583  1.00  0.00     0.050 C 
BRANCH  47  50
HETATM   50  O3  UNL     1      -1.935  52.279 -10.807  1.00  0.00    -0.382 OA
HETATM   51  C21 UNL     1      -1.032  53.373 -10.866  1.00  0.00     0.202 C 
ENDBRANCH  47  50
ENDBRANCH  46  47
ENDBRANCH  44  45
ENDBRANCH  42  44
ENDBRANCH  12  42
TORSDOF 13
ENDMDL
MODEL 8
REMARK minimizedAffinity -8.10329819
REMARK CNNscore 0.243330881
REMARK CNNaffinity 7.20695543
REMARK  13 active torsions:
REMARK  status: ('A' for Active; 'I' for Inactive)
REMARK    1  A    between atoms: O1_2  and  C2_3 
REMARK    2  A    between atoms: C12_14  and  C13_15 
REMARK    3  A    between atoms: C13_15  and  C15_17 
REMARK    4  A    between atoms: C15_17  and  C16_18 
REMARK    5  A    between atoms: C17_19  and  C18_20 
REMARK    6  A    between atoms: C18_20  and  O3_23 
REMARK    7  A    between atoms: C29_32  and  O4_33 
REMARK    8  A    between atoms: O4_33  and  C30_34 
REMARK    9  A    between atoms: C31_36  and  C32_37 
REMARK   10  A    between atoms: C32_37  and  O6_38 
REMARK   11  A    between atoms: C33_39  and  O7_40 
REMARK   12  A    between atoms: C34_41  and  O8_42 
REMARK   13  A    between atoms: C35_43  and  O9_44 
ROOT
HETATM    1  C2  UNL     1      -7.554  48.936 -22.018  1.00  0.00     0.270 C 
HETATM    2  O2  UNL     1      -8.363  47.740 -22.094  1.00  0.00    -0.344 OA
HETATM    3  C3  UNL     1      -7.487  46.621 -22.339  1.00  0.00     0.095 C 
HETATM    4  C4  UNL     1      -7.056  46.167 -20.949  1.00  0.00     0.008 C 
HETATM    5  C5  UNL     1      -6.093  46.800 -20.264  1.00  0.00    -0.021 C 
HETATM    6  C6  UNL     1      -5.419  48.041 -20.812  1.00  0.00     0.030 C 
HETATM    7  C7  UNL     1      -6.054  48.504 -22.195  1.00  0.00     0.024 C 
HETATM    8  C8  UNL     1      -5.252  49.661 -22.831  1.00  0.00     0.016 C 
HETATM    9  C9  UNL     1      -3.717  49.584 -22.745  1.00  0.00     0.011 C 
HETATM   10  C10 UNL     1      -3.227  49.284 -21.316  1.00  0.00    -0.032 C 
HETATM   11  C11 UNL     1      -3.619  50.492 -20.403  1.00  0.00     0.016 C 
HETATM   12  C12 UNL     1      -1.713  48.978 -21.111  1.00  0.00    -0.002 C 
HETATM   13  C22 UNL     1      -1.711  48.187 -19.761  1.00  0.00     0.006 C 
HETATM   14  C23 UNL     1      -3.155  47.698 -19.513  1.00  0.00     0.011 C 
HETATM   15  C24 UNL     1      -3.861  47.908 -20.867  1.00  0.00    -0.029 C 
HETATM   16  C25 UNL     1      -3.421  46.684 -21.753  1.00  0.00     0.016 C 
HETATM   17  C26 UNL     1      -6.299  47.266 -23.092  1.00  0.00     0.039 C 
HETATM   18  C27 UNL     1      -6.607  47.600 -24.561  1.00  0.00     0.011 C 
HETATM   19  C28 UNL     1      -7.212  46.419 -25.309  1.00  0.00     0.033 C 
HETATM   20  C29 UNL     1      -8.477  45.907 -24.619  1.00  0.00     0.136 C 
HETATM   21  C36 UNL     1      -8.211  45.479 -23.138  1.00  0.00     0.014 C 
HETATM   22  C37 UNL     1      -9.567  45.099 -22.474  1.00  0.00     0.021 C 
HETATM   23  C38 UNL     1      -7.336  44.196 -23.166  1.00  0.00     0.021 C 
ENDROOT
BRANCH  20  24
HETATM   24  O4  UNL     1      -9.444  46.967 -24.666  1.00  0.00    -0.352 OA
BRANCH  24  25
HETATM   25  C30 UNL     1     -10.474  46.747 -25.635  1.00  0.00     0.292 C 
HETATM   26  O5  UNL     1      -9.902  46.124 -26.777  1.00  0.00    -0.348 OA
HETATM   27  C31 UNL     1      -9.692  46.967 -27.910  1.00  0.00     0.179 C 
HETATM   28  C33 UNL     1      -9.153  48.346 -27.500  1.00  0.00     0.180 C 
HETATM   29  C34 UNL     1     -10.114  49.063 -26.535  1.00  0.00     0.183 C 
HETATM   30  C35 UNL     1     -11.135  48.113 -25.899  1.00  0.00     0.204 C 
BRANCH  27  31
HETATM   31  C32 UNL     1      -8.714  46.249 -28.860  1.00  0.00     0.198 C 
BRANCH  31  32
HETATM   32  O6  UNL     1      -9.350  45.660 -29.994  1.00  0.00    -0.398 OA
HETATM   33  H50 UNL     1     -10.223  46.104 -30.101  1.00  0.00     0.209 HD
ENDBRANCH  31  32
ENDBRANCH  27  31
BRANCH  28  34
HETATM   34  O7  UNL     1      -8.962  49.182 -28.665  1.00  0.00    -0.390 OA
HETATM   35  H52 UNL     1      -8.522  49.989 -28.328  1.00  0.00     0.210 HD
ENDBRANCH  28  34
BRANCH  29  36
HETATM   36  O8  UNL     1      -9.327  49.737 -25.540  1.00  0.00    -0.390 OA
HETATM   37  H54 UNL     1      -9.163  49.091 -24.819  1.00  0.00     0.210 HD
ENDBRANCH  29  36
BRANCH  30  38
HETATM   38  O9  UNL     1     -12.277  47.955 -26.749  1.00  0.00    -0.388 OA
HETATM   39  H56 UNL     1     -12.749  48.808 -26.786  1.00  0.00     0.210 HD
ENDBRANCH  30  38
ENDBRANCH  24  25
ENDBRANCH  20  24
BRANCH   1  40
HETATM   40  O1  UNL     1      -7.754  49.683 -20.823  1.00  0.00    -0.365 OA
HETATM   41  C1  UNL     1      -8.701  49.078 -19.955  1.00  0.00     0.204 C 
ENDBRANCH   1  40
BRANCH  12  42
HETATM   42  C13 UNL     1      -0.656  50.122 -21.100  1.00  0.00    -0.010 C 
HETATM   43  C14 UNL     1      -0.355  50.639 -19.688  1.00  0.00     0.010 C 
BRANCH  42  44
HETATM   44  C15 UNL     1      -1.137  51.294 -22.003  1.00  0.00     0.031 C 
BRANCH  44  45
HETATM   45  C16 UNL     1      -0.813  51.101 -23.460  1.00  0.00    -0.027 C 
HETATM   46  C17 UNL     1      -0.240  52.053 -24.219  1.00  0.00     0.006 C 
BRANCH  46  47
HETATM   47  C18 UNL     1       0.119  51.989 -25.692  1.00  0.00     0.070 C 
HETATM   48  C19 UNL     1       1.594  51.575 -25.849  1.00  0.00     0.050 C 
HETATM   49  C20 UNL     1      -0.728  50.980 -26.484  1.00  0.00     0.050 C 
BRANCH  47  50
HETATM   50  O3  UNL     1      -0.161  53.262 -26.307  1.00  0.00    -0.382 OA
HETATM   51  C21 UNL     1      -0.228  53.299 -27.725  1.00  0.00     0.202 C 
ENDBRANCH  47  50
ENDBRANCH  46  47
ENDBRANCH  44  45
ENDBRANCH  42  44
ENDBRANCH  12  42
TORSDOF 13
ENDMDL
MODEL 9
REMARK minimizedAffinity -8.33058739
REMARK CNNscore 0.242138445
REMARK CNNaffinity 6.92924833
REMARK  13 active torsions:
REMARK  status: ('A' for Active; 'I' for Inactive)
REMARK    1  A    between atoms: O1_2  and  C2_3 
REMARK    2  A    between atoms: C12_14  and  C13_15 
REMARK    3  A    between atoms: C13_15  and  C15_17 
REMARK    4  A    between atoms: C15_17  and  C16_18 
REMARK    5  A    between atoms: C17_19  and  C18_20 
REMARK    6  A    between atoms: C18_20  and  O3_23 
REMARK    7  A    between atoms: C29_32  and  O4_33 
REMARK    8  A    between atoms: O4_33  and  C30_34 
REMARK    9  A    between atoms: C31_36  and  C32_37 
REMARK   10  A    between atoms: C32_37  and  O6_38 
REMARK   11  A    between atoms: C33_39  and  O7_40 
REMARK   12  A    between atoms: C34_41  and  O8_42 
REMARK   13  A    between atoms: C35_43  and  O9_44 
ROOT
HETATM    1  C2  UNL     1      -4.723  46.021 -19.005  1.00  0.00     0.270 C 
HETATM    2  O2  UNL     1      -6.096  45.631 -19.237  1.00  0.00    -0.344 OA
HETATM    3  C3  UNL     1      -6.748  46.698 -19.956  1.00  0.00     0.095 C 
HETATM    4  C4  UNL     1      -6.476  46.384 -21.423  1.00  0.00     0.008 C 
HETATM    5  C5  UNL     1      -5.305  46.678 -22.005  1.00  0.00    -0.021 C 
HETATM    6  C6  UNL     1      -4.163  47.287 -21.217  1.00  0.00     0.030 C 
HETATM    7  C7  UNL     1      -4.512  47.428 -19.671  1.00  0.00     0.024 C 
HETATM    8  C8  UNL     1      -3.416  48.204 -18.909  1.00  0.00     0.016 C 
HETATM    9  C9  UNL     1      -2.802  49.429 -19.612  1.00  0.00     0.011 C 
HETATM   10  C10 UNL     1      -2.362  49.113 -21.054  1.00  0.00    -0.032 C 
HETATM   11  C11 UNL     1      -1.203  48.064 -20.991  1.00  0.00     0.016 C 
HETATM   12  C12 UNL     1      -1.908  50.299 -21.957  1.00  0.00    -0.002 C 
HETATM   13  C22 UNL     1      -2.114  49.722 -23.397  1.00  0.00     0.006 C 
HETATM   14  C23 UNL     1      -3.052  48.501 -23.272  1.00  0.00     0.011 C 
HETATM   15  C24 UNL     1      -3.634  48.616 -21.850  1.00  0.00    -0.029 C 
HETATM   16  C25 UNL     1      -4.776  49.693 -21.960  1.00  0.00     0.016 C 
HETATM   17  C26 UNL     1      -5.959  47.953 -19.513  1.00  0.00     0.039 C 
HETATM   18  C27 UNL     1      -6.307  48.432 -18.094  1.00  0.00     0.011 C 
HETATM   19  C28 UNL     1      -7.809  48.571 -17.883  1.00  0.00     0.033 C 
HETATM   20  C29 UNL     1      -8.541  47.261 -18.179  1.00  0.00     0.136 C 
HETATM   21  C36 UNL     1      -8.285  46.759 -19.638  1.00  0.00     0.014 C 
HETATM   22  C37 UNL     1      -8.954  45.363 -19.813  1.00  0.00     0.021 C 
HETATM   23  C38 UNL     1      -9.003  47.738 -20.608  1.00  0.00     0.021 C 
ENDROOT
BRANCH  20  24
HETATM   24  O4  UNL     1      -8.075  46.291 -17.229  1.00  0.00    -0.352 OA
BRANCH  24  25
HETATM   25  C30 UNL     1      -8.137  46.753 -15.876  1.00  0.00     0.292 C 
HETATM   26  O5  UNL     1      -7.209  46.010 -15.097  1.00  0.00    -0.348 OA
HETATM   27  C31 UNL     1      -7.764  44.995 -14.261  1.00  0.00     0.179 C 
HETATM   28  C33 UNL     1      -8.883  44.220 -14.975  1.00  0.00     0.180 C 
HETATM   29  C34 UNL     1     -10.020  45.156 -15.422  1.00  0.00     0.183 C 
HETATM   30  C35 UNL     1      -9.607  46.632 -15.431  1.00  0.00     0.204 C 
BRANCH  27  31
HETATM   31  C32 UNL     1      -6.622  44.053 -13.835  1.00  0.00     0.198 C 
BRANCH  31  32
HETATM   32  O6  UNL     1      -5.367  44.373 -14.433  1.00  0.00    -0.398 OA
HETATM   33  H50 UNL     1      -5.419  45.310 -14.737  1.00  0.00     0.209 HD
ENDBRANCH  31  32
ENDBRANCH  27  31
BRANCH  28  34
HETATM   34  O7  UNL     1      -9.436  43.208 -14.103  1.00  0.00    -0.390 OA
HETATM   35  H52 UNL     1     -10.056  42.700 -14.664  1.00  0.00     0.210 HD
ENDBRANCH  28  34
BRANCH  29  36
HETATM   36  O8  UNL     1     -10.471  44.725 -16.717  1.00  0.00    -0.390 OA
HETATM   37  H54 UNL     1      -9.905  45.176 -17.381  1.00  0.00     0.210 HD
ENDBRANCH  29  36
BRANCH  30  38
HETATM   38  O9  UNL     1      -9.781  47.215 -14.134  1.00  0.00    -0.388 OA
HETATM   39  H56 UNL     1     -10.737  47.245 -13.941  1.00  0.00     0.210 HD
ENDBRANCH  30  38
ENDBRANCH  24  25
ENDBRANCH  20  24
BRANCH   1  40
HETATM   40  O1  UNL     1      -3.775  45.066 -19.467  1.00  0.00    -0.365 OA
HETATM   41  C1  UNL     1      -4.150  43.733 -19.155  1.00  0.00     0.204 C 
ENDBRANCH   1  40
BRANCH  12  42
HETATM   42  C13 UNL     1      -0.496  50.936 -21.797  1.00  0.00    -0.010 C 
HETATM   43  C14 UNL     1      -0.112  51.168 -20.330  1.00  0.00     0.010 C 
BRANCH  42  44
HETATM   44  C15 UNL     1      -0.430  52.278 -22.581  1.00  0.00     0.031 C 
BRANCH  44  45
HETATM   45  C16 UNL     1      -0.345  52.098 -24.073  1.00  0.00    -0.027 C 
HETATM   46  C17 UNL     1       0.807  52.195 -24.762  1.00  0.00     0.006 C 
BRANCH  46  47
HETATM   47  C18 UNL     1       1.021  52.052 -26.257  1.00  0.00     0.070 C 
HETATM   48  C19 UNL     1       2.430  51.495 -26.529  1.00  0.00     0.050 C 
HETATM   49  C20 UNL     1       0.015  51.105 -26.931  1.00  0.00     0.050 C 
BRANCH  47  50
HETATM   50  O3  UNL     1       0.803  53.327 -26.894  1.00  0.00    -0.382 OA
HETATM   51  C21 UNL     1      -0.182  53.384 -27.916  1.00  0.00     0.202 C 
ENDBRANCH  47  50
ENDBRANCH  46  47
ENDBRANCH  44  45
ENDBRANCH  42  44
ENDBRANCH  12  42
TORSDOF 13
ENDMDL
