MODEL 1
REMARK minimizedAffinity -9.67122746
REMARK CNNscore 0.757831454
REMARK CNNaffinity 7.34618187
REMARK  12 active torsions:
REMARK  status: ('A' for Active; 'I' for Inactive)
REMARK    1  A    between atoms: O1_2  and  C2_3 
REMARK    2  A    between atoms: C2_3  and  C3_4 
REMARK    3  A    between atoms: C3_4  and  C4_5 
REMARK    4  A    between atoms: C4_5  and  O2_6 
REMARK    5  A    between atoms: O2_6  and  C5_7 
REMARK    6  A    between atoms: C20_23  and  C21_24 
REMARK    7  A    between atoms: C21_24  and  O4_26 
REMARK    8  A    between atoms: C21_24  and  C23_27 
REMARK    9  A    between atoms: C23_27  and  O5_28 
REMARK   10  A    between atoms: C23_27  and  C24_29 
REMARK   11  A    between atoms: C30_36  and  O7_37 
REMARK   12  A    between atoms: C35_42  and  O8_43 
ROOT
HETATM    1  C5  UNL     1      -1.916  52.049 -26.024  1.00  0.00     0.122 C 
HETATM    2  C6  UNL     1      -3.387  51.762 -25.726  1.00  0.00     0.033 C 
HETATM    3  C7  UNL     1      -3.634  51.370 -24.267  1.00  0.00     0.013 C 
HETATM    4  C8  UNL     1      -2.716  50.210 -23.760  1.00  0.00    -0.026 C 
HETATM    5  C9  UNL     1      -3.103  48.921 -24.529  1.00  0.00     0.016 C 
HETATM    6  C10 UNL     1      -1.238  50.582 -24.048  1.00  0.00     0.071 C 
HETATM    7  C11 UNL     1      -1.004  50.922 -25.529  1.00  0.00     0.045 C 
HETATM    8  C12 UNL     1      -0.769  51.748 -23.177  1.00  0.00     0.154 C 
HETATM    9  O3  UNL     1       0.074  52.564 -23.544  1.00  0.00    -0.293 OA
HETATM   10  C13 UNL     1      -1.281  51.857 -21.795  1.00  0.00     0.057 C 
HETATM   11  C14 UNL     1      -2.233  51.031 -21.337  1.00  0.00    -0.037 C 
HETATM   12  C15 UNL     1      -2.954  50.003 -22.215  1.00  0.00     0.026 C 
HETATM   13  C16 UNL     1      -2.648  48.583 -21.666  1.00  0.00     0.011 C 
HETATM   14  C17 UNL     1      -2.925  48.438 -20.150  1.00  0.00     0.014 C 
HETATM   15  C18 UNL     1      -2.216  49.523 -19.319  1.00  0.00    -0.002 C 
HETATM   16  C19 UNL     1      -0.681  49.305 -19.425  1.00  0.00     0.019 C 
HETATM   17  C20 UNL     1      -2.716  49.681 -17.846  1.00  0.00     0.034 C 
HETATM   18  C33 UNL     1      -2.316  51.138 -17.475  1.00  0.00     0.012 C 
HETATM   19  C34 UNL     1      -2.056  51.879 -18.807  1.00  0.00     0.044 C 
HETATM   20  C35 UNL     1      -2.617  50.936 -19.880  1.00  0.00     0.089 C 
ENDROOT
BRANCH  17  21
HETATM   21  C21 UNL     1      -2.598  48.584 -16.724  1.00  0.00     0.087 C 
HETATM   22  C22 UNL     1      -3.446  47.356 -17.168  1.00  0.00     0.049 C 
BRANCH  21  23
HETATM   23  O4  UNL     1      -3.282  49.101 -15.569  1.00  0.00    -0.387 OA
HETATM   24  H34 UNL     1      -4.199  49.298 -15.828  1.00  0.00     0.210 HD
ENDBRANCH  21  23
BRANCH  21  25
HETATM   25  C23 UNL     1      -1.186  48.049 -16.289  1.00  0.00     0.181 C 
BRANCH  25  26
HETATM   26  O5  UNL     1      -1.319  46.912 -15.401  1.00  0.00    -0.390 OA
HETATM   27  H36 UNL     1      -0.439  46.514 -15.293  1.00  0.00     0.210 HD
ENDBRANCH  25  26
BRANCH  25  28
HETATM   28  C24 UNL     1      -0.118  48.986 -15.673  1.00  0.00     0.158 C 
HETATM   29  O6  UNL     1       0.393  49.999 -16.546  1.00  0.00    -0.374 OA
HETATM   30  C25 UNL     1       0.550  51.215 -15.785  1.00  0.00     0.159 C 
HETATM   31  C26 UNL     1       0.690  50.776 -14.327  1.00  0.00     0.027 C 
HETATM   32  C30 UNL     1       1.694  52.099 -16.319  1.00  0.00     0.170 C 
HETATM   33  C27 UNL     1       2.111  50.296 -13.961  1.00  0.00     0.034 C 
HETATM   34  C31 UNL     1      -0.317  49.618 -14.274  1.00  0.00     0.020 C 
HETATM   35  C28 UNL     1       3.218  51.038 -14.641  1.00  0.00    -0.028 C 
HETATM   36  C29 UNL     1       3.030  51.839 -15.697  1.00  0.00     0.003 C 
HETATM   37  C32 UNL     1      -1.712  50.135 -13.933  1.00  0.00     0.013 C 
BRANCH  32  38
HETATM   38  O7  UNL     1       1.398  53.475 -16.067  1.00  0.00    -0.389 OA
HETATM   39  H45 UNL     1       1.552  53.631 -15.119  1.00  0.00     0.210 HD
ENDBRANCH  32  38
ENDBRANCH  25  28
ENDBRANCH  21  25
ENDBRANCH  17  21
BRANCH  20  40
HETATM   40  O8  UNL     1      -4.044  51.111 -19.853  1.00  0.00    -0.384 OA
HETATM   41  H54 UNL     1      -4.224  52.026 -20.133  1.00  0.00     0.211 HD
ENDBRANCH  20  40
BRANCH   1  42
HETATM   42  O2  UNL     1      -1.754  52.141 -27.444  1.00  0.00    -0.386 OA
BRANCH  42  43
HETATM   43  C4  UNL     1      -1.380  53.441 -27.903  1.00  0.00     0.170 C 
BRANCH  43  44
HETATM   44  C3  UNL     1       0.079  53.451 -28.350  1.00  0.00     0.052 C 
BRANCH  44  45
HETATM   45  C2  UNL     1       0.786  52.157 -27.964  1.00  0.00     0.169 C 
BRANCH  45  46
HETATM   46  O1  UNL     1       1.987  52.403 -27.231  1.00  0.00    -0.396 OA
HETATM   47  C1  UNL     1       2.419  51.288 -26.462  1.00  0.00     0.201 C 
ENDBRANCH  45  46
ENDBRANCH  44  45
ENDBRANCH  43  44
ENDBRANCH  42  43
ENDBRANCH   1  42
TORSDOF 12
ENDMDL
MODEL 2
REMARK minimizedAffinity -7.7039957
REMARK CNNscore 0.757158279
REMARK CNNaffinity 6.83605194
REMARK  12 active torsions:
REMARK  status: ('A' for Active; 'I' for Inactive)
REMARK    1  A    between atoms: O1_2  and  C2_3 
REMARK    2  A    between atoms: C2_3  and  C3_4 
REMARK    3  A    between atoms: C3_4  and  C4_5 
REMARK    4  A    between atoms: C4_5  and  O2_6 
REMARK    5  A    between atoms: O2_6  and  C5_7 
REMARK    6  A    between atoms: C20_23  and  C21_24 
REMARK    7  A    between atoms: C21_24  and  O4_26 
REMARK    8  A    between atoms: C21_24  and  C23_27 
REMARK    9  A    between atoms: C23_27  and  O5_28 
REMARK   10  A    between atoms: C23_27  and  C24_29 
REMARK   11  A    between atoms: C30_36  and  O7_37 
REMARK   12  A    between atoms: C35_42  and  O8_43 
ROOT
HETATM    1  C5  UNL     1      -2.000  51.758 -23.125  1.00  0.00     0.122 C 
HETATM    2  C6  UNL     1      -3.391  51.867 -22.501  1.00  0.00     0.033 C 
HETATM    3  C7  UNL     1      -3.407  51.506 -21.013  1.00  0.00     0.013 C 
HETATM    4  C8  UNL     1      -2.747  50.126 -20.690  1.00  0.00    -0.026 C 
HETATM    5  C9  UNL     1      -3.626  49.015 -21.318  1.00  0.00     0.016 C 
HETATM    6  C10 UNL     1      -1.325  50.097 -21.307  1.00  0.00     0.071 C 
HETATM    7  C11 UNL     1      -1.339  50.412 -22.813  1.00  0.00     0.045 C 
HETATM    8  C12 UNL     1      -0.379  51.065 -20.595  1.00  0.00     0.154 C 
HETATM    9  O3  UNL     1       0.550  51.637 -21.161  1.00  0.00    -0.293 OA
HETATM   10  C13 UNL     1      -0.525  51.260 -19.137  1.00  0.00     0.057 C 
HETATM   11  C14 UNL     1      -1.539  50.705 -18.457  1.00  0.00    -0.037 C 
HETATM   12  C15 UNL     1      -2.685  49.938 -19.125  1.00  0.00     0.026 C 
HETATM   13  C16 UNL     1      -2.659  48.471 -18.619  1.00  0.00     0.011 C 
HETATM   14  C17 UNL     1      -2.625  48.354 -17.076  1.00  0.00     0.014 C 
HETATM   15  C18 UNL     1      -1.485  49.181 -16.452  1.00  0.00    -0.002 C 
HETATM   16  C19 UNL     1      -0.128  48.562 -16.889  1.00  0.00     0.019 C 
HETATM   17  C20 UNL     1      -1.586  49.417 -14.910  1.00  0.00     0.034 C 
HETATM   18  C33 UNL     1      -0.737  50.700 -14.677  1.00  0.00     0.012 C 
HETATM   19  C34 UNL     1      -0.588  51.389 -16.053  1.00  0.00     0.044 C 
HETATM   20  C35 UNL     1      -1.604  50.667 -16.950  1.00  0.00     0.089 C 
ENDROOT
BRANCH  17  21
HETATM   21  C21 UNL     1      -1.524  48.292 -13.812  1.00  0.00     0.087 C 
HETATM   22  C22 UNL     1      -0.548  47.189 -14.316  1.00  0.00     0.049 C 
BRANCH  21  23
HETATM   23  O4  UNL     1      -2.815  47.658 -13.799  1.00  0.00    -0.387 OA
HETATM   24  H34 UNL     1      -2.992  47.321 -14.694  1.00  0.00     0.210 HD
ENDBRANCH  21  23
BRANCH  21  25
HETATM   25  C23 UNL     1      -1.111  48.649 -12.338  1.00  0.00     0.181 C 
BRANCH  25  26
HETATM   26  O5  UNL     1      -1.138  47.469 -11.497  1.00  0.00    -0.390 OA
HETATM   27  H36 UNL     1      -0.721  47.698 -10.650  1.00  0.00     0.210 HD
ENDBRANCH  25  26
BRANCH  25  28
HETATM   28  C24 UNL     1      -1.810  49.786 -11.553  1.00  0.00     0.158 C 
HETATM   29  O6  UNL     1      -1.829  51.063 -12.199  1.00  0.00    -0.374 OA
HETATM   30  C25 UNL     1      -3.116  51.671 -11.963  1.00  0.00     0.159 C 
HETATM   31  C26 UNL     1      -3.654  51.020 -10.690  1.00  0.00     0.027 C 
HETATM   32  C30 UNL     1      -3.042  53.210 -11.935  1.00  0.00     0.170 C 
HETATM   33  C27 UNL     1      -3.070  51.620  -9.393  1.00  0.00     0.034 C 
HETATM   34  C31 UNL     1      -3.190  49.569 -10.886  1.00  0.00     0.020 C 
HETATM   35  C28 UNL     1      -2.818  53.094  -9.445  1.00  0.00    -0.028 C 
HETATM   36  C29 UNL     1      -2.801  53.802 -10.582  1.00  0.00     0.003 C 
HETATM   37  C32 UNL     1      -4.229  48.774 -11.674  1.00  0.00     0.013 C 
BRANCH  32  38
HETATM   38  O7  UNL     1      -4.280  53.760 -12.395  1.00  0.00    -0.389 OA
HETATM   39  H45 UNL     1      -4.925  53.652 -11.676  1.00  0.00     0.210 HD
ENDBRANCH  32  38
ENDBRANCH  25  28
ENDBRANCH  21  25
ENDBRANCH  17  21
BRANCH  20  40
HETATM   40  O8  UNL     1      -2.889  51.218 -16.612  1.00  0.00    -0.384 OA
HETATM   41  H54 UNL     1      -2.873  52.156 -16.871  1.00  0.00     0.211 HD
ENDBRANCH  20  40
BRANCH   1  42
HETATM   42  O2  UNL     1      -2.137  51.851 -24.547  1.00  0.00    -0.386 OA
BRANCH  42  43
HETATM   43  C4  UNL     1      -1.101  52.603 -25.182  1.00  0.00     0.170 C 
BRANCH  43  44
HETATM   44  C3  UNL     1      -1.161  52.422 -26.696  1.00  0.00     0.052 C 
BRANCH  44  45
HETATM   45  C2  UNL     1       0.210  52.619 -27.333  1.00  0.00     0.169 C 
BRANCH  45  46
HETATM   46  O1  UNL     1       0.994  51.426 -27.290  1.00  0.00    -0.396 OA
HETATM   47  C1  UNL     1       2.243  51.594 -26.631  1.00  0.00     0.201 C 
ENDBRANCH  45  46
ENDBRANCH  44  45
ENDBRANCH  43  44
ENDBRANCH  42  43
ENDBRANCH   1  42
TORSDOF 12
ENDMDL
MODEL 3
REMARK minimizedAffinity -7.91016483
REMARK CNNscore 0.580512106
REMARK CNNaffinity 6.85936356
REMARK  12 active torsions:
REMARK  status: ('A' for Active; 'I' for Inactive)
REMARK    1  A    between atoms: O1_2  and  C2_3 
REMARK    2  A    between atoms: C2_3  and  C3_4 
REMARK    3  A    between atoms: C3_4  and  C4_5 
REMARK    4  A    between atoms: C4_5  and  O2_6 
REMARK    5  A    between atoms: O2_6  and  C5_7 
REMARK    6  A    between atoms: C20_23  and  C21_24 
REMARK    7  A    between atoms: C21_24  and  O4_26 
REMARK    8  A    between atoms: C21_24  and  C23_27 
REMARK    9  A    between atoms: C23_27  and  O5_28 
REMARK   10  A    between atoms: C23_27  and  C24_29 
REMARK   11  A    between atoms: C30_36  and  O7_37 
REMARK   12  A    between atoms: C35_42  and  O8_43 
ROOT
HETATM    1  C5  UNL     1     -14.489  44.321 -28.234  1.00  0.00     0.122 C 
HETATM    2  C6  UNL     1     -14.586  45.821 -28.508  1.00  0.00     0.033 C 
HETATM    3  C7  UNL     1     -13.243  46.444 -28.895  1.00  0.00     0.013 C 
HETATM    4  C8  UNL     1     -12.086  46.125 -27.893  1.00  0.00    -0.026 C 
HETATM    5  C9  UNL     1     -12.409  46.823 -26.548  1.00  0.00     0.016 C 
HETATM    6  C10 UNL     1     -12.009  44.589 -27.695  1.00  0.00     0.071 C 
HETATM    7  C11 UNL     1     -13.357  43.993 -27.256  1.00  0.00     0.045 C 
HETATM    8  C12 UNL     1     -11.525  43.879 -28.960  1.00  0.00     0.154 C 
HETATM    9  O3  UNL     1     -11.880  42.744 -29.271  1.00  0.00    -0.293 OA
HETATM   10  C13 UNL     1     -10.515  44.545 -29.809  1.00  0.00     0.057 C 
HETATM   11  C14 UNL     1     -10.112  45.799 -29.559  1.00  0.00    -0.037 C 
HETATM   12  C15 UNL     1     -10.731  46.686 -28.475  1.00  0.00     0.026 C 
HETATM   13  C16 UNL     1      -9.635  47.028 -27.430  1.00  0.00     0.011 C 
HETATM   14  C17 UNL     1      -8.341  47.598 -28.061  1.00  0.00     0.014 C 
HETATM   15  C18 UNL     1      -7.787  46.692 -29.177  1.00  0.00    -0.002 C 
HETATM   16  C19 UNL     1      -7.317  45.354 -28.541  1.00  0.00     0.019 C 
HETATM   17  C20 UNL     1      -6.712  47.344 -30.106  1.00  0.00     0.034 C 
HETATM   18  C33 UNL     1      -6.794  46.503 -31.411  1.00  0.00     0.012 C 
HETATM   19  C34 UNL     1      -8.150  45.761 -31.377  1.00  0.00     0.044 C 
HETATM   20  C35 UNL     1      -8.922  46.436 -30.235  1.00  0.00     0.089 C 
ENDROOT
BRANCH  17  21
HETATM   21  C21 UNL     1      -5.291  47.838 -29.644  1.00  0.00     0.087 C 
HETATM   22  C22 UNL     1      -5.043  49.237 -30.278  1.00  0.00     0.049 C 
BRANCH  21  23
HETATM   23  O4  UNL     1      -4.330  46.975 -30.276  1.00  0.00    -0.387 OA
HETATM   24  H34 UNL     1      -4.467  47.028 -31.238  1.00  0.00     0.210 HD
ENDBRANCH  21  23
BRANCH  21  25
HETATM   25  C23 UNL     1      -4.954  47.949 -28.113  1.00  0.00     0.181 C 
BRANCH  25  26
HETATM   26  O5  UNL     1      -6.108  48.403 -27.364  1.00  0.00    -0.390 OA
HETATM   27  H36 UNL     1      -5.910  48.298 -26.418  1.00  0.00     0.210 HD
ENDBRANCH  25  26
BRANCH  25  28
HETATM   28  C24 UNL     1      -3.735  48.759 -27.608  1.00  0.00     0.158 C 
HETATM   29  O6  UNL     1      -3.780  50.167 -27.861  1.00  0.00    -0.374 OA
HETATM   30  C25 UNL     1      -3.257  50.853 -26.704  1.00  0.00     0.159 C 
HETATM   31  C26 UNL     1      -2.358  49.841 -25.994  1.00  0.00     0.027 C 
HETATM   32  C30 UNL     1      -2.585  52.191 -27.067  1.00  0.00     0.170 C 
HETATM   33  C27 UNL     1      -0.954  49.715 -26.623  1.00  0.00     0.034 C 
HETATM   34  C31 UNL     1      -3.167  48.549 -26.182  1.00  0.00     0.020 C 
HETATM   35  C28 UNL     1      -0.388  50.995 -27.153  1.00  0.00    -0.028 C 
HETATM   36  C29 UNL     1      -1.119  52.098 -27.355  1.00  0.00     0.003 C 
HETATM   37  C32 UNL     1      -4.174  48.376 -25.048  1.00  0.00     0.013 C 
BRANCH  32  38
HETATM   38  O7  UNL     1      -2.719  53.110 -25.979  1.00  0.00    -0.389 OA
HETATM   39  H45 UNL     1      -2.088  52.834 -25.293  1.00  0.00     0.210 HD
ENDBRANCH  32  38
ENDBRANCH  25  28
ENDBRANCH  21  25
ENDBRANCH  17  21
BRANCH  20  40
HETATM   40  O8  UNL     1      -9.411  47.679 -30.769  1.00  0.00    -0.384 OA
HETATM   41  H54 UNL     1     -10.047  47.455 -31.471  1.00  0.00     0.211 HD
ENDBRANCH  20  40
BRANCH   1  42
HETATM   42  O2  UNL     1     -15.716  43.894 -27.631  1.00  0.00    -0.386 OA
BRANCH  42  43
HETATM   43  C4  UNL     1     -15.593  43.536 -26.253  1.00  0.00     0.170 C 
BRANCH  43  44
HETATM   44  C3  UNL     1     -16.833  43.968 -25.476  1.00  0.00     0.052 C 
BRANCH  44  45
HETATM   45  C2  UNL     1     -17.544  45.127 -26.164  1.00  0.00     0.169 C 
BRANCH  45  46
HETATM   46  O1  UNL     1     -18.945  44.884 -26.307  1.00  0.00    -0.396 OA
HETATM   47  C1  UNL     1     -19.743  45.613 -25.385  1.00  0.00     0.201 C 
ENDBRANCH  45  46
ENDBRANCH  44  45
ENDBRANCH  43  44
ENDBRANCH  42  43
ENDBRANCH   1  42
TORSDOF 12
ENDMDL
MODEL 4
REMARK minimizedAffinity -8.71960449
REMARK CNNscore 0.531254947
REMARK CNNaffinity 7.29091024
REMARK  12 active torsions:
REMARK  status: ('A' for Active; 'I' for Inactive)
REMARK    1  A    between atoms: O1_2  and  C2_3 
REMARK    2  A    between atoms: C2_3  and  C3_4 
REMARK    3  A    between atoms: C3_4  and  C4_5 
REMARK    4  A    between atoms: C4_5  and  O2_6 
REMARK    5  A    between atoms: O2_6  and  C5_7 
REMARK    6  A    between atoms: C20_23  and  C21_24 
REMARK    7  A    between atoms: C21_24  and  O4_26 
REMARK    8  A    between atoms: C21_24  and  C23_27 
REMARK    9  A    between atoms: C23_27  and  O5_28 
REMARK   10  A    between atoms: C23_27  and  C24_29 
REMARK   11  A    between atoms: C30_36  and  O7_37 
REMARK   12  A    between atoms: C35_42  and  O8_43 
ROOT
HETATM    1  C5  UNL     1      -3.262  48.868 -21.509  1.00  0.00     0.122 C 
HETATM    2  C6  UNL     1      -1.836  48.329 -21.616  1.00  0.00     0.033 C 
HETATM    3  C7  UNL     1      -1.069  48.407 -20.293  1.00  0.00     0.013 C 
HETATM    4  C8  UNL     1      -1.093  49.822 -19.630  1.00  0.00    -0.026 C 
HETATM    5  C9  UNL     1      -0.298  50.792 -20.540  1.00  0.00     0.016 C 
HETATM    6  C10 UNL     1      -2.566  50.290 -19.506  1.00  0.00     0.071 C 
HETATM    7  C11 UNL     1      -3.301  50.253 -20.857  1.00  0.00     0.045 C 
HETATM    8  C12 UNL     1      -3.340  49.458 -18.483  1.00  0.00     0.154 C 
HETATM    9  O3  UNL     1      -4.543  49.227 -18.576  1.00  0.00    -0.293 OA
HETATM   10  C13 UNL     1      -2.635  48.978 -17.276  1.00  0.00     0.057 C 
HETATM   11  C14 UNL     1      -1.314  49.153 -17.124  1.00  0.00    -0.037 C 
HETATM   12  C15 UNL     1      -0.408  49.739 -18.212  1.00  0.00     0.026 C 
HETATM   13  C16 UNL     1       0.214  51.059 -17.680  1.00  0.00     0.011 C 
HETATM   14  C17 UNL     1       0.892  50.904 -16.297  1.00  0.00     0.014 C 
HETATM   15  C18 UNL     1      -0.046  50.268 -15.254  1.00  0.00    -0.002 C 
HETATM   16  C19 UNL     1      -1.215  51.252 -14.972  1.00  0.00     0.019 C 
HETATM   17  C20 UNL     1       0.646  49.744 -13.953  1.00  0.00     0.034 C 
HETATM   18  C33 UNL     1      -0.345  48.674 -13.414  1.00  0.00     0.012 C 
HETATM   19  C34 UNL     1      -1.272  48.294 -14.592  1.00  0.00     0.044 C 
HETATM   20  C35 UNL     1      -0.590  48.907 -15.822  1.00  0.00     0.089 C 
ENDROOT
BRANCH  17  21
HETATM   21  C21 UNL     1       1.396  50.640 -12.899  1.00  0.00     0.087 C 
HETATM   22  C22 UNL     1       2.924  50.521 -13.174  1.00  0.00     0.049 C 
BRANCH  21  23
HETATM   23  O4  UNL     1       1.206  50.016 -11.617  1.00  0.00    -0.387 OA
HETATM   24  H34 UNL     1       1.551  49.108 -11.673  1.00  0.00     0.210 HD
ENDBRANCH  21  23
BRANCH  21  25
HETATM   25  C23 UNL     1       1.058  52.171 -12.782  1.00  0.00     0.181 C 
BRANCH  25  26
HETATM   26  O5  UNL     1       2.218  52.921 -12.346  1.00  0.00    -0.390 OA
HETATM   27  H36 UNL     1       2.017  53.867 -12.447  1.00  0.00     0.210 HD
ENDBRANCH  25  26
BRANCH  25  28
HETATM   28  C24 UNL     1      -0.149  52.673 -11.951  1.00  0.00     0.158 C 
HETATM   29  O6  UNL     1      -1.286  51.804 -11.925  1.00  0.00    -0.374 OA
HETATM   30  C25 UNL     1      -1.835  51.816 -10.591  1.00  0.00     0.159 C 
HETATM   31  C26 UNL     1      -1.384  53.138  -9.970  1.00  0.00     0.027 C 
HETATM   32  C30 UNL     1      -3.355  51.568 -10.578  1.00  0.00     0.170 C 
HETATM   33  C27 UNL     1      -2.246  54.347 -10.396  1.00  0.00     0.034 C 
HETATM   34  C31 UNL     1       0.042  53.251 -10.528  1.00  0.00     0.020 C 
HETATM   35  C28 UNL     1      -3.701  54.046 -10.572  1.00  0.00    -0.028 C 
HETATM   36  C29 UNL     1      -4.194  52.805 -10.658  1.00  0.00     0.003 C 
HETATM   37  C32 UNL     1       1.035  52.539  -9.612  1.00  0.00     0.013 C 
BRANCH  32  38
HETATM   38  O7  UNL     1      -3.727  50.913  -9.362  1.00  0.00    -0.389 OA
HETATM   39  H45 UNL     1      -3.704  51.584  -8.658  1.00  0.00     0.210 HD
ENDBRANCH  32  38
ENDBRANCH  25  28
ENDBRANCH  21  25
ENDBRANCH  17  21
BRANCH  20  40
HETATM   40  O8  UNL     1       0.495  48.022 -16.155  1.00  0.00    -0.384 OA
HETATM   41  H54 UNL     1       0.097  47.174 -16.422  1.00  0.00     0.211 HD
ENDBRANCH  20  40
BRANCH   1  42
HETATM   42  O2  UNL     1      -3.793  48.999 -22.832  1.00  0.00    -0.386 OA
BRANCH  42  43
HETATM   43  C4  UNL     1      -2.817  49.334 -23.820  1.00  0.00     0.170 C 
BRANCH  43  44
HETATM   44  C3  UNL     1      -3.100  48.595 -25.124  1.00  0.00     0.052 C 
BRANCH  44  45
HETATM   45  C2  UNL     1      -2.543  49.353 -26.324  1.00  0.00     0.169 C 
BRANCH  45  46
HETATM   46  O1  UNL     1      -3.446  50.359 -26.786  1.00  0.00    -0.396 OA
HETATM   47  C1  UNL     1      -2.838  51.634 -26.944  1.00  0.00     0.201 C 
ENDBRANCH  45  46
ENDBRANCH  44  45
ENDBRANCH  43  44
ENDBRANCH  42  43
ENDBRANCH   1  42
TORSDOF 12
ENDMDL
MODEL 5
REMARK minimizedAffinity -7.72715187
REMARK CNNscore 0.50499624
REMARK CNNaffinity 6.66726685
REMARK  12 active torsions:
REMARK  status: ('A' for Active; 'I' for Inactive)
REMARK    1  A    between atoms: O1_2  and  C2_3 
REMARK    2  A    between atoms: C2_3  and  C3_4 
REMARK    3  A    between atoms: C3_4  and  C4_5 
REMARK    4  A    between atoms: C4_5  and  O2_6 
REMARK    5  A    between atoms: O2_6  and  C5_7 
REMARK    6  A    between atoms: C20_23  and  C21_24 
REMARK    7  A    between atoms: C21_24  and  O4_26 
REMARK    8  A    between atoms: C21_24  and  C23_27 
REMARK    9  A    between atoms: C23_27  and  O5_28 
REMARK   10  A    between atoms: C23_27  and  C24_29 
REMARK   11  A    between atoms: C30_36  and  O7_37 
REMARK   12  A    between atoms: C35_42  and  O8_43 
ROOT
HETATM    1  C5  UNL     1     -12.318  48.320 -39.989  1.00  0.00     0.122 C 
HETATM    2  C6  UNL     1     -10.984  47.686 -40.384  1.00  0.00     0.033 C 
HETATM    3  C7  UNL     1     -10.340  46.894 -39.243  1.00  0.00     0.013 C 
HETATM    4  C8  UNL     1     -10.213  47.697 -37.908  1.00  0.00    -0.026 C 
HETATM    5  C9  UNL     1      -9.201  48.849 -38.135  1.00  0.00     0.016 C 
HETATM    6  C10 UNL     1     -11.605  48.272 -37.538  1.00  0.00     0.071 C 
HETATM    7  C11 UNL     1     -12.209  49.107 -38.679  1.00  0.00     0.045 C 
HETATM    8  C12 UNL     1     -12.585  47.168 -37.140  1.00  0.00     0.154 C 
HETATM    9  O3  UNL     1     -13.796  47.241 -37.338  1.00  0.00    -0.293 OA
HETATM   10  C13 UNL     1     -12.075  45.993 -36.404  1.00  0.00     0.057 C 
HETATM   11  C14 UNL     1     -10.763  45.821 -36.189  1.00  0.00    -0.037 C 
HETATM   12  C15 UNL     1      -9.682  46.735 -36.777  1.00  0.00     0.026 C 
HETATM   13  C16 UNL     1      -8.922  47.417 -35.607  1.00  0.00     0.011 C 
HETATM   14  C17 UNL     1      -8.405  46.417 -34.544  1.00  0.00     0.014 C 
HETATM   15  C18 UNL     1      -9.520  45.492 -34.022  1.00  0.00    -0.002 C 
HETATM   16  C19 UNL     1     -10.550  46.351 -33.236  1.00  0.00     0.019 C 
HETATM   17  C20 UNL     1      -9.038  44.232 -33.231  1.00  0.00     0.034 C 
HETATM   18  C33 UNL     1     -10.223  43.235 -33.368  1.00  0.00     0.012 C 
HETATM   19  C34 UNL     1     -11.084  43.728 -34.554  1.00  0.00     0.044 C 
HETATM   20  C35 UNL     1     -10.207  44.782 -35.245  1.00  0.00     0.089 C 
ENDROOT
BRANCH  17  21
HETATM   21  C21 UNL     1      -8.262  44.260 -31.862  1.00  0.00     0.087 C 
HETATM   22  C22 UNL     1      -7.731  42.824 -31.586  1.00  0.00     0.049 C 
BRANCH  21  23
HETATM   23  O4  UNL     1      -9.244  44.491 -30.837  1.00  0.00    -0.387 OA
HETATM   24  H34 UNL     1      -9.908  43.781 -30.895  1.00  0.00     0.210 HD
ENDBRANCH  21  23
BRANCH  21  25
HETATM   25  C23 UNL     1      -7.061  45.254 -31.656  1.00  0.00     0.181 C 
BRANCH  25  26
HETATM   26  O5  UNL     1      -5.795  44.566 -31.806  1.00  0.00    -0.390 OA
HETATM   27  H36 UNL     1      -5.093  45.238 -31.838  1.00  0.00     0.210 HD
ENDBRANCH  25  26
BRANCH  25  28
HETATM   28  C24 UNL     1      -6.951  46.142 -30.393  1.00  0.00     0.158 C 
HETATM   29  O6  UNL     1      -5.628  46.561 -30.044  1.00  0.00    -0.374 OA
HETATM   30  C25 UNL     1      -5.690  47.932 -29.597  1.00  0.00     0.159 C 
HETATM   31  C26 UNL     1      -7.126  48.147 -29.121  1.00  0.00     0.027 C 
HETATM   32  C30 UNL     1      -4.597  48.262 -28.562  1.00  0.00     0.170 C 
HETATM   33  C27 UNL     1      -7.393  47.611 -27.698  1.00  0.00     0.034 C 
HETATM   34  C31 UNL     1      -7.905  47.341 -30.171  1.00  0.00     0.020 C 
HETATM   35  C28 UNL     1      -6.246  47.761 -26.748  1.00  0.00    -0.028 C 
HETATM   36  C29 UNL     1      -4.998  48.047 -27.136  1.00  0.00     0.003 C 
HETATM   37  C32 UNL     1      -8.229  48.211 -31.384  1.00  0.00     0.013 C 
BRANCH  32  38
HETATM   38  O7  UNL     1      -4.232  49.641 -28.669  1.00  0.00    -0.389 OA
HETATM   39  H45 UNL     1      -4.949  50.158 -28.264  1.00  0.00     0.210 HD
ENDBRANCH  32  38
ENDBRANCH  25  28
ENDBRANCH  21  25
ENDBRANCH  17  21
BRANCH  20  40
HETATM   40  O8  UNL     1      -9.241  44.047 -36.017  1.00  0.00    -0.384 OA
HETATM   41  H54 UNL     1      -9.734  43.568 -36.706  1.00  0.00     0.211 HD
ENDBRANCH  20  40
BRANCH   1  42
HETATM   42  O2  UNL     1     -12.699  49.242 -41.016  1.00  0.00    -0.386 OA
BRANCH  42  43
HETATM   43  C4  UNL     1     -13.877  48.862 -41.730  1.00  0.00     0.170 C 
BRANCH  43  44
HETATM   44  C3  UNL     1     -13.511  48.270 -43.087  1.00  0.00     0.052 C 
BRANCH  44  45
HETATM   45  C2  UNL     1     -12.474  49.125 -43.806  1.00  0.00     0.169 C 
BRANCH  45  46
HETATM   46  O1  UNL     1     -12.948  50.452 -44.041  1.00  0.00    -0.396 OA
HETATM   47  C1  UNL     1     -12.027  51.262 -44.759  1.00  0.00     0.201 C 
ENDBRANCH  45  46
ENDBRANCH  44  45
ENDBRANCH  43  44
ENDBRANCH  42  43
ENDBRANCH   1  42
TORSDOF 12
ENDMDL
MODEL 6
REMARK minimizedAffinity -8.4293642
REMARK CNNscore 0.492934078
REMARK CNNaffinity 6.73246384
REMARK  12 active torsions:
REMARK  status: ('A' for Active; 'I' for Inactive)
REMARK    1  A    between atoms: O1_2  and  C2_3 
REMARK    2  A    between atoms: C2_3  and  C3_4 
REMARK    3  A    between atoms: C3_4  and  C4_5 
REMARK    4  A    between atoms: C4_5  and  O2_6 
REMARK    5  A    between atoms: O2_6  and  C5_7 
REMARK    6  A    between atoms: C20_23  and  C21_24 
REMARK    7  A    between atoms: C21_24  and  O4_26 
REMARK    8  A    between atoms: C21_24  and  C23_27 
REMARK    9  A    between atoms: C23_27  and  O5_28 
REMARK   10  A    between atoms: C23_27  and  C24_29 
REMARK   11  A    between atoms: C30_36  and  O7_37 
REMARK   12  A    between atoms: C35_42  and  O8_43 
ROOT
HETATM    1  C5  UNL     1      -1.822  50.071 -19.903  1.00  0.00     0.122 C 
HETATM    2  C6  UNL     1      -3.086  50.641 -19.260  1.00  0.00     0.033 C 
HETATM    3  C7  UNL     1      -4.370  50.132 -19.919  1.00  0.00     0.013 C 
HETATM    4  C8  UNL     1      -4.396  50.306 -21.472  1.00  0.00    -0.026 C 
HETATM    5  C9  UNL     1      -4.432  51.823 -21.785  1.00  0.00     0.016 C 
HETATM    6  C10 UNL     1      -3.114  49.667 -22.067  1.00  0.00     0.071 C 
HETATM    7  C11 UNL     1      -1.834  50.231 -21.426  1.00  0.00     0.045 C 
HETATM    8  C12 UNL     1      -3.124  48.144 -21.928  1.00  0.00     0.154 C 
HETATM    9  O3  UNL     1      -2.103  47.475 -21.788  1.00  0.00    -0.293 OA
HETATM   10  C13 UNL     1      -4.410  47.426 -22.054  1.00  0.00     0.057 C 
HETATM   11  C14 UNL     1      -5.571  48.087 -22.164  1.00  0.00    -0.037 C 
HETATM   12  C15 UNL     1      -5.690  49.611 -22.047  1.00  0.00     0.026 C 
HETATM   13  C16 UNL     1      -6.218  50.170 -23.396  1.00  0.00     0.011 C 
HETATM   14  C17 UNL     1      -7.503  49.464 -23.893  1.00  0.00     0.014 C 
HETATM   15  C18 UNL     1      -7.345  47.933 -23.947  1.00  0.00    -0.002 C 
HETATM   16  C19 UNL     1      -6.297  47.581 -25.038  1.00  0.00     0.019 C 
HETATM   17  C20 UNL     1      -8.674  47.120 -24.083  1.00  0.00     0.034 C 
HETATM   18  C33 UNL     1      -8.308  45.719 -23.516  1.00  0.00     0.012 C 
HETATM   19  C34 UNL     1      -7.019  45.900 -22.682  1.00  0.00     0.044 C 
HETATM   20  C35 UNL     1      -6.873  47.421 -22.537  1.00  0.00     0.089 C 
ENDROOT
BRANCH  17  21
HETATM   21  C21 UNL     1      -9.651  47.177 -25.315  1.00  0.00     0.087 C 
HETATM   22  C22 UNL     1     -11.103  47.014 -24.780  1.00  0.00     0.049 C 
BRANCH  21  23
HETATM   23  O4  UNL     1      -9.410  45.987 -26.087  1.00  0.00    -0.387 OA
HETATM   24  H34 UNL     1      -9.558  45.220 -25.507  1.00  0.00     0.210 HD
ENDBRANCH  21  23
BRANCH  21  25
HETATM   25  C23 UNL     1      -9.640  48.423 -26.274  1.00  0.00     0.181 C 
BRANCH  25  26
HETATM   26  O5  UNL     1     -10.912  49.115 -26.230  1.00  0.00    -0.390 OA
HETATM   27  H36 UNL     1     -10.808  49.960 -26.699  1.00  0.00     0.210 HD
ENDBRANCH  25  26
BRANCH  25  28
HETATM   28  C24 UNL     1      -9.241  48.295 -27.765  1.00  0.00     0.158 C 
HETATM   29  O6  UNL     1      -8.094  47.482 -28.030  1.00  0.00    -0.374 OA
HETATM   30  C25 UNL     1      -8.350  46.714 -29.225  1.00  0.00     0.159 C 
HETATM   31  C26 UNL     1      -9.409  47.497 -30.001  1.00  0.00     0.027 C 
HETATM   32  C30 UNL     1      -7.061  46.396 -30.007  1.00  0.00     0.170 C 
HETATM   33  C27 UNL     1      -8.832  48.675 -30.815  1.00  0.00     0.034 C 
HETATM   34  C31 UNL     1     -10.299  47.999 -28.855  1.00  0.00     0.020 C 
HETATM   35  C28 UNL     1      -7.483  48.424 -31.411  1.00  0.00    -0.028 C 
HETATM   36  C29 UNL     1      -6.691  47.408 -31.045  1.00  0.00     0.003 C 
HETATM   37  C32 UNL     1     -11.376  46.968 -28.522  1.00  0.00     0.013 C 
BRANCH  32  38
HETATM   38  O7  UNL     1      -7.211  45.153 -30.698  1.00  0.00    -0.389 OA
HETATM   39  H45 UNL     1      -7.785  45.320 -31.466  1.00  0.00     0.210 HD
ENDBRANCH  32  38
ENDBRANCH  25  28
ENDBRANCH  21  25
ENDBRANCH  17  21
BRANCH  20  40
HETATM   40  O8  UNL     1      -7.804  47.812 -21.513  1.00  0.00    -0.384 OA
HETATM   41  H54 UNL     1      -7.503  47.400 -20.684  1.00  0.00     0.211 HD
ENDBRANCH  20  40
BRANCH   1  42
HETATM   42  O2  UNL     1      -0.695  50.800 -19.403  1.00  0.00    -0.386 OA
BRANCH  42  43
HETATM   43  C4  UNL     1      -0.754  52.205 -19.655  1.00  0.00     0.170 C 
BRANCH  43  44
HETATM   44  C3  UNL     1       0.439  52.913 -19.019  1.00  0.00     0.052 C 
BRANCH  44  45
HETATM   45  C2  UNL     1       1.497  53.260 -20.059  1.00  0.00     0.169 C 
BRANCH  45  46
HETATM   46  O1  UNL     1       1.233  54.513 -20.692  1.00  0.00    -0.396 OA
HETATM   47  C1  UNL     1       1.537  54.521 -22.081  1.00  0.00     0.201 C 
ENDBRANCH  45  46
ENDBRANCH  44  45
ENDBRANCH  43  44
ENDBRANCH  42  43
ENDBRANCH   1  42
TORSDOF 12
ENDMDL
MODEL 7
REMARK minimizedAffinity -8.36683559
REMARK CNNscore 0.420648277
REMARK CNNaffinity 6.58556032
REMARK  12 active torsions:
REMARK  status: ('A' for Active; 'I' for Inactive)
REMARK    1  A    between atoms: O1_2  and  C2_3 
REMARK    2  A    between atoms: C2_3  and  C3_4 
REMARK    3  A    between atoms: C3_4  and  C4_5 
REMARK    4  A    between atoms: C4_5  and  O2_6 
REMARK    5  A    between atoms: O2_6  and  C5_7 
REMARK    6  A    between atoms: C20_23  and  C21_24 
REMARK    7  A    between atoms: C21_24  and  O4_26 
REMARK    8  A    between atoms: C21_24  and  C23_27 
REMARK    9  A    between atoms: C23_27  and  O5_28 
REMARK   10  A    between atoms: C23_27  and  C24_29 
REMARK   11  A    between atoms: C30_36  and  O7_37 
REMARK   12  A    between atoms: C35_42  and  O8_43 
ROOT
HETATM    1  C5  UNL     1      -0.852  50.665 -18.196  1.00  0.00     0.122 C 
HETATM    2  C6  UNL     1      -1.008  51.807 -19.199  1.00  0.00     0.033 C 
HETATM    3  C7  UNL     1      -2.152  51.578 -20.190  1.00  0.00     0.013 C 
HETATM    4  C8  UNL     1      -2.096  50.193 -20.912  1.00  0.00    -0.026 C 
HETATM    5  C9  UNL     1      -0.846  50.179 -21.828  1.00  0.00     0.016 C 
HETATM    6  C10 UNL     1      -1.987  49.077 -19.841  1.00  0.00     0.071 C 
HETATM    7  C11 UNL     1      -0.800  49.300 -18.889  1.00  0.00     0.045 C 
HETATM    8  C12 UNL     1      -3.275  48.947 -19.026  1.00  0.00     0.154 C 
HETATM    9  O3  UNL     1      -3.293  48.592 -17.849  1.00  0.00    -0.293 OA
HETATM   10  C13 UNL     1      -4.571  49.171 -19.701  1.00  0.00     0.057 C 
HETATM   11  C14 UNL     1      -4.631  49.601 -20.969  1.00  0.00    -0.037 C 
HETATM   12  C15 UNL     1      -3.399  50.012 -21.782  1.00  0.00     0.026 C 
HETATM   13  C16 UNL     1      -3.272  49.062 -23.004  1.00  0.00     0.011 C 
HETATM   14  C17 UNL     1      -4.576  48.948 -23.831  1.00  0.00     0.014 C 
HETATM   15  C18 UNL     1      -5.791  48.579 -22.959  1.00  0.00    -0.002 C 
HETATM   16  C19 UNL     1      -5.588  47.140 -22.409  1.00  0.00     0.019 C 
HETATM   17  C20 UNL     1      -7.190  48.794 -23.624  1.00  0.00     0.034 C 
HETATM   18  C33 UNL     1      -8.154  48.942 -22.413  1.00  0.00     0.012 C 
HETATM   19  C34 UNL     1      -7.276  49.273 -21.184  1.00  0.00     0.044 C 
HETATM   20  C35 UNL     1      -5.904  49.614 -21.781  1.00  0.00     0.089 C 
ENDROOT
BRANCH  17  21
HETATM   21  C21 UNL     1      -7.721  48.025 -24.891  1.00  0.00     0.087 C 
HETATM   22  C22 UNL     1      -6.491  47.625 -25.756  1.00  0.00     0.049 C 
BRANCH  21  23
HETATM   23  O4  UNL     1      -8.431  48.989 -25.689  1.00  0.00    -0.387 OA
HETATM   24  H34 UNL     1      -7.816  49.712 -25.901  1.00  0.00     0.210 HD
ENDBRANCH  21  23
BRANCH  21  25
HETATM   25  C23 UNL     1      -8.613  46.742 -24.719  1.00  0.00     0.181 C 
BRANCH  25  26
HETATM   26  O5  UNL     1      -7.790  45.553 -24.634  1.00  0.00    -0.390 OA
HETATM   27  H36 UNL     1      -8.361  44.814 -24.364  1.00  0.00     0.210 HD
ENDBRANCH  25  26
BRANCH  25  28
HETATM   28  C24 UNL     1      -9.774  46.426 -25.693  1.00  0.00     0.158 C 
HETATM   29  O6  UNL     1     -10.643  47.522 -25.997  1.00  0.00    -0.374 OA
HETATM   30  C25 UNL     1     -10.979  47.458 -27.399  1.00  0.00     0.159 C 
HETATM   31  C26 UNL     1     -10.788  45.997 -27.804  1.00  0.00     0.027 C 
HETATM   32  C30 UNL     1     -12.371  48.047 -27.696  1.00  0.00     0.170 C 
HETATM   33  C27 UNL     1     -11.975  45.088 -27.420  1.00  0.00     0.034 C 
HETATM   34  C31 UNL     1      -9.530  45.634 -27.001  1.00  0.00     0.020 C 
HETATM   35  C28 UNL     1     -13.319  45.737 -27.526  1.00  0.00    -0.028 C 
HETATM   36  C29 UNL     1     -13.495  47.059 -27.645  1.00  0.00     0.003 C 
HETATM   37  C32 UNL     1      -8.270  45.969 -27.795  1.00  0.00     0.013 C 
BRANCH  32  38
HETATM   38  O7  UNL     1     -12.389  48.601 -29.015  1.00  0.00    -0.389 OA
HETATM   39  H45 UNL     1     -12.433  47.855 -29.637  1.00  0.00     0.210 HD
ENDBRANCH  32  38
ENDBRANCH  25  28
ENDBRANCH  21  25
ENDBRANCH  17  21
BRANCH  20  40
HETATM   40  O8  UNL     1      -6.016  50.956 -22.288  1.00  0.00    -0.384 OA
HETATM   41  H54 UNL     1      -6.163  51.537 -21.521  1.00  0.00     0.211 HD
ENDBRANCH  20  40
BRANCH   1  42
HETATM   42  O2  UNL     1       0.387  50.842 -17.500  1.00  0.00    -0.386 OA
BRANCH  42  43
HETATM   43  C4  UNL     1       0.884  52.181 -17.532  1.00  0.00     0.170 C 
BRANCH  43  44
HETATM   44  C3  UNL     1       1.651  52.497 -16.251  1.00  0.00     0.052 C 
BRANCH  44  45
HETATM   45  C2  UNL     1       3.152  52.571 -16.506  1.00  0.00     0.169 C 
BRANCH  45  46
HETATM   46  O1  UNL     1       3.908  52.235 -15.342  1.00  0.00    -0.396 OA
HETATM   47  C1  UNL     1       3.182  51.451 -14.404  1.00  0.00     0.201 C 
ENDBRANCH  45  46
ENDBRANCH  44  45
ENDBRANCH  43  44
ENDBRANCH  42  43
ENDBRANCH   1  42
TORSDOF 12
ENDMDL
MODEL 8
REMARK minimizedAffinity -8.32213974
REMARK CNNscore 0.374885172
REMARK CNNaffinity 6.51251936
REMARK  12 active torsions:
REMARK  status: ('A' for Active; 'I' for Inactive)
REMARK    1  A    between atoms: O1_2  and  C2_3 
REMARK    2  A    between atoms: C2_3  and  C3_4 
REMARK    3  A    between atoms: C3_4  and  C4_5 
REMARK    4  A    between atoms: C4_5  and  O2_6 
REMARK    5  A    between atoms: O2_6  and  C5_7 
REMARK    6  A    between atoms: C20_23  and  C21_24 
REMARK    7  A    between atoms: C21_24  and  O4_26 
REMARK    8  A    between atoms: C21_24  and  C23_27 
REMARK    9  A    between atoms: C23_27  and  O5_28 
REMARK   10  A    between atoms: C23_27  and  C24_29 
REMARK   11  A    between atoms: C30_36  and  O7_37 
REMARK   12  A    between atoms: C35_42  and  O8_43 
ROOT
HETATM    1  C5  UNL     1      -1.038  50.683 -18.265  1.00  0.00     0.122 C 
HETATM    2  C6  UNL     1      -1.149  51.771 -19.332  1.00  0.00     0.033 C 
HETATM    3  C7  UNL     1      -2.273  51.507 -20.338  1.00  0.00     0.013 C 
HETATM    4  C8  UNL     1      -2.222  50.084 -20.983  1.00  0.00    -0.026 C 
HETATM    5  C9  UNL     1      -0.950  50.002 -21.865  1.00  0.00     0.016 C 
HETATM    6  C10 UNL     1      -2.158  49.026 -19.851  1.00  0.00     0.071 C 
HETATM    7  C11 UNL     1      -0.991  49.282 -18.883  1.00  0.00     0.045 C 
HETATM    8  C12 UNL     1      -3.467  48.960 -19.064  1.00  0.00     0.154 C 
HETATM    9  O3  UNL     1      -3.520  48.669 -17.871  1.00  0.00    -0.293 OA
HETATM   10  C13 UNL     1      -4.742  49.167 -19.783  1.00  0.00     0.057 C 
HETATM   11  C14 UNL     1      -4.764  49.529 -21.073  1.00  0.00    -0.037 C 
HETATM   12  C15 UNL     1      -3.506  49.877 -21.876  1.00  0.00     0.026 C 
HETATM   13  C16 UNL     1      -3.365  48.860 -23.041  1.00  0.00     0.011 C 
HETATM   14  C17 UNL     1      -4.649  48.721 -23.893  1.00  0.00     0.014 C 
HETATM   15  C18 UNL     1      -5.892  48.418 -23.034  1.00  0.00    -0.002 C 
HETATM   16  C19 UNL     1      -5.726  47.008 -22.403  1.00  0.00     0.019 C 
HETATM   17  C20 UNL     1      -7.270  48.618 -23.745  1.00  0.00     0.034 C 
HETATM   18  C33 UNL     1      -8.261  48.846 -22.568  1.00  0.00     0.012 C 
HETATM   19  C34 UNL     1      -7.408  49.230 -21.337  1.00  0.00     0.044 C 
HETATM   20  C35 UNL     1      -6.016  49.517 -21.916  1.00  0.00     0.089 C 
ENDROOT
BRANCH  17  21
HETATM   21  C21 UNL     1      -7.782  47.790 -24.981  1.00  0.00     0.087 C 
HETATM   22  C22 UNL     1      -8.230  46.392 -24.466  1.00  0.00     0.049 C 
BRANCH  21  23
HETATM   23  O4  UNL     1      -6.633  47.526 -25.805  1.00  0.00    -0.387 OA
HETATM   24  H34 UNL     1      -5.979  47.052 -25.262  1.00  0.00     0.210 HD
ENDBRANCH  21  23
BRANCH  21  25
HETATM   25  C23 UNL     1      -8.942  48.353 -25.882  1.00  0.00     0.181 C 
BRANCH  25  26
HETATM   26  O5  UNL     1     -10.233  47.921 -25.386  1.00  0.00    -0.390 OA
HETATM   27  H36 UNL     1     -10.917  48.420 -25.862  1.00  0.00     0.210 HD
ENDBRANCH  25  26
BRANCH  25  28
HETATM   28  C24 UNL     1      -8.950  48.147 -27.416  1.00  0.00     0.158 C 
HETATM   29  O6  UNL     1      -7.683  48.291 -28.066  1.00  0.00    -0.374 OA
HETATM   30  C25 UNL     1      -7.580  47.277 -29.088  1.00  0.00     0.159 C 
HETATM   31  C26 UNL     1      -9.017  46.900 -29.444  1.00  0.00     0.027 C 
HETATM   32  C30 UNL     1      -6.704  47.724 -30.274  1.00  0.00     0.170 C 
HETATM   33  C27 UNL     1      -9.694  47.891 -30.416  1.00  0.00     0.034 C 
HETATM   34  C31 UNL     1      -9.682  46.943 -28.060  1.00  0.00     0.020 C 
HETATM   35  C28 UNL     1      -8.782  48.473 -31.450  1.00  0.00    -0.028 C 
HETATM   36  C29 UNL     1      -7.447  48.402 -31.382  1.00  0.00     0.003 C 
HETATM   37  C32 UNL     1      -9.552  45.592 -27.360  1.00  0.00     0.013 C 
BRANCH  32  38
HETATM   38  O7  UNL     1      -6.067  46.586 -30.860  1.00  0.00    -0.389 OA
HETATM   39  H45 UNL     1      -6.744  46.113 -31.375  1.00  0.00     0.210 HD
ENDBRANCH  32  38
ENDBRANCH  25  28
ENDBRANCH  21  25
ENDBRANCH  17  21
BRANCH  20  40
HETATM   40  O8  UNL     1      -6.094  50.831 -22.497  1.00  0.00    -0.384 OA
HETATM   41  H54 UNL     1      -6.250  51.455 -21.767  1.00  0.00     0.211 HD
ENDBRANCH  20  40
BRANCH   1  42
HETATM   42  O2  UNL     1       0.187  50.879 -17.549  1.00  0.00    -0.386 OA
BRANCH  42  43
HETATM   43  C4  UNL     1       0.778  52.164 -17.750  1.00  0.00     0.170 C 
BRANCH  43  44
HETATM   44  C3  UNL     1       1.590  52.576 -16.526  1.00  0.00     0.052 C 
BRANCH  44  45
HETATM   45  C2  UNL     1       1.049  51.929 -15.257  1.00  0.00     0.169 C 
BRANCH  45  46
HETATM   46  O1  UNL     1       1.995  51.033 -14.670  1.00  0.00    -0.396 OA
HETATM   47  C1  UNL     1       3.312  51.565 -14.605  1.00  0.00     0.201 C 
ENDBRANCH  45  46
ENDBRANCH  44  45
ENDBRANCH  43  44
ENDBRANCH  42  43
ENDBRANCH   1  42
TORSDOF 12
ENDMDL
MODEL 9
REMARK minimizedAffinity -7.8017621
REMARK CNNscore 0.361378431
REMARK CNNaffinity 6.80535841
REMARK  12 active torsions:
REMARK  status: ('A' for Active; 'I' for Inactive)
REMARK    1  A    between atoms: O1_2  and  C2_3 
REMARK    2  A    between atoms: C2_3  and  C3_4 
REMARK    3  A    between atoms: C3_4  and  C4_5 
REMARK    4  A    between atoms: C4_5  and  O2_6 
REMARK    5  A    between atoms: O2_6  and  C5_7 
REMARK    6  A    between atoms: C20_23  and  C21_24 
REMARK    7  A    between atoms: C21_24  and  O4_26 
REMARK    8  A    between atoms: C21_24  and  C23_27 
REMARK    9  A    between atoms: C23_27  and  O5_28 
REMARK   10  A    between atoms: C23_27  and  C24_29 
REMARK   11  A    between atoms: C30_36  and  O7_37 
REMARK   12  A    between atoms: C35_42  and  O8_43 
ROOT
HETATM    1  C5  UNL     1      -2.227  51.931 -25.339  1.00  0.00     0.122 C 
HETATM    2  C6  UNL     1      -1.821  52.495 -23.978  1.00  0.00     0.033 C 
HETATM    3  C7  UNL     1      -2.259  51.607 -22.811  1.00  0.00     0.013 C 
HETATM    4  C8  UNL     1      -3.775  51.227 -22.839  1.00  0.00    -0.026 C 
HETATM    5  C9  UNL     1      -4.598  52.520 -22.608  1.00  0.00     0.016 C 
HETATM    6  C10 UNL     1      -4.111  50.618 -24.225  1.00  0.00     0.071 C 
HETATM    7  C11 UNL     1      -3.710  51.551 -25.380  1.00  0.00     0.045 C 
HETATM    8  C12 UNL     1      -3.450  49.253 -24.419  1.00  0.00     0.154 C 
HETATM    9  O3  UNL     1      -3.087  48.832 -25.515  1.00  0.00    -0.293 OA
HETATM   10  C13 UNL     1      -3.315  48.355 -23.253  1.00  0.00     0.057 C 
HETATM   11  C14 UNL     1      -3.647  48.759 -22.019  1.00  0.00    -0.037 C 
HETATM   12  C15 UNL     1      -4.069  50.194 -21.684  1.00  0.00     0.026 C 
HETATM   13  C16 UNL     1      -5.527  50.169 -21.151  1.00  0.00     0.011 C 
HETATM   14  C17 UNL     1      -5.744  49.153 -20.003  1.00  0.00     0.014 C 
HETATM   15  C18 UNL     1      -5.260  47.739 -20.374  1.00  0.00    -0.002 C 
HETATM   16  C19 UNL     1      -6.162  47.190 -21.514  1.00  0.00     0.019 C 
HETATM   17  C20 UNL     1      -5.102  46.743 -19.179  1.00  0.00     0.034 C 
HETATM   18  C33 UNL     1      -4.082  45.694 -19.706  1.00  0.00     0.012 C 
HETATM   19  C34 UNL     1      -3.366  46.340 -20.915  1.00  0.00     0.044 C 
HETATM   20  C35 UNL     1      -3.761  47.821 -20.842  1.00  0.00     0.089 C 
ENDROOT
BRANCH  17  21
HETATM   21  C21 UNL     1      -6.275  46.226 -18.266  1.00  0.00     0.087 C 
HETATM   22  C22 UNL     1      -5.716  46.058 -16.823  1.00  0.00     0.049 C 
BRANCH  21  23
HETATM   23  O4  UNL     1      -6.575  44.888 -18.700  1.00  0.00    -0.387 OA
HETATM   24  H34 UNL     1      -5.761  44.360 -18.625  1.00  0.00     0.210 HD
ENDBRANCH  21  23
BRANCH  21  25
HETATM   25  C23 UNL     1      -7.612  47.045 -18.160  1.00  0.00     0.181 C 
BRANCH  25  26
HETATM   26  O5  UNL     1      -7.582  47.931 -17.014  1.00  0.00    -0.390 OA
HETATM   27  H36 UNL     1      -8.345  48.530 -17.081  1.00  0.00     0.210 HD
ENDBRANCH  25  26
BRANCH  25  28
HETATM   28  C24 UNL     1      -8.993  46.345 -18.160  1.00  0.00     0.158 C 
HETATM   29  O6  UNL     1      -9.573  46.121 -16.871  1.00  0.00    -0.374 OA
HETATM   30  C25 UNL     1     -10.990  46.379 -16.960  1.00  0.00     0.159 C 
HETATM   31  C26 UNL     1     -11.354  46.189 -18.433  1.00  0.00     0.027 C 
HETATM   32  C30 UNL     1     -11.806  45.530 -15.967  1.00  0.00     0.170 C 
HETATM   33  C27 UNL     1     -11.540  44.711 -18.838  1.00  0.00     0.034 C 
HETATM   34  C31 UNL     1     -10.122  46.799 -19.118  1.00  0.00     0.020 C 
HETATM   35  C28 UNL     1     -12.159  43.847 -17.785  1.00  0.00    -0.028 C 
HETATM   36  C29 UNL     1     -12.273  44.213 -16.502  1.00  0.00     0.003 C 
HETATM   37  C32 UNL     1     -10.307  48.302 -19.317  1.00  0.00     0.013 C 
BRANCH  32  38
HETATM   38  O7  UNL     1     -12.985  46.242 -15.578  1.00  0.00    -0.389 OA
HETATM   39  H45 UNL     1     -13.606  46.193 -16.325  1.00  0.00     0.210 HD
ENDBRANCH  32  38
ENDBRANCH  25  28
ENDBRANCH  21  25
ENDBRANCH  17  21
BRANCH  20  40
HETATM   40  O8  UNL     1      -2.936  48.399 -19.815  1.00  0.00    -0.384 OA
HETATM   41  H54 UNL     1      -2.016  48.349 -20.129  1.00  0.00     0.211 HD
ENDBRANCH  20  40
BRANCH   1  42
HETATM   42  O2  UNL     1      -2.015  52.945 -26.328  1.00  0.00    -0.386 OA
BRANCH  42  43
HETATM   43  C4  UNL     1      -1.883  52.442 -27.658  1.00  0.00     0.170 C 
BRANCH  43  44
HETATM   44  C3  UNL     1      -0.634  51.575 -27.781  1.00  0.00     0.052 C 
BRANCH  44  45
HETATM   45  C2  UNL     1       0.600  52.417 -28.083  1.00  0.00     0.169 C 
BRANCH  45  46
HETATM   46  O1  UNL     1       1.564  52.349 -27.031  1.00  0.00    -0.396 OA
HETATM   47  C1  UNL     1       1.457  51.171 -26.242  1.00  0.00     0.201 C 
ENDBRANCH  45  46
ENDBRANCH  44  45
ENDBRANCH  43  44
ENDBRANCH  42  43
ENDBRANCH   1  42
TORSDOF 12
ENDMDL
