MODEL 1
REMARK minimizedAffinity -6.37869692
REMARK CNNscore 0.528418541
REMARK CNNaffinity 6.45390892
REMARK  9 active torsions:
REMARK  status: ('A' for Active; 'I' for Inactive)
REMARK    1  A    between atoms: C12_14  and  C13_15 
REMARK    2  A    between atoms: C13_15  and  C15_17 
REMARK    3  A    between atoms: C15_17  and  C16_18 
REMARK    4  A    between atoms: C16_18  and  C17_19 
REMARK    5  A    between atoms: C18_20  and  C20_22 
REMARK    6  A    between atoms: C26_29  and  C27_30 
REMARK    7  A    between atoms: C27_30  and  C28_31 
REMARK    8  A    between atoms: C28_31  and  C29_32 
REMARK    9  A    between atoms: C29_32  and  O5_34 
ROOT
HETATM    1  C1  UNL     1       7.095  11.757  23.156  1.00  0.00     0.025 C 
HETATM    2  C2  UNL     1       6.290  12.780  22.840  1.00  0.00     0.015 C 
HETATM    3  C3  UNL     1       6.826  14.133  22.581  1.00  0.00     0.289 C 
HETATM    4  O1  UNL     1       7.978  14.496  22.732  1.00  0.00    -0.260 OA
HETATM    5  O2  UNL     1       5.799  14.915  22.161  1.00  0.00    -0.311 OA
HETATM    6  C4  UNL     1       4.622  14.121  21.915  1.00  0.00     0.142 C 
HETATM    7  C5  UNL     1       4.453  13.988  20.407  1.00  0.00     0.039 C 
HETATM    8  C6  UNL     1       3.367  13.005  19.942  1.00  0.00     0.006 C 
HETATM    9  C7  UNL     1       3.371  11.672  20.728  1.00  0.00    -0.027 A 
HETATM   10  C8  UNL     1       2.238  10.697  20.347  1.00  0.00     0.011 C 
HETATM   11  C9  UNL     1       0.860  11.335  20.109  1.00  0.00     0.011 C 
HETATM   12  C10 UNL     1       0.955  12.542  19.164  1.00  0.00    -0.032 C 
HETATM   13  C11 UNL     1       1.454  12.038  17.781  1.00  0.00     0.016 C 
HETATM   14  C12 UNL     1      -0.340  13.398  18.960  1.00  0.00    -0.002 C 
HETATM   15  C21 UNL     1       0.219  14.817  18.631  1.00  0.00     0.006 C 
HETATM   16  C22 UNL     1       1.726  14.804  18.949  1.00  0.00     0.011 C 
HETATM   17  C23 UNL     1       1.920  13.586  19.866  1.00  0.00    -0.032 C 
HETATM   18  C24 UNL     1       1.450  14.017  21.293  1.00  0.00     0.016 C 
HETATM   19  C25 UNL     1       4.703  10.972  20.858  1.00  0.00     0.022 A 
HETATM   20  C26 UNL     1       4.097  11.588  22.108  1.00  0.00    -0.021 A 
HETATM   21  C30 UNL     1       4.804  12.823  22.687  1.00  0.00     0.063 C 
ENDROOT
BRANCH  14  22
HETATM   22  C13 UNL     1      -1.524  12.972  18.037  1.00  0.00    -0.014 C 
HETATM   23  C14 UNL     1      -1.233  11.900  16.975  1.00  0.00     0.010 C 
BRANCH  22  24
HETATM   24  C15 UNL     1      -2.816  12.577  18.787  1.00  0.00     0.008 C 
BRANCH  24  25
HETATM   25  C16 UNL     1      -3.782  13.741  19.028  1.00  0.00     0.028 C 
BRANCH  25  26
HETATM   26  C17 UNL     1      -4.954  13.670  18.087  1.00  0.00    -0.017 C 
HETATM   27  C18 UNL     1      -6.208  14.098  18.327  1.00  0.00    -0.028 C 
HETATM   28  C19 UNL     1      -6.720  14.773  19.561  1.00  0.00     0.051 C 
BRANCH  27  29
HETATM   29  C20 UNL     1      -7.210  13.900  17.239  1.00  0.00     0.265 C 
HETATM   30  O3  UNL     1      -7.784  14.832  16.690  1.00  0.00    -0.302 OA
ENDBRANCH  27  29
ENDBRANCH  25  26
ENDBRANCH  24  25
ENDBRANCH  22  24
ENDBRANCH  14  22
BRANCH  20  31
HETATM   31  C27 UNL     1       3.481  10.699  23.200  1.00  0.00     0.021 C 
BRANCH  31  32
HETATM   32  C28 UNL     1       3.721   9.201  23.044  1.00  0.00     0.111 C 
BRANCH  32  33
HETATM   33  C29 UNL     1       2.428   8.455  23.189  1.00  0.00     0.139 C 
HETATM   34  O4  UNL     1       1.864   7.816  22.318  1.00  0.00    -0.650 OA
BRANCH  33  35
HETATM   35  O5  UNL     1       1.922   8.522  24.435  1.00  0.00    -0.776 OA
HETATM   36  H41 UNL     1       1.095   7.997  24.385  1.00  0.00     0.167 HD
ENDBRANCH  33  35
ENDBRANCH  32  33
ENDBRANCH  31  32
ENDBRANCH  20  31
TORSDOF 9
ENDMDL
MODEL 2
REMARK minimizedAffinity -7.0931654
REMARK CNNscore 0.514986277
REMARK CNNaffinity 6.78913689
REMARK  9 active torsions:
REMARK  status: ('A' for Active; 'I' for Inactive)
REMARK    1  A    between atoms: C12_14  and  C13_15 
REMARK    2  A    between atoms: C13_15  and  C15_17 
REMARK    3  A    between atoms: C15_17  and  C16_18 
REMARK    4  A    between atoms: C16_18  and  C17_19 
REMARK    5  A    between atoms: C18_20  and  C20_22 
REMARK    6  A    between atoms: C26_29  and  C27_30 
REMARK    7  A    between atoms: C27_30  and  C28_31 
REMARK    8  A    between atoms: C28_31  and  C29_32 
REMARK    9  A    between atoms: C29_32  and  O5_34 
ROOT
HETATM    1  C1  UNL     1      -1.587  14.317  18.669  1.00  0.00     0.025 C 
HETATM    2  C2  UNL     1      -2.364  13.518  17.926  1.00  0.00     0.015 C 
HETATM    3  C3  UNL     1      -3.500  14.053  17.145  1.00  0.00     0.289 C 
HETATM    4  O1  UNL     1      -3.922  15.195  17.171  1.00  0.00    -0.260 OA
HETATM    5  O2  UNL     1      -4.010  13.039  16.401  1.00  0.00    -0.311 OA
HETATM    6  C4  UNL     1      -3.155  11.880  16.467  1.00  0.00     0.142 C 
HETATM    7  C5  UNL     1      -2.402  11.776  15.148  1.00  0.00     0.039 C 
HETATM    8  C6  UNL     1      -1.288  10.720  15.098  1.00  0.00     0.006 C 
HETATM    9  C7  UNL     1      -0.404  10.701  16.368  1.00  0.00    -0.027 A 
HETATM   10  C8  UNL     1       0.669   9.594  16.389  1.00  0.00     0.011 C 
HETATM   11  C9  UNL     1       0.223   8.221  15.858  1.00  0.00     0.011 C 
HETATM   12  C10 UNL     1      -0.482   8.346  14.499  1.00  0.00    -0.032 C 
HETATM   13  C11 UNL     1       0.540   8.908  13.471  1.00  0.00     0.016 C 
HETATM   14  C12 UNL     1      -1.142   7.055  13.911  1.00  0.00    -0.002 C 
HETATM   15  C21 UNL     1      -2.308   7.616  13.039  1.00  0.00     0.006 C 
HETATM   16  C22 UNL     1      -2.467   9.108  13.387  1.00  0.00     0.011 C 
HETATM   17  C23 UNL     1      -1.748   9.272  14.735  1.00  0.00    -0.032 C 
HETATM   18  C24 UNL     1      -2.722   8.739  15.834  1.00  0.00     0.016 C 
HETATM   19  C25 UNL     1       0.145  12.032  16.826  1.00  0.00     0.022 A 
HETATM   20  C26 UNL     1      -0.921  11.368  17.682  1.00  0.00    -0.021 A 
HETATM   21  C30 UNL     1      -2.302  12.040  17.717  1.00  0.00     0.063 C 
ENDROOT
BRANCH  14  22
HETATM   22  C13 UNL     1      -0.341   5.915  13.208  1.00  0.00    -0.014 C 
HETATM   23  C14 UNL     1      -1.154   4.792  12.546  1.00  0.00     0.010 C 
BRANCH  22  24
HETATM   24  C15 UNL     1       0.724   6.403  12.200  1.00  0.00     0.008 C 
BRANCH  24  25
HETATM   25  C16 UNL     1       0.473   5.956  10.757  1.00  0.00     0.028 C 
BRANCH  25  26
HETATM   26  C17 UNL     1       1.557   6.459   9.842  1.00  0.00    -0.017 C 
HETATM   27  C18 UNL     1       1.471   7.486   8.976  1.00  0.00    -0.028 C 
HETATM   28  C19 UNL     1       0.298   8.387   8.746  1.00  0.00     0.051 C 
BRANCH  27  29
HETATM   29  C20 UNL     1       2.682   7.784   8.157  1.00  0.00     0.265 C 
HETATM   30  O3  UNL     1       2.840   8.850   7.575  1.00  0.00    -0.302 OA
ENDBRANCH  27  29
ENDBRANCH  25  26
ENDBRANCH  24  25
ENDBRANCH  22  24
ENDBRANCH  14  22
BRANCH  20  31
HETATM   31  C27 UNL     1      -0.553  10.713  19.023  1.00  0.00     0.021 C 
BRANCH  31  32
HETATM   32  C28 UNL     1       0.565  11.394  19.804  1.00  0.00     0.111 C 
BRANCH  32  33
HETATM   33  C29 UNL     1       1.572  10.378  20.254  1.00  0.00     0.139 C 
HETATM   34  O4  UNL     1       1.573   9.787  21.320  1.00  0.00    -0.650 OA
BRANCH  33  35
HETATM   35  O5  UNL     1       2.516  10.130  19.326  1.00  0.00    -0.776 OA
HETATM   36  H41 UNL     1       3.094   9.458  19.746  1.00  0.00     0.167 HD
ENDBRANCH  33  35
ENDBRANCH  32  33
ENDBRANCH  31  32
ENDBRANCH  20  31
TORSDOF 9
ENDMDL
MODEL 3
REMARK minimizedAffinity -6.74042654
REMARK CNNscore 0.425269604
REMARK CNNaffinity 6.26459074
REMARK  9 active torsions:
REMARK  status: ('A' for Active; 'I' for Inactive)
REMARK    1  A    between atoms: C12_14  and  C13_15 
REMARK    2  A    between atoms: C13_15  and  C15_17 
REMARK    3  A    between atoms: C15_17  and  C16_18 
REMARK    4  A    between atoms: C16_18  and  C17_19 
REMARK    5  A    between atoms: C18_20  and  C20_22 
REMARK    6  A    between atoms: C26_29  and  C27_30 
REMARK    7  A    between atoms: C27_30  and  C28_31 
REMARK    8  A    between atoms: C28_31  and  C29_32 
REMARK    9  A    between atoms: C29_32  and  O5_34 
ROOT
HETATM    1  C1  UNL     1       7.003  11.942  23.087  1.00  0.00     0.025 C 
HETATM    2  C2  UNL     1       6.194  12.956  22.756  1.00  0.00     0.015 C 
HETATM    3  C3  UNL     1       6.726  14.303  22.458  1.00  0.00     0.289 C 
HETATM    4  O1  UNL     1       7.880  14.670  22.584  1.00  0.00    -0.260 OA
HETATM    5  O2  UNL     1       5.693  15.075  22.033  1.00  0.00    -0.311 OA
HETATM    6  C4  UNL     1       4.513  14.275  21.821  1.00  0.00     0.142 C 
HETATM    7  C5  UNL     1       4.324  14.105  20.319  1.00  0.00     0.039 C 
HETATM    8  C6  UNL     1       3.233  13.112  19.893  1.00  0.00     0.006 C 
HETATM    9  C7  UNL     1       3.248  11.798  20.711  1.00  0.00    -0.027 A 
HETATM   10  C8  UNL     1       2.110  10.815  20.369  1.00  0.00     0.011 C 
HETATM   11  C9  UNL     1       0.728  11.447  20.134  1.00  0.00     0.011 C 
HETATM   12  C10 UNL     1       0.810  12.630  19.159  1.00  0.00    -0.032 C 
HETATM   13  C11 UNL     1       1.291  12.093  17.782  1.00  0.00     0.016 C 
HETATM   14  C12 UNL     1      -0.487  13.482  18.951  1.00  0.00    -0.002 C 
HETATM   15  C21 UNL     1       0.067  14.892  18.581  1.00  0.00     0.006 C 
HETATM   16  C22 UNL     1       1.578  14.886  18.879  1.00  0.00     0.011 C 
HETATM   17  C23 UNL     1       1.784  13.691  19.822  1.00  0.00    -0.032 C 
HETATM   18  C24 UNL     1       1.334  14.157  21.245  1.00  0.00     0.016 C 
HETATM   19  C25 UNL     1       4.581  11.101  20.841  1.00  0.00     0.022 A 
HETATM   20  C26 UNL     1       3.991  11.748  22.083  1.00  0.00    -0.021 A 
HETATM   21  C30 UNL     1       4.706  12.996  22.623  1.00  0.00     0.063 C 
ENDROOT
BRANCH  14  22
HETATM   22  C13 UNL     1      -1.683  13.034  18.054  1.00  0.00    -0.014 C 
HETATM   23  C14 UNL     1      -1.355  12.593  16.619  1.00  0.00     0.010 C 
BRANCH  22  24
HETATM   24  C15 UNL     1      -2.603  11.969  18.692  1.00  0.00     0.008 C 
BRANCH  24  25
HETATM   25  C16 UNL     1      -2.501  10.584  18.046  1.00  0.00     0.028 C 
BRANCH  25  26
HETATM   26  C17 UNL     1      -3.661  10.335  17.120  1.00  0.00    -0.017 C 
HETATM   27  C18 UNL     1      -3.708   9.453  16.105  1.00  0.00    -0.028 C 
HETATM   28  C19 UNL     1      -2.640   8.492  15.682  1.00  0.00     0.051 C 
BRANCH  27  29
HETATM   29  C20 UNL     1      -4.970   9.402  15.310  1.00  0.00     0.265 C 
HETATM   30  O3  UNL     1      -5.279   8.439  14.620  1.00  0.00    -0.302 OA
ENDBRANCH  27  29
ENDBRANCH  25  26
ENDBRANCH  24  25
ENDBRANCH  22  24
ENDBRANCH  14  22
BRANCH  20  31
HETATM   31  C27 UNL     1       3.390  10.885  23.204  1.00  0.00     0.021 C 
BRANCH  31  32
HETATM   32  C28 UNL     1       3.779   9.412  23.184  1.00  0.00     0.111 C 
BRANCH  32  33
HETATM   33  C29 UNL     1       2.553   8.553  23.271  1.00  0.00     0.139 C 
HETATM   34  O4  UNL     1       2.081   7.878  22.373  1.00  0.00    -0.650 OA
BRANCH  33  35
HETATM   35  O5  UNL     1       1.995   8.561  24.497  1.00  0.00    -0.776 OA
HETATM   36  H41 UNL     1       1.220   7.967  24.411  1.00  0.00     0.167 HD
ENDBRANCH  33  35
ENDBRANCH  32  33
ENDBRANCH  31  32
ENDBRANCH  20  31
TORSDOF 9
ENDMDL
MODEL 4
REMARK minimizedAffinity -6.20693779
REMARK CNNscore 0.322065324
REMARK CNNaffinity 5.96709871
REMARK  9 active torsions:
REMARK  status: ('A' for Active; 'I' for Inactive)
REMARK    1  A    between atoms: C12_14  and  C13_15 
REMARK    2  A    between atoms: C13_15  and  C15_17 
REMARK    3  A    between atoms: C15_17  and  C16_18 
REMARK    4  A    between atoms: C16_18  and  C17_19 
REMARK    5  A    between atoms: C18_20  and  C20_22 
REMARK    6  A    between atoms: C26_29  and  C27_30 
REMARK    7  A    between atoms: C27_30  and  C28_31 
REMARK    8  A    between atoms: C28_31  and  C29_32 
REMARK    9  A    between atoms: C29_32  and  O5_34 
ROOT
HETATM    1  C1  UNL     1       7.140  11.670  23.150  1.00  0.00     0.025 C 
HETATM    2  C2  UNL     1       6.379  12.742  22.892  1.00  0.00     0.015 C 
HETATM    3  C3  UNL     1       6.972  14.084  22.708  1.00  0.00     0.289 C 
HETATM    4  O1  UNL     1       8.138  14.389  22.877  1.00  0.00    -0.260 OA
HETATM    5  O2  UNL     1       5.979  14.931  22.335  1.00  0.00    -0.311 OA
HETATM    6  C4  UNL     1       4.770  14.202  22.046  1.00  0.00     0.142 C 
HETATM    7  C5  UNL     1       4.596  14.160  20.533  1.00  0.00     0.039 C 
HETATM    8  C6  UNL     1       3.471  13.252  20.016  1.00  0.00     0.006 C 
HETATM    9  C7  UNL     1       3.418  11.878  20.727  1.00  0.00    -0.027 A 
HETATM   10  C8  UNL     1       2.245  10.975  20.294  1.00  0.00     0.011 C 
HETATM   11  C9  UNL     1       0.895  11.682  20.094  1.00  0.00     0.011 C 
HETATM   12  C10 UNL     1       1.041  12.935  19.218  1.00  0.00    -0.032 C 
HETATM   13  C11 UNL     1       1.520  12.489  17.808  1.00  0.00     0.016 C 
HETATM   14  C12 UNL     1      -0.216  13.855  19.064  1.00  0.00    -0.002 C 
HETATM   15  C21 UNL     1       0.403  15.266  18.814  1.00  0.00     0.006 C 
HETATM   16  C22 UNL     1       1.908  15.171  19.128  1.00  0.00     0.011 C 
HETATM   17  C23 UNL     1       2.049  13.897  19.975  1.00  0.00    -0.032 C 
HETATM   18  C24 UNL     1       1.597  14.267  21.425  1.00  0.00     0.016 C 
HETATM   19  C25 UNL     1       4.719  11.116  20.816  1.00  0.00     0.022 A 
HETATM   20  C26 UNL     1       4.138  11.687  22.099  1.00  0.00    -0.021 A 
HETATM   21  C30 UNL     1       4.897  12.856  22.745  1.00  0.00     0.063 C 
ENDROOT
BRANCH  14  22
HETATM   22  C13 UNL     1      -1.416  13.532  18.120  1.00  0.00    -0.014 C 
HETATM   23  C14 UNL     1      -1.207  12.423  17.078  1.00  0.00     0.010 C 
BRANCH  22  24
HETATM   24  C15 UNL     1      -2.755  13.273  18.846  1.00  0.00     0.008 C 
BRANCH  24  25
HETATM   25  C16 UNL     1      -3.597  14.530  19.078  1.00  0.00     0.028 C 
BRANCH  25  26
HETATM   26  C17 UNL     1      -3.501  14.986  20.509  1.00  0.00    -0.017 C 
HETATM   27  C18 UNL     1      -3.887  16.175  21.006  1.00  0.00    -0.028 C 
HETATM   28  C19 UNL     1      -4.532  17.305  20.265  1.00  0.00     0.051 C 
BRANCH  27  29
HETATM   29  C20 UNL     1      -3.670  16.403  22.464  1.00  0.00     0.265 C 
HETATM   30  O3  UNL     1      -2.976  15.666  23.153  1.00  0.00    -0.302 OA
ENDBRANCH  27  29
ENDBRANCH  25  26
ENDBRANCH  24  25
ENDBRANCH  22  24
ENDBRANCH  14  22
BRANCH  20  31
HETATM   31  C27 UNL     1       3.485  10.765  23.140  1.00  0.00     0.021 C 
BRANCH  31  32
HETATM   32  C28 UNL     1       3.732   9.273  22.948  1.00  0.00     0.111 C 
BRANCH  32  33
HETATM   33  C29 UNL     1       2.456   8.509  23.148  1.00  0.00     0.139 C 
HETATM   34  O4  UNL     1       1.890   7.823  22.315  1.00  0.00    -0.650 OA
BRANCH  33  35
HETATM   35  O5  UNL     1       1.971   8.621  24.399  1.00  0.00    -0.776 OA
HETATM   36  H41 UNL     1       1.153   8.079  24.387  1.00  0.00     0.167 HD
ENDBRANCH  33  35
ENDBRANCH  32  33
ENDBRANCH  31  32
ENDBRANCH  20  31
TORSDOF 9
ENDMDL
MODEL 5
REMARK minimizedAffinity -8.32360458
REMARK CNNscore 0.26763314
REMARK CNNaffinity 6.74774122
REMARK  9 active torsions:
REMARK  status: ('A' for Active; 'I' for Inactive)
REMARK    1  A    between atoms: C12_14  and  C13_15 
REMARK    2  A    between atoms: C13_15  and  C15_17 
REMARK    3  A    between atoms: C15_17  and  C16_18 
REMARK    4  A    between atoms: C16_18  and  C17_19 
REMARK    5  A    between atoms: C18_20  and  C20_22 
REMARK    6  A    between atoms: C26_29  and  C27_30 
REMARK    7  A    between atoms: C27_30  and  C28_31 
REMARK    8  A    between atoms: C28_31  and  C29_32 
REMARK    9  A    between atoms: C29_32  and  O5_34 
ROOT
HETATM    1  C1  UNL     1      -0.106   4.909  13.304  1.00  0.00     0.025 C 
HETATM    2  C2  UNL     1      -1.250   4.808  12.615  1.00  0.00     0.015 C 
HETATM    3  C3  UNL     1      -1.478   3.709  11.653  1.00  0.00     0.289 C 
HETATM    4  O1  UNL     1      -0.662   2.879  11.296  1.00  0.00    -0.260 OA
HETATM    5  O2  UNL     1      -2.760   3.796  11.216  1.00  0.00    -0.311 OA
HETATM    6  C4  UNL     1      -3.495   4.770  11.983  1.00  0.00     0.142 C 
HETATM    7  C5  UNL     1      -4.417   4.020  12.935  1.00  0.00     0.039 C 
HETATM    8  C6  UNL     1      -5.138   4.883  13.982  1.00  0.00     0.006 C 
HETATM    9  C7  UNL     1      -4.218   5.936  14.645  1.00  0.00    -0.027 A 
HETATM   10  C8  UNL     1      -4.930   6.878  15.638  1.00  0.00     0.011 C 
HETATM   11  C9  UNL     1      -6.322   7.372  15.210  1.00  0.00     0.011 C 
HETATM   12  C10 UNL     1      -7.211   6.210  14.743  1.00  0.00    -0.032 C 
HETATM   13  C11 UNL     1      -7.433   5.253  15.948  1.00  0.00     0.016 C 
HETATM   14  C12 UNL     1      -8.600   6.574  14.118  1.00  0.00    -0.002 C 
HETATM   15  C21 UNL     1      -8.873   5.388  13.141  1.00  0.00     0.006 C 
HETATM   16  C22 UNL     1      -7.563   4.588  13.011  1.00  0.00     0.011 C 
HETATM   17  C23 UNL     1      -6.470   5.545  13.509  1.00  0.00    -0.032 C 
HETATM   18  C24 UNL     1      -6.176   6.541  12.341  1.00  0.00     0.016 C 
HETATM   19  C25 UNL     1      -2.899   5.435  15.184  1.00  0.00     0.022 A 
HETATM   20  C26 UNL     1      -2.874   6.333  13.958  1.00  0.00    -0.021 A 
HETATM   21  C30 UNL     1      -2.462   5.682  12.629  1.00  0.00     0.063 C 
ENDROOT
BRANCH  14  22
HETATM   22  C13 UNL     1      -9.849   6.981  14.959  1.00  0.00    -0.014 C 
HETATM   23  C14 UNL     1      -9.906   8.427  15.474  1.00  0.00     0.010 C 
BRANCH  22  24
HETATM   24  C15 UNL     1     -11.206   6.645  14.300  1.00  0.00     0.008 C 
BRANCH  24  25
HETATM   25  C16 UNL     1     -11.916   7.851  13.678  1.00  0.00     0.028 C 
BRANCH  25  26
HETATM   26  C17 UNL     1     -13.260   7.457  13.126  1.00  0.00    -0.017 C 
HETATM   27  C18 UNL     1     -14.229   8.285  12.692  1.00  0.00    -0.028 C 
HETATM   28  C19 UNL     1     -14.185   9.780  12.623  1.00  0.00     0.051 C 
BRANCH  27  29
HETATM   29  C20 UNL     1     -15.491   7.655  12.206  1.00  0.00     0.265 C 
HETATM   30  O3  UNL     1     -15.939   7.854  11.083  1.00  0.00    -0.302 OA
ENDBRANCH  27  29
ENDBRANCH  25  26
ENDBRANCH  24  25
ENDBRANCH  22  24
ENDBRANCH  14  22
BRANCH  20  31
HETATM   31  C27 UNL     1      -2.405   7.793  14.067  1.00  0.00     0.021 C 
BRANCH  31  32
HETATM   32  C28 UNL     1      -2.696   8.672  12.857  1.00  0.00     0.111 C 
BRANCH  32  33
HETATM   33  C29 UNL     1      -1.420   9.248  12.319  1.00  0.00     0.139 C 
HETATM   34  O4  UNL     1      -0.831   8.883  11.316  1.00  0.00    -0.650 OA
BRANCH  33  35
HETATM   35  O5  UNL     1      -0.961  10.279  13.053  1.00  0.00    -0.776 OA
HETATM   36  H41 UNL     1      -0.140  10.553  12.593  1.00  0.00     0.167 HD
ENDBRANCH  33  35
ENDBRANCH  32  33
ENDBRANCH  31  32
ENDBRANCH  20  31
TORSDOF 9
ENDMDL
MODEL 6
REMARK minimizedAffinity -8.33460808
REMARK CNNscore 0.260455877
REMARK CNNaffinity 6.41705275
REMARK  9 active torsions:
REMARK  status: ('A' for Active; 'I' for Inactive)
REMARK    1  A    between atoms: C12_14  and  C13_15 
REMARK    2  A    between atoms: C13_15  and  C15_17 
REMARK    3  A    between atoms: C15_17  and  C16_18 
REMARK    4  A    between atoms: C16_18  and  C17_19 
REMARK    5  A    between atoms: C18_20  and  C20_22 
REMARK    6  A    between atoms: C26_29  and  C27_30 
REMARK    7  A    between atoms: C27_30  and  C28_31 
REMARK    8  A    between atoms: C28_31  and  C29_32 
REMARK    9  A    between atoms: C29_32  and  O5_34 
ROOT
HETATM    1  C1  UNL     1      -5.529   1.939  11.944  1.00  0.00     0.025 C 
HETATM    2  C2  UNL     1      -6.050   3.139  12.231  1.00  0.00     0.015 C 
HETATM    3  C3  UNL     1      -7.436   3.281  12.725  1.00  0.00     0.289 C 
HETATM    4  O1  UNL     1      -8.267   2.396  12.812  1.00  0.00    -0.260 OA
HETATM    5  O2  UNL     1      -7.632   4.585  13.049  1.00  0.00    -0.311 OA
HETATM    6  C4  UNL     1      -6.389   5.313  13.004  1.00  0.00     0.142 C 
HETATM    7  C5  UNL     1      -5.939   5.563  14.437  1.00  0.00     0.039 C 
HETATM    8  C6  UNL     1      -4.528   6.150  14.600  1.00  0.00     0.006 C 
HETATM    9  C7  UNL     1      -3.477   5.479  13.683  1.00  0.00    -0.027 A 
HETATM   10  C8  UNL     1      -2.069   6.103  13.757  1.00  0.00     0.011 C 
HETATM   11  C9  UNL     1      -2.020   7.638  13.827  1.00  0.00     0.011 C 
HETATM   12  C10 UNL     1      -2.973   8.181  14.902  1.00  0.00    -0.032 C 
HETATM   13  C11 UNL     1      -2.493   7.660  16.286  1.00  0.00     0.016 C 
HETATM   14  C12 UNL     1      -3.160   9.734  14.979  1.00  0.00    -0.002 C 
HETATM   15  C21 UNL     1      -4.603   9.891  15.552  1.00  0.00     0.006 C 
HETATM   16  C22 UNL     1      -5.275   8.507  15.494  1.00  0.00     0.011 C 
HETATM   17  C23 UNL     1      -4.429   7.704  14.494  1.00  0.00    -0.032 C 
HETATM   18  C24 UNL     1      -4.864   8.163  13.065  1.00  0.00     0.016 C 
HETATM   19  C25 UNL     1      -3.431   3.970  13.703  1.00  0.00     0.022 A 
HETATM   20  C26 UNL     1      -3.944   4.651  12.445  1.00  0.00    -0.021 A 
HETATM   21  C30 UNL     1      -5.441   4.500  12.134  1.00  0.00     0.063 C 
ENDROOT
BRANCH  14  22
HETATM   22  C13 UNL     1      -2.126  10.700  15.636  1.00  0.00    -0.014 C 
HETATM   23  C14 UNL     1      -1.450  11.731  14.718  1.00  0.00     0.010 C 
BRANCH  22  24
HETATM   24  C15 UNL     1      -2.640  11.433  16.895  1.00  0.00     0.008 C 
BRANCH  24  25
HETATM   25  C16 UNL     1      -1.897  11.064  18.183  1.00  0.00     0.028 C 
BRANCH  25  26
HETATM   26  C17 UNL     1      -1.049  12.212  18.662  1.00  0.00    -0.017 C 
HETATM   27  C18 UNL     1      -0.021  12.149  19.529  1.00  0.00    -0.028 C 
HETATM   28  C19 UNL     1       0.541  10.928  20.188  1.00  0.00     0.051 C 
BRANCH  27  29
HETATM   29  C20 UNL     1       0.657  13.433  19.869  1.00  0.00     0.265 C 
HETATM   30  O3  UNL     1       0.122  14.306  20.541  1.00  0.00    -0.302 OA
ENDBRANCH  27  29
ENDBRANCH  25  26
ENDBRANCH  24  25
ENDBRANCH  22  24
ENDBRANCH  14  22
BRANCH  20  31
HETATM   31  C27 UNL     1      -3.083   4.697  11.173  1.00  0.00     0.021 C 
BRANCH  31  32
HETATM   32  C28 UNL     1      -3.016   3.400  10.374  1.00  0.00     0.111 C 
BRANCH  32  33
HETATM   33  C29 UNL     1      -1.796   2.618  10.760  1.00  0.00     0.139 C 
HETATM   34  O4  UNL     1      -0.744   3.080  11.166  1.00  0.00    -0.650 OA
BRANCH  33  35
HETATM   35  O5  UNL     1      -1.970   1.288  10.648  1.00  0.00    -0.776 OA
HETATM   36  H41 UNL     1      -1.110   0.910  10.930  1.00  0.00     0.167 HD
ENDBRANCH  33  35
ENDBRANCH  32  33
ENDBRANCH  31  32
ENDBRANCH  20  31
TORSDOF 9
ENDMDL
MODEL 7
REMARK minimizedAffinity -7.29215813
REMARK CNNscore 0.248240948
REMARK CNNaffinity 6.30965614
REMARK  9 active torsions:
REMARK  status: ('A' for Active; 'I' for Inactive)
REMARK    1  A    between atoms: C12_14  and  C13_15 
REMARK    2  A    between atoms: C13_15  and  C15_17 
REMARK    3  A    between atoms: C15_17  and  C16_18 
REMARK    4  A    between atoms: C16_18  and  C17_19 
REMARK    5  A    between atoms: C18_20  and  C20_22 
REMARK    6  A    between atoms: C26_29  and  C27_30 
REMARK    7  A    between atoms: C27_30  and  C28_31 
REMARK    8  A    between atoms: C28_31  and  C29_32 
REMARK    9  A    between atoms: C29_32  and  O5_34 
ROOT
HETATM    1  C1  UNL     1      -1.162  14.320  17.910  1.00  0.00     0.025 C 
HETATM    2  C2  UNL     1      -2.139  13.461  17.589  1.00  0.00     0.015 C 
HETATM    3  C3  UNL     1      -3.528  13.917  17.371  1.00  0.00     0.289 C 
HETATM    4  O1  UNL     1      -3.959  15.040  17.561  1.00  0.00    -0.260 OA
HETATM    5  O2  UNL     1      -4.253  12.855  16.936  1.00  0.00    -0.311 OA
HETATM    6  C4  UNL     1      -3.392  11.738  16.642  1.00  0.00     0.142 C 
HETATM    7  C5  UNL     1      -3.278  11.618  15.128  1.00  0.00     0.039 C 
HETATM    8  C6  UNL     1      -2.239  10.610  14.614  1.00  0.00     0.006 C 
HETATM    9  C7  UNL     1      -0.893  10.676  15.376  1.00  0.00    -0.027 A 
HETATM   10  C8  UNL     1       0.142   9.618  14.945  1.00  0.00     0.011 C 
HETATM   11  C9  UNL     1      -0.413   8.209  14.680  1.00  0.00     0.011 C 
HETATM   12  C10 UNL     1      -1.642   8.253  13.760  1.00  0.00    -0.032 C 
HETATM   13  C11 UNL     1      -1.199   8.820  12.383  1.00  0.00     0.016 C 
HETATM   14  C12 UNL     1      -2.420   6.913  13.535  1.00  0.00    -0.002 C 
HETATM   15  C21 UNL     1      -3.877   7.391  13.248  1.00  0.00     0.006 C 
HETATM   16  C22 UNL     1      -3.951   8.886  13.608  1.00  0.00     0.011 C 
HETATM   17  C23 UNL     1      -2.731   9.131  14.508  1.00  0.00    -0.032 C 
HETATM   18  C24 UNL     1      -3.103   8.597  15.929  1.00  0.00     0.016 C 
HETATM   19  C25 UNL     1      -0.275  12.046  15.531  1.00  0.00     0.022 A 
HETATM   20  C26 UNL     1      -0.828  11.368  16.774  1.00  0.00    -0.021 A 
HETATM   21  C30 UNL     1      -2.092  11.980  17.395  1.00  0.00     0.063 C 
ENDROOT
BRANCH  14  22
HETATM   22  C13 UNL     1      -1.940   5.784  12.570  1.00  0.00    -0.014 C 
HETATM   23  C14 UNL     1      -0.835   4.848  13.084  1.00  0.00     0.010 C 
BRANCH  22  24
HETATM   24  C15 UNL     1      -3.074   4.918  11.977  1.00  0.00     0.008 C 
BRANCH  24  25
HETATM   25  C16 UNL     1      -3.656   3.891  12.953  1.00  0.00     0.028 C 
BRANCH  25  26
HETATM   26  C17 UNL     1      -5.155   4.004  13.021  1.00  0.00    -0.017 C 
HETATM   27  C18 UNL     1      -6.051   3.302  12.302  1.00  0.00    -0.028 C 
HETATM   28  C19 UNL     1      -5.772   2.227  11.298  1.00  0.00     0.051 C 
BRANCH  27  29
HETATM   29  C20 UNL     1      -7.493   3.607  12.534  1.00  0.00     0.265 C 
HETATM   30  O3  UNL     1      -8.265   2.806  13.045  1.00  0.00    -0.302 OA
ENDBRANCH  27  29
ENDBRANCH  25  26
ENDBRANCH  24  25
ENDBRANCH  22  24
ENDBRANCH  14  22
BRANCH  20  31
HETATM   31  C27 UNL     1       0.120  10.780  17.832  1.00  0.00     0.021 C 
BRANCH  31  32
HETATM   32  C28 UNL     1      -0.386  10.822  19.268  1.00  0.00     0.111 C 
BRANCH  32  33
HETATM   33  C29 UNL     1       0.763  11.006  20.215  1.00  0.00     0.139 C 
HETATM   34  O4  UNL     1       1.484  10.127  20.651  1.00  0.00    -0.650 OA
BRANCH  33  35
HETATM   35  O5  UNL     1       0.968  12.296  20.543  1.00  0.00    -0.776 OA
HETATM   36  H41 UNL     1       1.736  12.268  21.153  1.00  0.00     0.167 HD
ENDBRANCH  33  35
ENDBRANCH  32  33
ENDBRANCH  31  32
ENDBRANCH  20  31
TORSDOF 9
ENDMDL
MODEL 8
REMARK minimizedAffinity -8.38184643
REMARK CNNscore 0.182860687
REMARK CNNaffinity 6.67619324
REMARK  9 active torsions:
REMARK  status: ('A' for Active; 'I' for Inactive)
REMARK    1  A    between atoms: C12_14  and  C13_15 
REMARK    2  A    between atoms: C13_15  and  C15_17 
REMARK    3  A    between atoms: C15_17  and  C16_18 
REMARK    4  A    between atoms: C16_18  and  C17_19 
REMARK    5  A    between atoms: C18_20  and  C20_22 
REMARK    6  A    between atoms: C26_29  and  C27_30 
REMARK    7  A    between atoms: C27_30  and  C28_31 
REMARK    8  A    between atoms: C28_31  and  C29_32 
REMARK    9  A    between atoms: C29_32  and  O5_34 
ROOT
HETATM    1  C1  UNL     1       3.371   5.808   9.538  1.00  0.00     0.025 C 
HETATM    2  C2  UNL     1       3.212   6.471  10.691  1.00  0.00     0.015 C 
HETATM    3  C3  UNL     1       4.045   7.645  11.028  1.00  0.00     0.289 C 
HETATM    4  O1  UNL     1       5.001   8.060  10.398  1.00  0.00    -0.260 OA
HETATM    5  O2  UNL     1       3.570   8.176  12.183  1.00  0.00    -0.311 OA
HETATM    6  C4  UNL     1       2.322   7.558  12.552  1.00  0.00     0.142 C 
HETATM    7  C5  UNL     1       1.201   8.542  12.246  1.00  0.00     0.039 C 
HETATM    8  C6  UNL     1      -0.226   7.989  12.381  1.00  0.00     0.006 C 
HETATM    9  C7  UNL     1      -0.398   6.579  11.767  1.00  0.00    -0.027 A 
HETATM   10  C8  UNL     1      -1.796   5.958  11.963  1.00  0.00     0.011 C 
HETATM   11  C9  UNL     1      -2.435   6.174  13.344  1.00  0.00     0.011 C 
HETATM   12  C10 UNL     1      -2.370   7.648  13.769  1.00  0.00    -0.032 C 
HETATM   13  C11 UNL     1      -3.206   8.483  12.760  1.00  0.00     0.016 C 
HETATM   14  C12 UNL     1      -2.829   7.997  15.225  1.00  0.00    -0.002 C 
HETATM   15  C21 UNL     1      -1.994   9.270  15.567  1.00  0.00     0.006 C 
HETATM   16  C22 UNL     1      -0.914   9.418  14.479  1.00  0.00     0.011 C 
HETATM   17  C23 UNL     1      -0.833   8.033  13.820  1.00  0.00    -0.032 C 
HETATM   18  C24 UNL     1       0.012   7.128  14.774  1.00  0.00     0.016 C 
HETATM   19  C25 UNL     1       0.115   6.392  10.359  1.00  0.00     0.022 A 
HETATM   20  C26 UNL     1       0.860   5.698  11.487  1.00  0.00    -0.021 A 
HETATM   21  C30 UNL     1       2.265   6.225  11.819  1.00  0.00     0.063 C 
ENDROOT
BRANCH  14  22
HETATM   22  C13 UNL     1      -4.324   8.105  15.660  1.00  0.00    -0.014 C 
HETATM   23  C14 UNL     1      -5.093   9.360  15.217  1.00  0.00     0.010 C 
BRANCH  22  24
HETATM   24  C15 UNL     1      -5.183   6.865  15.326  1.00  0.00     0.008 C 
BRANCH  24  25
HETATM   25  C16 UNL     1      -5.983   6.988  14.026  1.00  0.00     0.028 C 
BRANCH  25  26
HETATM   26  C17 UNL     1      -6.827   5.763  13.796  1.00  0.00    -0.017 C 
HETATM   27  C18 UNL     1      -6.479   4.660  13.106  1.00  0.00    -0.028 C 
HETATM   28  C19 UNL     1      -5.168   4.379  12.440  1.00  0.00     0.051 C 
BRANCH  27  29
HETATM   29  C20 UNL     1      -7.501   3.579  12.999  1.00  0.00     0.265 C 
HETATM   30  O3  UNL     1      -7.824   2.877  13.949  1.00  0.00    -0.302 OA
ENDBRANCH  27  29
ENDBRANCH  25  26
ENDBRANCH  24  25
ENDBRANCH  22  24
ENDBRANCH  14  22
BRANCH  20  31
HETATM   31  C27 UNL     1       0.742   4.178  11.685  1.00  0.00     0.021 C 
BRANCH  31  32
HETATM   32  C28 UNL     1      -0.678   3.626  11.718  1.00  0.00     0.111 C 
BRANCH  32  33
HETATM   33  C29 UNL     1      -0.759   2.364  10.911  1.00  0.00     0.139 C 
HETATM   34  O4  UNL     1      -0.039   1.388  11.028  1.00  0.00    -0.650 OA
BRANCH  33  35
HETATM   35  O5  UNL     1      -1.765   2.379  10.017  1.00  0.00    -0.776 OA
HETATM   36  H41 UNL     1      -1.702   1.507   9.572  1.00  0.00     0.167 HD
ENDBRANCH  33  35
ENDBRANCH  32  33
ENDBRANCH  31  32
ENDBRANCH  20  31
TORSDOF 9
ENDMDL
MODEL 9
REMARK minimizedAffinity -6.8666935
REMARK CNNscore 0.17013596
REMARK CNNaffinity 5.94836283
REMARK  9 active torsions:
REMARK  status: ('A' for Active; 'I' for Inactive)
REMARK    1  A    between atoms: C12_14  and  C13_15 
REMARK    2  A    between atoms: C13_15  and  C15_17 
REMARK    3  A    between atoms: C15_17  and  C16_18 
REMARK    4  A    between atoms: C16_18  and  C17_19 
REMARK    5  A    between atoms: C18_20  and  C20_22 
REMARK    6  A    between atoms: C26_29  and  C27_30 
REMARK    7  A    between atoms: C27_30  and  C28_31 
REMARK    8  A    between atoms: C28_31  and  C29_32 
REMARK    9  A    between atoms: C29_32  and  O5_34 
ROOT
HETATM    1  C1  UNL     1      -3.659   5.647  13.009  1.00  0.00     0.025 C 
HETATM    2  C2  UNL     1      -4.115   6.872  13.298  1.00  0.00     0.015 C 
HETATM    3  C3  UNL     1      -5.560   7.140  13.462  1.00  0.00     0.289 C 
HETATM    4  O1  UNL     1      -6.469   6.359  13.249  1.00  0.00    -0.260 OA
HETATM    5  O2  UNL     1      -5.702   8.425  13.875  1.00  0.00    -0.311 OA
HETATM    6  C4  UNL     1      -4.422   8.997  14.209  1.00  0.00     0.142 C 
HETATM    7  C5  UNL     1      -4.319   9.066  15.727  1.00  0.00     0.039 C 
HETATM    8  C6  UNL     1      -2.943   9.459  16.285  1.00  0.00     0.006 C 
HETATM    9  C7  UNL     1      -1.768   8.747  15.574  1.00  0.00    -0.027 A 
HETATM   10  C8  UNL     1      -0.368   9.185  16.050  1.00  0.00     0.011 C 
HETATM   11  C9  UNL     1      -0.189  10.691  16.303  1.00  0.00     0.011 C 
HETATM   12  C10 UNL     1      -1.321  11.252  17.176  1.00  0.00    -0.032 C 
HETATM   13  C11 UNL     1      -1.253  10.559  18.566  1.00  0.00     0.016 C 
HETATM   14  C12 UNL     1      -1.369  12.804  17.381  1.00  0.00    -0.002 C 
HETATM   15  C21 UNL     1      -2.886  13.086  17.610  1.00  0.00     0.006 C 
HETATM   16  C22 UNL     1      -3.655  11.805  17.238  1.00  0.00     0.011 C 
HETATM   17  C23 UNL     1      -2.669  10.993  16.383  1.00  0.00    -0.032 C 
HETATM   18  C24 UNL     1      -2.689  11.623  14.952  1.00  0.00     0.016 C 
HETATM   19  C25 UNL     1      -1.876   7.247  15.433  1.00  0.00     0.022 A 
HETATM   20  C26 UNL     1      -1.991   8.091  14.175  1.00  0.00    -0.021 A 
HETATM   21  C30 UNL     1      -3.371   8.152  13.503  1.00  0.00     0.063 C 
ENDROOT
BRANCH  14  22
HETATM   22  C13 UNL     1      -0.441  13.576  18.369  1.00  0.00    -0.014 C 
HETATM   23  C14 UNL     1      -1.084  14.110  19.659  1.00  0.00     0.010 C 
BRANCH  22  24
HETATM   24  C15 UNL     1       0.860  12.833  18.745  1.00  0.00     0.008 C 
BRANCH  24  25
HETATM   25  C16 UNL     1       1.215  12.902  20.233  1.00  0.00     0.028 C 
BRANCH  25  26
HETATM   26  C17 UNL     1       1.476  11.528  20.788  1.00  0.00    -0.017 C 
HETATM   27  C18 UNL     1       2.663  10.897  20.858  1.00  0.00    -0.028 C 
HETATM   28  C19 UNL     1       4.000  11.424  20.436  1.00  0.00     0.051 C 
BRANCH  27  29
HETATM   29  C20 UNL     1       2.667   9.522  21.434  1.00  0.00     0.265 C 
HETATM   30  O3  UNL     1       2.588   9.309  22.638  1.00  0.00    -0.302 OA
ENDBRANCH  27  29
ENDBRANCH  25  26
ENDBRANCH  24  25
ENDBRANCH  22  24
ENDBRANCH  14  22
BRANCH  20  31
HETATM   31  C27 UNL     1      -0.840   8.140  13.157  1.00  0.00     0.021 C 
BRANCH  31  32
HETATM   32  C28 UNL     1      -1.151   8.846  11.843  1.00  0.00     0.111 C 
BRANCH  32  33
HETATM   33  C29 UNL     1      -0.186   8.408  10.782  1.00  0.00     0.139 C 
HETATM   34  O4  UNL     1      -0.075   8.888   9.667  1.00  0.00    -0.650 OA
BRANCH  33  35
HETATM   35  O5  UNL     1       0.616   7.405  11.186  1.00  0.00    -0.776 OA
HETATM   36  H41 UNL     1       1.186   7.227  10.408  1.00  0.00     0.167 HD
ENDBRANCH  33  35
ENDBRANCH  32  33
ENDBRANCH  31  32
ENDBRANCH  20  31
TORSDOF 9
ENDMDL
