MODEL 1
REMARK minimizedAffinity -8.02416992
REMARK CNNscore 0.799398065
REMARK CNNaffinity 6.32733965
REMARK  10 active torsions:
REMARK  status: ('A' for Active; 'I' for Inactive)
REMARK    1  A    between atoms: C2_2  and  C3_3 
REMARK    2  A    between atoms: C2_2  and  C9_11 
REMARK    3  A    between atoms: C3_3  and  C4_4 
REMARK    4  A    between atoms: C4_4  and  C5_5 
REMARK    5  A    between atoms: C5_5  and  O1_6 
REMARK    6  A    between atoms: C5_5  and  C6_7 
REMARK    7  A    between atoms: C6_7  and  O2_10 
REMARK    8  A    between atoms: C12_14  and  C13_15 
REMARK    9  A    between atoms: C13_15  and  O4_17 
REMARK   10  A    between atoms: C21_25  and  O5_26 
ROOT
HETATM    1  C9  UNL     1       2.291  54.431  -9.945  1.00  0.00    -0.001 C 
HETATM    2  C10 UNL     1       3.384  53.564 -10.621  1.00  0.00     0.007 C 
HETATM    3  C11 UNL     1       4.745  54.045 -10.052  1.00  0.00     0.022 C 
HETATM    4  C12 UNL     1       4.366  54.877  -8.807  1.00  0.00     0.057 C 
HETATM    5  C14 UNL     1       5.405  55.901  -8.265  1.00  0.00     0.010 C 
HETATM    6  C15 UNL     1       6.763  55.292  -7.871  1.00  0.00     0.010 C 
HETATM    7  C16 UNL     1       6.981  55.039  -6.379  1.00  0.00     0.036 C 
HETATM    8  C17 UNL     1       7.404  56.256  -5.566  1.00  0.00    -0.067 C 
HETATM    9  C18 UNL     1       6.873  57.492  -5.746  1.00  0.00    -0.076 C 
HETATM   10  C19 UNL     1       7.369  58.707  -4.981  1.00  0.00     0.037 C 
HETATM   11  C20 UNL     1       8.696  58.522  -4.261  1.00  0.00     0.037 C 
HETATM   12  C21 UNL     1       8.724  57.189  -3.531  1.00  0.00     0.130 C 
HETATM   13  C22 UNL     1       8.519  55.989  -4.513  1.00  0.00     0.002 C 
HETATM   14  C23 UNL     1       8.205  54.731  -3.669  1.00  0.00     0.022 C 
HETATM   15  C24 UNL     1       9.853  55.754  -5.263  1.00  0.00     0.022 C 
HETATM   16  C25 UNL     1       5.712  57.870  -6.656  1.00  0.00     0.039 C 
HETATM   17  C26 UNL     1       4.756  56.769  -7.149  1.00  0.00    -0.005 C 
HETATM   18  C27 UNL     1       3.421  57.418  -7.604  1.00  0.00     0.006 C 
HETATM   19  C28 UNL     1       2.422  56.454  -8.267  1.00  0.00     0.011 C 
HETATM   20  C29 UNL     1       3.095  55.637  -9.379  1.00  0.00    -0.022 C 
HETATM   21  C30 UNL     1       3.450  56.641 -10.521  1.00  0.00     0.017 C 
ENDROOT
BRANCH   1  22
HETATM   22  C2  UNL     1       0.927  54.602 -10.670  1.00  0.00    -0.014 C 
HETATM   23  C1  UNL     1      -0.129  55.114  -9.672  1.00  0.00     0.010 C 
BRANCH  22  24
HETATM   24  C3  UNL     1       0.321  53.479 -11.538  1.00  0.00     0.007 C 
BRANCH  24  25
HETATM   25  C4  UNL     1      -0.899  52.747 -10.988  1.00  0.00     0.035 C 
BRANCH  25  26
HETATM   26  C5  UNL     1      -2.055  52.559 -11.983  1.00  0.00     0.151 C 
BRANCH  26  27
HETATM   27  O1  UNL     1      -2.055  51.162 -12.344  1.00  0.00    -0.393 OA
HETATM   28  H10 UNL     1      -2.883  50.774 -11.996  1.00  0.00     0.210 HD
ENDBRANCH  26  27
BRANCH  26  29
HETATM   29  C6  UNL     1      -3.495  52.964 -11.539  1.00  0.00     0.076 C 
HETATM   30  C7  UNL     1      -3.499  54.071 -10.484  1.00  0.00     0.048 C 
HETATM   31  C8  UNL     1      -4.350  51.780 -11.085  1.00  0.00     0.048 C 
BRANCH  29  32
HETATM   32  O2  UNL     1      -4.164  53.508 -12.699  1.00  0.00    -0.388 OA
HETATM   33  H17 UNL     1      -3.517  54.067 -13.172  1.00  0.00     0.210 HD
ENDBRANCH  29  32
ENDBRANCH  26  29
ENDBRANCH  25  26
ENDBRANCH  24  25
ENDBRANCH  22  24
ENDBRANCH   1  22
BRANCH   4  34
HETATM   34  C13 UNL     1       4.047  53.876  -7.657  1.00  0.00     0.149 C 
HETATM   35  O3  UNL     1       4.542  52.780  -7.459  1.00  0.00    -0.649 OA
BRANCH  34  36
HETATM   36  O4  UNL     1       3.069  54.291  -6.826  1.00  0.00    -0.776 OA
HETATM   37  H23 UNL     1       2.982  53.552  -6.187  1.00  0.00     0.167 HD
ENDBRANCH  34  36
ENDBRANCH   4  34
BRANCH  12  38
HETATM   38  O5  UNL     1       7.732  57.196  -2.500  1.00  0.00    -0.394 OA
HETATM   39  H34 UNL     1       7.921  57.947  -1.914  1.00  0.00     0.210 HD
ENDBRANCH  12  38
TORSDOF 10
ENDMDL
MODEL 2
REMARK minimizedAffinity -7.63857031
REMARK CNNscore 0.678781629
REMARK CNNaffinity 6.22159624
REMARK  10 active torsions:
REMARK  status: ('A' for Active; 'I' for Inactive)
REMARK    1  A    between atoms: C2_2  and  C3_3 
REMARK    2  A    between atoms: C2_2  and  C9_11 
REMARK    3  A    between atoms: C3_3  and  C4_4 
REMARK    4  A    between atoms: C4_4  and  C5_5 
REMARK    5  A    between atoms: C5_5  and  O1_6 
REMARK    6  A    between atoms: C5_5  and  C6_7 
REMARK    7  A    between atoms: C6_7  and  O2_10 
REMARK    8  A    between atoms: C12_14  and  C13_15 
REMARK    9  A    between atoms: C13_15  and  O4_17 
REMARK   10  A    between atoms: C21_25  and  O5_26 
ROOT
HETATM    1  C9  UNL     1       2.367  54.113 -10.036  1.00  0.00    -0.001 C 
HETATM    2  C10 UNL     1       3.524  53.331 -10.710  1.00  0.00     0.007 C 
HETATM    3  C11 UNL     1       4.843  53.922 -10.147  1.00  0.00     0.022 C 
HETATM    4  C12 UNL     1       4.402  54.729  -8.906  1.00  0.00     0.057 C 
HETATM    5  C14 UNL     1       5.357  55.835  -8.373  1.00  0.00     0.010 C 
HETATM    6  C15 UNL     1       6.760  55.339  -7.978  1.00  0.00     0.010 C 
HETATM    7  C16 UNL     1       7.001  55.114  -6.486  1.00  0.00     0.036 C 
HETATM    8  C17 UNL     1       7.328  56.365  -5.681  1.00  0.00    -0.067 C 
HETATM    9  C18 UNL     1       6.699  57.554  -5.867  1.00  0.00    -0.076 C 
HETATM   10  C19 UNL     1       7.099  58.809  -5.111  1.00  0.00     0.037 C 
HETATM   11  C20 UNL     1       8.438  58.735  -4.393  1.00  0.00     0.037 C 
HETATM   12  C21 UNL     1       8.573  57.413  -3.656  1.00  0.00     0.130 C 
HETATM   13  C22 UNL     1       8.462  56.195  -4.630  1.00  0.00     0.002 C 
HETATM   14  C23 UNL     1       8.251  54.921  -3.777  1.00  0.00     0.022 C 
HETATM   15  C24 UNL     1       9.809  56.061  -5.382  1.00  0.00     0.022 C 
HETATM   16  C25 UNL     1       5.510  57.833  -6.777  1.00  0.00     0.039 C 
HETATM   17  C26 UNL     1       4.644  56.656  -7.261  1.00  0.00    -0.005 C 
HETATM   18  C27 UNL     1       3.261  57.195  -7.716  1.00  0.00     0.006 C 
HETATM   19  C28 UNL     1       2.340  56.150  -8.370  1.00  0.00     0.011 C 
HETATM   20  C29 UNL     1       3.073  55.382  -9.479  1.00  0.00    -0.022 C 
HETATM   21  C30 UNL     1       3.346  56.404 -10.629  1.00  0.00     0.017 C 
ENDROOT
BRANCH   1  22
HETATM   22  C2  UNL     1       0.992  54.170 -10.758  1.00  0.00    -0.014 C 
HETATM   23  C1  UNL     1       0.036  55.094  -9.980  1.00  0.00     0.010 C 
BRANCH  22  24
HETATM   24  C3  UNL     1       0.244  52.889 -11.186  1.00  0.00     0.007 C 
BRANCH  24  25
HETATM   25  C4  UNL     1       1.000  51.894 -12.059  1.00  0.00     0.035 C 
BRANCH  25  26
HETATM   26  C5  UNL     1       0.403  51.662 -13.457  1.00  0.00     0.151 C 
BRANCH  26  27
HETATM   27  O1  UNL     1      -0.627  52.657 -13.627  1.00  0.00    -0.393 OA
HETATM   28  H10 UNL     1      -0.334  53.258 -14.341  1.00  0.00     0.210 HD
ENDBRANCH  26  27
BRANCH  26  29
HETATM   29  C6  UNL     1       1.355  51.708 -14.692  1.00  0.00     0.076 C 
HETATM   30  C7  UNL     1       1.018  50.645 -15.739  1.00  0.00     0.048 C 
HETATM   31  C8  UNL     1       2.839  51.653 -14.323  1.00  0.00     0.048 C 
BRANCH  29  32
HETATM   32  O2  UNL     1       1.159  52.987 -15.336  1.00  0.00    -0.388 OA
HETATM   33  H17 UNL     1       0.200  53.172 -15.328  1.00  0.00     0.210 HD
ENDBRANCH  29  32
ENDBRANCH  26  29
ENDBRANCH  25  26
ENDBRANCH  24  25
ENDBRANCH  22  24
ENDBRANCH   1  22
BRANCH   4  34
HETATM   34  C13 UNL     1       4.166  53.713  -7.750  1.00  0.00     0.149 C 
HETATM   35  O3  UNL     1       3.440  53.838  -6.779  1.00  0.00    -0.649 OA
BRANCH  34  36
HETATM   36  O4  UNL     1       4.906  52.590  -7.850  1.00  0.00    -0.776 OA
HETATM   37  H23 UNL     1       4.657  52.079  -7.050  1.00  0.00     0.167 HD
ENDBRANCH  34  36
ENDBRANCH   4  34
BRANCH  12  38
HETATM   38  O5  UNL     1       7.586  57.348  -2.622  1.00  0.00    -0.394 OA
HETATM   39  H34 UNL     1       7.716  58.116  -2.041  1.00  0.00     0.210 HD
ENDBRANCH  12  38
TORSDOF 10
ENDMDL
MODEL 3
REMARK minimizedAffinity -7.32061243
REMARK CNNscore 0.673755765
REMARK CNNaffinity 6.79936075
REMARK  10 active torsions:
REMARK  status: ('A' for Active; 'I' for Inactive)
REMARK    1  A    between atoms: C2_2  and  C3_3 
REMARK    2  A    between atoms: C2_2  and  C9_11 
REMARK    3  A    between atoms: C3_3  and  C4_4 
REMARK    4  A    between atoms: C4_4  and  C5_5 
REMARK    5  A    between atoms: C5_5  and  O1_6 
REMARK    6  A    between atoms: C5_5  and  C6_7 
REMARK    7  A    between atoms: C6_7  and  O2_10 
REMARK    8  A    between atoms: C12_14  and  C13_15 
REMARK    9  A    between atoms: C13_15  and  O4_17 
REMARK   10  A    between atoms: C21_25  and  O5_26 
ROOT
HETATM    1  C9  UNL     1      -2.915  50.825 -10.271  1.00  0.00    -0.001 C 
HETATM    2  C10 UNL     1      -2.630  50.932 -11.792  1.00  0.00     0.007 C 
HETATM    3  C11 UNL     1      -1.604  52.082 -11.968  1.00  0.00     0.022 C 
HETATM    4  C12 UNL     1      -1.049  52.322 -10.546  1.00  0.00     0.057 C 
HETATM    5  C14 UNL     1      -0.372  53.689 -10.244  1.00  0.00     0.010 C 
HETATM    6  C15 UNL     1       0.833  54.023 -11.144  1.00  0.00     0.010 C 
HETATM    7  C16 UNL     1       2.215  53.773 -10.540  1.00  0.00     0.036 C 
HETATM    8  C17 UNL     1       2.731  54.868  -9.614  1.00  0.00    -0.067 C 
HETATM    9  C18 UNL     1       1.946  55.506  -8.709  1.00  0.00    -0.076 C 
HETATM   10  C19 UNL     1       2.462  56.652  -7.855  1.00  0.00     0.037 C 
HETATM   11  C20 UNL     1       3.787  57.249  -8.303  1.00  0.00     0.037 C 
HETATM   12  C21 UNL     1       4.776  56.149  -8.652  1.00  0.00     0.130 C 
HETATM   13  C22 UNL     1       4.234  55.226  -9.792  1.00  0.00     0.002 C 
HETATM   14  C23 UNL     1       5.114  53.954  -9.833  1.00  0.00     0.022 C 
HETATM   15  C24 UNL     1       4.401  55.980 -11.135  1.00  0.00     0.022 C 
HETATM   16  C25 UNL     1       0.499  55.186  -8.357  1.00  0.00     0.039 C 
HETATM   17  C26 UNL     1      -0.072  53.804  -8.723  1.00  0.00    -0.005 C 
HETATM   18  C27 UNL     1      -1.326  53.524  -7.849  1.00  0.00     0.006 C 
HETATM   19  C28 UNL     1      -2.096  52.242  -8.211  1.00  0.00     0.011 C 
HETATM   20  C29 UNL     1      -2.395  52.181  -9.716  1.00  0.00    -0.022 C 
HETATM   21  C30 UNL     1      -3.417  53.323 -10.017  1.00  0.00     0.017 C 
ENDROOT
BRANCH   1  22
HETATM   22  C2  UNL     1      -4.259  50.193  -9.811  1.00  0.00    -0.014 C 
HETATM   23  C1  UNL     1      -4.052  48.697  -9.510  1.00  0.00     0.010 C 
BRANCH  22  24
HETATM   24  C3  UNL     1      -5.565  50.387 -10.612  1.00  0.00     0.007 C 
BRANCH  24  25
HETATM   25  C4  UNL     1      -6.485  49.180 -10.757  1.00  0.00     0.035 C 
BRANCH  25  26
HETATM   26  C5  UNL     1      -7.961  49.435 -10.412  1.00  0.00     0.151 C 
BRANCH  26  27
HETATM   27  O1  UNL     1      -8.728  48.940 -11.530  1.00  0.00    -0.393 OA
HETATM   28  H10 UNL     1      -9.248  48.177 -11.208  1.00  0.00     0.210 HD
ENDBRANCH  26  27
BRANCH  26  29
HETATM   29  C6  UNL     1      -8.537  48.824  -9.097  1.00  0.00     0.076 C 
HETATM   30  C7  UNL     1      -7.699  47.658  -8.571  1.00  0.00     0.048 C 
HETATM   31  C8  UNL     1     -10.011  48.429  -9.201  1.00  0.00     0.048 C 
BRANCH  29  32
HETATM   32  O2  UNL     1      -8.479  49.854  -8.085  1.00  0.00    -0.388 OA
HETATM   33  H17 UNL     1      -7.626  50.318  -8.192  1.00  0.00     0.210 HD
ENDBRANCH  29  32
ENDBRANCH  26  29
ENDBRANCH  25  26
ENDBRANCH  24  25
ENDBRANCH  22  24
ENDBRANCH   1  22
BRANCH   4  34
HETATM   34  C13 UNL     1      -0.003  51.204 -10.260  1.00  0.00     0.149 C 
HETATM   35  O3  UNL     1      -0.202  50.011 -10.113  1.00  0.00    -0.649 OA
BRANCH  34  36
HETATM   36  O4  UNL     1       1.259  51.660 -10.123  1.00  0.00    -0.776 OA
HETATM   37  H23 UNL     1       1.777  50.848  -9.931  1.00  0.00     0.167 HD
ENDBRANCH  34  36
ENDBRANCH   4  34
BRANCH  12  38
HETATM   38  O5  UNL     1       5.079  55.399  -7.472  1.00  0.00    -0.394 OA
HETATM   39  H34 UNL     1       5.428  56.019  -6.810  1.00  0.00     0.210 HD
ENDBRANCH  12  38
TORSDOF 10
ENDMDL
MODEL 4
REMARK minimizedAffinity -8.2140007
REMARK CNNscore 0.518622816
REMARK CNNaffinity 6.46038437
REMARK  10 active torsions:
REMARK  status: ('A' for Active; 'I' for Inactive)
REMARK    1  A    between atoms: C2_2  and  C3_3 
REMARK    2  A    between atoms: C2_2  and  C9_11 
REMARK    3  A    between atoms: C3_3  and  C4_4 
REMARK    4  A    between atoms: C4_4  and  C5_5 
REMARK    5  A    between atoms: C5_5  and  O1_6 
REMARK    6  A    between atoms: C5_5  and  C6_7 
REMARK    7  A    between atoms: C6_7  and  O2_10 
REMARK    8  A    between atoms: C12_14  and  C13_15 
REMARK    9  A    between atoms: C13_15  and  O4_17 
REMARK   10  A    between atoms: C21_25  and  O5_26 
ROOT
HETATM    1  C9  UNL     1      -9.336  46.723 -30.643  1.00  0.00    -0.001 C 
HETATM    2  C10 UNL     1     -10.081  45.770 -29.672  1.00  0.00     0.007 C 
HETATM    3  C11 UNL     1      -9.219  45.691 -28.384  1.00  0.00     0.022 C 
HETATM    4  C12 UNL     1      -8.241  46.881 -28.505  1.00  0.00     0.057 C 
HETATM    5  C14 UNL     1      -6.934  46.843 -27.662  1.00  0.00     0.010 C 
HETATM    6  C15 UNL     1      -7.151  46.730 -26.142  1.00  0.00     0.010 C 
HETATM    7  C16 UNL     1      -7.034  48.030 -25.345  1.00  0.00     0.036 C 
HETATM    8  C17 UNL     1      -5.612  48.463 -25.008  1.00  0.00    -0.067 C 
HETATM    9  C18 UNL     1      -4.580  48.369 -25.884  1.00  0.00    -0.076 C 
HETATM   10  C19 UNL     1      -3.155  48.730 -25.498  1.00  0.00     0.037 C 
HETATM   11  C20 UNL     1      -2.905  48.877 -24.006  1.00  0.00     0.037 C 
HETATM   12  C21 UNL     1      -4.019  49.682 -23.357  1.00  0.00     0.130 C 
HETATM   13  C22 UNL     1      -5.415  49.007 -23.564  1.00  0.00     0.002 C 
HETATM   14  C23 UNL     1      -6.504  50.044 -23.201  1.00  0.00     0.022 C 
HETATM   15  C24 UNL     1      -5.521  47.819 -22.576  1.00  0.00     0.022 C 
HETATM   16  C25 UNL     1      -4.650  47.960 -27.349  1.00  0.00     0.039 C 
HETATM   17  C26 UNL     1      -6.004  48.018 -28.079  1.00  0.00    -0.005 C 
HETATM   18  C27 UNL     1      -5.756  48.062 -29.612  1.00  0.00     0.006 C 
HETATM   19  C28 UNL     1      -7.024  47.967 -30.478  1.00  0.00     0.011 C 
HETATM   20  C29 UNL     1      -7.899  46.780 -30.051  1.00  0.00    -0.022 C 
HETATM   21  C30 UNL     1      -7.106  45.484 -30.415  1.00  0.00     0.017 C 
ENDROOT
BRANCH   1  22
HETATM   22  C2  UNL     1      -9.608  46.587 -32.168  1.00  0.00    -0.014 C 
HETATM   23  C1  UNL     1      -8.764  47.620 -32.938  1.00  0.00     0.010 C 
BRANCH  22  24
HETATM   24  C3  UNL     1     -11.042  46.557 -32.739  1.00  0.00     0.007 C 
BRANCH  24  25
HETATM   25  C4  UNL     1     -11.352  45.510 -33.803  1.00  0.00     0.035 C 
BRANCH  25  26
HETATM   26  C5  UNL     1     -10.336  44.362 -33.910  1.00  0.00     0.151 C 
BRANCH  26  27
HETATM   27  O1  UNL     1     -11.098  43.139 -33.833  1.00  0.00    -0.393 OA
HETATM   28  H10 UNL     1     -11.019  42.695 -34.700  1.00  0.00     0.210 HD
ENDBRANCH  26  27
BRANCH  26  29
HETATM   29  C6  UNL     1      -9.409  44.299 -35.163  1.00  0.00     0.076 C 
HETATM   30  C7  UNL     1      -9.510  45.551 -36.036  1.00  0.00     0.048 C 
HETATM   31  C8  UNL     1      -9.602  43.035 -36.003  1.00  0.00     0.048 C 
BRANCH  29  32
HETATM   32  O2  UNL     1      -8.046  44.247 -34.685  1.00  0.00    -0.388 OA
HETATM   33  H17 UNL     1      -7.977  44.869 -33.936  1.00  0.00     0.210 HD
ENDBRANCH  29  32
ENDBRANCH  26  29
ENDBRANCH  25  26
ENDBRANCH  24  25
ENDBRANCH  22  24
ENDBRANCH   1  22
BRANCH   4  34
HETATM   34  C13 UNL     1      -9.022  48.168 -28.106  1.00  0.00     0.149 C 
HETATM   35  O3  UNL     1      -9.952  48.269 -27.325  1.00  0.00    -0.649 OA
BRANCH  34  36
HETATM   36  O4  UNL     1      -8.617  49.277 -28.759  1.00  0.00    -0.776 OA
HETATM   37  H23 UNL     1      -9.211  49.977 -28.413  1.00  0.00     0.167 HD
ENDBRANCH  34  36
ENDBRANCH   4  34
BRANCH  12  38
HETATM   38  O5  UNL     1      -4.001  51.015 -23.877  1.00  0.00    -0.394 OA
HETATM   39  H34 UNL     1      -3.120  51.387 -23.703  1.00  0.00     0.210 HD
ENDBRANCH  12  38
TORSDOF 10
ENDMDL
MODEL 5
REMARK minimizedAffinity -8.02690029
REMARK CNNscore 0.473107159
REMARK CNNaffinity 6.20228243
REMARK  10 active torsions:
REMARK  status: ('A' for Active; 'I' for Inactive)
REMARK    1  A    between atoms: C2_2  and  C3_3 
REMARK    2  A    between atoms: C2_2  and  C9_11 
REMARK    3  A    between atoms: C3_3  and  C4_4 
REMARK    4  A    between atoms: C4_4  and  C5_5 
REMARK    5  A    between atoms: C5_5  and  O1_6 
REMARK    6  A    between atoms: C5_5  and  C6_7 
REMARK    7  A    between atoms: C6_7  and  O2_10 
REMARK    8  A    between atoms: C12_14  and  C13_15 
REMARK    9  A    between atoms: C13_15  and  O4_17 
REMARK   10  A    between atoms: C21_25  and  O5_26 
ROOT
HETATM    1  C9  UNL     1     -11.655  45.840 -27.466  1.00  0.00    -0.001 C 
HETATM    2  C10 UNL     1     -11.631  45.162 -26.071  1.00  0.00     0.007 C 
HETATM    3  C11 UNL     1     -10.179  45.295 -25.540  1.00  0.00     0.022 C 
HETATM    4  C12 UNL     1      -9.536  46.367 -26.449  1.00  0.00     0.057 C 
HETATM    5  C14 UNL     1      -7.984  46.419 -26.536  1.00  0.00     0.010 C 
HETATM    6  C15 UNL     1      -7.271  46.639 -25.188  1.00  0.00     0.010 C 
HETATM    7  C16 UNL     1      -6.803  48.065 -24.898  1.00  0.00     0.036 C 
HETATM    8  C17 UNL     1      -5.483  48.463 -25.547  1.00  0.00    -0.067 C 
HETATM    9  C18 UNL     1      -5.146  48.122 -26.817  1.00  0.00    -0.076 C 
HETATM   10  C19 UNL     1      -3.790  48.459 -27.414  1.00  0.00     0.037 C 
HETATM   11  C20 UNL     1      -2.732  48.897 -26.414  1.00  0.00     0.037 C 
HETATM   12  C21 UNL     1      -3.315  49.891 -25.423  1.00  0.00     0.130 C 
HETATM   13  C22 UNL     1      -4.522  49.281 -24.637  1.00  0.00     0.002 C 
HETATM   14  C23 UNL     1      -5.267  50.441 -23.933  1.00  0.00     0.022 C 
HETATM   15  C24 UNL     1      -3.954  48.335 -23.551  1.00  0.00     0.022 C 
HETATM   16  C25 UNL     1      -6.025  47.423 -27.845  1.00  0.00     0.039 C 
HETATM   17  C26 UNL     1      -7.551  47.417 -27.647  1.00  0.00    -0.005 C 
HETATM   18  C27 UNL     1      -8.242  47.125 -29.007  1.00  0.00     0.006 C 
HETATM   19  C28 UNL     1      -9.767  46.936 -28.935  1.00  0.00     0.011 C 
HETATM   20  C29 UNL     1     -10.148  45.924 -27.845  1.00  0.00    -0.022 C 
HETATM   21  C30 UNL     1      -9.627  44.532 -28.323  1.00  0.00     0.017 C 
ENDROOT
BRANCH   1  22
HETATM   22  C2  UNL     1     -12.750  45.409 -28.481  1.00  0.00    -0.014 C 
HETATM   23  C1  UNL     1     -13.343  46.656 -29.163  1.00  0.00     0.010 C 
BRANCH  22  24
HETATM   24  C3  UNL     1     -13.887  44.441 -28.089  1.00  0.00     0.007 C 
BRANCH  24  25
HETATM   25  C4  UNL     1     -14.952  44.960 -27.130  1.00  0.00     0.035 C 
BRANCH  25  26
HETATM   26  C5  UNL     1     -16.359  45.113 -27.732  1.00  0.00     0.151 C 
BRANCH  26  27
HETATM   27  O1  UNL     1     -16.298  44.530 -29.051  1.00  0.00    -0.393 OA
HETATM   28  H10 UNL     1     -16.873  43.739 -29.044  1.00  0.00     0.210 HD
ENDBRANCH  26  27
BRANCH  26  29
HETATM   29  C6  UNL     1     -17.570  44.498 -26.966  1.00  0.00     0.076 C 
HETATM   30  C7  UNL     1     -17.341  44.431 -25.455  1.00  0.00     0.048 C 
HETATM   31  C8  UNL     1     -18.009  43.136 -27.508  1.00  0.00     0.048 C 
BRANCH  29  32
HETATM   32  O2  UNL     1     -18.696  45.381 -27.166  1.00  0.00    -0.388 OA
HETATM   33  H17 UNL     1     -18.363  46.297 -27.098  1.00  0.00     0.210 HD
ENDBRANCH  29  32
ENDBRANCH  26  29
ENDBRANCH  25  26
ENDBRANCH  24  25
ENDBRANCH  22  24
ENDBRANCH   1  22
BRANCH   4  34
HETATM   34  C13 UNL     1     -10.027  47.757 -25.949  1.00  0.00     0.149 C 
HETATM   35  O3  UNL     1     -10.172  48.131 -24.798  1.00  0.00    -0.649 OA
BRANCH  34  36
HETATM   36  O4  UNL     1     -10.362  48.608 -26.940  1.00  0.00    -0.776 OA
HETATM   37  H23 UNL     1     -10.663  49.411 -26.463  1.00  0.00     0.167 HD
ENDBRANCH  34  36
ENDBRANCH   4  34
BRANCH  12  38
HETATM   38  O5  UNL     1      -3.694  51.082 -26.119  1.00  0.00    -0.394 OA
HETATM   39  H34 UNL     1      -2.904  51.423 -26.570  1.00  0.00     0.210 HD
ENDBRANCH  12  38
TORSDOF 10
ENDMDL
MODEL 6
REMARK minimizedAffinity -9.87019253
REMARK CNNscore 0.443023443
REMARK CNNaffinity 6.81191492
REMARK  10 active torsions:
REMARK  status: ('A' for Active; 'I' for Inactive)
REMARK    1  A    between atoms: C2_2  and  C3_3 
REMARK    2  A    between atoms: C2_2  and  C9_11 
REMARK    3  A    between atoms: C3_3  and  C4_4 
REMARK    4  A    between atoms: C4_4  and  C5_5 
REMARK    5  A    between atoms: C5_5  and  O1_6 
REMARK    6  A    between atoms: C5_5  and  C6_7 
REMARK    7  A    between atoms: C6_7  and  O2_10 
REMARK    8  A    between atoms: C12_14  and  C13_15 
REMARK    9  A    between atoms: C13_15  and  O4_17 
REMARK   10  A    between atoms: C21_25  and  O5_26 
ROOT
HETATM    1  C9  UNL     1      -2.038  51.504 -21.403  1.00  0.00    -0.001 C 
HETATM    2  C10 UNL     1      -2.432  50.014 -21.228  1.00  0.00     0.007 C 
HETATM    3  C11 UNL     1      -1.644  49.491 -19.999  1.00  0.00     0.022 C 
HETATM    4  C12 UNL     1      -1.145  50.770 -19.291  1.00  0.00     0.057 C 
HETATM    5  C14 UNL     1       0.061  50.645 -18.316  1.00  0.00     0.010 C 
HETATM    6  C15 UNL     1      -0.155  49.667 -17.146  1.00  0.00     0.010 C 
HETATM    7  C16 UNL     1      -0.531  50.295 -15.804  1.00  0.00     0.036 C 
HETATM    8  C17 UNL     1       0.633  50.850 -14.993  1.00  0.00    -0.067 C 
HETATM    9  C18 UNL     1       1.662  51.540 -15.547  1.00  0.00    -0.076 C 
HETATM   10  C19 UNL     1       2.854  52.011 -14.730  1.00  0.00     0.037 C 
HETATM   11  C20 UNL     1       2.983  51.385 -13.351  1.00  0.00     0.037 C 
HETATM   12  C21 UNL     1       1.635  51.358 -12.650  1.00  0.00     0.130 C 
HETATM   13  C22 UNL     1       0.575  50.549 -13.467  1.00  0.00     0.002 C 
HETATM   14  C23 UNL     1      -0.822  50.869 -12.884  1.00  0.00     0.022 C 
HETATM   15  C24 UNL     1       0.860  49.042 -13.256  1.00  0.00     0.022 C 
HETATM   16  C25 UNL     1       1.792  51.994 -16.995  1.00  0.00     0.039 C 
HETATM   17  C26 UNL     1       0.531  52.060 -17.875  1.00  0.00    -0.005 C 
HETATM   18  C27 UNL     1       0.801  52.998 -19.083  1.00  0.00     0.006 C 
HETATM   19  C28 UNL     1      -0.320  53.043 -20.135  1.00  0.00     0.011 C 
HETATM   20  C29 UNL     1      -0.735  51.627 -20.563  1.00  0.00    -0.022 C 
HETATM   21  C30 UNL     1       0.476  51.020 -21.340  1.00  0.00     0.017 C 
ENDROOT
BRANCH   1  22
HETATM   22  C2  UNL     1      -2.191  52.151 -22.808  1.00  0.00    -0.014 C 
HETATM   23  C1  UNL     1      -3.684  52.252 -23.172  1.00  0.00     0.010 C 
BRANCH  22  24
HETATM   24  C3  UNL     1      -1.391  51.646 -24.028  1.00  0.00     0.007 C 
BRANCH  24  25
HETATM   25  C4  UNL     1      -0.183  52.467 -24.464  1.00  0.00     0.035 C 
BRANCH  25  26
HETATM   26  C5  UNL     1      -0.059  52.699 -25.979  1.00  0.00     0.151 C 
BRANCH  26  27
HETATM   27  O1  UNL     1       0.524  54.009 -26.140  1.00  0.00    -0.393 OA
HETATM   28  H10 UNL     1       1.408  53.885 -26.539  1.00  0.00     0.210 HD
ENDBRANCH  26  27
BRANCH  26  29
HETATM   29  C6  UNL     1       0.759  51.677 -26.827  1.00  0.00     0.076 C 
HETATM   30  C7  UNL     1       2.194  51.507 -26.326  1.00  0.00     0.048 C 
HETATM   31  C8  UNL     1       0.740  51.974 -28.327  1.00  0.00     0.048 C 
BRANCH  29  32
HETATM   32  O2  UNL     1       0.122  50.388 -26.675  1.00  0.00    -0.388 OA
HETATM   33  H17 UNL     1      -0.135  50.300 -25.736  1.00  0.00     0.210 HD
ENDBRANCH  29  32
ENDBRANCH  26  29
ENDBRANCH  25  26
ENDBRANCH  24  25
ENDBRANCH  22  24
ENDBRANCH   1  22
BRANCH   4  34
HETATM   34  C13 UNL     1      -2.343  51.354 -18.486  1.00  0.00     0.149 C 
HETATM   35  O3  UNL     1      -2.486  51.391 -17.276  1.00  0.00    -0.649 OA
BRANCH  34  36
HETATM   36  O4  UNL     1      -3.340  51.830 -19.259  1.00  0.00    -0.776 OA
HETATM   37  H23 UNL     1      -4.009  52.135 -18.609  1.00  0.00     0.167 HD
ENDBRANCH  34  36
ENDBRANCH   4  34
BRANCH  12  38
HETATM   38  O5  UNL     1       1.200  52.702 -12.417  1.00  0.00    -0.394 OA
HETATM   39  H34 UNL     1       1.886  53.146 -11.892  1.00  0.00     0.210 HD
ENDBRANCH  12  38
TORSDOF 10
ENDMDL
MODEL 7
REMARK minimizedAffinity -9.22654724
REMARK CNNscore 0.402721882
REMARK CNNaffinity 6.30914736
REMARK  10 active torsions:
REMARK  status: ('A' for Active; 'I' for Inactive)
REMARK    1  A    between atoms: C2_2  and  C3_3 
REMARK    2  A    between atoms: C2_2  and  C9_11 
REMARK    3  A    between atoms: C3_3  and  C4_4 
REMARK    4  A    between atoms: C4_4  and  C5_5 
REMARK    5  A    between atoms: C5_5  and  O1_6 
REMARK    6  A    between atoms: C5_5  and  C6_7 
REMARK    7  A    between atoms: C6_7  and  O2_10 
REMARK    8  A    between atoms: C12_14  and  C13_15 
REMARK    9  A    between atoms: C13_15  and  O4_17 
REMARK   10  A    between atoms: C21_25  and  O5_26 
ROOT
HETATM    1  C9  UNL     1      -9.194  46.985 -30.227  1.00  0.00    -0.001 C 
HETATM    2  C10 UNL     1     -10.049  46.041 -29.340  1.00  0.00     0.007 C 
HETATM    3  C11 UNL     1      -9.298  45.907 -27.989  1.00  0.00     0.022 C 
HETATM    4  C12 UNL     1      -8.273  47.063 -28.003  1.00  0.00     0.057 C 
HETATM    5  C14 UNL     1      -7.042  46.962 -27.058  1.00  0.00     0.010 C 
HETATM    6  C15 UNL     1      -7.387  46.828 -25.563  1.00  0.00     0.010 C 
HETATM    7  C16 UNL     1      -7.290  48.107 -24.732  1.00  0.00     0.036 C 
HETATM    8  C17 UNL     1      -5.887  48.482 -24.271  1.00  0.00    -0.067 C 
HETATM    9  C18 UNL     1      -4.790  48.368 -25.062  1.00  0.00    -0.076 C 
HETATM   10  C19 UNL     1      -3.390  48.670 -24.554  1.00  0.00     0.037 C 
HETATM   11  C20 UNL     1      -3.259  48.780 -23.043  1.00  0.00     0.037 C 
HETATM   12  C21 UNL     1      -4.394  49.611 -22.470  1.00  0.00     0.130 C 
HETATM   13  C22 UNL     1      -5.790  48.991 -22.804  1.00  0.00     0.002 C 
HETATM   14  C23 UNL     1      -6.869  50.060 -22.508  1.00  0.00     0.022 C 
HETATM   15  C24 UNL     1      -6.017  47.790 -21.854  1.00  0.00     0.022 C 
HETATM   16  C25 UNL     1      -4.754  47.990 -26.537  1.00  0.00     0.039 C 
HETATM   17  C26 UNL     1      -6.041  48.110 -27.373  1.00  0.00    -0.005 C 
HETATM   18  C27 UNL     1      -5.667  48.174 -28.879  1.00  0.00     0.006 C 
HETATM   19  C28 UNL     1      -6.862  48.142 -29.847  1.00  0.00     0.011 C 
HETATM   20  C29 UNL     1      -7.809  46.979 -29.519  1.00  0.00    -0.022 C 
HETATM   21  C30 UNL     1      -7.035  45.663 -29.845  1.00  0.00     0.017 C 
ENDROOT
BRANCH   1  22
HETATM   22  C2  UNL     1      -9.345  46.888 -31.771  1.00  0.00    -0.014 C 
HETATM   23  C1  UNL     1     -10.525  45.961 -32.118  1.00  0.00     0.010 C 
BRANCH  22  24
HETATM   24  C3  UNL     1      -8.145  46.569 -32.687  1.00  0.00     0.007 C 
BRANCH  24  25
HETATM   25  C4  UNL     1      -7.210  47.719 -33.047  1.00  0.00     0.035 C 
BRANCH  25  26
HETATM   26  C5  UNL     1      -5.913  47.311 -33.763  1.00  0.00     0.151 C 
BRANCH  26  27
HETATM   27  O1  UNL     1      -5.857  48.095 -34.973  1.00  0.00    -0.393 OA
HETATM   28  H10 UNL     1      -5.093  48.701 -34.890  1.00  0.00     0.210 HD
ENDBRANCH  26  27
BRANCH  26  29
HETATM   29  C6  UNL     1      -4.560  47.463 -33.002  1.00  0.00     0.076 C 
HETATM   30  C7  UNL     1      -3.375  47.689 -33.942  1.00  0.00     0.048 C 
HETATM   31  C8  UNL     1      -4.272  46.315 -32.033  1.00  0.00     0.048 C 
BRANCH  29  32
HETATM   32  O2  UNL     1      -4.660  48.651 -32.184  1.00  0.00    -0.388 OA
HETATM   33  H17 UNL     1      -5.113  49.332 -32.716  1.00  0.00     0.210 HD
ENDBRANCH  29  32
ENDBRANCH  26  29
ENDBRANCH  25  26
ENDBRANCH  24  25
ENDBRANCH  22  24
ENDBRANCH   1  22
BRANCH   4  34
HETATM   34  C13 UNL     1      -9.039  48.369 -27.641  1.00  0.00     0.149 C 
HETATM   35  O3  UNL     1      -9.870  48.532 -26.765  1.00  0.00    -0.649 OA
BRANCH  34  36
HETATM   36  O4  UNL     1      -8.751  49.413 -28.446  1.00  0.00    -0.776 OA
HETATM   37  H23 UNL     1      -9.321  50.133 -28.101  1.00  0.00     0.167 HD
ENDBRANCH  34  36
ENDBRANCH   4  34
BRANCH  12  38
HETATM   38  O5  UNL     1      -4.287  50.952 -22.958  1.00  0.00    -0.394 OA
HETATM   39  H34 UNL     1      -3.412  51.289 -22.704  1.00  0.00     0.210 HD
ENDBRANCH  12  38
TORSDOF 10
ENDMDL
MODEL 8
REMARK minimizedAffinity -7.40487194
REMARK CNNscore 0.386297494
REMARK CNNaffinity 5.64768791
REMARK  10 active torsions:
REMARK  status: ('A' for Active; 'I' for Inactive)
REMARK    1  A    between atoms: C2_2  and  C3_3 
REMARK    2  A    between atoms: C2_2  and  C9_11 
REMARK    3  A    between atoms: C3_3  and  C4_4 
REMARK    4  A    between atoms: C4_4  and  C5_5 
REMARK    5  A    between atoms: C5_5  and  O1_6 
REMARK    6  A    between atoms: C5_5  and  C6_7 
REMARK    7  A    between atoms: C6_7  and  O2_10 
REMARK    8  A    between atoms: C12_14  and  C13_15 
REMARK    9  A    between atoms: C13_15  and  O4_17 
REMARK   10  A    between atoms: C21_25  and  O5_26 
ROOT
HETATM    1  C9  UNL     1     -13.368  46.064 -25.850  1.00  0.00    -0.001 C 
HETATM    2  C10 UNL     1     -12.775  44.645 -25.646  1.00  0.00     0.007 C 
HETATM    3  C11 UNL     1     -11.704  44.451 -26.750  1.00  0.00     0.022 C 
HETATM    4  C12 UNL     1     -11.445  45.876 -27.287  1.00  0.00     0.057 C 
HETATM    5  C14 UNL     1     -10.806  46.024 -28.698  1.00  0.00     0.010 C 
HETATM    6  C15 UNL     1      -9.435  45.343 -28.858  1.00  0.00     0.010 C 
HETATM    7  C16 UNL     1      -8.213  46.256 -28.760  1.00  0.00     0.036 C 
HETATM    8  C17 UNL     1      -7.867  47.024 -30.029  1.00  0.00    -0.067 C 
HETATM    9  C18 UNL     1      -8.802  47.598 -30.828  1.00  0.00    -0.076 C 
HETATM   10  C19 UNL     1      -8.440  48.287 -32.133  1.00  0.00     0.037 C 
HETATM   11  C20 UNL     1      -7.036  48.007 -32.646  1.00  0.00     0.037 C 
HETATM   12  C21 UNL     1      -6.027  48.102 -31.514  1.00  0.00     0.130 C 
HETATM   13  C22 UNL     1      -6.349  47.089 -30.367  1.00  0.00     0.002 C 
HETATM   14  C23 UNL     1      -5.515  47.491 -29.128  1.00  0.00     0.022 C 
HETATM   15  C24 UNL     1      -5.892  45.684 -30.830  1.00  0.00     0.022 C 
HETATM   16  C25 UNL     1     -10.298  47.702 -30.565  1.00  0.00     0.039 C 
HETATM   17  C26 UNL     1     -10.821  47.518 -29.129  1.00  0.00    -0.005 C 
HETATM   18  C27 UNL     1     -12.233  48.154 -29.015  1.00  0.00     0.006 C 
HETATM   19  C28 UNL     1     -12.949  47.913 -27.674  1.00  0.00     0.011 C 
HETATM   20  C29 UNL     1     -12.935  46.424 -27.300  1.00  0.00    -0.022 C 
HETATM   21  C30 UNL     1     -13.842  45.691 -28.338  1.00  0.00     0.017 C 
ENDROOT
BRANCH   1  22
HETATM   22  C2  UNL     1     -14.794  46.356 -25.305  1.00  0.00    -0.014 C 
HETATM   23  C1  UNL     1     -14.692  47.054 -23.936  1.00  0.00     0.010 C 
BRANCH  22  24
HETATM   24  C3  UNL     1     -15.885  45.265 -25.254  1.00  0.00     0.007 C 
BRANCH  24  25
HETATM   25  C4  UNL     1     -17.271  45.634 -25.772  1.00  0.00     0.035 C 
BRANCH  25  26
HETATM   26  C5  UNL     1     -18.435  44.850 -25.145  1.00  0.00     0.151 C 
BRANCH  26  27
HETATM   27  O1  UNL     1     -17.837  43.811 -24.342  1.00  0.00    -0.393 OA
HETATM   28  H10 UNL     1     -18.053  44.007 -23.409  1.00  0.00     0.210 HD
ENDBRANCH  26  27
BRANCH  26  29
HETATM   29  C6  UNL     1     -19.473  45.623 -24.274  1.00  0.00     0.076 C 
HETATM   30  C7  UNL     1     -18.814  46.555 -23.257  1.00  0.00     0.048 C 
HETATM   31  C8  UNL     1     -20.498  44.714 -23.593  1.00  0.00     0.048 C 
BRANCH  29  32
HETATM   32  O2  UNL     1     -20.233  46.470 -25.166  1.00  0.00    -0.388 OA
HETATM   33  H17 UNL     1     -19.605  46.853 -25.808  1.00  0.00     0.210 HD
ENDBRANCH  29  32
ENDBRANCH  26  29
ENDBRANCH  25  26
ENDBRANCH  24  25
ENDBRANCH  22  24
ENDBRANCH   1  22
BRANCH   4  34
HETATM   34  C13 UNL     1     -10.510  46.594 -26.269  1.00  0.00     0.149 C 
HETATM   35  O3  UNL     1     -10.407  47.791 -26.061  1.00  0.00    -0.649 OA
BRANCH  34  36
HETATM   36  O4  UNL     1      -9.702  45.758 -25.585  1.00  0.00    -0.776 OA
HETATM   37  H23 UNL     1      -9.177  46.361 -25.016  1.00  0.00     0.167 HD
ENDBRANCH  34  36
ENDBRANCH   4  34
BRANCH  12  38
HETATM   38  O5  UNL     1      -5.992  49.448 -31.027  1.00  0.00    -0.394 OA
HETATM   39  H34 UNL     1      -5.769  50.026 -31.776  1.00  0.00     0.210 HD
ENDBRANCH  12  38
TORSDOF 10
ENDMDL
MODEL 9
REMARK minimizedAffinity -9.04797268
REMARK CNNscore 0.374857575
REMARK CNNaffinity 6.70777273
REMARK  10 active torsions:
REMARK  status: ('A' for Active; 'I' for Inactive)
REMARK    1  A    between atoms: C2_2  and  C3_3 
REMARK    2  A    between atoms: C2_2  and  C9_11 
REMARK    3  A    between atoms: C3_3  and  C4_4 
REMARK    4  A    between atoms: C4_4  and  C5_5 
REMARK    5  A    between atoms: C5_5  and  O1_6 
REMARK    6  A    between atoms: C5_5  and  C6_7 
REMARK    7  A    between atoms: C6_7  and  O2_10 
REMARK    8  A    between atoms: C12_14  and  C13_15 
REMARK    9  A    between atoms: C13_15  and  O4_17 
REMARK   10  A    between atoms: C21_25  and  O5_26 
ROOT
HETATM    1  C9  UNL     1      -2.148  51.189 -21.217  1.00  0.00    -0.001 C 
HETATM    2  C10 UNL     1      -2.511  49.698 -20.992  1.00  0.00     0.007 C 
HETATM    3  C11 UNL     1      -1.683  49.222 -19.769  1.00  0.00     0.022 C 
HETATM    4  C12 UNL     1      -1.190  50.528 -19.109  1.00  0.00     0.057 C 
HETATM    5  C14 UNL     1       0.041  50.451 -18.161  1.00  0.00     0.010 C 
HETATM    6  C15 UNL     1      -0.129  49.502 -16.960  1.00  0.00     0.010 C 
HETATM    7  C16 UNL     1      -0.483  50.160 -15.627  1.00  0.00     0.036 C 
HETATM    8  C17 UNL     1       0.690  50.757 -14.860  1.00  0.00    -0.067 C 
HETATM    9  C18 UNL     1       1.693  51.449 -15.458  1.00  0.00    -0.076 C 
HETATM   10  C19 UNL     1       2.895  51.964 -14.684  1.00  0.00     0.037 C 
HETATM   11  C20 UNL     1       3.069  51.378 -13.292  1.00  0.00     0.037 C 
HETATM   12  C21 UNL     1       1.740  51.347 -12.558  1.00  0.00     0.130 C 
HETATM   13  C22 UNL     1       0.675  50.497 -13.326  1.00  0.00     0.002 C 
HETATM   14  C23 UNL     1      -0.713  50.808 -12.717  1.00  0.00     0.022 C 
HETATM   15  C24 UNL     1       0.993  49.001 -13.081  1.00  0.00     0.022 C 
HETATM   16  C25 UNL     1       1.779  51.866 -16.920  1.00  0.00     0.039 C 
HETATM   17  C26 UNL     1       0.496  51.886 -17.770  1.00  0.00    -0.005 C 
HETATM   18  C27 UNL     1       0.719  52.796 -19.009  1.00  0.00     0.006 C 
HETATM   19  C28 UNL     1      -0.428  52.791 -20.034  1.00  0.00     0.011 C 
HETATM   20  C29 UNL     1      -0.827  51.358 -20.413  1.00  0.00    -0.022 C 
HETATM   21  C30 UNL     1       0.375  50.751 -21.204  1.00  0.00     0.017 C 
ENDROOT
BRANCH   1  22
HETATM   22  C2  UNL     1      -2.347  51.795 -22.634  1.00  0.00    -0.014 C 
HETATM   23  C1  UNL     1      -3.847  52.038 -22.887  1.00  0.00     0.010 C 
BRANCH  22  24
HETATM   24  C3  UNL     1      -1.705  51.162 -23.887  1.00  0.00     0.007 C 
BRANCH  24  25
HETATM   25  C4  UNL     1      -1.742  51.970 -25.180  1.00  0.00     0.035 C 
BRANCH  25  26
HETATM   26  C5  UNL     1      -0.983  51.350 -26.364  1.00  0.00     0.151 C 
BRANCH  26  27
HETATM   27  O1  UNL     1      -1.848  51.480 -27.511  1.00  0.00    -0.393 OA
HETATM   28  H10 UNL     1      -1.413  52.097 -28.132  1.00  0.00     0.210 HD
ENDBRANCH  26  27
BRANCH  26  29
HETATM   29  C6  UNL     1       0.424  51.917 -26.728  1.00  0.00     0.076 C 
HETATM   30  C7  UNL     1       0.566  52.234 -28.217  1.00  0.00     0.048 C 
HETATM   31  C8  UNL     1       1.581  51.038 -26.248  1.00  0.00     0.048 C 
BRANCH  29  32
HETATM   32  O2  UNL     1       0.573  53.174 -26.031  1.00  0.00    -0.388 OA
HETATM   33  H17 UNL     1      -0.282  53.643 -26.092  1.00  0.00     0.210 HD
ENDBRANCH  29  32
ENDBRANCH  26  29
ENDBRANCH  25  26
ENDBRANCH  24  25
ENDBRANCH  22  24
ENDBRANCH   1  22
BRANCH   4  34
HETATM   34  C13 UNL     1      -2.379  51.114 -18.290  1.00  0.00     0.149 C 
HETATM   35  O3  UNL     1      -2.989  50.588 -17.375  1.00  0.00    -0.649 OA
BRANCH  34  36
HETATM   36  O4  UNL     1      -2.777  52.334 -18.702  1.00  0.00    -0.776 OA
HETATM   37  H23 UNL     1      -3.530  52.543 -18.108  1.00  0.00     0.167 HD
ENDBRANCH  34  36
ENDBRANCH   4  34
BRANCH  12  38
HETATM   38  O5  UNL     1       1.286  52.688 -12.350  1.00  0.00    -0.394 OA
HETATM   39  H34 UNL     1       1.976  53.159 -11.854  1.00  0.00     0.210 HD
ENDBRANCH  12  38
TORSDOF 10
ENDMDL
