MODEL 1
REMARK minimizedAffinity -8.6080637
REMARK  11 active torsions:
REMARK  status: ('A' for Active; 'I' for Inactive)
REMARK    1  A    between atoms: C3_3  and  C4_4 
REMARK    2  A    between atoms: C5_5  and  C6_6 
REMARK    3  A    between atoms: C6_6  and  O1_7 
REMARK       I    between atoms: N1_12  and  C11_13 
REMARK    4  A    between atoms: C11_13  and  C12_15 
REMARK    5  A    between atoms: C12_15  and  C14_17 
REMARK    6  A    between atoms: C14_17  and  C15_19 
REMARK    7  A    between atoms: C15_19  and  C16_20 
REMARK    8  A    between atoms: C16_20  and  C17_21 
REMARK    9  A    between atoms: C17_21  and  C18_22 
REMARK   10  A    between atoms: C18_22  and  C19_23 
REMARK   11  A    between atoms: C27_32  and  O5_34 
ROOT
HETATM    1  C6  UNL     1       1.162   7.766  11.026  1.00  0.00     0.069 C 
HETATM    2  C7  UNL     1       0.666   7.840  12.280  1.00  0.00    -0.026 C 
HETATM    3  C8  UNL     1      -0.393   8.905  12.676  1.00  0.00     0.044 C 
HETATM    4  C9  UNL     1      -1.631   8.929  11.751  1.00  0.00     0.031 C 
HETATM    5  C10 UNL     1      -2.671   8.102  12.478  1.00  0.00     0.127 C 
HETATM    6  N1  UNL     1      -2.466   8.455  13.867  1.00  0.00    -0.344 N 
HETATM    7  C11 UNL     1      -3.467   8.743  14.779  1.00  0.00     0.231 C 
HETATM    8  O2  UNL     1      -3.253   9.455  15.761  1.00  0.00    -0.273 OA
HETATM    9  C22 UNL     1      -1.061   8.821  14.118  1.00  0.00     0.118 C 
HETATM   10  C23 UNL     1      -0.333   7.848  15.067  1.00  0.00     0.102 C 
HETATM   11  C24 UNL     1      -0.977   7.488  16.392  1.00  0.00     0.034 C 
HETATM   12  C25 UNL     1      -0.033   6.633  14.220  1.00  0.00     0.156 C 
HETATM   13  O4  UNL     1      -0.731   5.639  14.097  1.00  0.00    -0.296 OA
HETATM   14  C26 UNL     1       1.189   6.939  13.395  1.00  0.00     0.130 C 
HETATM   15  C27 UNL     1       2.085   7.657  14.434  1.00  0.00     0.130 C 
HETATM   16  C28 UNL     1       3.138   8.594  13.848  1.00  0.00     0.055 C 
HETATM   17  C29 UNL     1       1.063   8.406  15.290  1.00  0.00     0.179 C 
HETATM   18  O6  UNL     1       1.346   9.326  16.048  1.00  0.00    -0.293 OA
ENDROOT
BRANCH   7  19
HETATM   19  C12 UNL     1      -4.859   8.189  14.503  1.00  0.00     0.143 C 
HETATM   20  C13 UNL     1      -5.861   9.070  15.250  1.00  0.00     0.028 C 
BRANCH  19  21
HETATM   21  C14 UNL     1      -4.951   6.705  14.852  1.00  0.00     0.139 C 
HETATM   22  O3  UNL     1      -3.939   6.021  15.040  1.00  0.00    -0.297 OA
BRANCH  21  23
HETATM   23  C15 UNL     1      -6.300   6.014  14.802  1.00  0.00     0.079 C 
BRANCH  23  24
HETATM   24  C16 UNL     1      -6.965   6.220  13.443  1.00  0.00     0.008 C 
BRANCH  24  25
HETATM   25  C17 UNL     1      -7.315   4.905  12.745  1.00  0.00     0.004 C 
BRANCH  25  26
HETATM   26  C18 UNL     1      -6.422   3.733  13.169  1.00  0.00     0.027 C 
BRANCH  26  27
HETATM   27  C19 UNL     1      -5.331   3.502  12.164  1.00  0.00    -0.031 C 
HETATM   28  C20 UNL     1      -5.160   2.443  11.359  1.00  0.00    -0.035 C 
HETATM   29  C21 UNL     1      -6.006   1.213  11.262  1.00  0.00     0.036 C 
ENDBRANCH  26  27
ENDBRANCH  25  26
ENDBRANCH  24  25
ENDBRANCH  23  24
ENDBRANCH  21  23
ENDBRANCH  19  21
ENDBRANCH   7  19
BRANCH   1  30
HETATM   30  C5  UNL     1       2.200   6.851  10.592  1.00  0.00     0.037 C 
HETATM   31  C4  UNL     1       3.142   7.053   9.651  1.00  0.00     0.002 C 
BRANCH  31  32
HETATM   32  C3  UNL     1       3.228   8.187   8.758  1.00  0.00    -0.004 C 
HETATM   33  C2  UNL     1       2.668   8.284   7.543  1.00  0.00    -0.031 C 
HETATM   34  C1  UNL     1       1.879   7.259   6.793  1.00  0.00     0.036 C 
ENDBRANCH  31  32
ENDBRANCH   1  30
BRANCH   1  35
HETATM   35  O1  UNL     1       0.796   8.712  10.088  1.00  0.00    -0.360 OA
HETATM   36  H8  UNL     1       1.262   8.511   9.255  1.00  0.00     0.217 HD
ENDBRANCH   1  35
BRANCH  15  37
HETATM   37  O5  UNL     1       2.736   6.671  15.232  1.00  0.00    -0.381 OA
HETATM   38  H39 UNL     1       3.380   7.117  15.817  1.00  0.00     0.211 HD
ENDBRANCH  15  37
TORSDOF 11
ENDMDL
MODEL 2
REMARK minimizedAffinity -8.5870657
REMARK  11 active torsions:
REMARK  status: ('A' for Active; 'I' for Inactive)
REMARK    1  A    between atoms: C3_3  and  C4_4 
REMARK    2  A    between atoms: C5_5  and  C6_6 
REMARK    3  A    between atoms: C6_6  and  O1_7 
REMARK       I    between atoms: N1_12  and  C11_13 
REMARK    4  A    between atoms: C11_13  and  C12_15 
REMARK    5  A    between atoms: C12_15  and  C14_17 
REMARK    6  A    between atoms: C14_17  and  C15_19 
REMARK    7  A    between atoms: C15_19  and  C16_20 
REMARK    8  A    between atoms: C16_20  and  C17_21 
REMARK    9  A    between atoms: C17_21  and  C18_22 
REMARK   10  A    between atoms: C18_22  and  C19_23 
REMARK   11  A    between atoms: C27_32  and  O5_34 
ROOT
HETATM    1  C6  UNL     1      -0.832   6.029  13.297  1.00  0.00     0.069 C 
HETATM    2  C7  UNL     1      -1.434   7.069  13.912  1.00  0.00    -0.026 C 
HETATM    3  C8  UNL     1      -1.277   7.316  15.437  1.00  0.00     0.044 C 
HETATM    4  C9  UNL     1       0.193   7.362  15.914  1.00  0.00     0.031 C 
HETATM    5  C10 UNL     1       0.532   8.837  15.974  1.00  0.00     0.127 C 
HETATM    6  N1  UNL     1      -0.688   9.440  16.467  1.00  0.00    -0.344 N 
HETATM    7  C11 UNL     1      -0.764  10.412  17.451  1.00  0.00     0.231 C 
HETATM    8  O2  UNL     1      -1.778  10.551  18.136  1.00  0.00    -0.273 OA
HETATM    9  C22 UNL     1      -1.867   8.656  16.061  1.00  0.00     0.118 C 
HETATM   10  C23 UNL     1      -2.805   9.410  15.096  1.00  0.00     0.102 C 
HETATM   11  C24 UNL     1      -3.264  10.810  15.457  1.00  0.00     0.034 C 
HETATM   12  C25 UNL     1      -2.108   9.356  13.758  1.00  0.00     0.156 C 
HETATM   13  O4  UNL     1      -1.336  10.187  13.303  1.00  0.00    -0.296 OA
HETATM   14  C26 UNL     1      -2.375   8.002  13.155  1.00  0.00     0.130 C 
HETATM   15  C27 UNL     1      -3.875   7.812  13.489  1.00  0.00     0.130 C 
HETATM   16  C28 UNL     1      -4.351   6.362  13.544  1.00  0.00     0.055 C 
HETATM   17  C29 UNL     1      -4.003   8.509  14.845  1.00  0.00     0.179 C 
HETATM   18  O6  UNL     1      -4.946   8.353  15.610  1.00  0.00    -0.293 OA
ENDROOT
BRANCH   7  19
HETATM   19  C12 UNL     1       0.468  11.274  17.692  1.00  0.00     0.143 C 
HETATM   20  C13 UNL     1       1.182  11.441  16.349  1.00  0.00     0.028 C 
BRANCH  19  21
HETATM   21  C14 UNL     1       1.348  10.698  18.800  1.00  0.00     0.139 C 
HETATM   22  O3  UNL     1       2.297   9.949  18.548  1.00  0.00    -0.297 OA
BRANCH  21  23
HETATM   23  C15 UNL     1       0.951  10.912  20.248  1.00  0.00     0.079 C 
BRANCH  23  24
HETATM   24  C16 UNL     1       1.726  12.079  20.855  1.00  0.00     0.008 C 
BRANCH  24  25
HETATM   25  C17 UNL     1       3.100  11.668  21.388  1.00  0.00     0.004 C 
BRANCH  25  26
HETATM   26  C18 UNL     1       3.096  11.323  22.881  1.00  0.00     0.027 C 
BRANCH  26  27
HETATM   27  C19 UNL     1       3.870  10.063  23.140  1.00  0.00    -0.031 C 
HETATM   28  C20 UNL     1       3.452   8.794  23.010  1.00  0.00    -0.035 C 
HETATM   29  C21 UNL     1       2.104   8.308  22.583  1.00  0.00     0.036 C 
ENDBRANCH  26  27
ENDBRANCH  25  26
ENDBRANCH  24  25
ENDBRANCH  23  24
ENDBRANCH  21  23
ENDBRANCH  19  21
ENDBRANCH   7  19
BRANCH   1  30
HETATM   30  C5  UNL     1      -0.982   5.687  11.895  1.00  0.00     0.037 C 
HETATM   31  C4  UNL     1      -0.255   6.131  10.852  1.00  0.00     0.002 C 
BRANCH  31  32
HETATM   32  C3  UNL     1       0.748   7.172  10.891  1.00  0.00    -0.004 C 
HETATM   33  C2  UNL     1       0.812   8.242  10.086  1.00  0.00    -0.031 C 
HETATM   34  C1  UNL     1      -0.076   8.604   8.938  1.00  0.00     0.036 C 
ENDBRANCH  31  32
ENDBRANCH   1  30
BRANCH   1  35
HETATM   35  O1  UNL     1      -0.131   5.103  14.046  1.00  0.00    -0.360 OA
HETATM   36  H8  UNL     1       0.216   4.422  13.440  1.00  0.00     0.217 HD
ENDBRANCH   1  35
BRANCH  15  37
HETATM   37  O5  UNL     1      -4.650   8.517  12.522  1.00  0.00    -0.381 OA
HETATM   38  H39 UNL     1      -5.595   8.312  12.669  1.00  0.00     0.211 HD
ENDBRANCH  15  37
TORSDOF 11
ENDMDL
MODEL 3
REMARK minimizedAffinity -8.54163933
REMARK  11 active torsions:
REMARK  status: ('A' for Active; 'I' for Inactive)
REMARK    1  A    between atoms: C3_3  and  C4_4 
REMARK    2  A    between atoms: C5_5  and  C6_6 
REMARK    3  A    between atoms: C6_6  and  O1_7 
REMARK       I    between atoms: N1_12  and  C11_13 
REMARK    4  A    between atoms: C11_13  and  C12_15 
REMARK    5  A    between atoms: C12_15  and  C14_17 
REMARK    6  A    between atoms: C14_17  and  C15_19 
REMARK    7  A    between atoms: C15_19  and  C16_20 
REMARK    8  A    between atoms: C16_20  and  C17_21 
REMARK    9  A    between atoms: C17_21  and  C18_22 
REMARK   10  A    between atoms: C18_22  and  C19_23 
REMARK   11  A    between atoms: C27_32  and  O5_34 
ROOT
HETATM    1  C6  UNL     1      -1.048   5.986  13.355  1.00  0.00     0.069 C 
HETATM    2  C7  UNL     1      -1.629   7.037  13.972  1.00  0.00    -0.026 C 
HETATM    3  C8  UNL     1      -1.433   7.302  15.490  1.00  0.00     0.044 C 
HETATM    4  C9  UNL     1       0.047   7.344  15.931  1.00  0.00     0.031 C 
HETATM    5  C10 UNL     1       0.397   8.818  15.964  1.00  0.00     0.127 C 
HETATM    6  N1  UNL     1      -0.808   9.434  16.479  1.00  0.00    -0.344 N 
HETATM    7  C11 UNL     1      -0.854  10.418  17.452  1.00  0.00     0.231 C 
HETATM    8  O2  UNL     1      -1.851  10.572  18.159  1.00  0.00    -0.273 OA
HETATM    9  C22 UNL     1      -2.001   8.652  16.111  1.00  0.00     0.118 C 
HETATM   10  C23 UNL     1      -2.957   9.401  15.160  1.00  0.00     0.102 C 
HETATM   11  C24 UNL     1      -3.399  10.808  15.514  1.00  0.00     0.034 C 
HETATM   12  C25 UNL     1      -2.293   9.326  13.805  1.00  0.00     0.156 C 
HETATM   13  O4  UNL     1      -1.528  10.146  13.322  1.00  0.00    -0.296 OA
HETATM   14  C26 UNL     1      -2.582   7.967  13.226  1.00  0.00     0.130 C 
HETATM   15  C27 UNL     1      -4.074   7.789  13.599  1.00  0.00     0.130 C 
HETATM   16  C28 UNL     1      -4.557   6.344  13.682  1.00  0.00     0.055 C 
HETATM   17  C29 UNL     1      -4.166   8.503  14.948  1.00  0.00     0.179 C 
HETATM   18  O6  UNL     1      -5.091   8.363  15.738  1.00  0.00    -0.293 OA
ENDROOT
BRANCH   7  19
HETATM   19  C12 UNL     1       0.388  11.276  17.653  1.00  0.00     0.143 C 
HETATM   20  C13 UNL     1       1.022  11.495  16.278  1.00  0.00     0.028 C 
BRANCH  19  21
HETATM   21  C14 UNL     1       1.332  10.662  18.685  1.00  0.00     0.139 C 
HETATM   22  O3  UNL     1       2.272   9.935  18.350  1.00  0.00    -0.297 OA
BRANCH  21  23
HETATM   23  C15 UNL     1       1.014  10.810  20.161  1.00  0.00     0.079 C 
BRANCH  23  24
HETATM   24  C16 UNL     1       2.295  10.915  20.983  1.00  0.00     0.008 C 
BRANCH  24  25
HETATM   25  C17 UNL     1       2.475   9.749  21.958  1.00  0.00     0.004 C 
BRANCH  25  26
HETATM   26  C18 UNL     1       3.094  10.164  23.297  1.00  0.00     0.027 C 
BRANCH  26  27
HETATM   27  C19 UNL     1       4.589  10.240  23.193  1.00  0.00    -0.031 C 
HETATM   28  C20 UNL     1       5.350  11.328  22.994  1.00  0.00    -0.035 C 
HETATM   29  C21 UNL     1       4.903  12.743  22.814  1.00  0.00     0.036 C 
ENDBRANCH  26  27
ENDBRANCH  25  26
ENDBRANCH  24  25
ENDBRANCH  23  24
ENDBRANCH  21  23
ENDBRANCH  19  21
ENDBRANCH   7  19
BRANCH   1  30
HETATM   30  C5  UNL     1      -1.233   5.628  11.962  1.00  0.00     0.037 C 
HETATM   31  C4  UNL     1      -1.996   4.641  11.454  1.00  0.00     0.002 C 
BRANCH  31  32
HETATM   32  C3  UNL     1      -2.686   3.620  12.210  1.00  0.00    -0.004 C 
HETATM   33  C2  UNL     1      -3.847   3.037  11.880  1.00  0.00    -0.031 C 
HETATM   34  C1  UNL     1      -4.735   3.318  10.710  1.00  0.00     0.036 C 
ENDBRANCH  31  32
ENDBRANCH   1  30
BRANCH   1  35
HETATM   35  O1  UNL     1      -0.335   5.065  14.098  1.00  0.00    -0.360 OA
HETATM   36  H8  UNL     1      -0.007   4.374  13.492  1.00  0.00     0.217 HD
ENDBRANCH   1  35
BRANCH  15  37
HETATM   37  O5  UNL     1      -4.869   8.487  12.642  1.00  0.00    -0.381 OA
HETATM   38  H39 UNL     1      -5.811   8.291  12.813  1.00  0.00     0.211 HD
ENDBRANCH  15  37
TORSDOF 11
ENDMDL
MODEL 4
REMARK minimizedAffinity -8.44404316
REMARK  11 active torsions:
REMARK  status: ('A' for Active; 'I' for Inactive)
REMARK    1  A    between atoms: C3_3  and  C4_4 
REMARK    2  A    between atoms: C5_5  and  C6_6 
REMARK    3  A    between atoms: C6_6  and  O1_7 
REMARK       I    between atoms: N1_12  and  C11_13 
REMARK    4  A    between atoms: C11_13  and  C12_15 
REMARK    5  A    between atoms: C12_15  and  C14_17 
REMARK    6  A    between atoms: C14_17  and  C15_19 
REMARK    7  A    between atoms: C15_19  and  C16_20 
REMARK    8  A    between atoms: C16_20  and  C17_21 
REMARK    9  A    between atoms: C17_21  and  C18_22 
REMARK   10  A    between atoms: C18_22  and  C19_23 
REMARK   11  A    between atoms: C27_32  and  O5_34 
ROOT
HETATM    1  C6  UNL     1      -0.932   6.030  13.315  1.00  0.00     0.069 C 
HETATM    2  C7  UNL     1      -1.515   7.079  13.933  1.00  0.00    -0.026 C 
HETATM    3  C8  UNL     1      -1.332   7.333  15.455  1.00  0.00     0.044 C 
HETATM    4  C9  UNL     1       0.145   7.369  15.909  1.00  0.00     0.031 C 
HETATM    5  C10 UNL     1       0.499   8.841  15.954  1.00  0.00     0.127 C 
HETATM    6  N1  UNL     1      -0.709   9.458  16.462  1.00  0.00    -0.344 N 
HETATM    7  C11 UNL     1      -0.761  10.436  17.442  1.00  0.00     0.231 C 
HETATM    8  O2  UNL     1      -1.763  10.588  18.141  1.00  0.00    -0.273 OA
HETATM    9  C22 UNL     1      -1.901   8.682  16.080  1.00  0.00     0.118 C 
HETATM   10  C23 UNL     1      -2.847   9.439  15.125  1.00  0.00     0.102 C 
HETATM   11  C24 UNL     1      -3.287  10.845  15.485  1.00  0.00     0.034 C 
HETATM   12  C25 UNL     1      -2.171   9.371  13.776  1.00  0.00     0.156 C 
HETATM   13  O4  UNL     1      -1.400  10.192  13.304  1.00  0.00    -0.296 OA
HETATM   14  C26 UNL     1      -2.460   8.016  13.186  1.00  0.00     0.130 C 
HETATM   15  C27 UNL     1      -3.955   7.841  13.544  1.00  0.00     0.130 C 
HETATM   16  C28 UNL     1      -4.443   6.396  13.615  1.00  0.00     0.055 C 
HETATM   17  C29 UNL     1      -4.056   8.547  14.898  1.00  0.00     0.179 C 
HETATM   18  O6  UNL     1      -4.989   8.404  15.679  1.00  0.00    -0.293 OA
ENDROOT
BRANCH   7  19
HETATM   19  C12 UNL     1       0.483  11.289  17.658  1.00  0.00     0.143 C 
HETATM   20  C13 UNL     1       1.076  11.594  16.282  1.00  0.00     0.028 C 
BRANCH  19  21
HETATM   21  C14 UNL     1       1.459  10.622  18.625  1.00  0.00     0.139 C 
HETATM   22  O3  UNL     1       2.338   9.850  18.227  1.00  0.00    -0.297 OA
BRANCH  21  23
HETATM   23  C15 UNL     1       1.243  10.775  20.119  1.00  0.00     0.079 C 
BRANCH  23  24
HETATM   24  C16 UNL     1       2.569  10.679  20.869  1.00  0.00     0.008 C 
BRANCH  24  25
HETATM   25  C17 UNL     1       2.508   9.732  22.069  1.00  0.00     0.004 C 
BRANCH  25  26
HETATM   26  C18 UNL     1       3.201  10.285  23.319  1.00  0.00     0.027 C 
BRANCH  26  27
HETATM   27  C19 UNL     1       3.438  11.762  23.188  1.00  0.00    -0.031 C 
HETATM   28  C20 UNL     1       4.608  12.400  23.032  1.00  0.00    -0.035 C 
HETATM   29  C21 UNL     1       5.979  11.806  22.958  1.00  0.00     0.036 C 
ENDBRANCH  26  27
ENDBRANCH  25  26
ENDBRANCH  24  25
ENDBRANCH  23  24
ENDBRANCH  21  23
ENDBRANCH  19  21
ENDBRANCH   7  19
BRANCH   1  30
HETATM   30  C5  UNL     1      -1.106   5.682  11.918  1.00  0.00     0.037 C 
HETATM   31  C4  UNL     1      -0.369   6.084  10.865  1.00  0.00     0.002 C 
BRANCH  31  32
HETATM   32  C3  UNL     1       0.677   7.081  10.887  1.00  0.00    -0.004 C 
HETATM   33  C2  UNL     1       0.782   8.139  10.070  1.00  0.00    -0.031 C 
HETATM   34  C1  UNL     1      -0.097   8.526   8.924  1.00  0.00     0.036 C 
ENDBRANCH  31  32
ENDBRANCH   1  30
BRANCH   1  35
HETATM   35  O1  UNL     1      -0.228   5.102  14.058  1.00  0.00    -0.360 OA
HETATM   36  H8  UNL     1       0.104   4.414  13.451  1.00  0.00     0.217 HD
ENDBRANCH   1  35
BRANCH  15  37
HETATM   37  O5  UNL     1      -4.740   8.547  12.585  1.00  0.00    -0.381 OA
HETATM   38  H39 UNL     1      -5.683   8.352  12.748  1.00  0.00     0.211 HD
ENDBRANCH  15  37
TORSDOF 11
ENDMDL
MODEL 5
REMARK minimizedAffinity -8.26167488
REMARK  11 active torsions:
REMARK  status: ('A' for Active; 'I' for Inactive)
REMARK    1  A    between atoms: C3_3  and  C4_4 
REMARK    2  A    between atoms: C5_5  and  C6_6 
REMARK    3  A    between atoms: C6_6  and  O1_7 
REMARK       I    between atoms: N1_12  and  C11_13 
REMARK    4  A    between atoms: C11_13  and  C12_15 
REMARK    5  A    between atoms: C12_15  and  C14_17 
REMARK    6  A    between atoms: C14_17  and  C15_19 
REMARK    7  A    between atoms: C15_19  and  C16_20 
REMARK    8  A    between atoms: C16_20  and  C17_21 
REMARK    9  A    between atoms: C17_21  and  C18_22 
REMARK   10  A    between atoms: C18_22  and  C19_23 
REMARK   11  A    between atoms: C27_32  and  O5_34 
ROOT
HETATM    1  C6  UNL     1      -4.836   7.631  15.462  1.00  0.00     0.069 C 
HETATM    2  C7  UNL     1      -3.554   7.924  15.158  1.00  0.00    -0.026 C 
HETATM    3  C8  UNL     1      -2.435   6.848  15.219  1.00  0.00     0.044 C 
HETATM    4  C9  UNL     1      -2.757   5.566  14.418  1.00  0.00     0.031 C 
HETATM    5  C10 UNL     1      -2.049   5.754  13.091  1.00  0.00     0.127 C 
HETATM    6  N1  UNL     1      -0.810   6.404  13.464  1.00  0.00    -0.344 N 
HETATM    7  C11 UNL     1       0.446   6.075  12.983  1.00  0.00     0.231 C 
HETATM    8  O2  UNL     1       1.463   6.316  13.634  1.00  0.00    -0.273 OA
HETATM    9  C22 UNL     1      -0.985   7.219  14.679  1.00  0.00     0.118 C 
HETATM   10  C23 UNL     1      -0.798   8.731  14.436  1.00  0.00     0.102 C 
HETATM   11  C24 UNL     1       0.443   9.214  13.711  1.00  0.00     0.034 C 
HETATM   12  C25 UNL     1      -2.074   9.175  13.760  1.00  0.00     0.156 C 
HETATM   13  O4  UNL     1      -2.280   9.234  12.558  1.00  0.00    -0.296 OA
HETATM   14  C26 UNL     1      -3.122   9.350  14.827  1.00  0.00     0.130 C 
HETATM   15  C27 UNL     1      -2.307  10.050  15.942  1.00  0.00     0.130 C 
HETATM   16  C28 UNL     1      -2.859   9.881  17.355  1.00  0.00     0.055 C 
HETATM   17  C29 UNL     1      -0.923   9.416  15.788  1.00  0.00     0.179 C 
HETATM   18  O6  UNL     1      -0.047   9.464  16.642  1.00  0.00    -0.293 OA
ENDROOT
BRANCH   7  19
HETATM   19  C12 UNL     1       0.526   5.363  11.639  1.00  0.00     0.143 C 
HETATM   20  C13 UNL     1       0.198   6.389  10.554  1.00  0.00     0.028 C 
BRANCH  19  21
HETATM   21  C14 UNL     1      -0.360   4.119  11.610  1.00  0.00     0.139 C 
HETATM   22  O3  UNL     1      -0.038   3.081  12.198  1.00  0.00    -0.297 OA
BRANCH  21  23
HETATM   23  C15 UNL     1      -1.579   4.098  10.707  1.00  0.00     0.079 C 
BRANCH  23  24
HETATM   24  C16 UNL     1      -2.442   2.871  10.992  1.00  0.00     0.008 C 
BRANCH  24  25
HETATM   25  C17 UNL     1      -3.938   3.190  11.023  1.00  0.00     0.004 C 
BRANCH  25  26
HETATM   26  C18 UNL     1      -4.540   3.155  12.432  1.00  0.00     0.027 C 
BRANCH  26  27
HETATM   27  C19 UNL     1      -5.622   4.185  12.576  1.00  0.00    -0.031 C 
HETATM   28  C20 UNL     1      -6.932   3.984  12.785  1.00  0.00    -0.035 C 
HETATM   29  C21 UNL     1      -7.654   2.681  12.918  1.00  0.00     0.036 C 
ENDBRANCH  26  27
ENDBRANCH  25  26
ENDBRANCH  24  25
ENDBRANCH  23  24
ENDBRANCH  21  23
ENDBRANCH  19  21
ENDBRANCH   7  19
BRANCH   1  30
HETATM   30  C5  UNL     1      -5.925   8.588  15.498  1.00  0.00     0.037 C 
HETATM   31  C4  UNL     1      -7.207   8.399  15.131  1.00  0.00     0.002 C 
BRANCH  31  32
HETATM   32  C3  UNL     1      -7.743   7.227  14.476  1.00  0.00    -0.004 C 
HETATM   33  C2  UNL     1      -9.039   6.891  14.386  1.00  0.00    -0.031 C 
HETATM   34  C1  UNL     1     -10.228   7.588  14.967  1.00  0.00     0.036 C 
ENDBRANCH  31  32
ENDBRANCH   1  30
BRANCH   1  35
HETATM   35  O1  UNL     1      -5.159   6.371  15.929  1.00  0.00    -0.360 OA
HETATM   36  H8  UNL     1      -6.117   6.351  16.111  1.00  0.00     0.217 HD
ENDBRANCH   1  35
BRANCH  15  37
HETATM   37  O5  UNL     1      -2.224  11.441  15.641  1.00  0.00    -0.381 OA
HETATM   38  H39 UNL     1      -1.802  11.900  16.393  1.00  0.00     0.211 HD
ENDBRANCH  15  37
TORSDOF 11
ENDMDL
MODEL 6
REMARK minimizedAffinity -8.13711452
REMARK  11 active torsions:
REMARK  status: ('A' for Active; 'I' for Inactive)
REMARK    1  A    between atoms: C3_3  and  C4_4 
REMARK    2  A    between atoms: C5_5  and  C6_6 
REMARK    3  A    between atoms: C6_6  and  O1_7 
REMARK       I    between atoms: N1_12  and  C11_13 
REMARK    4  A    between atoms: C11_13  and  C12_15 
REMARK    5  A    between atoms: C12_15  and  C14_17 
REMARK    6  A    between atoms: C14_17  and  C15_19 
REMARK    7  A    between atoms: C15_19  and  C16_20 
REMARK    8  A    between atoms: C16_20  and  C17_21 
REMARK    9  A    between atoms: C17_21  and  C18_22 
REMARK   10  A    between atoms: C18_22  and  C19_23 
REMARK   11  A    between atoms: C27_32  and  O5_34 
ROOT
HETATM    1  C6  UNL     1      -3.077   6.102  13.220  1.00  0.00     0.069 C 
HETATM    2  C7  UNL     1      -2.093   6.989  13.480  1.00  0.00    -0.026 C 
HETATM    3  C8  UNL     1      -2.333   8.522  13.396  1.00  0.00     0.044 C 
HETATM    4  C9  UNL     1      -3.545   9.010  14.222  1.00  0.00     0.031 C 
HETATM    5  C10 UNL     1      -2.949   9.507  15.523  1.00  0.00     0.127 C 
HETATM    6  N1  UNL     1      -1.715  10.140  15.103  1.00  0.00    -0.344 N 
HETATM    7  C11 UNL     1      -1.250  11.366  15.548  1.00  0.00     0.231 C 
HETATM    8  O2  UNL     1      -0.487  12.048  14.863  1.00  0.00    -0.273 OA
HETATM    9  C22 UNL     1      -1.182   9.505  13.886  1.00  0.00     0.118 C 
HETATM   10  C23 UNL     1       0.169   8.794  14.105  1.00  0.00     0.102 C 
HETATM   11  C24 UNL     1       1.297   9.546  14.785  1.00  0.00     0.034 C 
HETATM   12  C25 UNL     1      -0.181   7.508  14.816  1.00  0.00     0.156 C 
HETATM   13  O4  UNL     1      -0.218   7.329  16.024  1.00  0.00    -0.296 OA
HETATM   14  C26 UNL     1      -0.669   6.529  13.782  1.00  0.00     0.130 C 
HETATM   15  C27 UNL     1       0.340   6.772  12.633  1.00  0.00     0.130 C 
HETATM   16  C28 UNL     1      -0.153   6.390  11.240  1.00  0.00     0.055 C 
HETATM   17  C29 UNL     1       0.621   8.271  12.751  1.00  0.00     0.179 C 
HETATM   18  O6  UNL     1       1.139   8.944  11.869  1.00  0.00    -0.293 OA
ENDROOT
BRANCH   7  19
HETATM   19  C12 UNL     1      -1.750  11.867  16.897  1.00  0.00     0.143 C 
HETATM   20  C13 UNL     1      -1.359  13.342  17.013  1.00  0.00     0.028 C 
BRANCH  19  21
HETATM   21  C14 UNL     1      -1.243  10.995  18.043  1.00  0.00     0.139 C 
HETATM   22  O3  UNL     1      -2.006  10.566  18.916  1.00  0.00    -0.297 OA
BRANCH  21  23
HETATM   23  C15 UNL     1       0.249  10.785  18.211  1.00  0.00     0.079 C 
BRANCH  23  24
HETATM   24  C16 UNL     1       0.777  11.581  19.402  1.00  0.00     0.008 C 
BRANCH  24  25
HETATM   25  C17 UNL     1       1.231  10.691  20.560  1.00  0.00     0.004 C 
BRANCH  25  26
HETATM   26  C18 UNL     1       2.691  10.240  20.447  1.00  0.00     0.027 C 
BRANCH  26  27
HETATM   27  C19 UNL     1       3.326  10.143  21.804  1.00  0.00    -0.031 C 
HETATM   28  C20 UNL     1       3.085   9.240  22.767  1.00  0.00    -0.035 C 
HETATM   29  C21 UNL     1       2.113   8.103  22.741  1.00  0.00     0.036 C 
ENDBRANCH  26  27
ENDBRANCH  25  26
ENDBRANCH  24  25
ENDBRANCH  23  24
ENDBRANCH  21  23
ENDBRANCH  19  21
ENDBRANCH   7  19
BRANCH   1  30
HETATM   30  C5  UNL     1      -2.920   4.660  13.209  1.00  0.00     0.037 C 
HETATM   31  C4  UNL     1      -3.816   3.732  12.823  1.00  0.00     0.002 C 
BRANCH  31  32
HETATM   32  C3  UNL     1      -5.198   3.973  12.474  1.00  0.00    -0.004 C 
HETATM   33  C2  UNL     1      -6.024   3.111  11.861  1.00  0.00    -0.031 C 
HETATM   34  C1  UNL     1      -5.729   1.739  11.346  1.00  0.00     0.036 C 
ENDBRANCH  31  32
ENDBRANCH   1  30
BRANCH   1  35
HETATM   35  O1  UNL     1      -4.306   6.553  12.778  1.00  0.00    -0.360 OA
HETATM   36  H8  UNL     1      -4.878   5.778  12.627  1.00  0.00     0.217 HD
ENDBRANCH   1  35
BRANCH  15  37
HETATM   37  O5  UNL     1       1.535   6.046  12.916  1.00  0.00    -0.381 OA
HETATM   38  H39 UNL     1       2.132   6.113  12.145  1.00  0.00     0.211 HD
ENDBRANCH  15  37
TORSDOF 11
ENDMDL
MODEL 7
REMARK minimizedAffinity -8.06670856
REMARK  11 active torsions:
REMARK  status: ('A' for Active; 'I' for Inactive)
REMARK    1  A    between atoms: C3_3  and  C4_4 
REMARK    2  A    between atoms: C5_5  and  C6_6 
REMARK    3  A    between atoms: C6_6  and  O1_7 
REMARK       I    between atoms: N1_12  and  C11_13 
REMARK    4  A    between atoms: C11_13  and  C12_15 
REMARK    5  A    between atoms: C12_15  and  C14_17 
REMARK    6  A    between atoms: C14_17  and  C15_19 
REMARK    7  A    between atoms: C15_19  and  C16_20 
REMARK    8  A    between atoms: C16_20  and  C17_21 
REMARK    9  A    between atoms: C17_21  and  C18_22 
REMARK   10  A    between atoms: C18_22  and  C19_23 
REMARK   11  A    between atoms: C27_32  and  O5_34 
ROOT
HETATM    1  C6  UNL     1       1.131  10.417  18.191  1.00  0.00     0.069 C 
HETATM    2  C7  UNL     1       0.320  10.207  17.133  1.00  0.00    -0.026 C 
HETATM    3  C8  UNL     1       0.884   9.832  15.735  1.00  0.00     0.044 C 
HETATM    4  C9  UNL     1       1.844   8.620  15.754  1.00  0.00     0.031 C 
HETATM    5  C10 UNL     1       0.980   7.439  15.359  1.00  0.00     0.127 C 
HETATM    6  N1  UNL     1       0.102   7.992  14.349  1.00  0.00    -0.344 N 
HETATM    7  C11 UNL     1      -0.218   7.387  13.145  1.00  0.00     0.231 C 
HETATM    8  O2  UNL     1      -0.566   8.052  12.168  1.00  0.00    -0.273 OA
HETATM    9  C22 UNL     1      -0.135   9.427  14.581  1.00  0.00     0.118 C 
HETATM   10  C23 UNL     1      -1.601   9.760  14.925  1.00  0.00     0.102 C 
HETATM   11  C24 UNL     1      -2.707   9.232  14.031  1.00  0.00     0.034 C 
HETATM   12  C25 UNL     1      -1.768   9.335  16.365  1.00  0.00     0.156 C 
HETATM   13  O4  UNL     1      -2.154   8.247  16.764  1.00  0.00    -0.296 OA
HETATM   14  C26 UNL     1      -1.188  10.419  17.234  1.00  0.00     0.130 C 
HETATM   15  C27 UNL     1      -1.707  11.691  16.520  1.00  0.00     0.130 C 
HETATM   16  C28 UNL     1      -0.886  12.955  16.762  1.00  0.00     0.055 C 
HETATM   17  C29 UNL     1      -1.696  11.273  15.049  1.00  0.00     0.179 C 
HETATM   18  O6  UNL     1      -1.757  12.058  14.111  1.00  0.00    -0.293 OA
ENDROOT
BRANCH   7  19
HETATM   19  C12 UNL     1      -0.081   5.873  13.054  1.00  0.00     0.143 C 
HETATM   20  C13 UNL     1       1.144   5.574  12.188  1.00  0.00     0.028 C 
BRANCH  19  21
HETATM   21  C14 UNL     1      -1.370   5.222  12.557  1.00  0.00     0.139 C 
HETATM   22  O3  UNL     1      -1.498   4.851  11.385  1.00  0.00    -0.297 OA
BRANCH  21  23
HETATM   23  C15 UNL     1      -2.580   5.180  13.472  1.00  0.00     0.079 C 
BRANCH  23  24
HETATM   24  C16 UNL     1      -3.872   5.171  12.660  1.00  0.00     0.008 C 
BRANCH  24  25
HETATM   25  C17 UNL     1      -4.537   3.794  12.612  1.00  0.00     0.004 C 
BRANCH  25  26
HETATM   26  C18 UNL     1      -6.031   3.826  12.952  1.00  0.00     0.027 C 
BRANCH  26  27
HETATM   27  C19 UNL     1      -6.412   5.145  13.560  1.00  0.00    -0.031 C 
HETATM   28  C20 UNL     1      -7.465   5.920  13.259  1.00  0.00    -0.035 C 
HETATM   29  C21 UNL     1      -8.525   5.676  12.233  1.00  0.00     0.036 C 
ENDBRANCH  26  27
ENDBRANCH  25  26
ENDBRANCH  24  25
ENDBRANCH  23  24
ENDBRANCH  21  23
ENDBRANCH  19  21
ENDBRANCH   7  19
BRANCH   1  30
HETATM   30  C5  UNL     1       0.693  10.838  19.509  1.00  0.00     0.037 C 
HETATM   31  C4  UNL     1       1.384  10.798  20.664  1.00  0.00     0.002 C 
BRANCH  31  32
HETATM   32  C3  UNL     1       2.676  10.181  20.865  1.00  0.00    -0.004 C 
HETATM   33  C2  UNL     1       2.945   9.151  21.681  1.00  0.00    -0.031 C 
HETATM   34  C1  UNL     1       2.022   8.428  22.609  1.00  0.00     0.036 C 
ENDBRANCH  31  32
ENDBRANCH   1  30
BRANCH   1  35
HETATM   35  O1  UNL     1       2.502  10.390  18.020  1.00  0.00    -0.360 OA
HETATM   36  H8  UNL     1       2.920  10.578  18.881  1.00  0.00     0.217 HD
ENDBRANCH   1  35
BRANCH  15  37
HETATM   37  O5  UNL     1      -3.052  11.928  16.932  1.00  0.00    -0.381 OA
HETATM   38  H39 UNL     1      -3.346  12.785  16.565  1.00  0.00     0.211 HD
ENDBRANCH  15  37
TORSDOF 11
ENDMDL
MODEL 8
REMARK minimizedAffinity -8.03656006
REMARK  11 active torsions:
REMARK  status: ('A' for Active; 'I' for Inactive)
REMARK    1  A    between atoms: C3_3  and  C4_4 
REMARK    2  A    between atoms: C5_5  and  C6_6 
REMARK    3  A    between atoms: C6_6  and  O1_7 
REMARK       I    between atoms: N1_12  and  C11_13 
REMARK    4  A    between atoms: C11_13  and  C12_15 
REMARK    5  A    between atoms: C12_15  and  C14_17 
REMARK    6  A    between atoms: C14_17  and  C15_19 
REMARK    7  A    between atoms: C15_19  and  C16_20 
REMARK    8  A    between atoms: C16_20  and  C17_21 
REMARK    9  A    between atoms: C17_21  and  C18_22 
REMARK   10  A    between atoms: C18_22  and  C19_23 
REMARK   11  A    between atoms: C27_32  and  O5_34 
ROOT
HETATM    1  C6  UNL     1      -2.266   4.839  12.376  1.00  0.00     0.069 C 
HETATM    2  C7  UNL     1      -2.848   5.715  13.223  1.00  0.00    -0.026 C 
HETATM    3  C8  UNL     1      -2.274   5.983  14.641  1.00  0.00     0.044 C 
HETATM    4  C9  UNL     1      -0.773   6.353  14.648  1.00  0.00     0.031 C 
HETATM    5  C10 UNL     1      -0.751   7.866  14.712  1.00  0.00     0.127 C 
HETATM    6  N1  UNL     1      -1.852   8.179  15.599  1.00  0.00    -0.344 N 
HETATM    7  C11 UNL     1      -1.816   9.103  16.629  1.00  0.00     0.231 C 
HETATM    8  O2  UNL     1      -2.568   9.009  17.600  1.00  0.00    -0.273 OA
HETATM    9  C22 UNL     1      -2.906   7.153  15.515  1.00  0.00     0.118 C 
HETATM   10  C23 UNL     1      -4.236   7.684  14.943  1.00  0.00     0.102 C 
HETATM   11  C24 UNL     1      -4.841   8.945  15.532  1.00  0.00     0.034 C 
HETATM   12  C25 UNL     1      -4.001   7.795  13.455  1.00  0.00     0.156 C 
HETATM   13  O4  UNL     1      -3.605   8.779  12.850  1.00  0.00    -0.296 OA
HETATM   14  C26 UNL     1      -4.154   6.419  12.863  1.00  0.00     0.130 C 
HETATM   15  C27 UNL     1      -5.396   5.896  13.624  1.00  0.00     0.130 C 
HETATM   16  C28 UNL     1      -5.515   4.377  13.713  1.00  0.00     0.055 C 
HETATM   17  C29 UNL     1      -5.235   6.540  15.003  1.00  0.00     0.179 C 
HETATM   18  O6  UNL     1      -5.833   6.173  16.006  1.00  0.00    -0.293 OA
ENDROOT
BRANCH   7  19
HETATM   19  C12 UNL     1      -0.781  10.218  16.546  1.00  0.00     0.143 C 
HETATM   20  C13 UNL     1       0.595   9.584  16.753  1.00  0.00     0.028 C 
BRANCH  19  21
HETATM   21  C14 UNL     1      -1.099  11.352  17.519  1.00  0.00     0.139 C 
HETATM   22  O3  UNL     1      -1.425  12.474  17.119  1.00  0.00    -0.297 OA
BRANCH  21  23
HETATM   23  C15 UNL     1      -0.849  11.149  19.001  1.00  0.00     0.079 C 
BRANCH  23  24
HETATM   24  C16 UNL     1       0.635  11.303  19.325  1.00  0.00     0.008 C 
BRANCH  24  25
HETATM   25  C17 UNL     1       1.029  10.635  20.644  1.00  0.00     0.004 C 
BRANCH  25  26
HETATM   26  C18 UNL     1       2.469  10.934  21.073  1.00  0.00     0.027 C 
BRANCH  26  27
HETATM   27  C19 UNL     1       3.027   9.807  21.893  1.00  0.00    -0.031 C 
HETATM   28  C20 UNL     1       4.111   9.818  22.684  1.00  0.00    -0.035 C 
HETATM   29  C21 UNL     1       5.050  10.952  22.944  1.00  0.00     0.036 C 
ENDBRANCH  26  27
ENDBRANCH  25  26
ENDBRANCH  24  25
ENDBRANCH  23  24
ENDBRANCH  21  23
ENDBRANCH  19  21
ENDBRANCH   7  19
BRANCH   1  30
HETATM   30  C5  UNL     1      -2.774   4.481  11.066  1.00  0.00     0.037 C 
HETATM   31  C4  UNL     1      -3.413   3.351  10.706  1.00  0.00     0.002 C 
BRANCH  31  32
HETATM   32  C3  UNL     1      -3.597   2.176  11.527  1.00  0.00    -0.004 C 
HETATM   33  C2  UNL     1      -4.725   1.459  11.644  1.00  0.00    -0.031 C 
HETATM   34  C1  UNL     1      -6.061   1.708  11.019  1.00  0.00     0.036 C 
ENDBRANCH  31  32
ENDBRANCH   1  30
BRANCH   1  35
HETATM   35  O1  UNL     1      -1.187   4.089  12.803  1.00  0.00    -0.360 OA
HETATM   36  H8  UNL     1      -0.914   3.506  12.070  1.00  0.00     0.217 HD
ENDBRANCH   1  35
BRANCH  15  37
HETATM   37  O5  UNL     1      -6.567   6.416  12.997  1.00  0.00    -0.381 OA
HETATM   38  H39 UNL     1      -7.352   6.005  13.410  1.00  0.00     0.211 HD
ENDBRANCH  15  37
TORSDOF 11
ENDMDL
MODEL 9
REMARK minimizedAffinity -7.83805895
REMARK  11 active torsions:
REMARK  status: ('A' for Active; 'I' for Inactive)
REMARK    1  A    between atoms: C3_3  and  C4_4 
REMARK    2  A    between atoms: C5_5  and  C6_6 
REMARK    3  A    between atoms: C6_6  and  O1_7 
REMARK       I    between atoms: N1_12  and  C11_13 
REMARK    4  A    between atoms: C11_13  and  C12_15 
REMARK    5  A    between atoms: C12_15  and  C14_17 
REMARK    6  A    between atoms: C14_17  and  C15_19 
REMARK    7  A    between atoms: C15_19  and  C16_20 
REMARK    8  A    between atoms: C16_20  and  C17_21 
REMARK    9  A    between atoms: C17_21  and  C18_22 
REMARK   10  A    between atoms: C18_22  and  C19_23 
REMARK   11  A    between atoms: C27_32  and  O5_34 
ROOT
HETATM    1  C6  UNL     1       4.316   8.661  11.881  1.00  0.00     0.069 C 
HETATM    2  C7  UNL     1       3.178   7.945  11.755  1.00  0.00    -0.026 C 
HETATM    3  C8  UNL     1       2.448   7.350  12.990  1.00  0.00     0.044 C 
HETATM    4  C9  UNL     1       2.152   8.385  14.099  1.00  0.00     0.031 C 
HETATM    5  C10 UNL     1       0.715   8.802  13.863  1.00  0.00     0.127 C 
HETATM    6  N1  UNL     1       0.071   7.568  13.462  1.00  0.00    -0.344 N 
HETATM    7  C11 UNL     1      -1.155   7.116  13.920  1.00  0.00     0.231 C 
HETATM    8  O2  UNL     1      -1.435   5.917  13.921  1.00  0.00    -0.273 OA
HETATM    9  C22 UNL     1       1.023   6.671  12.784  1.00  0.00     0.118 C 
HETATM   10  C23 UNL     1       0.681   6.420  11.301  1.00  0.00     0.102 C 
HETATM   11  C24 UNL     1      -0.726   5.992  10.931  1.00  0.00     0.034 C 
HETATM   12  C25 UNL     1       1.110   7.680  10.586  1.00  0.00     0.156 C 
HETATM   13  O4  UNL     1       0.417   8.657  10.350  1.00  0.00    -0.296 OA
HETATM   14  C26 UNL     1       2.600   7.607  10.383  1.00  0.00     0.130 C 
HETATM   15  C27 UNL     1       2.777   6.128   9.959  1.00  0.00     0.130 C 
HETATM   16  C28 UNL     1       4.163   5.540  10.211  1.00  0.00     0.055 C 
HETATM   17  C29 UNL     1       1.695   5.418  10.774  1.00  0.00     0.179 C 
HETATM   18  O6  UNL     1       1.664   4.209  10.967  1.00  0.00    -0.293 OA
ENDROOT
BRANCH   7  19
HETATM   19  C12 UNL     1      -2.132   8.149  14.467  1.00  0.00     0.143 C 
HETATM   20  C13 UNL     1      -2.520   7.711  15.880  1.00  0.00     0.028 C 
BRANCH  19  21
HETATM   21  C14 UNL     1      -3.319   8.351  13.528  1.00  0.00     0.139 C 
HETATM   22  O3  UNL     1      -3.168   8.764  12.373  1.00  0.00    -0.297 OA
BRANCH  21  23
HETATM   23  C15 UNL     1      -4.728   8.204  14.071  1.00  0.00     0.079 C 
BRANCH  23  24
HETATM   24  C16 UNL     1      -5.293   6.824  13.742  1.00  0.00     0.008 C 
BRANCH  24  25
HETATM   25  C17 UNL     1      -6.783   6.698  14.065  1.00  0.00     0.004 C 
BRANCH  25  26
HETATM   26  C18 UNL     1      -7.566   5.888  13.027  1.00  0.00     0.027 C 
BRANCH  26  27
HETATM   27  C19 UNL     1      -7.669   4.449  13.441  1.00  0.00    -0.031 C 
HETATM   28  C20 UNL     1      -6.900   3.420  13.054  1.00  0.00    -0.035 C 
HETATM   29  C21 UNL     1      -5.747   3.439  12.101  1.00  0.00     0.036 C 
ENDBRANCH  26  27
ENDBRANCH  25  26
ENDBRANCH  24  25
ENDBRANCH  23  24
ENDBRANCH  21  23
ENDBRANCH  19  21
ENDBRANCH   7  19
BRANCH   1  30
HETATM   30  C5  UNL     1       5.095   9.191  10.779  1.00  0.00     0.037 C 
HETATM   31  C4  UNL     1       6.235   9.905  10.838  1.00  0.00     0.002 C 
BRANCH  31  32
HETATM   32  C3  UNL     1       6.853  10.429  12.035  1.00  0.00    -0.004 C 
HETATM   33  C2  UNL     1       7.977  11.158  12.094  1.00  0.00    -0.031 C 
HETATM   34  C1  UNL     1       8.889  11.562  10.980  1.00  0.00     0.036 C 
ENDBRANCH  31  32
ENDBRANCH   1  30
BRANCH   1  35
HETATM   35  O1  UNL     1       4.905   8.796  13.123  1.00  0.00    -0.360 OA
HETATM   36  H8  UNL     1       5.718   9.325  13.018  1.00  0.00     0.217 HD
ENDBRANCH   1  35
BRANCH  15  37
HETATM   37  O5  UNL     1       2.472   6.013   8.570  1.00  0.00    -0.381 OA
HETATM   38  H39 UNL     1       2.683   5.105   8.277  1.00  0.00     0.211 HD
ENDBRANCH  15  37
TORSDOF 11
ENDMDL
