MODEL 1
REMARK minimizedAffinity -9.67188263
REMARK  12 active torsions:
REMARK  status: ('A' for Active; 'I' for Inactive)
REMARK    1  A    between atoms: C2_2  and  C3_3 
REMARK    2  A    between atoms: C2_2  and  C26_31 
REMARK    3  A    between atoms: C3_3  and  C4_4 
REMARK    4  A    between atoms: C4_4  and  C5_5 
REMARK    5  A    between atoms: C5_5  and  C7_7 
REMARK    6  A    between atoms: C8_8  and  O1_9 
REMARK    7  A    between atoms: C9_10  and  O2_11 
REMARK    8  A    between atoms: C20_22  and  O3_23 
REMARK    9  A    between atoms: C23_26  and  O4_27 
REMARK   10  A    between atoms: C25_29  and  O5_30 
REMARK   11  A    between atoms: C26_31  and  C28_33 
REMARK   12  A    between atoms: C28_33  and  O6_34 
ROOT
HETATM    1  C7  UNL     1      -2.226   7.450  13.845  1.00  0.00     0.029 C 
HETATM    2  C8  UNL     1      -1.866   7.849  15.313  1.00  0.00     0.152 C 
HETATM    3  C9  UNL     1      -0.326   8.007  15.366  1.00  0.00     0.155 C 
HETATM    4  C10 UNL     1       0.150   7.742  13.935  1.00  0.00     0.060 C 
HETATM    5  C11 UNL     1      -0.906   6.777  13.325  1.00  0.00    -0.029 C 
HETATM    6  C12 UNL     1      -0.793   5.314  13.814  1.00  0.00     0.016 C 
HETATM    7  C13 UNL     1      -0.729   6.811  11.786  1.00  0.00     0.011 C 
HETATM    8  C14 UNL     1       0.660   7.282  11.312  1.00  0.00     0.009 C 
HETATM    9  C15 UNL     1       1.825   6.833  12.227  1.00  0.00     0.029 C 
HETATM   10  C16 UNL     1       3.259   7.123  11.606  1.00  0.00    -0.031 C 
HETATM   11  C17 UNL     1       3.551   5.935  10.636  1.00  0.00     0.016 C 
HETATM   12  C18 UNL     1       3.325   8.439  10.780  1.00  0.00     0.012 C 
HETATM   13  C19 UNL     1       4.710   8.732  10.198  1.00  0.00     0.032 C 
HETATM   14  C20 UNL     1       5.813   8.709  11.248  1.00  0.00     0.118 C 
HETATM   15  C21 UNL     1       5.762   7.461  12.133  1.00  0.00     0.039 C 
HETATM   16  C22 UNL     1       4.362   7.161  12.714  1.00  0.00     0.025 C 
HETATM   17  C23 UNL     1       4.027   8.065  13.931  1.00  0.00     0.126 C 
HETATM   18  C24 UNL     1       2.559   8.453  14.062  1.00  0.00     0.071 C 
HETATM   19  C25 UNL     1       1.618   7.311  13.699  1.00  0.00     0.071 C 
ENDROOT
BRANCH   1  20
HETATM   20  C5  UNL     1      -3.581   6.692  13.701  1.00  0.00    -0.011 C 
HETATM   21  C6  UNL     1      -4.171   6.269  15.051  1.00  0.00     0.010 C 
BRANCH  20  22
HETATM   22  C4  UNL     1      -3.396   5.435  12.803  1.00  0.00     0.009 C 
BRANCH  22  23
HETATM   23  C3  UNL     1      -4.344   4.277  13.166  1.00  0.00     0.034 C 
BRANCH  23  24
HETATM   24  C2  UNL     1      -5.313   3.804  12.085  1.00  0.00    -0.083 C 
HETATM   25  C1  UNL     1      -4.910   3.215  10.942  1.00  0.00     0.015 C 
BRANCH  24  26
HETATM   26  C26 UNL     1      -6.795   4.031  12.433  1.00  0.00     0.033 C 
HETATM   27  C27 UNL     1      -7.119   5.414  13.022  1.00  0.00     0.017 C 
BRANCH  26  28
HETATM   28  C28 UNL     1      -7.365   2.922  13.346  1.00  0.00     0.172 C 
BRANCH  28  29
HETATM   29  O6  UNL     1      -8.038   1.898  12.624  1.00  0.00    -0.400 OA
HETATM   30  H48 UNL     1      -7.465   1.619  11.891  1.00  0.00     0.209 HD
ENDBRANCH  28  29
ENDBRANCH  26  28
ENDBRANCH  24  26
ENDBRANCH  23  24
ENDBRANCH  22  23
ENDBRANCH  20  22
ENDBRANCH   1  20
BRANCH   2  31
HETATM   31  O1  UNL     1      -2.242   6.868  16.283  1.00  0.00    -0.393 OA
HETATM   32  H13 UNL     1      -3.212   6.880  16.368  1.00  0.00     0.210 HD
ENDBRANCH   2  31
BRANCH   3  33
HETATM   33  O2  UNL     1       0.261   7.101  16.301  1.00  0.00    -0.392 OA
HETATM   34  H15 UNL     1      -0.511   6.679  16.745  1.00  0.00     0.210 HD
ENDBRANCH   3  33
BRANCH  19  35
HETATM   35  O5  UNL     1       1.970   6.210  14.548  1.00  0.00    -0.389 OA
HETATM   36  H41 UNL     1       1.530   6.366  15.415  1.00  0.00     0.210 HD
ENDBRANCH  19  35
BRANCH  17  37
HETATM   37  O4  UNL     1       4.788   9.272  13.950  1.00  0.00    -0.395 OA
HETATM   38  H38 UNL     1       4.656   9.682  14.823  1.00  0.00     0.210 HD
ENDBRANCH  17  37
BRANCH  14  39
HETATM   39  O3  UNL     1       7.073   8.754  10.576  1.00  0.00    -0.396 OA
HETATM   40  H33 UNL     1       7.755   8.798  11.268  1.00  0.00     0.210 HD
ENDBRANCH  14  39
TORSDOF 12
ENDMDL
MODEL 2
REMARK minimizedAffinity -9.62980175
REMARK  12 active torsions:
REMARK  status: ('A' for Active; 'I' for Inactive)
REMARK    1  A    between atoms: C2_2  and  C3_3 
REMARK    2  A    between atoms: C2_2  and  C26_31 
REMARK    3  A    between atoms: C3_3  and  C4_4 
REMARK    4  A    between atoms: C4_4  and  C5_5 
REMARK    5  A    between atoms: C5_5  and  C7_7 
REMARK    6  A    between atoms: C8_8  and  O1_9 
REMARK    7  A    between atoms: C9_10  and  O2_11 
REMARK    8  A    between atoms: C20_22  and  O3_23 
REMARK    9  A    between atoms: C23_26  and  O4_27 
REMARK   10  A    between atoms: C25_29  and  O5_30 
REMARK   11  A    between atoms: C26_31  and  C28_33 
REMARK   12  A    between atoms: C28_33  and  O6_34 
ROOT
HETATM    1  C7  UNL     1      -1.824   8.044  13.686  1.00  0.00     0.029 C 
HETATM    2  C8  UNL     1      -1.745   7.960  15.245  1.00  0.00     0.152 C 
HETATM    3  C9  UNL     1      -0.240   7.956  15.614  1.00  0.00     0.155 C 
HETATM    4  C10 UNL     1       0.496   8.081  14.278  1.00  0.00     0.060 C 
HETATM    5  C11 UNL     1      -0.451   7.437  13.226  1.00  0.00    -0.029 C 
HETATM    6  C12 UNL     1      -0.483   5.891  13.256  1.00  0.00     0.016 C 
HETATM    7  C13 UNL     1       0.024   7.906  11.828  1.00  0.00     0.011 C 
HETATM    8  C14 UNL     1       1.493   8.369  11.773  1.00  0.00     0.009 C 
HETATM    9  C15 UNL     1       2.442   7.568  12.696  1.00  0.00     0.029 C 
HETATM   10  C16 UNL     1       3.978   7.898  12.456  1.00  0.00    -0.031 C 
HETATM   11  C17 UNL     1       4.415   7.026  11.237  1.00  0.00     0.016 C 
HETATM   12  C18 UNL     1       4.246   9.387  12.097  1.00  0.00     0.012 C 
HETATM   13  C19 UNL     1       5.727   9.712  11.887  1.00  0.00     0.032 C 
HETATM   14  C20 UNL     1       6.603   9.282  13.056  1.00  0.00     0.118 C 
HETATM   15  C21 UNL     1       6.340   7.839  13.494  1.00  0.00     0.039 C 
HETATM   16  C22 UNL     1       4.845   7.509  13.699  1.00  0.00     0.025 C 
HETATM   17  C23 UNL     1       4.308   8.041  15.055  1.00  0.00     0.126 C 
HETATM   18  C24 UNL     1       2.856   8.504  15.038  1.00  0.00     0.071 C 
HETATM   19  C25 UNL     1       1.968   7.609  14.184  1.00  0.00     0.071 C 
ENDROOT
BRANCH   1  20
HETATM   20  C5  UNL     1      -3.149   7.487  13.081  1.00  0.00    -0.011 C 
HETATM   21  C6  UNL     1      -4.347   8.416  13.318  1.00  0.00     0.010 C 
BRANCH  20  22
HETATM   22  C4  UNL     1      -3.461   6.085  13.679  1.00  0.00     0.009 C 
BRANCH  22  23
HETATM   23  C3  UNL     1      -4.950   5.702  13.603  1.00  0.00     0.034 C 
BRANCH  23  24
HETATM   24  C2  UNL     1      -5.304   4.423  12.848  1.00  0.00    -0.083 C 
HETATM   25  C1  UNL     1      -4.382   3.535  12.432  1.00  0.00     0.015 C 
BRANCH  24  26
HETATM   26  C26 UNL     1      -6.816   4.225  12.634  1.00  0.00     0.033 C 
HETATM   27  C27 UNL     1      -7.674   5.483  12.852  1.00  0.00     0.017 C 
BRANCH  26  28
HETATM   28  C28 UNL     1      -7.382   3.050  13.462  1.00  0.00     0.172 C 
BRANCH  28  29
HETATM   29  O6  UNL     1      -8.097   2.106  12.673  1.00  0.00    -0.400 OA
HETATM   30  H48 UNL     1      -7.550   1.883  11.901  1.00  0.00     0.209 HD
ENDBRANCH  28  29
ENDBRANCH  26  28
ENDBRANCH  24  26
ENDBRANCH  23  24
ENDBRANCH  22  23
ENDBRANCH  20  22
ENDBRANCH   1  20
BRANCH   2  31
HETATM   31  O1  UNL     1      -2.335   6.775  15.787  1.00  0.00    -0.393 OA
HETATM   32  H13 UNL     1      -3.302   6.849  15.699  1.00  0.00     0.210 HD
ENDBRANCH   2  31
BRANCH   3  33
HETATM   33  O2  UNL     1       0.123   6.766  16.315  1.00  0.00    -0.392 OA
HETATM   34  H15 UNL     1      -0.734   6.303  16.466  1.00  0.00     0.210 HD
ENDBRANCH   3  33
BRANCH  19  35
HETATM   35  O5  UNL     1       2.111   6.280  14.704  1.00  0.00    -0.389 OA
HETATM   36  H41 UNL     1       1.516   6.214  15.485  1.00  0.00     0.210 HD
ENDBRANCH  19  35
BRANCH  17  37
HETATM   37  O4  UNL     1       5.090   9.117  15.576  1.00  0.00    -0.395 OA
HETATM   38  H38 UNL     1       4.803   9.261  16.494  1.00  0.00     0.210 HD
ENDBRANCH  17  37
BRANCH  14  39
HETATM   39  O3  UNL     1       7.971   9.409  12.663  1.00  0.00    -0.396 OA
HETATM   40  H33 UNL     1       8.506   9.186  13.444  1.00  0.00     0.210 HD
ENDBRANCH  14  39
TORSDOF 12
ENDMDL
MODEL 3
REMARK minimizedAffinity -9.4002409
REMARK  12 active torsions:
REMARK  status: ('A' for Active; 'I' for Inactive)
REMARK    1  A    between atoms: C2_2  and  C3_3 
REMARK    2  A    between atoms: C2_2  and  C26_31 
REMARK    3  A    between atoms: C3_3  and  C4_4 
REMARK    4  A    between atoms: C4_4  and  C5_5 
REMARK    5  A    between atoms: C5_5  and  C7_7 
REMARK    6  A    between atoms: C8_8  and  O1_9 
REMARK    7  A    between atoms: C9_10  and  O2_11 
REMARK    8  A    between atoms: C20_22  and  O3_23 
REMARK    9  A    between atoms: C23_26  and  O4_27 
REMARK   10  A    between atoms: C25_29  and  O5_30 
REMARK   11  A    between atoms: C26_31  and  C28_33 
REMARK   12  A    between atoms: C28_33  and  O6_34 
ROOT
HETATM    1  C7  UNL     1      -4.774   7.530  13.838  1.00  0.00     0.029 C 
HETATM    2  C8  UNL     1      -4.444   8.824  14.650  1.00  0.00     0.152 C 
HETATM    3  C9  UNL     1      -2.930   9.096  14.455  1.00  0.00     0.155 C 
HETATM    4  C10 UNL     1      -2.446   7.991  13.514  1.00  0.00     0.060 C 
HETATM    5  C11 UNL     1      -3.393   6.786  13.777  1.00  0.00    -0.029 C 
HETATM    6  C12 UNL     1      -3.108   6.023  15.092  1.00  0.00     0.016 C 
HETATM    7  C13 UNL     1      -3.241   5.809  12.583  1.00  0.00     0.011 C 
HETATM    8  C14 UNL     1      -1.921   5.956  11.801  1.00  0.00     0.009 C 
HETATM    9  C15 UNL     1      -0.701   6.313  12.683  1.00  0.00     0.029 C 
HETATM   10  C16 UNL     1       0.682   6.231  11.905  1.00  0.00    -0.031 C 
HETATM   11  C17 UNL     1       1.096   4.726  11.929  1.00  0.00     0.016 C 
HETATM   12  C18 UNL     1       0.588   6.675  10.418  1.00  0.00     0.012 C 
HETATM   13  C19 UNL     1       1.923   6.617   9.672  1.00  0.00     0.032 C 
HETATM   14  C20 UNL     1       3.035   7.377  10.382  1.00  0.00     0.118 C 
HETATM   15  C21 UNL     1       3.138   7.025  11.868  1.00  0.00     0.039 C 
HETATM   16  C22 UNL     1       1.789   7.075  12.620  1.00  0.00     0.025 C 
HETATM   17  C23 UNL     1       1.368   8.529  12.971  1.00  0.00     0.126 C 
HETATM   18  C24 UNL     1      -0.133   8.792  12.940  1.00  0.00     0.071 C 
HETATM   19  C25 UNL     1      -0.942   7.626  13.494  1.00  0.00     0.071 C 
ENDROOT
BRANCH   1  20
HETATM   20  C5  UNL     1      -6.036   6.764  14.341  1.00  0.00    -0.011 C 
HETATM   21  C6  UNL     1      -5.783   5.992  15.641  1.00  0.00     0.010 C 
BRANCH  20  22
HETATM   22  C4  UNL     1      -6.532   5.777  13.245  1.00  0.00     0.009 C 
BRANCH  22  23
HETATM   23  C3  UNL     1      -5.946   4.360  13.384  1.00  0.00     0.034 C 
BRANCH  23  24
HETATM   24  C2  UNL     1      -6.650   3.236  12.628  1.00  0.00    -0.083 C 
HETATM   25  C1  UNL     1      -7.912   2.849  12.893  1.00  0.00     0.015 C 
BRANCH  24  26
HETATM   26  C26 UNL     1      -5.796   2.606  11.512  1.00  0.00     0.033 C 
HETATM   27  C27 UNL     1      -6.204   1.179  11.109  1.00  0.00     0.017 C 
BRANCH  26  28
HETATM   28  C28 UNL     1      -4.284   2.654  11.825  1.00  0.00     0.172 C 
BRANCH  28  29
HETATM   29  O6  UNL     1      -3.608   1.445  11.498  1.00  0.00    -0.400 OA
HETATM   30  H48 UNL     1      -3.868   1.189  10.598  1.00  0.00     0.209 HD
ENDBRANCH  28  29
ENDBRANCH  26  28
ENDBRANCH  24  26
ENDBRANCH  23  24
ENDBRANCH  22  23
ENDBRANCH  20  22
ENDBRANCH   1  20
BRANCH   2  31
HETATM   31  O1  UNL     1      -4.693   8.703  16.053  1.00  0.00    -0.393 OA
HETATM   32  H13 UNL     1      -5.657   8.693  16.191  1.00  0.00     0.210 HD
ENDBRANCH   2  31
BRANCH   3  33
HETATM   33  O2  UNL     1      -2.233   9.081  15.702  1.00  0.00    -0.392 OA
HETATM   34  H15 UNL     1      -2.946   8.999  16.377  1.00  0.00     0.210 HD
ENDBRANCH   3  33
BRANCH  19  35
HETATM   35  O5  UNL     1      -0.456   7.391  14.822  1.00  0.00    -0.389 OA
HETATM   36  H41 UNL     1      -0.900   8.046  15.409  1.00  0.00     0.210 HD
ENDBRANCH  19  35
BRANCH  17  37
HETATM   37  O4  UNL     1       1.988   9.502  12.130  1.00  0.00    -0.395 OA
HETATM   38  H38 UNL     1       1.821  10.374  12.529  1.00  0.00     0.210 HD
ENDBRANCH  17  37
BRANCH  14  39
HETATM   39  O3  UNL     1       4.273   7.065   9.741  1.00  0.00    -0.396 OA
HETATM   40  H33 UNL     1       4.955   7.607  10.175  1.00  0.00     0.210 HD
ENDBRANCH  14  39
TORSDOF 12
ENDMDL
MODEL 4
REMARK minimizedAffinity -9.3046608
REMARK  12 active torsions:
REMARK  status: ('A' for Active; 'I' for Inactive)
REMARK    1  A    between atoms: C2_2  and  C3_3 
REMARK    2  A    between atoms: C2_2  and  C26_31 
REMARK    3  A    between atoms: C3_3  and  C4_4 
REMARK    4  A    between atoms: C4_4  and  C5_5 
REMARK    5  A    between atoms: C5_5  and  C7_7 
REMARK    6  A    between atoms: C8_8  and  O1_9 
REMARK    7  A    between atoms: C9_10  and  O2_11 
REMARK    8  A    between atoms: C20_22  and  O3_23 
REMARK    9  A    between atoms: C23_26  and  O4_27 
REMARK   10  A    between atoms: C25_29  and  O5_30 
REMARK   11  A    between atoms: C26_31  and  C28_33 
REMARK   12  A    between atoms: C28_33  and  O6_34 
ROOT
HETATM    1  C7  UNL     1      -5.687   6.297  13.698  1.00  0.00     0.029 C 
HETATM    2  C8  UNL     1      -6.390   5.131  12.930  1.00  0.00     0.152 C 
HETATM    3  C9  UNL     1      -7.914   5.396  13.019  1.00  0.00     0.155 C 
HETATM    4  C10 UNL     1      -8.044   6.713  13.788  1.00  0.00     0.060 C 
HETATM    5  C11 UNL     1      -6.791   6.776  14.707  1.00  0.00    -0.029 C 
HETATM    6  C12 UNL     1      -6.858   5.851  15.945  1.00  0.00     0.016 C 
HETATM    7  C13 UNL     1      -6.638   8.243  15.179  1.00  0.00     0.011 C 
HETATM    8  C14 UNL     1      -7.934   9.075  15.114  1.00  0.00     0.009 C 
HETATM    9  C15 UNL     1      -9.216   8.274  15.443  1.00  0.00     0.029 C 
HETATM   10  C16 UNL     1     -10.505   9.189  15.600  1.00  0.00    -0.031 C 
HETATM   11  C17 UNL     1     -10.463   9.739  17.061  1.00  0.00     0.016 C 
HETATM   12  C18 UNL     1     -10.526  10.408  14.633  1.00  0.00     0.012 C 
HETATM   13  C19 UNL     1     -11.777  11.279  14.767  1.00  0.00     0.032 C 
HETATM   14  C20 UNL     1     -13.070  10.485  14.646  1.00  0.00     0.118 C 
HETATM   15  C21 UNL     1     -13.085   9.237  15.533  1.00  0.00     0.039 C 
HETATM   16  C22 UNL     1     -11.819   8.362  15.404  1.00  0.00     0.025 C 
HETATM   17  C23 UNL     1     -11.843   7.480  14.125  1.00  0.00     0.126 C 
HETATM   18  C24 UNL     1     -10.484   7.241  13.480  1.00  0.00     0.071 C 
HETATM   19  C25 UNL     1      -9.377   7.035  14.506  1.00  0.00     0.071 C 
ENDROOT
BRANCH   1  20
HETATM   20  C5  UNL     1      -4.263   5.947  14.229  1.00  0.00    -0.011 C 
HETATM   21  C6  UNL     1      -3.813   6.866  15.371  1.00  0.00     0.010 C 
BRANCH  20  22
HETATM   22  C4  UNL     1      -3.228   6.023  13.070  1.00  0.00     0.009 C 
BRANCH  22  23
HETATM   23  C3  UNL     1      -2.404   4.734  12.896  1.00  0.00     0.034 C 
BRANCH  23  24
HETATM   24  C2  UNL     1      -1.637   4.567  11.587  1.00  0.00    -0.083 C 
HETATM   25  C1  UNL     1      -0.532   5.277  11.286  1.00  0.00     0.015 C 
BRANCH  24  26
HETATM   26  C26 UNL     1      -2.222   3.491  10.655  1.00  0.00     0.033 C 
HETATM   27  C27 UNL     1      -3.754   3.512  10.519  1.00  0.00     0.017 C 
BRANCH  26  28
HETATM   28  C28 UNL     1      -1.745   2.068  11.022  1.00  0.00     0.172 C 
BRANCH  28  29
HETATM   29  O6  UNL     1      -1.329   1.311   9.890  1.00  0.00    -0.400 OA
HETATM   30  H48 UNL     1      -0.725   1.861   9.365  1.00  0.00     0.209 HD
ENDBRANCH  28  29
ENDBRANCH  26  28
ENDBRANCH  24  26
ENDBRANCH  23  24
ENDBRANCH  22  23
ENDBRANCH  20  22
ENDBRANCH   1  20
BRANCH   2  31
HETATM   31  O1  UNL     1      -6.133   3.839  13.486  1.00  0.00    -0.393 OA
HETATM   32  H13 UNL     1      -5.210   3.600  13.289  1.00  0.00     0.210 HD
ENDBRANCH   2  31
BRANCH   3  33
HETATM   33  O2  UNL     1      -8.593   4.324  13.676  1.00  0.00    -0.392 OA
HETATM   34  H15 UNL     1      -7.896   3.640  13.806  1.00  0.00     0.210 HD
ENDBRANCH   3  33
BRANCH  19  35
HETATM   35  O5  UNL     1      -9.790   5.939  15.333  1.00  0.00    -0.389 OA
HETATM   36  H41 UNL     1      -9.563   5.113  14.846  1.00  0.00     0.210 HD
ENDBRANCH  19  35
BRANCH  17  37
HETATM   37  O4  UNL     1     -12.708   7.997  13.114  1.00  0.00    -0.395 OA
HETATM   38  H38 UNL     1     -12.807   7.303  12.439  1.00  0.00     0.210 HD
ENDBRANCH  17  37
BRANCH  14  39
HETATM   39  O3  UNL     1     -14.156  11.335  15.019  1.00  0.00    -0.396 OA
HETATM   40  H33 UNL     1     -14.971  10.824  14.876  1.00  0.00     0.210 HD
ENDBRANCH  14  39
TORSDOF 12
ENDMDL
MODEL 5
REMARK minimizedAffinity -9.24324036
REMARK  12 active torsions:
REMARK  status: ('A' for Active; 'I' for Inactive)
REMARK    1  A    between atoms: C2_2  and  C3_3 
REMARK    2  A    between atoms: C2_2  and  C26_31 
REMARK    3  A    between atoms: C3_3  and  C4_4 
REMARK    4  A    between atoms: C4_4  and  C5_5 
REMARK    5  A    between atoms: C5_5  and  C7_7 
REMARK    6  A    between atoms: C8_8  and  O1_9 
REMARK    7  A    between atoms: C9_10  and  O2_11 
REMARK    8  A    between atoms: C20_22  and  O3_23 
REMARK    9  A    between atoms: C23_26  and  O4_27 
REMARK   10  A    between atoms: C25_29  and  O5_30 
REMARK   11  A    between atoms: C26_31  and  C28_33 
REMARK   12  A    between atoms: C28_33  and  O6_34 
ROOT
HETATM    1  C7  UNL     1      -6.306   6.626  13.623  1.00  0.00     0.029 C 
HETATM    2  C8  UNL     1      -6.307   8.135  14.030  1.00  0.00     0.152 C 
HETATM    3  C9  UNL     1      -4.845   8.630  13.900  1.00  0.00     0.155 C 
HETATM    4  C10 UNL     1      -4.060   7.421  13.385  1.00  0.00     0.060 C 
HETATM    5  C11 UNL     1      -4.830   6.178  13.914  1.00  0.00    -0.029 C 
HETATM    6  C12 UNL     1      -4.619   5.887  15.418  1.00  0.00     0.016 C 
HETATM    7  C13 UNL     1      -4.354   4.955  13.091  1.00  0.00     0.011 C 
HETATM    8  C14 UNL     1      -2.975   5.130  12.423  1.00  0.00     0.009 C 
HETATM    9  C15 UNL     1      -1.968   5.952  13.262  1.00  0.00     0.029 C 
HETATM   10  C16 UNL     1      -0.492   5.926  12.673  1.00  0.00    -0.031 C 
HETATM   11  C17 UNL     1       0.149   4.599  13.189  1.00  0.00     0.016 C 
HETATM   12  C18 UNL     1      -0.442   5.906  11.119  1.00  0.00     0.012 C 
HETATM   13  C19 UNL     1       0.979   5.902  10.549  1.00  0.00     0.032 C 
HETATM   14  C20 UNL     1       1.841   7.033  11.093  1.00  0.00     0.118 C 
HETATM   15  C21 UNL     1       1.784   7.140  12.619  1.00  0.00     0.039 C 
HETATM   16  C22 UNL     1       0.351   7.136  13.195  1.00  0.00     0.025 C 
HETATM   17  C23 UNL     1      -0.342   8.518  13.050  1.00  0.00     0.126 C 
HETATM   18  C24 UNL     1      -1.846   8.464  12.806  1.00  0.00     0.071 C 
HETATM   19  C25 UNL     1      -2.529   7.367  13.611  1.00  0.00     0.071 C 
ENDROOT
BRANCH   1  20
HETATM   20  C5  UNL     1      -7.489   5.801  14.218  1.00  0.00    -0.011 C 
HETATM   21  C6  UNL     1      -7.909   4.632  13.319  1.00  0.00     0.010 C 
BRANCH  20  22
HETATM   22  C4  UNL     1      -8.715   6.727  14.462  1.00  0.00     0.009 C 
BRANCH  22  23
HETATM   23  C3  UNL     1      -9.822   6.574  13.403  1.00  0.00     0.034 C 
BRANCH  23  24
HETATM   24  C2  UNL     1     -11.161   7.247  13.691  1.00  0.00    -0.083 C 
HETATM   25  C1  UNL     1     -12.199   6.607  14.263  1.00  0.00     0.015 C 
BRANCH  24  26
HETATM   26  C26 UNL     1     -11.208   8.735  13.297  1.00  0.00     0.033 C 
HETATM   27  C27 UNL     1     -10.899   9.719  14.438  1.00  0.00     0.017 C 
BRANCH  26  28
HETATM   28  C28 UNL     1     -12.536   9.124  12.609  1.00  0.00     0.172 C 
BRANCH  28  29
HETATM   29  O6  UNL     1     -12.350   9.956  11.470  1.00  0.00    -0.400 OA
HETATM   30  H48 UNL     1     -11.662   9.556  10.913  1.00  0.00     0.209 HD
ENDBRANCH  28  29
ENDBRANCH  26  28
ENDBRANCH  24  26
ENDBRANCH  23  24
ENDBRANCH  22  23
ENDBRANCH  20  22
ENDBRANCH   1  20
BRANCH   2  31
HETATM   31  O1  UNL     1      -6.733   8.367  15.376  1.00  0.00    -0.393 OA
HETATM   32  H13 UNL     1      -7.692   8.208  15.423  1.00  0.00     0.210 HD
ENDBRANCH   2  31
BRANCH   3  33
HETATM   33  O2  UNL     1      -4.340   9.103  15.149  1.00  0.00    -0.392 OA
HETATM   34  H15 UNL     1      -5.120   9.077  15.751  1.00  0.00     0.210 HD
ENDBRANCH   3  33
BRANCH  19  35
HETATM   35  O5  UNL     1      -2.208   7.614  14.987  1.00  0.00    -0.389 OA
HETATM   36  H41 UNL     1      -2.831   8.308  15.305  1.00  0.00     0.210 HD
ENDBRANCH  19  35
BRANCH  17  37
HETATM   37  O4  UNL     1       0.228   9.317  12.013  1.00  0.00    -0.395 OA
HETATM   38  H38 UNL     1      -0.132  10.216  12.113  1.00  0.00     0.210 HD
ENDBRANCH  17  37
BRANCH  14  39
HETATM   39  O3  UNL     1       3.192   6.800  10.691  1.00  0.00    -0.396 OA
HETATM   40  H33 UNL     1       3.709   7.565  10.999  1.00  0.00     0.210 HD
ENDBRANCH  14  39
TORSDOF 12
ENDMDL
MODEL 6
REMARK minimizedAffinity -9.22109222
REMARK  12 active torsions:
REMARK  status: ('A' for Active; 'I' for Inactive)
REMARK    1  A    between atoms: C2_2  and  C3_3 
REMARK    2  A    between atoms: C2_2  and  C26_31 
REMARK    3  A    between atoms: C3_3  and  C4_4 
REMARK    4  A    between atoms: C4_4  and  C5_5 
REMARK    5  A    between atoms: C5_5  and  C7_7 
REMARK    6  A    between atoms: C8_8  and  O1_9 
REMARK    7  A    between atoms: C9_10  and  O2_11 
REMARK    8  A    between atoms: C20_22  and  O3_23 
REMARK    9  A    between atoms: C23_26  and  O4_27 
REMARK   10  A    between atoms: C25_29  and  O5_30 
REMARK   11  A    between atoms: C26_31  and  C28_33 
REMARK   12  A    between atoms: C28_33  and  O6_34 
ROOT
HETATM    1  C7  UNL     1      -2.223   6.359  13.179  1.00  0.00     0.029 C 
HETATM    2  C8  UNL     1      -2.107   6.983  14.608  1.00  0.00     0.152 C 
HETATM    3  C9  UNL     1      -0.650   7.489  14.755  1.00  0.00     0.155 C 
HETATM    4  C10 UNL     1       0.013   7.187  13.408  1.00  0.00     0.060 C 
HETATM    5  C11 UNL     1      -0.743   5.949  12.848  1.00  0.00    -0.029 C 
HETATM    6  C12 UNL     1      -0.368   4.610  13.524  1.00  0.00     0.016 C 
HETATM    7  C13 UNL     1      -0.424   5.859  11.335  1.00  0.00     0.011 C 
HETATM    8  C14 UNL     1       0.871   6.577  10.910  1.00  0.00     0.009 C 
HETATM    9  C15 UNL     1       2.007   6.503  11.957  1.00  0.00     0.029 C 
HETATM   10  C16 UNL     1       3.400   7.041  11.413  1.00  0.00    -0.031 C 
HETATM   11  C17 UNL     1       4.037   5.853  10.625  1.00  0.00     0.016 C 
HETATM   12  C18 UNL     1       3.264   8.242  10.435  1.00  0.00     0.012 C 
HETATM   13  C19 UNL     1       4.605   8.777   9.926  1.00  0.00     0.032 C 
HETATM   14  C20 UNL     1       5.576   9.114  11.049  1.00  0.00     0.118 C 
HETATM   15  C21 UNL     1       5.706   7.989  12.079  1.00  0.00     0.039 C 
HETATM   16  C22 UNL     1       4.353   7.444  12.587  1.00  0.00     0.025 C 
HETATM   17  C23 UNL     1       3.710   8.374  13.652  1.00  0.00     0.126 C 
HETATM   18  C24 UNL     1       2.187   8.433  13.624  1.00  0.00     0.071 C 
HETATM   19  C25 UNL     1       1.556   7.076  13.338  1.00  0.00     0.071 C 
ENDROOT
BRANCH   1  20
HETATM   20  C5  UNL     1      -3.362   5.304  13.032  1.00  0.00    -0.011 C 
HETATM   21  C6  UNL     1      -3.247   4.484  11.741  1.00  0.00     0.010 C 
BRANCH  20  22
HETATM   22  C4  UNL     1      -4.749   6.008  13.072  1.00  0.00     0.009 C 
BRANCH  22  23
HETATM   23  C3  UNL     1      -5.754   5.331  14.021  1.00  0.00     0.034 C 
BRANCH  23  24
HETATM   24  C2  UNL     1      -6.879   4.519  13.383  1.00  0.00    -0.083 C 
HETATM   25  C1  UNL     1      -6.698   3.285  12.875  1.00  0.00     0.015 C 
BRANCH  24  26
HETATM   26  C26 UNL     1      -8.246   5.226  13.403  1.00  0.00     0.033 C 
HETATM   27  C27 UNL     1      -8.706   5.790  12.049  1.00  0.00     0.017 C 
BRANCH  26  28
HETATM   28  C28 UNL     1      -8.329   6.324  14.488  1.00  0.00     0.172 C 
BRANCH  28  29
HETATM   29  O6  UNL     1      -8.934   5.871  15.694  1.00  0.00    -0.400 OA
HETATM   30  H48 UNL     1      -8.516   5.031  15.943  1.00  0.00     0.209 HD
ENDBRANCH  28  29
ENDBRANCH  26  28
ENDBRANCH  24  26
ENDBRANCH  23  24
ENDBRANCH  22  23
ENDBRANCH  20  22
ENDBRANCH   1  20
BRANCH   2  31
HETATM   31  O1  UNL     1      -2.359   6.052  15.664  1.00  0.00    -0.393 OA
HETATM   32  H13 UNL     1      -3.312   5.854  15.674  1.00  0.00     0.210 HD
ENDBRANCH   2  31
BRANCH   3  33
HETATM   33  O2  UNL     1       0.021   6.843  15.838  1.00  0.00    -0.392 OA
HETATM   34  H15 UNL     1      -0.683   6.308  16.273  1.00  0.00     0.210 HD
ENDBRANCH   3  33
BRANCH  19  35
HETATM   35  O5  UNL     1       2.049   6.180  14.343  1.00  0.00    -0.389 OA
HETATM   36  H41 UNL     1       1.501   6.324  15.149  1.00  0.00     0.210 HD
ENDBRANCH  19  35
BRANCH  17  37
HETATM   37  O4  UNL     1       4.188   9.717  13.575  1.00  0.00    -0.395 OA
HETATM   38  H38 UNL     1       3.884  10.176  14.377  1.00  0.00     0.210 HD
ENDBRANCH  17  37
BRANCH  14  39
HETATM   39  O3  UNL     1       6.858   9.371  10.473  1.00  0.00    -0.396 OA
HETATM   40  H33 UNL     1       7.442   9.641  11.203  1.00  0.00     0.210 HD
ENDBRANCH  14  39
TORSDOF 12
ENDMDL
MODEL 7
REMARK minimizedAffinity -9.04611588
REMARK  12 active torsions:
REMARK  status: ('A' for Active; 'I' for Inactive)
REMARK    1  A    between atoms: C2_2  and  C3_3 
REMARK    2  A    between atoms: C2_2  and  C26_31 
REMARK    3  A    between atoms: C3_3  and  C4_4 
REMARK    4  A    between atoms: C4_4  and  C5_5 
REMARK    5  A    between atoms: C5_5  and  C7_7 
REMARK    6  A    between atoms: C8_8  and  O1_9 
REMARK    7  A    between atoms: C9_10  and  O2_11 
REMARK    8  A    between atoms: C20_22  and  O3_23 
REMARK    9  A    between atoms: C23_26  and  O4_27 
REMARK   10  A    between atoms: C25_29  and  O5_30 
REMARK   11  A    between atoms: C26_31  and  C28_33 
REMARK   12  A    between atoms: C28_33  and  O6_34 
ROOT
HETATM    1  C7  UNL     1      -5.543   7.071  13.884  1.00  0.00     0.029 C 
HETATM    2  C8  UNL     1      -5.898   8.314  14.762  1.00  0.00     0.152 C 
HETATM    3  C9  UNL     1      -4.567   9.061  15.033  1.00  0.00     0.155 C 
HETATM    4  C10 UNL     1      -3.503   8.262  14.277  1.00  0.00     0.060 C 
HETATM    5  C11 UNL     1      -4.036   6.802  14.239  1.00  0.00    -0.029 C 
HETATM    6  C12 UNL     1      -3.904   6.037  15.576  1.00  0.00     0.016 C 
HETATM    7  C13 UNL     1      -3.242   6.048  13.143  1.00  0.00     0.011 C 
HETATM    8  C14 UNL     1      -1.878   6.675  12.795  1.00  0.00     0.009 C 
HETATM    9  C15 UNL     1      -1.145   7.303  14.005  1.00  0.00     0.029 C 
HETATM   10  C16 UNL     1       0.349   7.734  13.679  1.00  0.00    -0.031 C 
HETATM   11  C17 UNL     1       1.207   6.437  13.822  1.00  0.00     0.016 C 
HETATM   12  C18 UNL     1       0.540   8.275  12.233  1.00  0.00     0.012 C 
HETATM   13  C19 UNL     1       1.975   8.711  11.924  1.00  0.00     0.032 C 
HETATM   14  C20 UNL     1       2.527   9.702  12.938  1.00  0.00     0.118 C 
HETATM   15  C21 UNL     1       2.314   9.251  14.385  1.00  0.00     0.039 C 
HETATM   16  C22 UNL     1       0.868   8.804  14.696  1.00  0.00     0.025 C 
HETATM   17  C23 UNL     1      -0.085  10.011  14.909  1.00  0.00     0.126 C 
HETATM   18  C24 UNL     1      -1.516   9.797  14.428  1.00  0.00     0.071 C 
HETATM   19  C25 UNL     1      -2.021   8.388  14.709  1.00  0.00     0.071 C 
ENDROOT
BRANCH   1  20
HETATM   20  C5  UNL     1      -6.573   5.903  13.981  1.00  0.00    -0.011 C 
HETATM   21  C6  UNL     1      -7.170   5.754  15.386  1.00  0.00     0.010 C 
BRANCH  20  22
HETATM   22  C4  UNL     1      -5.901   4.563  13.563  1.00  0.00     0.009 C 
BRANCH  22  23
HETATM   23  C3  UNL     1      -6.417   4.010  12.223  1.00  0.00     0.034 C 
BRANCH  23  24
HETATM   24  C2  UNL     1      -5.601   2.899  11.566  1.00  0.00    -0.083 C 
HETATM   25  C1  UNL     1      -6.105   1.682  11.287  1.00  0.00     0.015 C 
BRANCH  24  26
HETATM   26  C26 UNL     1      -4.158   3.308  11.221  1.00  0.00     0.033 C 
HETATM   27  C27 UNL     1      -3.875   3.489   9.720  1.00  0.00     0.017 C 
BRANCH  26  28
HETATM   28  C28 UNL     1      -3.109   2.361  11.846  1.00  0.00     0.172 C 
BRANCH  28  29
HETATM   29  O6  UNL     1      -3.239   1.015  11.402  1.00  0.00    -0.400 OA
HETATM   30  H48 UNL     1      -3.310   1.023  10.433  1.00  0.00     0.209 HD
ENDBRANCH  28  29
ENDBRANCH  26  28
ENDBRANCH  24  26
ENDBRANCH  23  24
ENDBRANCH  22  23
ENDBRANCH  20  22
ENDBRANCH   1  20
BRANCH   2  31
HETATM   31  O1  UNL     1      -6.481   7.980  16.024  1.00  0.00    -0.393 OA
HETATM   32  H13 UNL     1      -7.386   7.657  15.866  1.00  0.00     0.210 HD
ENDBRANCH   2  31
BRANCH   3  33
HETATM   33  O2  UNL     1      -4.287   9.138  16.431  1.00  0.00    -0.392 OA
HETATM   34  H15 UNL     1      -5.094   8.771  16.860  1.00  0.00     0.210 HD
ENDBRANCH   3  33
BRANCH  19  35
HETATM   35  O5  UNL     1      -1.883   8.182  16.122  1.00  0.00    -0.389 OA
HETATM   36  H41 UNL     1      -2.664   8.603  16.550  1.00  0.00     0.210 HD
ENDBRANCH  19  35
BRANCH  17  37
HETATM   37  O4  UNL     1       0.393  11.208  14.296  1.00  0.00    -0.395 OA
HETATM   38  H38 UNL     1      -0.155  11.940  14.629  1.00  0.00     0.210 HD
ENDBRANCH  17  37
BRANCH  14  39
HETATM   39  O3  UNL     1       3.928   9.857  12.698  1.00  0.00    -0.396 OA
HETATM   40  H33 UNL     1       4.242  10.538  13.319  1.00  0.00     0.210 HD
ENDBRANCH  14  39
TORSDOF 12
ENDMDL
MODEL 8
REMARK minimizedAffinity -9.02387333
REMARK  12 active torsions:
REMARK  status: ('A' for Active; 'I' for Inactive)
REMARK    1  A    between atoms: C2_2  and  C3_3 
REMARK    2  A    between atoms: C2_2  and  C26_31 
REMARK    3  A    between atoms: C3_3  and  C4_4 
REMARK    4  A    between atoms: C4_4  and  C5_5 
REMARK    5  A    between atoms: C5_5  and  C7_7 
REMARK    6  A    between atoms: C8_8  and  O1_9 
REMARK    7  A    between atoms: C9_10  and  O2_11 
REMARK    8  A    between atoms: C20_22  and  O3_23 
REMARK    9  A    between atoms: C23_26  and  O4_27 
REMARK   10  A    between atoms: C25_29  and  O5_30 
REMARK   11  A    between atoms: C26_31  and  C28_33 
REMARK   12  A    between atoms: C28_33  and  O6_34 
ROOT
HETATM    1  C7  UNL     1       0.045   6.149  11.477  1.00  0.00     0.029 C 
HETATM    2  C8  UNL     1      -0.013   4.771  10.742  1.00  0.00     0.152 C 
HETATM    3  C9  UNL     1      -1.410   4.169  11.037  1.00  0.00     0.155 C 
HETATM    4  C10 UNL     1      -2.125   5.223  11.887  1.00  0.00     0.060 C 
HETATM    5  C11 UNL     1      -0.994   5.976  12.642  1.00  0.00    -0.029 C 
HETATM    6  C12 UNL     1      -0.382   5.191  13.826  1.00  0.00     0.016 C 
HETATM    7  C13 UNL     1      -1.595   7.302  13.171  1.00  0.00     0.011 C 
HETATM    8  C14 UNL     1      -3.129   7.297  13.314  1.00  0.00     0.009 C 
HETATM    9  C15 UNL     1      -3.717   5.937  13.759  1.00  0.00     0.029 C 
HETATM   10  C16 UNL     1      -5.261   6.009  14.126  1.00  0.00    -0.031 C 
HETATM   11  C17 UNL     1      -5.325   6.528  15.598  1.00  0.00     0.016 C 
HETATM   12  C18 UNL     1      -6.067   7.000  13.238  1.00  0.00     0.012 C 
HETATM   13  C19 UNL     1      -7.559   7.056  13.575  1.00  0.00     0.032 C 
HETATM   14  C20 UNL     1      -8.221   5.685  13.576  1.00  0.00     0.118 C 
HETATM   15  C21 UNL     1      -7.439   4.649  14.388  1.00  0.00     0.039 C 
HETATM   16  C22 UNL     1      -5.932   4.598  14.053  1.00  0.00     0.025 C 
HETATM   17  C23 UNL     1      -5.649   3.815  12.742  1.00  0.00     0.126 C 
HETATM   18  C24 UNL     1      -4.478   4.336  11.917  1.00  0.00     0.071 C 
HETATM   19  C25 UNL     1      -3.309   4.787  12.783  1.00  0.00     0.071 C 
ENDROOT
BRANCH   1  20
HETATM   20  C5  UNL     1       1.489   6.640  11.805  1.00  0.00    -0.011 C 
HETATM   21  C6  UNL     1       1.513   7.757  12.855  1.00  0.00     0.010 C 
BRANCH  20  22
HETATM   22  C4  UNL     1       2.190   7.139  10.508  1.00  0.00     0.009 C 
BRANCH  22  23
HETATM   23  C3  UNL     1       2.426   6.027   9.470  1.00  0.00     0.034 C 
BRANCH  23  24
HETATM   24  C2  UNL     1       2.439   6.436   7.999  1.00  0.00    -0.083 C 
HETATM   25  C1  UNL     1       2.763   5.590   7.003  1.00  0.00     0.015 C 
BRANCH  24  26
HETATM   26  C26 UNL     1       2.016   7.896   7.756  1.00  0.00     0.033 C 
HETATM   27  C27 UNL     1       3.142   8.933   7.906  1.00  0.00     0.017 C 
BRANCH  26  28
HETATM   28  C28 UNL     1       0.799   8.311   8.612  1.00  0.00     0.172 C 
BRANCH  28  29
HETATM   29  O6  UNL     1      -0.415   8.358   7.871  1.00  0.00    -0.400 OA
HETATM   30  H48 UNL     1      -0.490   7.533   7.363  1.00  0.00     0.209 HD
ENDBRANCH  28  29
ENDBRANCH  26  28
ENDBRANCH  24  26
ENDBRANCH  23  24
ENDBRANCH  22  23
ENDBRANCH  20  22
ENDBRANCH   1  20
BRANCH   2  31
HETATM   31  O1  UNL     1       0.973   3.838  11.190  1.00  0.00    -0.393 OA
HETATM   32  H13 UNL     1       1.842   4.134  10.865  1.00  0.00     0.210 HD
ENDBRANCH   2  31
BRANCH   3  33
HETATM   33  O2  UNL     1      -1.306   2.916  11.714  1.00  0.00    -0.392 OA
HETATM   34  H15 UNL     1      -0.339   2.723  11.719  1.00  0.00     0.210 HD
ENDBRANCH   3  33
BRANCH  19  35
HETATM   35  O5  UNL     1      -2.948   3.661  13.595  1.00  0.00    -0.389 OA
HETATM   36  H41 UNL     1      -2.379   3.079  13.039  1.00  0.00     0.210 HD
ENDBRANCH  19  35
BRANCH  17  37
HETATM   37  O4  UNL     1      -6.784   3.757  11.877  1.00  0.00    -0.395 OA
HETATM   38  H38 UNL     1      -6.583   3.104  11.183  1.00  0.00     0.210 HD
ENDBRANCH  17  37
BRANCH  14  39
HETATM   39  O3  UNL     1      -9.532   5.819  14.128  1.00  0.00    -0.396 OA
HETATM   40  H33 UNL     1      -9.952   4.944  14.062  1.00  0.00     0.210 HD
ENDBRANCH  14  39
TORSDOF 12
ENDMDL
MODEL 9
REMARK minimizedAffinity -8.95352936
REMARK  12 active torsions:
REMARK  status: ('A' for Active; 'I' for Inactive)
REMARK    1  A    between atoms: C2_2  and  C3_3 
REMARK    2  A    between atoms: C2_2  and  C26_31 
REMARK    3  A    between atoms: C3_3  and  C4_4 
REMARK    4  A    between atoms: C4_4  and  C5_5 
REMARK    5  A    between atoms: C5_5  and  C7_7 
REMARK    6  A    between atoms: C8_8  and  O1_9 
REMARK    7  A    between atoms: C9_10  and  O2_11 
REMARK    8  A    between atoms: C20_22  and  O3_23 
REMARK    9  A    between atoms: C23_26  and  O4_27 
REMARK   10  A    between atoms: C25_29  and  O5_30 
REMARK   11  A    between atoms: C26_31  and  C28_33 
REMARK   12  A    between atoms: C28_33  and  O6_34 
ROOT
HETATM    1  C7  UNL     1      -0.232   5.748  12.913  1.00  0.00     0.029 C 
HETATM    2  C8  UNL     1       0.061   4.794  11.709  1.00  0.00     0.152 C 
HETATM    3  C9  UNL     1       1.426   5.229  11.120  1.00  0.00     0.155 C 
HETATM    4  C10 UNL     1       1.898   6.378  12.015  1.00  0.00     0.060 C 
HETATM    5  C11 UNL     1       0.597   7.034  12.558  1.00  0.00    -0.029 C 
HETATM    6  C12 UNL     1      -0.151   7.917  11.532  1.00  0.00     0.016 C 
HETATM    7  C13 UNL     1       0.992   7.902  13.779  1.00  0.00     0.011 C 
HETATM    8  C14 UNL     1       2.473   8.327  13.810  1.00  0.00     0.009 C 
HETATM    9  C15 UNL     1       3.077   8.614  12.415  1.00  0.00     0.029 C 
HETATM   10  C16 UNL     1       4.522   9.271  12.479  1.00  0.00    -0.031 C 
HETATM   11  C17 UNL     1       4.286  10.799  12.700  1.00  0.00     0.016 C 
HETATM   12  C18 UNL     1       5.392   8.748  13.657  1.00  0.00     0.012 C 
HETATM   13  C19 UNL     1       6.793   9.363  13.708  1.00  0.00     0.032 C 
HETATM   14  C20 UNL     1       7.548   9.234  12.392  1.00  0.00     0.118 C 
HETATM   15  C21 UNL     1       6.718   9.679  11.186  1.00  0.00     0.039 C 
HETATM   16  C22 UNL     1       5.302   9.065  11.138  1.00  0.00     0.025 C 
HETATM   17  C23 UNL     1       5.315   7.602  10.616  1.00  0.00     0.126 C 
HETATM   18  C24 UNL     1       4.270   6.684  11.239  1.00  0.00     0.071 C 
HETATM   19  C25 UNL     1       2.936   7.384  11.462  1.00  0.00     0.071 C 
ENDROOT
BRANCH   1  20
HETATM   20  C5  UNL     1      -1.744   5.884  13.269  1.00  0.00    -0.011 C 
HETATM   21  C6  UNL     1      -1.975   6.324  14.719  1.00  0.00     0.010 C 
BRANCH  20  22
HETATM   22  C4  UNL     1      -2.475   4.533  13.019  1.00  0.00     0.009 C 
BRANCH  22  23
HETATM   23  C3  UNL     1      -3.993   4.602  13.262  1.00  0.00     0.034 C 
BRANCH  23  24
HETATM   24  C2  UNL     1      -4.892   3.853  12.282  1.00  0.00    -0.083 C 
HETATM   25  C1  UNL     1      -4.419   2.987  11.364  1.00  0.00     0.015 C 
BRANCH  24  26
HETATM   26  C26 UNL     1      -6.391   4.152  12.458  1.00  0.00     0.033 C 
HETATM   27  C27 UNL     1      -6.715   5.307  13.420  1.00  0.00     0.017 C 
BRANCH  26  28
HETATM   28  C28 UNL     1      -7.204   2.897  12.847  1.00  0.00     0.172 C 
BRANCH  28  29
HETATM   29  O6  UNL     1      -8.558   3.189  13.175  1.00  0.00    -0.400 OA
HETATM   30  H48 UNL     1      -8.922   3.755  12.475  1.00  0.00     0.209 HD
ENDBRANCH  28  29
ENDBRANCH  26  28
ENDBRANCH  24  26
ENDBRANCH  23  24
ENDBRANCH  22  23
ENDBRANCH  20  22
ENDBRANCH   1  20
BRANCH   2  31
HETATM   31  O1  UNL     1      -0.914   4.870  10.666  1.00  0.00    -0.393 OA
HETATM   32  H13 UNL     1      -1.733   4.449  10.983  1.00  0.00     0.210 HD
ENDBRANCH   2  31
BRANCH   3  33
HETATM   33  O2  UNL     1       1.302   5.631   9.755  1.00  0.00    -0.392 OA
HETATM   34  H15 UNL     1       0.368   5.419   9.524  1.00  0.00     0.210 HD
ENDBRANCH   3  33
BRANCH  19  35
HETATM   35  O5  UNL     1       2.526   7.891  10.185  1.00  0.00    -0.389 OA
HETATM   36  H41 UNL     1       2.110   7.141   9.700  1.00  0.00     0.210 HD
ENDBRANCH  19  35
BRANCH  17  37
HETATM   37  O4  UNL     1       6.585   6.969  10.776  1.00  0.00    -0.395 OA
HETATM   38  H38 UNL     1       6.560   6.142  10.264  1.00  0.00     0.210 HD
ENDBRANCH  17  37
BRANCH  14  39
HETATM   39  O3  UNL     1       8.727  10.037  12.470  1.00  0.00    -0.396 OA
HETATM   40  H33 UNL     1       9.219   9.890  11.644  1.00  0.00     0.210 HD
ENDBRANCH  14  39
TORSDOF 12
ENDMDL
