MODEL 1
REMARK minimizedAffinity -10.0793161
REMARK  6 active torsions:
REMARK  status: ('A' for Active; 'I' for Inactive)
REMARK    1  A    between atoms: C2_2  and  C30_33 
REMARK    2  A    between atoms: C3_3  and  C4_4 
REMARK    3  A    between atoms: C4_4  and  C5_5 
REMARK    4  A    between atoms: C5_5  and  C6_6 
REMARK    5  A    between atoms: C6_6  and  C8_8 
REMARK    6  A    between atoms: C30_33  and  O5_35 
ROOT
HETATM    1  C8  UNL     1      -3.963  50.299 -24.756  1.00  0.00    -0.001 C 
HETATM    2  C9  UNL     1      -5.443  50.088 -24.337  1.00  0.00     0.007 C 
HETATM    3  C10 UNL     1      -5.472  50.060 -22.797  1.00  0.00     0.015 C 
HETATM    4  C11 UNL     1      -4.108  50.631 -22.358  1.00  0.00    -0.004 C 
HETATM    5  C12 UNL     1      -4.230  52.186 -22.405  1.00  0.00     0.021 C 
HETATM    6  C13 UNL     1      -3.542  50.326 -20.979  1.00  0.00     0.007 C 
HETATM    7  C14 UNL     1      -2.210  50.330 -20.719  1.00  0.00     0.007 C 
HETATM    8  C15 UNL     1      -1.266  50.559 -21.893  1.00  0.00     0.157 C 
HETATM    9  O1  UNL     1      -0.057  50.690 -21.708  1.00  0.00    -0.293 OA
HETATM   10  C16 UNL     1      -1.798  50.632 -23.321  1.00  0.00     0.094 C 
HETATM   11  C17 UNL     1      -3.175  49.986 -23.449  1.00  0.00    -0.022 C 
HETATM   12  C18 UNL     1      -3.006  48.447 -23.275  1.00  0.00     0.017 C 
HETATM   13  C19 UNL     1      -1.583  50.098 -19.319  1.00  0.00    -0.007 C 
HETATM   14  C20 UNL     1      -0.949  48.685 -19.352  1.00  0.00     0.021 C 
HETATM   15  C21 UNL     1      -0.469  51.146 -18.994  1.00  0.00     0.022 C 
HETATM   16  C22 UNL     1      -0.284  51.499 -17.519  1.00  0.00     0.080 C 
HETATM   17  C23 UNL     1      -0.736  50.384 -16.610  1.00  0.00     0.135 C 
HETATM   18  O2  UNL     1       0.021  49.908 -15.766  1.00  0.00    -0.297 OA
HETATM   19  C24 UNL     1      -2.199  49.949 -16.744  1.00  0.00     0.018 C 
HETATM   20  C25 UNL     1      -2.347  48.477 -16.310  1.00  0.00     0.023 C 
HETATM   21  C26 UNL     1      -3.007  50.807 -15.745  1.00  0.00     0.023 C 
HETATM   22  C27 UNL     1      -2.683  50.240 -18.205  1.00  0.00     0.021 C 
HETATM   23  C28 UNL     1      -3.952  49.481 -18.585  1.00  0.00     0.090 C 
HETATM   24  C29 UNL     1      -4.501  50.046 -19.868  1.00  0.00     0.157 C 
HETATM   25  O3  UNL     1      -5.706  50.240 -19.999  1.00  0.00    -0.293 OA
ENDROOT
BRANCH   1  26
HETATM   26  C6  UNL     1      -3.608  49.683 -26.142  1.00  0.00    -0.014 C 
HETATM   27  C7  UNL     1      -4.279  48.352 -26.503  1.00  0.00     0.010 C 
BRANCH  26  28
HETATM   28  C5  UNL     1      -2.077  49.591 -26.346  1.00  0.00     0.008 C 
BRANCH  28  29
HETATM   29  C4  UNL     1      -1.400  50.893 -26.805  1.00  0.00     0.028 C 
BRANCH  29  30
HETATM   30  C3  UNL     1       0.078  50.906 -26.519  1.00  0.00    -0.013 C 
HETATM   31  C2  UNL     1       1.062  51.464 -27.253  1.00  0.00     0.008 C 
HETATM   32  C1  UNL     1       0.890  52.208 -28.545  1.00  0.00     0.055 C 
BRANCH  31  33
HETATM   33  C30 UNL     1       2.480  51.382 -26.805  1.00  0.00     0.171 C 
HETATM   34  O4  UNL     1       2.895  50.660 -25.914  1.00  0.00    -0.646 OA
BRANCH  33  35
HETATM   35  O5  UNL     1       3.319  52.177 -27.489  1.00  0.00    -0.773 OA
HETATM   36  H42 UNL     1       4.190  51.996 -27.079  1.00  0.00     0.167 HD
ENDBRANCH  33  35
ENDBRANCH  31  33
ENDBRANCH  29  30
ENDBRANCH  28  29
ENDBRANCH  26  28
ENDBRANCH   1  26
TORSDOF 6
ENDMDL
MODEL 2
REMARK minimizedAffinity -9.61403179
REMARK  6 active torsions:
REMARK  status: ('A' for Active; 'I' for Inactive)
REMARK    1  A    between atoms: C2_2  and  C30_33 
REMARK    2  A    between atoms: C3_3  and  C4_4 
REMARK    3  A    between atoms: C4_4  and  C5_5 
REMARK    4  A    between atoms: C5_5  and  C6_6 
REMARK    5  A    between atoms: C6_6  and  C8_8 
REMARK    6  A    between atoms: C30_33  and  O5_35 
ROOT
HETATM    1  C8  UNL     1      -0.275  51.705 -17.140  1.00  0.00    -0.001 C 
HETATM    2  C9  UNL     1       1.175  52.229 -17.329  1.00  0.00     0.007 C 
HETATM    3  C10 UNL     1       1.358  52.505 -18.833  1.00  0.00     0.015 C 
HETATM    4  C11 UNL     1      -0.070  52.510 -19.418  1.00  0.00    -0.004 C 
HETATM    5  C12 UNL     1      -0.663  53.929 -19.156  1.00  0.00     0.021 C 
HETATM    6  C13 UNL     1      -0.306  52.257 -20.899  1.00  0.00     0.007 C 
HETATM    7  C14 UNL     1      -1.467  51.741 -21.376  1.00  0.00     0.007 C 
HETATM    8  C15 UNL     1      -2.520  51.321 -20.357  1.00  0.00     0.157 C 
HETATM    9  O1  UNL     1      -3.636  50.956 -20.724  1.00  0.00    -0.293 OA
HETATM   10  C16 UNL     1      -2.214  51.345 -18.863  1.00  0.00     0.094 C 
HETATM   11  C17 UNL     1      -0.712  51.336 -18.590  1.00  0.00    -0.022 C 
HETATM   12  C18 UNL     1      -0.156  49.936 -18.983  1.00  0.00     0.017 C 
HETATM   13  C19 UNL     1      -1.789  51.531 -22.879  1.00  0.00    -0.007 C 
HETATM   14  C20 UNL     1      -1.722  50.005 -23.132  1.00  0.00     0.021 C 
HETATM   15  C21 UNL     1      -3.219  52.044 -23.251  1.00  0.00     0.022 C 
HETATM   16  C22 UNL     1      -3.402  52.554 -24.679  1.00  0.00     0.080 C 
HETATM   17  C23 UNL     1      -2.415  51.931 -25.634  1.00  0.00     0.135 C 
HETATM   18  O2  UNL     1      -2.795  51.345 -26.646  1.00  0.00    -0.297 OA
HETATM   19  C24 UNL     1      -0.932  52.145 -25.313  1.00  0.00     0.018 C 
HETATM   20  C25 UNL     1      -0.100  50.987 -25.898  1.00  0.00     0.023 C 
HETATM   21  C26 UNL     1      -0.505  53.435 -26.046  1.00  0.00     0.023 C 
HETATM   22  C27 UNL     1      -0.770  52.335 -23.766  1.00  0.00     0.021 C 
HETATM   23  C28 UNL     1       0.663  52.133 -23.279  1.00  0.00     0.090 C 
HETATM   24  C29 UNL     1       0.777  52.627 -21.861  1.00  0.00     0.157 C 
HETATM   25  O3  UNL     1       1.749  53.288 -21.507  1.00  0.00    -0.293 OA
ENDROOT
BRANCH   1  26
HETATM   26  C6  UNL     1      -0.445  50.748 -15.922  1.00  0.00    -0.014 C 
HETATM   27  C7  UNL     1       0.373  49.450 -15.939  1.00  0.00     0.010 C 
BRANCH  26  28
HETATM   28  C5  UNL     1      -1.936  50.447 -15.642  1.00  0.00     0.008 C 
BRANCH  28  29
HETATM   29  C4  UNL     1      -2.318  50.365 -14.155  1.00  0.00     0.028 C 
BRANCH  29  30
HETATM   30  C3  UNL     1      -2.867  51.663 -13.628  1.00  0.00    -0.013 C 
HETATM   31  C2  UNL     1      -3.436  51.901 -12.429  1.00  0.00     0.008 C 
HETATM   32  C1  UNL     1      -3.652  50.894 -11.337  1.00  0.00     0.055 C 
BRANCH  31  33
HETATM   33  C30 UNL     1      -3.918  53.265 -12.076  1.00  0.00     0.171 C 
HETATM   34  O4  UNL     1      -3.955  53.728 -10.950  1.00  0.00    -0.646 OA
BRANCH  33  35
HETATM   35  O5  UNL     1      -4.312  53.996 -13.132  1.00  0.00    -0.773 OA
HETATM   36  H42 UNL     1      -4.585  54.847 -12.730  1.00  0.00     0.167 HD
ENDBRANCH  33  35
ENDBRANCH  31  33
ENDBRANCH  29  30
ENDBRANCH  28  29
ENDBRANCH  26  28
ENDBRANCH   1  26
TORSDOF 6
ENDMDL
MODEL 3
REMARK minimizedAffinity -9.54787731
REMARK  6 active torsions:
REMARK  status: ('A' for Active; 'I' for Inactive)
REMARK    1  A    between atoms: C2_2  and  C30_33 
REMARK    2  A    between atoms: C3_3  and  C4_4 
REMARK    3  A    between atoms: C4_4  and  C5_5 
REMARK    4  A    between atoms: C5_5  and  C6_6 
REMARK    5  A    between atoms: C6_6  and  C8_8 
REMARK    6  A    between atoms: C30_33  and  O5_35 
ROOT
HETATM    1  C8  UNL     1      -0.741  50.010 -20.721  1.00  0.00    -0.001 C 
HETATM    2  C9  UNL     1      -0.962  49.103 -19.479  1.00  0.00     0.007 C 
HETATM    3  C10 UNL     1      -2.242  48.287 -19.742  1.00  0.00     0.015 C 
HETATM    4  C11 UNL     1      -2.516  48.443 -21.252  1.00  0.00    -0.004 C 
HETATM    5  C12 UNL     1      -1.614  47.403 -21.987  1.00  0.00     0.021 C 
HETATM    6  C13 UNL     1      -3.909  48.221 -21.820  1.00  0.00     0.007 C 
HETATM    7  C14 UNL     1      -4.338  48.817 -22.960  1.00  0.00     0.007 C 
HETATM    8  C15 UNL     1      -3.398  49.816 -23.626  1.00  0.00     0.157 C 
HETATM    9  O1  UNL     1      -3.676  50.303 -24.721  1.00  0.00    -0.293 OA
HETATM   10  C16 UNL     1      -2.096  50.232 -22.951  1.00  0.00     0.094 C 
HETATM   11  C17 UNL     1      -2.117  49.953 -21.451  1.00  0.00    -0.022 C 
HETATM   12  C18 UNL     1      -3.122  50.942 -20.788  1.00  0.00     0.017 C 
HETATM   13  C19 UNL     1      -5.719  48.570 -23.621  1.00  0.00    -0.007 C 
HETATM   14  C20 UNL     1      -6.561  49.845 -23.366  1.00  0.00     0.021 C 
HETATM   15  C21 UNL     1      -5.600  48.342 -25.163  1.00  0.00     0.022 C 
HETATM   16  C22 UNL     1      -6.655  47.435 -25.795  1.00  0.00     0.080 C 
HETATM   17  C23 UNL     1      -7.936  47.417 -24.999  1.00  0.00     0.135 C 
HETATM   18  O2  UNL     1      -9.013  47.694 -25.525  1.00  0.00    -0.297 OA
HETATM   19  C24 UNL     1      -7.824  46.958 -23.542  1.00  0.00     0.018 C 
HETATM   20  C25 UNL     1      -8.955  47.590 -22.708  1.00  0.00     0.023 C 
HETATM   21  C26 UNL     1      -8.052  45.430 -23.543  1.00  0.00     0.023 C 
HETATM   22  C27 UNL     1      -6.382  47.279 -23.018  1.00  0.00     0.021 C 
HETATM   23  C28 UNL     1      -6.275  47.265 -21.495  1.00  0.00     0.090 C 
HETATM   24  C29 UNL     1      -4.822  47.279 -21.101  1.00  0.00     0.157 C 
HETATM   25  O3  UNL     1      -4.413  46.557 -20.197  1.00  0.00    -0.293 OA
ENDROOT
BRANCH   1  26
HETATM   26  C6  UNL     1       0.010  51.337 -20.405  1.00  0.00    -0.014 C 
HETATM   27  C7  UNL     1      -0.224  51.955 -19.020  1.00  0.00     0.010 C 
BRANCH  26  28
HETATM   28  C5  UNL     1      -0.213  52.392 -21.515  1.00  0.00     0.008 C 
BRANCH  28  29
HETATM   29  C4  UNL     1       0.677  52.230 -22.758  1.00  0.00     0.028 C 
BRANCH  29  30
HETATM   30  C3  UNL     1       0.218  53.082 -23.910  1.00  0.00    -0.013 C 
HETATM   31  C2  UNL     1       0.505  52.934 -25.220  1.00  0.00     0.008 C 
HETATM   32  C1  UNL     1       1.368  51.864 -25.822  1.00  0.00     0.055 C 
BRANCH  31  33
HETATM   33  C30 UNL     1      -0.051  53.880 -26.228  1.00  0.00     0.171 C 
HETATM   34  O4  UNL     1      -0.728  53.562 -27.190  1.00  0.00    -0.646 OA
BRANCH  33  35
HETATM   35  O5  UNL     1       0.238  55.169 -25.988  1.00  0.00    -0.773 OA
HETATM   36  H42 UNL     1      -0.201  55.641 -26.726  1.00  0.00     0.167 HD
ENDBRANCH  33  35
ENDBRANCH  31  33
ENDBRANCH  29  30
ENDBRANCH  28  29
ENDBRANCH  26  28
ENDBRANCH   1  26
TORSDOF 6
ENDMDL
MODEL 4
REMARK minimizedAffinity -9.54384136
REMARK  6 active torsions:
REMARK  status: ('A' for Active; 'I' for Inactive)
REMARK    1  A    between atoms: C2_2  and  C30_33 
REMARK    2  A    between atoms: C3_3  and  C4_4 
REMARK    3  A    between atoms: C4_4  and  C5_5 
REMARK    4  A    between atoms: C5_5  and  C6_6 
REMARK    5  A    between atoms: C6_6  and  C8_8 
REMARK    6  A    between atoms: C30_33  and  O5_35 
ROOT
HETATM    1  C8  UNL     1      -0.533  50.415 -21.317  1.00  0.00    -0.001 C 
HETATM    2  C9  UNL     1      -0.429  49.835 -19.880  1.00  0.00     0.007 C 
HETATM    3  C10 UNL     1      -1.712  49.019 -19.633  1.00  0.00     0.015 C 
HETATM    4  C11 UNL     1      -2.338  48.821 -21.028  1.00  0.00    -0.004 C 
HETATM    5  C12 UNL     1      -1.607  47.609 -21.686  1.00  0.00     0.021 C 
HETATM    6  C13 UNL     1      -3.819  48.511 -21.181  1.00  0.00     0.007 C 
HETATM    7  C14 UNL     1      -4.522  48.833 -22.297  1.00  0.00     0.007 C 
HETATM    8  C15 UNL     1      -3.795  49.617 -23.383  1.00  0.00     0.157 C 
HETATM    9  O1  UNL     1      -4.336  49.839 -24.465  1.00  0.00    -0.293 OA
HETATM   10  C16 UNL     1      -2.382  50.143 -23.153  1.00  0.00     0.094 C 
HETATM   11  C17 UNL     1      -2.040  50.228 -21.667  1.00  0.00    -0.022 C 
HETATM   12  C18 UNL     1      -2.888  51.375 -21.041  1.00  0.00     0.017 C 
HETATM   13  C19 UNL     1      -6.013  48.478 -22.535  1.00  0.00    -0.007 C 
HETATM   14  C20 UNL     1      -6.806  49.800 -22.398  1.00  0.00     0.021 C 
HETATM   15  C21 UNL     1      -6.255  47.886 -23.962  1.00  0.00     0.022 C 
HETATM   16  C22 UNL     1      -7.403  46.887 -24.093  1.00  0.00     0.080 C 
HETATM   17  C23 UNL     1      -8.459  47.097 -23.037  1.00  0.00     0.135 C 
HETATM   18  O2  UNL     1      -9.637  47.273 -23.344  1.00  0.00    -0.297 OA
HETATM   19  C24 UNL     1      -7.993  46.993 -21.581  1.00  0.00     0.018 C 
HETATM   20  C25 UNL     1      -8.913  47.839 -20.678  1.00  0.00     0.023 C 
HETATM   21  C26 UNL     1      -8.172  45.516 -21.166  1.00  0.00     0.023 C 
HETATM   22  C27 UNL     1      -6.478  47.386 -21.504  1.00  0.00     0.021 C 
HETATM   23  C28 UNL     1      -6.014  47.731 -20.090  1.00  0.00     0.090 C 
HETATM   24  C29 UNL     1      -4.511  47.795 -20.066  1.00  0.00     0.157 C 
HETATM   25  O3  UNL     1      -3.880  47.296 -19.138  1.00  0.00    -0.293 OA
ENDROOT
BRANCH   1  26
HETATM   26  C6  UNL     1       0.234  51.757 -21.512  1.00  0.00    -0.014 C 
HETATM   27  C7  UNL     1       0.249  52.727 -20.324  1.00  0.00     0.010 C 
BRANCH  26  28
HETATM   28  C5  UNL     1      -0.216  52.485 -22.801  1.00  0.00     0.008 C 
BRANCH  28  29
HETATM   29  C4  UNL     1       0.609  52.159 -24.057  1.00  0.00     0.028 C 
BRANCH  29  30
HETATM   30  C3  UNL     1       0.237  53.023 -25.231  1.00  0.00    -0.013 C 
HETATM   31  C2  UNL     1       0.288  52.713 -26.543  1.00  0.00     0.008 C 
HETATM   32  C1  UNL     1       0.740  51.405 -27.125  1.00  0.00     0.055 C 
BRANCH  31  33
HETATM   33  C30 UNL     1      -0.131  53.704 -27.573  1.00  0.00     0.171 C 
HETATM   34  O4  UNL     1      -0.328  54.889 -27.368  1.00  0.00    -0.646 OA
BRANCH  33  35
HETATM   35  O5  UNL     1      -0.267  53.189 -28.805  1.00  0.00    -0.773 OA
HETATM   36  H42 UNL     1      -0.533  53.962 -29.346  1.00  0.00     0.167 HD
ENDBRANCH  33  35
ENDBRANCH  31  33
ENDBRANCH  29  30
ENDBRANCH  28  29
ENDBRANCH  26  28
ENDBRANCH   1  26
TORSDOF 6
ENDMDL
MODEL 5
REMARK minimizedAffinity -9.52744293
REMARK  6 active torsions:
REMARK  status: ('A' for Active; 'I' for Inactive)
REMARK    1  A    between atoms: C2_2  and  C30_33 
REMARK    2  A    between atoms: C3_3  and  C4_4 
REMARK    3  A    between atoms: C4_4  and  C5_5 
REMARK    4  A    between atoms: C5_5  and  C6_6 
REMARK    5  A    between atoms: C6_6  and  C8_8 
REMARK    6  A    between atoms: C30_33  and  O5_35 
ROOT
HETATM    1  C8  UNL     1      -2.567  50.535 -21.990  1.00  0.00    -0.001 C 
HETATM    2  C9  UNL     1      -1.834  51.842 -22.396  1.00  0.00     0.007 C 
HETATM    3  C10 UNL     1      -0.888  52.204 -21.236  1.00  0.00     0.015 C 
HETATM    4  C11 UNL     1      -0.802  50.928 -20.374  1.00  0.00    -0.004 C 
HETATM    5  C12 UNL     1       0.258  49.998 -21.044  1.00  0.00     0.021 C 
HETATM    6  C13 UNL     1      -0.387  51.000 -18.912  1.00  0.00     0.007 C 
HETATM    7  C14 UNL     1      -0.776  50.078 -17.996  1.00  0.00     0.007 C 
HETATM    8  C15 UNL     1      -1.741  48.992 -18.458  1.00  0.00     0.157 C 
HETATM    9  O1  UNL     1      -2.041  48.061 -17.711  1.00  0.00    -0.293 OA
HETATM   10  C16 UNL     1      -2.354  49.035 -19.853  1.00  0.00     0.094 C 
HETATM   11  C17 UNL     1      -2.294  50.435 -20.459  1.00  0.00    -0.022 C 
HETATM   12  C18 UNL     1      -3.283  51.346 -19.673  1.00  0.00     0.017 C 
HETATM   13  C19 UNL     1      -0.325  50.063 -16.512  1.00  0.00    -0.007 C 
HETATM   14  C20 UNL     1      -1.551  50.509 -15.677  1.00  0.00     0.021 C 
HETATM   15  C21 UNL     1       0.113  48.636 -16.046  1.00  0.00     0.022 C 
HETATM   16  C22 UNL     1       1.184  48.581 -14.958  1.00  0.00     0.080 C 
HETATM   17  C23 UNL     1       1.190  49.825 -14.106  1.00  0.00     0.135 C 
HETATM   18  O2  UNL     1       1.081  49.757 -12.883  1.00  0.00    -0.297 OA
HETATM   19  C24 UNL     1       1.424  51.150 -14.840  1.00  0.00     0.018 C 
HETATM   20  C25 UNL     1       0.771  52.303 -14.053  1.00  0.00     0.023 C 
HETATM   21  C26 UNL     1       2.949  51.394 -14.834  1.00  0.00     0.023 C 
HETATM   22  C27 UNL     1       0.915  51.009 -16.315  1.00  0.00     0.021 C 
HETATM   23  C28 UNL     1       0.700  52.351 -17.012  1.00  0.00     0.090 C 
HETATM   24  C29 UNL     1       0.511  52.117 -18.487  1.00  0.00     0.157 C 
HETATM   25  O3  UNL     1       1.060  52.845 -19.309  1.00  0.00    -0.293 OA
ENDROOT
BRANCH   1  26
HETATM   26  C6  UNL     1      -3.982  50.384 -22.623  1.00  0.00    -0.014 C 
HETATM   27  C7  UNL     1      -5.184  50.667 -21.711  1.00  0.00     0.010 C 
BRANCH  26  28
HETATM   28  C5  UNL     1      -4.146  49.016 -23.327  1.00  0.00     0.008 C 
BRANCH  28  29
HETATM   29  C4  UNL     1      -3.052  48.674 -24.351  1.00  0.00     0.028 C 
BRANCH  29  30
HETATM   30  C3  UNL     1      -2.941  49.704 -25.442  1.00  0.00    -0.013 C 
HETATM   31  C2  UNL     1      -3.295  49.585 -26.738  1.00  0.00     0.008 C 
HETATM   32  C1  UNL     1      -3.887  48.368 -27.386  1.00  0.00     0.055 C 
BRANCH  31  33
HETATM   33  C30 UNL     1      -3.116  50.726 -27.680  1.00  0.00     0.171 C 
HETATM   34  O4  UNL     1      -2.659  51.816 -27.383  1.00  0.00    -0.646 OA
BRANCH  33  35
HETATM   35  O5  UNL     1      -3.491  50.459 -28.941  1.00  0.00    -0.773 OA
HETATM   36  H42 UNL     1      -3.303  51.296 -29.416  1.00  0.00     0.167 HD
ENDBRANCH  33  35
ENDBRANCH  31  33
ENDBRANCH  29  30
ENDBRANCH  28  29
ENDBRANCH  26  28
ENDBRANCH   1  26
TORSDOF 6
ENDMDL
MODEL 6
REMARK minimizedAffinity -9.32940388
REMARK  6 active torsions:
REMARK  status: ('A' for Active; 'I' for Inactive)
REMARK    1  A    between atoms: C2_2  and  C30_33 
REMARK    2  A    between atoms: C3_3  and  C4_4 
REMARK    3  A    between atoms: C4_4  and  C5_5 
REMARK    4  A    between atoms: C5_5  and  C6_6 
REMARK    5  A    between atoms: C6_6  and  C8_8 
REMARK    6  A    between atoms: C30_33  and  O5_35 
ROOT
HETATM    1  C8  UNL     1      -4.578  48.234 -20.356  1.00  0.00    -0.001 C 
HETATM    2  C9  UNL     1      -5.169  47.294 -21.442  1.00  0.00     0.007 C 
HETATM    3  C10 UNL     1      -4.544  47.714 -22.786  1.00  0.00     0.015 C 
HETATM    4  C11 UNL     1      -3.340  48.603 -22.409  1.00  0.00    -0.004 C 
HETATM    5  C12 UNL     1      -2.155  47.645 -22.073  1.00  0.00     0.021 C 
HETATM    6  C13 UNL     1      -2.765  49.599 -23.404  1.00  0.00     0.007 C 
HETATM    7  C14 UNL     1      -2.109  50.722 -23.018  1.00  0.00     0.007 C 
HETATM    8  C15 UNL     1      -2.044  51.018 -21.524  1.00  0.00     0.157 C 
HETATM    9  O1  UNL     1      -1.368  51.954 -21.100  1.00  0.00    -0.293 OA
HETATM   10  C16 UNL     1      -2.813  50.162 -20.524  1.00  0.00     0.094 C 
HETATM   11  C17 UNL     1      -3.950  49.390 -21.190  1.00  0.00    -0.022 C 
HETATM   12  C18 UNL     1      -5.048  50.412 -21.611  1.00  0.00     0.017 C 
HETATM   13  C19 UNL     1      -1.441  51.733 -23.987  1.00  0.00    -0.007 C 
HETATM   14  C20 UNL     1      -2.338  52.996 -23.989  1.00  0.00     0.021 C 
HETATM   15  C21 UNL     1      -0.004  52.132 -23.520  1.00  0.00     0.022 C 
HETATM   16  C22 UNL     1       0.988  52.494 -24.623  1.00  0.00     0.080 C 
HETATM   17  C23 UNL     1       0.296  52.998 -25.864  1.00  0.00     0.135 C 
HETATM   18  O2  UNL     1       0.581  54.090 -26.351  1.00  0.00    -0.297 OA
HETATM   19  C24 UNL     1      -0.708  52.041 -26.517  1.00  0.00     0.018 C 
HETATM   20  C25 UNL     1      -1.769  52.848 -27.291  1.00  0.00     0.023 C 
HETATM   21  C26 UNL     1       0.084  51.211 -27.552  1.00  0.00     0.023 C 
HETATM   22  C27 UNL     1      -1.296  51.094 -25.416  1.00  0.00     0.021 C 
HETATM   23  C28 UNL     1      -2.588  50.399 -25.842  1.00  0.00     0.090 C 
HETATM   24  C29 UNL     1      -2.905  49.301 -24.863  1.00  0.00     0.157 C 
HETATM   25  O3  UNL     1      -3.294  48.206 -25.258  1.00  0.00    -0.293 OA
ENDROOT
BRANCH   1  26
HETATM   26  C6  UNL     1      -5.525  48.466 -19.141  1.00  0.00    -0.014 C 
HETATM   27  C7  UNL     1      -5.146  47.778 -17.824  1.00  0.00     0.010 C 
BRANCH  26  28
HETATM   28  C5  UNL     1      -6.999  48.167 -19.506  1.00  0.00     0.008 C 
BRANCH  28  29
HETATM   29  C4  UNL     1      -8.018  49.205 -19.008  1.00  0.00     0.028 C 
BRANCH  29  30
HETATM   30  C3  UNL     1      -8.859  48.689 -17.873  1.00  0.00    -0.013 C 
HETATM   31  C2  UNL     1     -10.077  48.112 -17.934  1.00  0.00     0.008 C 
HETATM   32  C1  UNL     1     -10.874  47.860 -19.181  1.00  0.00     0.055 C 
BRANCH  31  33
HETATM   33  C30 UNL     1     -10.760  47.652 -16.693  1.00  0.00     0.171 C 
HETATM   34  O4  UNL     1     -11.903  47.234 -16.635  1.00  0.00    -0.646 OA
BRANCH  33  35
HETATM   35  O5  UNL     1      -9.995  47.712 -15.592  1.00  0.00    -0.773 OA
HETATM   36  H42 UNL     1     -10.584  47.373 -14.886  1.00  0.00     0.167 HD
ENDBRANCH  33  35
ENDBRANCH  31  33
ENDBRANCH  29  30
ENDBRANCH  28  29
ENDBRANCH  26  28
ENDBRANCH   1  26
TORSDOF 6
ENDMDL
MODEL 7
REMARK minimizedAffinity -9.1977272
REMARK  6 active torsions:
REMARK  status: ('A' for Active; 'I' for Inactive)
REMARK    1  A    between atoms: C2_2  and  C30_33 
REMARK    2  A    between atoms: C3_3  and  C4_4 
REMARK    3  A    between atoms: C4_4  and  C5_5 
REMARK    4  A    between atoms: C5_5  and  C6_6 
REMARK    5  A    between atoms: C6_6  and  C8_8 
REMARK    6  A    between atoms: C30_33  and  O5_35 
ROOT
HETATM    1  C8  UNL     1      -1.850  48.824 -18.410  1.00  0.00    -0.001 C 
HETATM    2  C9  UNL     1      -2.822  47.724 -18.916  1.00  0.00     0.007 C 
HETATM    3  C10 UNL     1      -2.963  47.917 -20.438  1.00  0.00     0.015 C 
HETATM    4  C11 UNL     1      -1.800  48.849 -20.835  1.00  0.00    -0.004 C 
HETATM    5  C12 UNL     1      -0.532  47.952 -20.992  1.00  0.00     0.021 C 
HETATM    6  C13 UNL     1      -1.858  49.668 -22.115  1.00  0.00     0.007 C 
HETATM    7  C14 UNL     1      -1.184  50.836 -22.267  1.00  0.00     0.007 C 
HETATM    8  C15 UNL     1      -0.423  51.370 -21.059  1.00  0.00     0.157 C 
HETATM    9  O1  UNL     1       0.301  52.359 -21.163  1.00  0.00    -0.293 OA
HETATM   10  C16 UNL     1      -0.542  50.691 -19.699  1.00  0.00     0.094 C 
HETATM   11  C17 UNL     1      -1.797  49.827 -19.601  1.00  0.00    -0.022 C 
HETATM   12  C18 UNL     1      -3.034  50.772 -19.568  1.00  0.00     0.017 C 
HETATM   13  C19 UNL     1      -1.151  51.673 -23.573  1.00  0.00    -0.007 C 
HETATM   14  C20 UNL     1      -2.027  52.923 -23.315  1.00  0.00     0.021 C 
HETATM   15  C21 UNL     1       0.298  52.135 -23.937  1.00  0.00     0.022 C 
HETATM   16  C22 UNL     1       0.597  52.309 -25.425  1.00  0.00     0.080 C 
HETATM   17  C23 UNL     1      -0.647  52.608 -26.222  1.00  0.00     0.135 C 
HETATM   18  O2  UNL     1      -0.718  53.605 -26.937  1.00  0.00    -0.297 OA
HETATM   19  C24 UNL     1      -1.766  51.562 -26.151  1.00  0.00     0.018 C 
HETATM   20  C25 UNL     1      -3.127  52.238 -26.408  1.00  0.00     0.023 C 
HETATM   21  C26 UNL     1      -1.517  50.572 -27.309  1.00  0.00     0.023 C 
HETATM   22  C27 UNL     1      -1.671  50.810 -24.780  1.00  0.00     0.021 C 
HETATM   23  C28 UNL     1      -2.950  50.061 -24.410  1.00  0.00     0.090 C 
HETATM   24  C29 UNL     1      -2.667  49.138 -23.256  1.00  0.00     0.157 C 
HETATM   25  O3  UNL     1      -3.115  47.995 -23.246  1.00  0.00    -0.293 OA
ENDROOT
BRANCH   1  26
HETATM   26  C6  UNL     1      -2.101  49.255 -16.934  1.00  0.00    -0.014 C 
HETATM   27  C7  UNL     1      -1.934  50.745 -16.608  1.00  0.00     0.010 C 
BRANCH  26  28
HETATM   28  C5  UNL     1      -1.287  48.388 -15.944  1.00  0.00     0.008 C 
BRANCH  28  29
HETATM   29  C4  UNL     1       0.056  48.990 -15.501  1.00  0.00     0.028 C 
BRANCH  29  30
HETATM   30  C3  UNL     1       0.393  50.255 -16.242  1.00  0.00    -0.013 C 
HETATM   31  C2  UNL     1       1.303  51.196 -15.913  1.00  0.00     0.008 C 
HETATM   32  C1  UNL     1       2.193  51.180 -14.704  1.00  0.00     0.055 C 
BRANCH  31  33
HETATM   33  C30 UNL     1       1.506  52.390 -16.780  1.00  0.00     0.171 C 
HETATM   34  O4  UNL     1       0.812  52.689 -17.736  1.00  0.00    -0.646 OA
BRANCH  33  35
HETATM   35  O5  UNL     1       2.540  53.164 -16.413  1.00  0.00    -0.773 OA
HETATM   36  H42 UNL     1       2.524  53.891 -17.070  1.00  0.00     0.167 HD
ENDBRANCH  33  35
ENDBRANCH  31  33
ENDBRANCH  29  30
ENDBRANCH  28  29
ENDBRANCH  26  28
ENDBRANCH   1  26
TORSDOF 6
ENDMDL
MODEL 8
REMARK minimizedAffinity -8.91155434
REMARK  6 active torsions:
REMARK  status: ('A' for Active; 'I' for Inactive)
REMARK    1  A    between atoms: C2_2  and  C30_33 
REMARK    2  A    between atoms: C3_3  and  C4_4 
REMARK    3  A    between atoms: C4_4  and  C5_5 
REMARK    4  A    between atoms: C5_5  and  C6_6 
REMARK    5  A    between atoms: C6_6  and  C8_8 
REMARK    6  A    between atoms: C30_33  and  O5_35 
ROOT
HETATM    1  C8  UNL     1      -2.555  51.485 -23.241  1.00  0.00    -0.001 C 
HETATM    2  C9  UNL     1      -3.993  51.893 -23.662  1.00  0.00     0.007 C 
HETATM    3  C10 UNL     1      -4.961  50.959 -22.913  1.00  0.00     0.015 C 
HETATM    4  C11 UNL     1      -4.112  50.304 -21.804  1.00  0.00    -0.004 C 
HETATM    5  C12 UNL     1      -4.056  51.317 -20.618  1.00  0.00     0.021 C 
HETATM    6  C13 UNL     1      -4.536  48.987 -21.172  1.00  0.00     0.007 C 
HETATM    7  C14 UNL     1      -3.648  48.123 -20.619  1.00  0.00     0.007 C 
HETATM    8  C15 UNL     1      -2.168  48.468 -20.733  1.00  0.00     0.157 C 
HETATM    9  O1  UNL     1      -1.320  47.790 -20.155  1.00  0.00    -0.293 OA
HETATM   10  C16 UNL     1      -1.706  49.659 -21.565  1.00  0.00     0.094 C 
HETATM   11  C17 UNL     1      -2.761  50.087 -22.582  1.00  0.00    -0.022 C 
HETATM   12  C18 UNL     1      -2.857  48.983 -23.676  1.00  0.00     0.017 C 
HETATM   13  C19 UNL     1      -4.031  46.804 -19.898  1.00  0.00    -0.007 C 
HETATM   14  C20 UNL     1      -3.625  45.651 -20.850  1.00  0.00     0.021 C 
HETATM   15  C21 UNL     1      -3.271  46.633 -18.542  1.00  0.00     0.022 C 
HETATM   16  C22 UNL     1      -4.001  45.850 -17.453  1.00  0.00     0.080 C 
HETATM   17  C23 UNL     1      -5.002  44.879 -18.028  1.00  0.00     0.135 C 
HETATM   18  O2  UNL     1      -4.962  43.684 -17.745  1.00  0.00    -0.297 OA
HETATM   19  C24 UNL     1      -6.105  45.482 -18.905  1.00  0.00     0.018 C 
HETATM   20  C25 UNL     1      -6.604  44.428 -19.913  1.00  0.00     0.023 C 
HETATM   21  C26 UNL     1      -7.284  45.813 -17.964  1.00  0.00     0.023 C 
HETATM   22  C27 UNL     1      -5.567  46.798 -19.565  1.00  0.00     0.021 C 
HETATM   23  C28 UNL     1      -6.393  47.255 -20.765  1.00  0.00     0.090 C 
HETATM   24  C29 UNL     1      -5.994  48.658 -21.135  1.00  0.00     0.157 C 
HETATM   25  O3  UNL     1      -6.846  49.493 -21.423  1.00  0.00    -0.293 OA
ENDROOT
BRANCH   1  26
HETATM   26  C6  UNL     1      -1.476  51.772 -24.327  1.00  0.00    -0.014 C 
HETATM   27  C7  UNL     1      -0.663  53.064 -24.173  1.00  0.00     0.010 C 
BRANCH  26  28
HETATM   28  C5  UNL     1      -2.065  51.668 -25.754  1.00  0.00     0.008 C 
BRANCH  28  29
HETATM   29  C4  UNL     1      -1.345  50.681 -26.687  1.00  0.00     0.028 C 
BRANCH  29  30
HETATM   30  C3  UNL     1       0.148  50.697 -26.502  1.00  0.00    -0.013 C 
HETATM   31  C2  UNL     1       1.052  51.496 -27.105  1.00  0.00     0.008 C 
HETATM   32  C1  UNL     1       0.754  52.564 -28.117  1.00  0.00     0.055 C 
BRANCH  31  33
HETATM   33  C30 UNL     1       2.503  51.372 -26.789  1.00  0.00     0.171 C 
HETATM   34  O4  UNL     1       2.975  50.644 -25.934  1.00  0.00    -0.646 OA
BRANCH  33  35
HETATM   35  O5  UNL     1       3.298  52.135 -27.555  1.00  0.00    -0.773 OA
HETATM   36  H42 UNL     1       4.197  51.930 -27.225  1.00  0.00     0.167 HD
ENDBRANCH  33  35
ENDBRANCH  31  33
ENDBRANCH  29  30
ENDBRANCH  28  29
ENDBRANCH  26  28
ENDBRANCH   1  26
TORSDOF 6
ENDMDL
MODEL 9
REMARK minimizedAffinity -8.86542797
REMARK  6 active torsions:
REMARK  status: ('A' for Active; 'I' for Inactive)
REMARK    1  A    between atoms: C2_2  and  C30_33 
REMARK    2  A    between atoms: C3_3  and  C4_4 
REMARK    3  A    between atoms: C4_4  and  C5_5 
REMARK    4  A    between atoms: C5_5  and  C6_6 
REMARK    5  A    between atoms: C6_6  and  C8_8 
REMARK    6  A    between atoms: C30_33  and  O5_35 
ROOT
HETATM    1  C8  UNL     1      -1.306  51.442 -22.421  1.00  0.00    -0.001 C 
HETATM    2  C9  UNL     1      -1.579  50.862 -23.836  1.00  0.00     0.007 C 
HETATM    3  C10 UNL     1      -2.678  49.794 -23.677  1.00  0.00     0.015 C 
HETATM    4  C11 UNL     1      -3.282  50.042 -22.280  1.00  0.00    -0.004 C 
HETATM    5  C12 UNL     1      -4.323  51.195 -22.433  1.00  0.00     0.021 C 
HETATM    6  C13 UNL     1      -4.029  48.939 -21.546  1.00  0.00     0.007 C 
HETATM    7  C14 UNL     1      -4.118  48.892 -20.192  1.00  0.00     0.007 C 
HETATM    8  C15 UNL     1      -3.352  49.946 -19.402  1.00  0.00     0.157 C 
HETATM    9  O1  UNL     1      -3.483  50.031 -18.181  1.00  0.00    -0.293 OA
HETATM   10  C16 UNL     1      -2.409  50.917 -20.104  1.00  0.00     0.094 C 
HETATM   11  C17 UNL     1      -1.978  50.402 -21.475  1.00  0.00    -0.022 C 
HETATM   12  C18 UNL     1      -1.037  49.179 -21.260  1.00  0.00     0.017 C 
HETATM   13  C19 UNL     1      -4.924  47.833 -19.396  1.00  0.00    -0.007 C 
HETATM   14  C20 UNL     1      -3.885  46.887 -18.747  1.00  0.00     0.021 C 
HETATM   15  C21 UNL     1      -5.793  48.482 -18.269  1.00  0.00     0.022 C 
HETATM   16  C22 UNL     1      -7.089  47.756 -17.913  1.00  0.00     0.080 C 
HETATM   17  C23 UNL     1      -7.019  46.283 -18.232  1.00  0.00     0.135 C 
HETATM   18  O2  UNL     1      -7.246  45.436 -17.370  1.00  0.00    -0.297 OA
HETATM   19  C24 UNL     1      -6.735  45.918 -19.693  1.00  0.00     0.018 C 
HETATM   20  C25 UNL     1      -6.052  44.538 -19.762  1.00  0.00     0.023 C 
HETATM   21  C26 UNL     1      -8.108  45.787 -20.388  1.00  0.00     0.023 C 
HETATM   22  C27 UNL     1      -5.913  47.076 -20.356  1.00  0.00     0.021 C 
HETATM   23  C28 UNL     1      -5.215  46.659 -21.649  1.00  0.00     0.090 C 
HETATM   24  C29 UNL     1      -4.715  47.888 -22.359  1.00  0.00     0.157 C 
HETATM   25  O3  UNL     1      -4.846  48.004 -23.574  1.00  0.00    -0.293 OA
ENDROOT
BRANCH   1  26
HETATM   26  C6  UNL     1       0.147  51.968 -22.226  1.00  0.00    -0.014 C 
HETATM   27  C7  UNL     1       0.331  53.169 -21.289  1.00  0.00     0.010 C 
BRANCH  26  28
HETATM   28  C5  UNL     1       0.843  52.226 -23.583  1.00  0.00     0.008 C 
BRANCH  28  29
HETATM   29  C4  UNL     1       0.770  53.676 -24.089  1.00  0.00     0.028 C 
BRANCH  29  30
HETATM   30  C3  UNL     1       0.005  53.799 -25.379  1.00  0.00    -0.013 C 
HETATM   31  C2  UNL     1       0.139  53.061 -26.500  1.00  0.00     0.008 C 
HETATM   32  C1  UNL     1       1.108  51.933 -26.706  1.00  0.00     0.055 C 
BRANCH  31  33
HETATM   33  C30 UNL     1      -0.721  53.324 -27.688  1.00  0.00     0.171 C 
HETATM   34  O4  UNL     1      -1.901  53.626 -27.648  1.00  0.00    -0.646 OA
BRANCH  33  35
HETATM   35  O5  UNL     1      -0.078  53.223 -28.862  1.00  0.00    -0.773 OA
HETATM   36  H42 UNL     1      -0.773  53.430 -29.521  1.00  0.00     0.167 HD
ENDBRANCH  33  35
ENDBRANCH  31  33
ENDBRANCH  29  30
ENDBRANCH  28  29
ENDBRANCH  26  28
ENDBRANCH   1  26
TORSDOF 6
ENDMDL
