MODEL 1
REMARK minimizedAffinity -9.49269676
REMARK CNNscore 0.729743779
REMARK CNNaffinity 8.28692627
REMARK  13 active torsions:
REMARK  status: ('A' for Active; 'I' for Inactive)
REMARK    1  A    between atoms: C5_6  and  C6_7 
REMARK    2  A    between atoms: C5_6  and  C29_33 
REMARK    3  A    between atoms: C19_20  and  O2_21 
REMARK    4  A    between atoms: C28_31  and  O4_32 
REMARK    5  A    between atoms: C30_35  and  C31_36 
REMARK    6  A    between atoms: C31_36  and  O6_38 
REMARK    7  A    between atoms: C31_36  and  C33_39 
REMARK    8  A    between atoms: C33_39  and  C35_41 
REMARK    9  A    between atoms: C33_39  and  C36_43 
REMARK   10  A    between atoms: C35_41  and  O7_42 
REMARK   11  A    between atoms: C36_43  and  C37_44 
REMARK   12  A    between atoms: C37_44  and  C38_45 
REMARK   13  A    between atoms: C41_49  and  N2_50 
ROOT
HETATM    1  C1  UNL     1      -4.355  50.159  -9.782  1.00  0.00     0.010 C 
HETATM    2  C2  UNL     1      -3.442  50.740 -10.864  1.00  0.00    -0.014 C 
HETATM    3  C3  UNL     1      -4.073  51.976 -11.501  1.00  0.00     0.030 C 
HETATM    4  C4  UNL     1      -3.108  52.584 -12.505  1.00  0.00     0.169 C 
HETATM    5  O1  UNL     1      -1.870  52.934 -11.902  1.00  0.00    -0.377 OA
HETATM    6  C5  UNL     1      -1.148  51.863 -11.265  1.00  0.00     0.094 C 
HETATM    7  C43 UNL     1      -2.072  51.110 -10.283  1.00  0.00     0.045 C 
ENDROOT
BRANCH   6   8
HETATM    8  C6  UNL     1       0.060  52.522 -10.485  1.00  0.00     0.035 C 
HETATM    9  C7  UNL     1       1.159  53.127 -11.466  1.00  0.00     0.016 C 
HETATM   10  C8  UNL     1       1.661  54.418 -10.809  1.00  0.00     0.026 C 
HETATM   11  C9  UNL     1       3.115  54.832 -10.956  1.00  0.00     0.013 C 
HETATM   12  C28 UNL     1       1.329  54.175  -9.348  1.00  0.00     0.094 C 
HETATM   13  C10 UNL     1       3.378  56.098 -10.097  1.00  0.00     0.043 C 
HETATM   14  C11 UNL     1       2.636  56.159  -8.767  1.00  0.00    -0.006 C 
HETATM   15  C12 UNL     1       1.651  55.304  -8.436  1.00  0.00    -0.030 C 
HETATM   16  C22 UNL     1       3.161  57.092  -7.725  1.00  0.00     0.161 C 
HETATM   17  C13 UNL     1       1.045  55.194  -7.069  1.00  0.00     0.031 C 
HETATM   18  C14 UNL     1      -0.364  54.518  -7.012  1.00  0.00    -0.005 C 
HETATM   19  C23 UNL     1       1.051  56.530  -6.276  1.00  0.00    -0.022 C 
HETATM   20  C15 UNL     1      -0.720  54.191  -5.548  1.00  0.00     0.006 C 
HETATM   21  C25 UNL     1      -0.512  53.289  -7.955  1.00  0.00     0.018 C 
HETATM   22  C16 UNL     1      -0.558  55.402  -4.606  1.00  0.00     0.006 C 
HETATM   23  C17 UNL     1       0.810  56.080  -4.796  1.00  0.00    -0.003 C 
HETATM   24  C18 UNL     1       1.105  57.213  -3.818  1.00  0.00     0.037 C 
HETATM   25  C19 UNL     1       2.579  57.655  -3.924  1.00  0.00     0.119 C 
HETATM   26  C20 UNL     1       3.296  57.153  -5.191  1.00  0.00     0.045 C 
HETATM   27  C21 UNL     1       2.393  57.316  -6.422  1.00  0.00     0.072 C 
HETATM   28  C26 UNL     1      -0.137  53.680  -9.415  1.00  0.00    -0.002 C 
HETATM   29  C27 UNL     1      -1.130  54.758  -9.924  1.00  0.00     0.019 C 
HETATM   30  C24 UNL     1      -0.048  57.513  -6.780  1.00  0.00     0.017 C 
HETATM   31  O3  UNL     1       4.222  57.682  -7.935  1.00  0.00    -0.292 OA
BRANCH  25  32
HETATM   32  O2  UNL     1       2.603  59.082  -3.892  1.00  0.00    -0.396 OA
HETATM   33  H27 UNL     1       3.534  59.364  -3.927  1.00  0.00     0.210 HD
ENDBRANCH  25  32
BRANCH  12  34
HETATM   34  O4  UNL     1       2.152  53.084  -8.862  1.00  0.00    -0.384 OA
HETATM   35  H39 UNL     1       3.028  53.437  -8.630  1.00  0.00     0.211 HD
ENDBRANCH  12  34
ENDBRANCH   6   8
BRANCH   6  36
HETATM   36  C29 UNL     1      -0.554  50.969 -12.369  1.00  0.00     0.189 A 
HETATM   37  O5  UNL     1      -1.562  50.174 -13.024  1.00  0.00    -0.369 OA
HETATM   38  C30 UNL     1      -0.800  51.031 -13.885  1.00  0.00     0.189 A 
BRANCH  38  39
HETATM   39  C31 UNL     1      -0.014  50.222 -14.921  1.00  0.00     0.092 C 
HETATM   40  C32 UNL     1       0.262  48.831 -14.310  1.00  0.00     0.049 C 
BRANCH  39  41
HETATM   41  O6  UNL     1       1.285  50.828 -15.084  1.00  0.00    -0.387 OA
HETATM   42  H45 UNL     1       1.575  51.065 -14.177  1.00  0.00     0.210 HD
ENDBRANCH  39  41
BRANCH  39  43
HETATM   43  C33 UNL     1      -0.699  50.187 -16.349  1.00  0.00     0.011 C 
HETATM   44  C34 UNL     1      -1.959  51.091 -16.370  1.00  0.00     0.020 C 
BRANCH  43  45
HETATM   45  C35 UNL     1      -1.188  48.763 -16.735  1.00  0.00     0.176 C 
BRANCH  45  46
HETATM   46  O7  UNL     1      -0.892  48.447 -18.084  1.00  0.00    -0.400 OA
HETATM   47  H51 UNL     1      -1.728  48.206 -18.528  1.00  0.00     0.209 HD
ENDBRANCH  45  46
ENDBRANCH  43  45
BRANCH  43  48
HETATM   48  C36 UNL     1       0.259  50.673 -17.499  1.00  0.00     0.019 C 
BRANCH  48  49
HETATM   49  C37 UNL     1       0.125  52.138 -17.939  1.00  0.00     0.039 C 
BRANCH  49  50
HETATM   50  C38 UNL     1       0.304  52.298 -19.433  1.00  0.00    -0.053 A 
HETATM   51  C39 UNL     1      -0.164  51.323 -20.314  1.00  0.00     0.024 A 
HETATM   52  C40 UNL     1       0.010  51.504 -21.678  1.00  0.00     0.090 A 
HETATM   53  N1  UNL     1       0.615  52.610 -22.138  1.00  0.00    -0.353 N 
HETATM   54  C41 UNL     1       1.064  53.586 -21.338  1.00  0.00     0.098 A 
HETATM   55  H58 UNL     1       0.755  52.715 -23.138  1.00  0.00     0.166 HD
HETATM   56  C42 UNL     1       0.941  53.427 -19.958  1.00  0.00     0.055 A 
BRANCH  54  57
HETATM   57  N2  UNL     1       1.720  54.672 -21.890  1.00  0.00    -0.385 N 
HETATM   58  H59 UNL     1       1.586  55.552 -21.391  1.00  0.00     0.157 HD
HETATM   59  H60 UNL     1       1.742  54.807 -22.893  1.00  0.00     0.157 HD
ENDBRANCH  54  57
ENDBRANCH  49  50
ENDBRANCH  48  49
ENDBRANCH  43  48
ENDBRANCH  39  43
ENDBRANCH  38  39
ENDBRANCH   6  36
TORSDOF 13
ENDMDL
MODEL 2
REMARK minimizedAffinity -10.2210808
REMARK CNNscore 0.547281027
REMARK CNNaffinity 8.35657215
REMARK  13 active torsions:
REMARK  status: ('A' for Active; 'I' for Inactive)
REMARK    1  A    between atoms: C5_6  and  C6_7 
REMARK    2  A    between atoms: C5_6  and  C29_33 
REMARK    3  A    between atoms: C19_20  and  O2_21 
REMARK    4  A    between atoms: C28_31  and  O4_32 
REMARK    5  A    between atoms: C30_35  and  C31_36 
REMARK    6  A    between atoms: C31_36  and  O6_38 
REMARK    7  A    between atoms: C31_36  and  C33_39 
REMARK    8  A    between atoms: C33_39  and  C35_41 
REMARK    9  A    between atoms: C33_39  and  C36_43 
REMARK   10  A    between atoms: C35_41  and  O7_42 
REMARK   11  A    between atoms: C36_43  and  C37_44 
REMARK   12  A    between atoms: C37_44  and  C38_45 
REMARK   13  A    between atoms: C41_49  and  N2_50 
ROOT
HETATM    1  C1  UNL     1       4.027  52.533 -15.965  1.00  0.00     0.010 C 
HETATM    2  C2  UNL     1       3.119  51.563 -15.204  1.00  0.00    -0.014 C 
HETATM    3  C3  UNL     1       3.942  50.621 -14.329  1.00  0.00     0.030 C 
HETATM    4  C4  UNL     1       3.015  49.732 -13.519  1.00  0.00     0.169 C 
HETATM    5  O1  UNL     1       2.130  50.492 -12.706  1.00  0.00    -0.377 OA
HETATM    6  C5  UNL     1       1.276  51.423 -13.396  1.00  0.00     0.094 C 
HETATM    7  C43 UNL     1       2.115  52.324 -14.330  1.00  0.00     0.045 C 
ENDROOT
BRANCH   6   8
HETATM    8  C6  UNL     1       0.560  52.299 -12.290  1.00  0.00     0.035 C 
HETATM    9  C7  UNL     1      -0.645  51.526 -11.590  1.00  0.00     0.016 C 
HETATM   10  C8  UNL     1      -0.617  51.931 -10.112  1.00  0.00     0.026 C 
HETATM   11  C9  UNL     1      -1.915  52.077  -9.337  1.00  0.00     0.013 C 
HETATM   12  C28 UNL     1       0.116  53.260 -10.165  1.00  0.00     0.094 C 
HETATM   13  C10 UNL     1      -1.606  52.611  -7.913  1.00  0.00     0.043 C 
HETATM   14  C11 UNL     1      -0.474  53.628  -7.821  1.00  0.00    -0.006 C 
HETATM   15  C12 UNL     1       0.359  53.894  -8.843  1.00  0.00    -0.030 C 
HETATM   16  C22 UNL     1      -0.418  54.489  -6.602  1.00  0.00     0.161 C 
HETATM   17  C13 UNL     1       1.342  55.027  -8.866  1.00  0.00     0.031 C 
HETATM   18  C14 UNL     1       2.514  54.878  -9.890  1.00  0.00    -0.005 C 
HETATM   19  C23 UNL     1       1.880  55.412  -7.461  1.00  0.00    -0.022 C 
HETATM   20  C15 UNL     1       3.251  56.225 -10.029  1.00  0.00     0.006 C 
HETATM   21  C25 UNL     1       2.079  54.287 -11.264  1.00  0.00     0.018 C 
HETATM   22  C16 UNL     1       3.669  56.822  -8.669  1.00  0.00     0.006 C 
HETATM   23  C17 UNL     1       2.491  56.836  -7.679  1.00  0.00    -0.003 C 
HETATM   24  C18 UNL     1       2.781  57.525  -6.349  1.00  0.00     0.037 C 
HETATM   25  C19 UNL     1       1.484  57.707  -5.535  1.00  0.00     0.119 C 
HETATM   26  C20 UNL     1       0.302  56.858  -6.037  1.00  0.00     0.045 C 
HETATM   27  C21 UNL     1       0.764  55.432  -6.367  1.00  0.00     0.072 C 
HETATM   28  C26 UNL     1       1.339  52.932 -11.059  1.00  0.00    -0.002 C 
HETATM   29  C27 UNL     1       2.316  51.910 -10.419  1.00  0.00     0.019 C 
HETATM   30  C24 UNL     1       2.936  54.391  -6.940  1.00  0.00     0.017 C 
HETATM   31  O3  UNL     1      -1.337  54.426  -5.784  1.00  0.00    -0.292 OA
BRANCH  25  32
HETATM   32  O2  UNL     1       1.776  57.368  -4.179  1.00  0.00    -0.396 OA
HETATM   33  H27 UNL     1       0.967  57.512  -3.656  1.00  0.00     0.210 HD
ENDBRANCH  25  32
BRANCH  12  34
HETATM   34  O4  UNL     1      -0.714  54.217 -10.869  1.00  0.00    -0.384 OA
HETATM   35  H39 UNL     1      -1.370  54.576 -10.245  1.00  0.00     0.211 HD
ENDBRANCH  12  34
ENDBRANCH   6   8
BRANCH   6  36
HETATM   36  C29 UNL     1       0.187  50.617 -14.126  1.00  0.00     0.189 A 
HETATM   37  O5  UNL     1      -0.762  51.469 -14.798  1.00  0.00    -0.369 OA
HETATM   38  C30 UNL     1      -0.084  50.523 -15.636  1.00  0.00     0.189 A 
BRANCH  38  39
HETATM   39  C31 UNL     1      -1.069  49.543 -16.278  1.00  0.00     0.092 C 
HETATM   40  C32 UNL     1      -2.267  49.393 -15.316  1.00  0.00     0.049 C 
BRANCH  39  41
HETATM   41  O6  UNL     1      -0.453  48.239 -16.321  1.00  0.00    -0.387 OA
HETATM   42  H45 UNL     1       0.000  48.139 -15.458  1.00  0.00     0.210 HD
ENDBRANCH  39  41
BRANCH  39  43
HETATM   43  C33 UNL     1      -1.465  49.925 -17.763  1.00  0.00     0.011 C 
HETATM   44  C34 UNL     1      -2.528  51.054 -17.770  1.00  0.00     0.020 C 
BRANCH  43  45
HETATM   45  C35 UNL     1      -2.103  48.733 -18.530  1.00  0.00     0.176 C 
BRANCH  45  46
HETATM   46  O7  UNL     1      -1.967  47.513 -17.824  1.00  0.00    -0.400 OA
HETATM   47  H51 UNL     1      -1.517  46.874 -18.409  1.00  0.00     0.209 HD
ENDBRANCH  45  46
ENDBRANCH  43  45
BRANCH  43  48
HETATM   48  C36 UNL     1      -0.237  50.417 -18.616  1.00  0.00     0.019 C 
BRANCH  48  49
HETATM   49  C37 UNL     1      -0.086  51.935 -18.801  1.00  0.00     0.039 C 
BRANCH  49  50
HETATM   50  C38 UNL     1       0.167  52.306 -20.246  1.00  0.00    -0.053 A 
HETATM   51  C39 UNL     1      -0.337  51.519 -21.281  1.00  0.00     0.024 A 
HETATM   52  C40 UNL     1      -0.092  51.891 -22.594  1.00  0.00     0.090 A 
HETATM   53  N1  UNL     1       0.614  53.001 -22.858  1.00  0.00    -0.353 N 
HETATM   54  C41 UNL     1       1.103  53.803 -21.904  1.00  0.00     0.098 A 
HETATM   55  H58 UNL     1       0.804  53.246 -23.825  1.00  0.00     0.166 HD
HETATM   56  C42 UNL     1       0.910  53.446 -20.569  1.00  0.00     0.055 A 
BRANCH  54  57
HETATM   57  N2  UNL     1       1.863  54.903 -22.259  1.00  0.00    -0.385 N 
HETATM   58  H59 UNL     1       1.775  55.704 -21.633  1.00  0.00     0.157 HD
HETATM   59  H60 UNL     1       1.937  55.188 -23.228  1.00  0.00     0.157 HD
ENDBRANCH  54  57
ENDBRANCH  49  50
ENDBRANCH  48  49
ENDBRANCH  43  48
ENDBRANCH  39  43
ENDBRANCH  38  39
ENDBRANCH   6  36
TORSDOF 13
ENDMDL
MODEL 3
REMARK minimizedAffinity -9.86069965
REMARK CNNscore 0.384291261
REMARK CNNaffinity 7.56364059
REMARK  13 active torsions:
REMARK  status: ('A' for Active; 'I' for Inactive)
REMARK    1  A    between atoms: C5_6  and  C6_7 
REMARK    2  A    between atoms: C5_6  and  C29_33 
REMARK    3  A    between atoms: C19_20  and  O2_21 
REMARK    4  A    between atoms: C28_31  and  O4_32 
REMARK    5  A    between atoms: C30_35  and  C31_36 
REMARK    6  A    between atoms: C31_36  and  O6_38 
REMARK    7  A    between atoms: C31_36  and  C33_39 
REMARK    8  A    between atoms: C33_39  and  C35_41 
REMARK    9  A    between atoms: C33_39  and  C36_43 
REMARK   10  A    between atoms: C35_41  and  O7_42 
REMARK   11  A    between atoms: C36_43  and  C37_44 
REMARK   12  A    between atoms: C37_44  and  C38_45 
REMARK   13  A    between atoms: C41_49  and  N2_50 
ROOT
HETATM    1  C1  UNL     1      -2.530  49.708 -10.497  1.00  0.00     0.010 C 
HETATM    2  C2  UNL     1      -1.710  50.831 -11.136  1.00  0.00    -0.014 C 
HETATM    3  C3  UNL     1      -2.457  52.160 -11.060  1.00  0.00     0.030 C 
HETATM    4  C4  UNL     1      -1.585  53.272 -11.618  1.00  0.00     0.169 C 
HETATM    5  O1  UNL     1      -0.351  53.375 -10.921  1.00  0.00    -0.377 OA
HETATM    6  C5  UNL     1       0.476  52.196 -10.914  1.00  0.00     0.094 C 
HETATM    7  C43 UNL     1      -0.347  50.973 -10.448  1.00  0.00     0.045 C 
ENDROOT
BRANCH   6   8
HETATM    8  C6  UNL     1       1.664  52.472  -9.907  1.00  0.00     0.035 C 
HETATM    9  C7  UNL     1       3.068  51.983 -10.477  1.00  0.00     0.016 C 
HETATM   10  C8  UNL     1       4.103  53.021 -10.026  1.00  0.00     0.026 C 
HETATM   11  C9  UNL     1       5.514  52.585  -9.672  1.00  0.00     0.013 C 
HETATM   12  C28 UNL     1       3.423  53.635  -8.816  1.00  0.00     0.094 C 
HETATM   13  C10 UNL     1       6.309  53.806  -9.134  1.00  0.00     0.043 C 
HETATM   14  C11 UNL     1       5.512  54.788  -8.284  1.00  0.00    -0.006 C 
HETATM   15  C12 UNL     1       4.172  54.746  -8.175  1.00  0.00    -0.030 C 
HETATM   16  C22 UNL     1       6.280  55.711  -7.395  1.00  0.00     0.161 C 
HETATM   17  C13 UNL     1       3.374  55.551  -7.192  1.00  0.00     0.031 C 
HETATM   18  C14 UNL     1       1.860  55.726  -7.541  1.00  0.00    -0.005 C 
HETATM   19  C23 UNL     1       4.022  56.917  -6.834  1.00  0.00    -0.022 C 
HETATM   20  C15 UNL     1       1.111  56.289  -6.316  1.00  0.00     0.006 C 
HETATM   21  C25 UNL     1       1.193  54.442  -8.115  1.00  0.00     0.018 C 
HETATM   22  C16 UNL     1       1.778  57.552  -5.733  1.00  0.00     0.006 C 
HETATM   23  C17 UNL     1       3.287  57.340  -5.519  1.00  0.00    -0.003 C 
HETATM   24  C18 UNL     1       4.005  58.496  -4.829  1.00  0.00     0.037 C 
HETATM   25  C19 UNL     1       5.440  58.090  -4.438  1.00  0.00     0.119 C 
HETATM   26  C20 UNL     1       5.944  56.811  -5.131  1.00  0.00     0.045 C 
HETATM   27  C21 UNL     1       5.566  56.819  -6.619  1.00  0.00     0.072 C 
HETATM   28  C26 UNL     1       1.994  53.920  -9.344  1.00  0.00    -0.002 C 
HETATM   29  C27 UNL     1       1.953  54.989 -10.469  1.00  0.00     0.019 C 
HETATM   30  C24 UNL     1       3.840  57.965  -7.974  1.00  0.00     0.017 C 
HETATM   31  O3  UNL     1       7.500  55.568  -7.299  1.00  0.00    -0.292 OA
BRANCH  25  32
HETATM   32  O2  UNL     1       6.300  59.183  -4.765  1.00  0.00    -0.396 OA
HETATM   33  H27 UNL     1       7.203  58.943  -4.490  1.00  0.00     0.210 HD
ENDBRANCH  25  32
BRANCH  12  34
HETATM   34  O4  UNL     1       3.328  52.628  -7.778  1.00  0.00    -0.384 OA
HETATM   35  H39 UNL     1       4.179  52.586  -7.309  1.00  0.00     0.211 HD
ENDBRANCH  12  34
ENDBRANCH   6   8
BRANCH   6  36
HETATM   36  C29 UNL     1       1.085  52.035 -12.317  1.00  0.00     0.189 A 
HETATM   37  O5  UNL     1       1.147  50.654 -12.728  1.00  0.00    -0.369 OA
HETATM   38  C30 UNL     1       0.411  51.522 -13.600  1.00  0.00     0.189 A 
BRANCH  38  39
HETATM   39  C31 UNL     1       1.045  51.580 -14.993  1.00  0.00     0.092 C 
HETATM   40  C32 UNL     1       2.531  51.188 -14.841  1.00  0.00     0.049 C 
BRANCH  39  41
HETATM   41  O6  UNL     1       1.059  52.954 -15.431  1.00  0.00    -0.387 OA
HETATM   42  H45 UNL     1       1.320  53.475 -14.642  1.00  0.00     0.210 HD
ENDBRANCH  39  41
BRANCH  39  43
HETATM   43  C33 UNL     1       0.255  50.746 -16.083  1.00  0.00     0.011 C 
HETATM   44  C34 UNL     1      -1.274  50.922 -15.901  1.00  0.00     0.020 C 
BRANCH  43  45
HETATM   45  C35 UNL     1       0.526  49.220 -15.971  1.00  0.00     0.176 C 
BRANCH  45  46
HETATM   46  O7  UNL     1      -0.283  48.469 -16.859  1.00  0.00    -0.400 OA
HETATM   47  H51 UNL     1      -0.782  47.815 -16.333  1.00  0.00     0.209 HD
ENDBRANCH  45  46
ENDBRANCH  43  45
BRANCH  43  48
HETATM   48  C36 UNL     1       0.615  51.170 -17.556  1.00  0.00     0.019 C 
BRANCH  48  49
HETATM   49  C37 UNL     1      -0.523  51.762 -18.402  1.00  0.00     0.039 C 
BRANCH  49  50
HETATM   50  C38 UNL     1      -0.020  52.311 -19.720  1.00  0.00    -0.053 A 
HETATM   51  C39 UNL     1       0.891  53.367 -19.748  1.00  0.00     0.024 A 
HETATM   52  C40 UNL     1       1.336  53.842 -20.973  1.00  0.00     0.090 A 
HETATM   53  N1  UNL     1       0.899  53.284 -22.111  1.00  0.00    -0.353 N 
HETATM   54  C41 UNL     1       0.041  52.256 -22.140  1.00  0.00     0.098 A 
HETATM   55  H58 UNL     1       1.217  53.660 -22.999  1.00  0.00     0.166 HD
HETATM   56  C42 UNL     1      -0.460  51.770 -20.932  1.00  0.00     0.055 A 
BRANCH  54  57
HETATM   57  N2  UNL     1      -0.399  51.768 -23.358  1.00  0.00    -0.385 N 
HETATM   58  H59 UNL     1      -0.594  50.766 -23.373  1.00  0.00     0.157 HD
HETATM   59  H60 UNL     1       0.022  52.083 -24.223  1.00  0.00     0.157 HD
ENDBRANCH  54  57
ENDBRANCH  49  50
ENDBRANCH  48  49
ENDBRANCH  43  48
ENDBRANCH  39  43
ENDBRANCH  38  39
ENDBRANCH   6  36
TORSDOF 13
ENDMDL
MODEL 4
REMARK minimizedAffinity -10.2918186
REMARK CNNscore 0.377209693
REMARK CNNaffinity 7.79295969
REMARK  13 active torsions:
REMARK  status: ('A' for Active; 'I' for Inactive)
REMARK    1  A    between atoms: C5_6  and  C6_7 
REMARK    2  A    between atoms: C5_6  and  C29_33 
REMARK    3  A    between atoms: C19_20  and  O2_21 
REMARK    4  A    between atoms: C28_31  and  O4_32 
REMARK    5  A    between atoms: C30_35  and  C31_36 
REMARK    6  A    between atoms: C31_36  and  O6_38 
REMARK    7  A    between atoms: C31_36  and  C33_39 
REMARK    8  A    between atoms: C33_39  and  C35_41 
REMARK    9  A    between atoms: C33_39  and  C36_43 
REMARK   10  A    between atoms: C35_41  and  O7_42 
REMARK   11  A    between atoms: C36_43  and  C37_44 
REMARK   12  A    between atoms: C37_44  and  C38_45 
REMARK   13  A    between atoms: C41_49  and  N2_50 
ROOT
HETATM    1  C1  UNL     1      -0.671  50.348 -26.438  1.00  0.00     0.010 C 
HETATM    2  C2  UNL     1      -1.438  50.875 -25.223  1.00  0.00    -0.014 C 
HETATM    3  C3  UNL     1      -1.753  52.361 -25.381  1.00  0.00     0.030 C 
HETATM    4  C4  UNL     1      -2.591  52.835 -24.206  1.00  0.00     0.169 C 
HETATM    5  O1  UNL     1      -3.800  52.098 -24.088  1.00  0.00    -0.377 OA
HETATM    6  C5  UNL     1      -3.664  50.674 -23.921  1.00  0.00     0.094 C 
HETATM    7  C43 UNL     1      -2.744  50.096 -25.019  1.00  0.00     0.045 C 
ENDROOT
BRANCH   6   8
HETATM    8  C6  UNL     1      -5.114  50.054 -24.039  1.00  0.00     0.035 C 
HETATM    9  C7  UNL     1      -5.283  49.151 -25.340  1.00  0.00     0.016 C 
HETATM   10  C8  UNL     1      -6.169  47.967 -24.932  1.00  0.00     0.026 C 
HETATM   11  C9  UNL     1      -7.154  47.376 -25.925  1.00  0.00     0.013 C 
HETATM   12  C28 UNL     1      -6.906  48.529 -23.730  1.00  0.00     0.094 C 
HETATM   13  C10 UNL     1      -8.001  46.283 -25.218  1.00  0.00     0.043 C 
HETATM   14  C11 UNL     1      -8.366  46.568 -23.766  1.00  0.00    -0.006 C 
HETATM   15  C12 UNL     1      -7.824  47.573 -23.057  1.00  0.00    -0.030 C 
HETATM   16  C22 UNL     1      -9.510  45.806 -23.181  1.00  0.00     0.161 C 
HETATM   17  C13 UNL     1      -8.305  48.017 -21.707  1.00  0.00     0.031 C 
HETATM   18  C14 UNL     1      -7.277  48.841 -20.865  1.00  0.00    -0.005 C 
HETATM   19  C23 UNL     1      -8.924  46.871 -20.859  1.00  0.00    -0.022 C 
HETATM   20  C15 UNL     1      -7.995  49.488 -19.663  1.00  0.00     0.006 C 
HETATM   21  C25 UNL     1      -6.459  49.869 -21.700  1.00  0.00     0.018 C 
HETATM   22  C16 UNL     1      -8.821  48.475 -18.843  1.00  0.00     0.006 C 
HETATM   23  C17 UNL     1      -9.729  47.627 -19.750  1.00  0.00    -0.003 C 
HETATM   24  C18 UNL     1     -10.673  46.685 -19.011  1.00  0.00     0.037 C 
HETATM   25  C19 UNL     1     -11.702  46.071 -19.982  1.00  0.00     0.119 C 
HETATM   26  C20 UNL     1     -11.337  46.231 -21.469  1.00  0.00     0.045 C 
HETATM   27  C21 UNL     1      -9.848  45.929 -21.694  1.00  0.00     0.072 C 
HETATM   28  C26 UNL     1      -5.761  49.159 -22.898  1.00  0.00    -0.002 C 
HETATM   29  C27 UNL     1      -4.749  48.117 -22.352  1.00  0.00     0.019 C 
HETATM   30  C24 UNL     1      -7.832  45.935 -20.259  1.00  0.00     0.017 C 
HETATM   31  O3  UNL     1     -10.176  45.074 -23.914  1.00  0.00    -0.292 OA
BRANCH  25  32
HETATM   32  O2  UNL     1     -11.821  44.684 -19.663  1.00  0.00    -0.396 OA
HETATM   33  H27 UNL     1     -12.493  44.300 -20.254  1.00  0.00     0.210 HD
ENDBRANCH  25  32
BRANCH  12  34
HETATM   34  O4  UNL     1      -7.777  49.597 -24.180  1.00  0.00    -0.384 OA
HETATM   35  H39 UNL     1      -8.596  49.203 -24.529  1.00  0.00     0.211 HD
ENDBRANCH  12  34
ENDBRANCH   6   8
BRANCH   6  36
HETATM   36  C29 UNL     1      -3.162  50.411 -22.490  1.00  0.00     0.189 A 
HETATM   37  O5  UNL     1      -2.394  51.515 -21.971  1.00  0.00    -0.369 OA
HETATM   38  C30 UNL     1      -3.541  51.145 -21.193  1.00  0.00     0.189 A 
BRANCH  38  39
HETATM   39  C31 UNL     1      -3.135  50.684 -19.790  1.00  0.00     0.092 C 
HETATM   40  C32 UNL     1      -4.295  49.834 -19.228  1.00  0.00     0.049 C 
BRANCH  39  41
HETATM   41  O6  UNL     1      -3.065  51.842 -18.933  1.00  0.00    -0.387 OA
HETATM   42  H45 UNL     1      -3.843  52.389 -19.172  1.00  0.00     0.210 HD
ENDBRANCH  39  41
BRANCH  39  43
HETATM   43  C33 UNL     1      -1.719  49.976 -19.741  1.00  0.00     0.011 C 
HETATM   44  C34 UNL     1      -1.557  49.000 -20.935  1.00  0.00     0.020 C 
BRANCH  43  45
HETATM   45  C35 UNL     1      -1.533  49.117 -18.459  1.00  0.00     0.176 C 
BRANCH  45  46
HETATM   46  O7  UNL     1      -1.561  47.729 -18.740  1.00  0.00    -0.400 OA
HETATM   47  H51 UNL     1      -2.259  47.323 -18.190  1.00  0.00     0.209 HD
ENDBRANCH  45  46
ENDBRANCH  43  45
BRANCH  43  48
HETATM   48  C36 UNL     1      -0.523  50.997 -19.789  1.00  0.00     0.019 C 
BRANCH  48  49
HETATM   49  C37 UNL     1       0.400  50.924 -21.015  1.00  0.00     0.039 C 
BRANCH  49  50
HETATM   50  C38 UNL     1       0.839  52.297 -21.476  1.00  0.00    -0.053 A 
HETATM   51  C39 UNL     1       1.354  53.221 -20.567  1.00  0.00     0.024 A 
HETATM   52  C40 UNL     1       1.753  54.468 -21.024  1.00  0.00     0.090 A 
HETATM   53  N1  UNL     1       1.649  54.772 -22.326  1.00  0.00    -0.353 N 
HETATM   54  C41 UNL     1       1.181  53.917 -23.244  1.00  0.00     0.098 A 
HETATM   55  H58 UNL     1       1.924  55.698 -22.640  1.00  0.00     0.166 HD
HETATM   56  C42 UNL     1       0.735  52.664 -22.822  1.00  0.00     0.055 A 
BRANCH  54  57
HETATM   57  N2  UNL     1       1.060  54.325 -24.560  1.00  0.00    -0.385 N 
HETATM   58  H59 UNL     1       1.204  53.589 -25.252  1.00  0.00     0.157 HD
HETATM   59  H60 UNL     1       1.449  55.210 -24.864  1.00  0.00     0.157 HD
ENDBRANCH  54  57
ENDBRANCH  49  50
ENDBRANCH  48  49
ENDBRANCH  43  48
ENDBRANCH  39  43
ENDBRANCH  38  39
ENDBRANCH   6  36
TORSDOF 13
ENDMDL
MODEL 5
REMARK minimizedAffinity -9.50913429
REMARK CNNscore 0.310009301
REMARK CNNaffinity 7.66492987
REMARK  13 active torsions:
REMARK  status: ('A' for Active; 'I' for Inactive)
REMARK    1  A    between atoms: C5_6  and  C6_7 
REMARK    2  A    between atoms: C5_6  and  C29_33 
REMARK    3  A    between atoms: C19_20  and  O2_21 
REMARK    4  A    between atoms: C28_31  and  O4_32 
REMARK    5  A    between atoms: C30_35  and  C31_36 
REMARK    6  A    between atoms: C31_36  and  O6_38 
REMARK    7  A    between atoms: C31_36  and  C33_39 
REMARK    8  A    between atoms: C33_39  and  C35_41 
REMARK    9  A    between atoms: C33_39  and  C36_43 
REMARK   10  A    between atoms: C35_41  and  O7_42 
REMARK   11  A    between atoms: C36_43  and  C37_44 
REMARK   12  A    between atoms: C37_44  and  C38_45 
REMARK   13  A    between atoms: C41_49  and  N2_50 
ROOT
HETATM    1  C1  UNL     1      -2.953  47.771  -9.045  1.00  0.00     0.010 C 
HETATM    2  C2  UNL     1      -3.316  48.756 -10.159  1.00  0.00    -0.014 C 
HETATM    3  C3  UNL     1      -4.604  49.504  -9.824  1.00  0.00     0.030 C 
HETATM    4  C4  UNL     1      -4.892  50.537 -10.901  1.00  0.00     0.169 C 
HETATM    5  O1  UNL     1      -3.823  51.462 -11.044  1.00  0.00    -0.377 OA
HETATM    6  C5  UNL     1      -2.537  50.903 -11.373  1.00  0.00     0.094 C 
HETATM    7  C43 UNL     1      -2.185  49.766 -10.387  1.00  0.00     0.045 C 
ENDROOT
BRANCH   6   8
HETATM    8  C6  UNL     1      -1.481  52.074 -11.257  1.00  0.00     0.035 C 
HETATM    9  C7  UNL     1      -2.112  53.402 -10.642  1.00  0.00     0.016 C 
HETATM   10  C8  UNL     1      -1.030  54.020  -9.748  1.00  0.00     0.026 C 
HETATM   11  C9  UNL     1      -0.905  55.530  -9.637  1.00  0.00     0.013 C 
HETATM   12  C28 UNL     1       0.238  53.429 -10.337  1.00  0.00     0.094 C 
HETATM   13  C10 UNL     1       0.336  55.880  -8.774  1.00  0.00     0.043 C 
HETATM   14  C11 UNL     1       1.542  54.965  -8.951  1.00  0.00    -0.006 C 
HETATM   15  C12 UNL     1       1.490  53.804  -9.629  1.00  0.00    -0.030 C 
HETATM   16  C22 UNL     1       2.872  55.482  -8.509  1.00  0.00     0.161 C 
HETATM   17  C13 UNL     1       2.689  52.985 -10.006  1.00  0.00     0.031 C 
HETATM   18  C14 UNL     1       2.398  51.486 -10.343  1.00  0.00    -0.005 C 
HETATM   19  C23 UNL     1       3.868  53.108  -9.003  1.00  0.00    -0.022 C 
HETATM   20  C15 UNL     1       3.640  50.856 -11.006  1.00  0.00     0.006 C 
HETATM   21  C25 UNL     1       1.099  51.267 -11.173  1.00  0.00     0.018 C 
HETATM   22  C16 UNL     1       4.933  51.086 -10.196  1.00  0.00     0.006 C 
HETATM   23  C17 UNL     1       5.095  52.566  -9.808  1.00  0.00    -0.003 C 
HETATM   24  C18 UNL     1       6.409  52.906  -9.112  1.00  0.00     0.037 C 
HETATM   25  C19 UNL     1       6.584  54.433  -8.991  1.00  0.00     0.119 C 
HETATM   26  C20 UNL     1       5.292  55.235  -9.236  1.00  0.00     0.045 C 
HETATM   27  C21 UNL     1       4.104  54.576  -8.522  1.00  0.00     0.072 C 
HETATM   28  C26 UNL     1      -0.117  51.925 -10.456  1.00  0.00    -0.002 C 
HETATM   29  C27 UNL     1      -0.337  51.232  -9.086  1.00  0.00     0.019 C 
HETATM   30  C24 UNL     1       3.612  52.294  -7.699  1.00  0.00     0.017 C 
HETATM   31  O3  UNL     1       2.960  56.651  -8.130  1.00  0.00    -0.292 OA
BRANCH  25  32
HETATM   32  O2  UNL     1       7.077  54.708  -7.680  1.00  0.00    -0.396 OA
HETATM   33  H27 UNL     1       7.218  55.668  -7.610  1.00  0.00     0.210 HD
ENDBRANCH  25  32
BRANCH  12  34
HETATM   34  O4  UNL     1       0.417  53.958 -11.674  1.00  0.00    -0.384 OA
HETATM   35  H39 UNL     1       0.828  54.838 -11.607  1.00  0.00     0.211 HD
ENDBRANCH  12  34
ENDBRANCH   6   8
BRANCH   6  36
HETATM   36  C29 UNL     1      -2.576  50.457 -12.845  1.00  0.00     0.189 A 
HETATM   37  O5  UNL     1      -2.897  51.546 -13.734  1.00  0.00    -0.369 OA
HETATM   38  C30 UNL     1      -1.653  50.883 -13.998  1.00  0.00     0.189 A 
BRANCH  38  39
HETATM   39  C31 UNL     1      -1.650  50.238 -15.387  1.00  0.00     0.092 C 
HETATM   40  C32 UNL     1      -2.778  50.900 -16.207  1.00  0.00     0.049 C 
BRANCH  39  41
HETATM   41  O6  UNL     1      -2.044  48.857 -15.248  1.00  0.00    -0.387 OA
HETATM   42  H45 UNL     1      -2.781  48.862 -14.601  1.00  0.00     0.210 HD
ENDBRANCH  39  41
BRANCH  39  43
HETATM   43  C33 UNL     1      -0.231  50.254 -16.089  1.00  0.00     0.011 C 
HETATM   44  C34 UNL     1       0.413  48.844 -16.048  1.00  0.00     0.020 C 
BRANCH  43  45
HETATM   45  C35 UNL     1       0.772  51.202 -15.374  1.00  0.00     0.176 C 
BRANCH  45  46
HETATM   46  O7  UNL     1       1.875  50.498 -14.832  1.00  0.00    -0.400 OA
HETATM   47  H51 UNL     1       1.923  50.701 -13.878  1.00  0.00     0.209 HD
ENDBRANCH  45  46
ENDBRANCH  43  45
BRANCH  43  48
HETATM   48  C36 UNL     1      -0.299  50.707 -17.595  1.00  0.00     0.019 C 
BRANCH  48  49
HETATM   49  C37 UNL     1       0.342  52.059 -17.941  1.00  0.00     0.039 C 
BRANCH  49  50
HETATM   50  C38 UNL     1       0.391  52.296 -19.435  1.00  0.00    -0.053 A 
HETATM   51  C39 UNL     1      -0.246  51.422 -20.315  1.00  0.00     0.024 A 
HETATM   52  C40 UNL     1      -0.187  51.672 -21.677  1.00  0.00     0.090 A 
HETATM   53  N1  UNL     1       0.470  52.748 -22.136  1.00  0.00    -0.353 N 
HETATM   54  C41 UNL     1       1.081  53.630 -21.335  1.00  0.00     0.098 A 
HETATM   55  H58 UNL     1       0.523  52.904 -23.138  1.00  0.00     0.166 HD
HETATM   56  C42 UNL     1       1.077  53.397 -19.959  1.00  0.00     0.055 A 
BRANCH  54  57
HETATM   57  N2  UNL     1       1.779  54.688 -21.890  1.00  0.00    -0.385 N 
HETATM   58  H59 UNL     1       1.773  55.544 -21.333  1.00  0.00     0.157 HD
HETATM   59  H60 UNL     1       1.717  54.884 -22.882  1.00  0.00     0.157 HD
ENDBRANCH  54  57
ENDBRANCH  49  50
ENDBRANCH  48  49
ENDBRANCH  43  48
ENDBRANCH  39  43
ENDBRANCH  38  39
ENDBRANCH   6  36
TORSDOF 13
ENDMDL
MODEL 6
REMARK minimizedAffinity -9.45255756
REMARK CNNscore 0.309117377
REMARK CNNaffinity 6.73322058
REMARK  13 active torsions:
REMARK  status: ('A' for Active; 'I' for Inactive)
REMARK    1  A    between atoms: C5_6  and  C6_7 
REMARK    2  A    between atoms: C5_6  and  C29_33 
REMARK    3  A    between atoms: C19_20  and  O2_21 
REMARK    4  A    between atoms: C28_31  and  O4_32 
REMARK    5  A    between atoms: C30_35  and  C31_36 
REMARK    6  A    between atoms: C31_36  and  O6_38 
REMARK    7  A    between atoms: C31_36  and  C33_39 
REMARK    8  A    between atoms: C33_39  and  C35_41 
REMARK    9  A    between atoms: C33_39  and  C36_43 
REMARK   10  A    between atoms: C35_41  and  O7_42 
REMARK   11  A    between atoms: C36_43  and  C37_44 
REMARK   12  A    between atoms: C37_44  and  C38_45 
REMARK   13  A    between atoms: C41_49  and  N2_50 
ROOT
HETATM    1  C1  UNL     1      -7.409  48.469 -23.975  1.00  0.00     0.010 C 
HETATM    2  C2  UNL     1      -7.817  47.415 -25.007  1.00  0.00    -0.014 C 
HETATM    3  C3  UNL     1      -7.775  46.015 -24.400  1.00  0.00     0.030 C 
HETATM    4  C4  UNL     1      -8.271  45.001 -25.417  1.00  0.00     0.169 C 
HETATM    5  O1  UNL     1      -9.590  45.294 -25.857  1.00  0.00    -0.377 OA
HETATM    6  C5  UNL     1      -9.785  46.584 -26.465  1.00  0.00     0.094 C 
HETATM    7  C43 UNL     1      -9.225  47.695 -25.548  1.00  0.00     0.045 C 
ENDROOT
BRANCH   6   8
HETATM    8  C6  UNL     1     -11.343  46.771 -26.661  1.00  0.00     0.035 C 
HETATM    9  C7  UNL     1     -11.847  46.228 -28.071  1.00  0.00     0.016 C 
HETATM   10  C8  UNL     1     -13.219  45.589 -27.823  1.00  0.00     0.026 C 
HETATM   11  C9  UNL     1     -14.303  45.677 -28.883  1.00  0.00     0.013 C 
HETATM   12  C28 UNL     1     -13.666  46.292 -26.554  1.00  0.00     0.094 C 
HETATM   13  C10 UNL     1     -15.615  45.062 -28.328  1.00  0.00     0.043 C 
HETATM   14  C11 UNL     1     -15.888  45.314 -26.850  1.00  0.00    -0.006 C 
HETATM   15  C12 UNL     1     -14.972  45.834 -26.013  1.00  0.00    -0.030 C 
HETATM   16  C22 UNL     1     -17.292  45.145 -26.368  1.00  0.00     0.161 C 
HETATM   17  C13 UNL     1     -15.262  46.291 -24.614  1.00  0.00     0.031 C 
HETATM   18  C14 UNL     1     -14.018  46.401 -23.672  1.00  0.00    -0.005 C 
HETATM   19  C23 UNL     1     -16.410  45.503 -23.926  1.00  0.00    -0.022 C 
HETATM   20  C15 UNL     1     -14.407  47.168 -22.392  1.00  0.00     0.006 C 
HETATM   21  C25 UNL     1     -12.754  46.990 -24.364  1.00  0.00     0.018 C 
HETATM   22  C16 UNL     1     -15.670  46.599 -21.712  1.00  0.00     0.006 C 
HETATM   23  C17 UNL     1     -16.816  46.418 -22.723  1.00  0.00    -0.003 C 
HETATM   24  C18 UNL     1     -18.143  45.976 -22.114  1.00  0.00     0.037 C 
HETATM   25  C19 UNL     1     -19.277  46.065 -23.156  1.00  0.00     0.119 C 
HETATM   26  C20 UNL     1     -18.787  46.201 -24.609  1.00  0.00     0.045 C 
HETATM   27  C21 UNL     1     -17.621  45.240 -24.877  1.00  0.00     0.072 C 
HETATM   28  C26 UNL     1     -12.414  46.178 -25.649  1.00  0.00    -0.002 C 
HETATM   29  C27 UNL     1     -12.070  44.718 -25.251  1.00  0.00     0.019 C 
HETATM   30  C24 UNL     1     -15.949  44.088 -23.462  1.00  0.00     0.017 C 
HETATM   31  O3  UNL     1     -18.181  44.925 -27.192  1.00  0.00    -0.292 OA
BRANCH  25  32
HETATM   32  O2  UNL     1     -20.073  44.886 -23.026  1.00  0.00    -0.396 OA
HETATM   33  H27 UNL     1     -20.808  44.952 -23.661  1.00  0.00     0.210 HD
ENDBRANCH  25  32
BRANCH  12  34
HETATM   34  O4  UNL     1     -13.880  47.694 -26.853  1.00  0.00    -0.384 OA
HETATM   35  H39 UNL     1     -14.763  47.795 -27.250  1.00  0.00     0.211 HD
ENDBRANCH  12  34
ENDBRANCH   6   8
BRANCH   6  36
HETATM   36  C29 UNL     1      -9.142  46.552 -27.863  1.00  0.00     0.189 A 
HETATM   37  O5  UNL     1      -8.881  47.875 -28.372  1.00  0.00    -0.369 OA
HETATM   38  C30 UNL     1      -7.737  47.015 -28.281  1.00  0.00     0.189 A 
BRANCH  38  39
HETATM   39  C31 UNL     1      -7.119  46.764 -29.659  1.00  0.00     0.092 C 
HETATM   40  C32 UNL     1      -8.194  47.096 -30.716  1.00  0.00     0.049 C 
BRANCH  39  41
HETATM   41  O6  UNL     1      -6.875  45.349 -29.798  1.00  0.00    -0.387 OA
HETATM   42  H45 UNL     1      -7.666  44.912 -29.418  1.00  0.00     0.210 HD
ENDBRANCH  39  41
BRANCH  39  43
HETATM   43  C33 UNL     1      -5.735  47.504 -29.876  1.00  0.00     0.011 C 
HETATM   44  C34 UNL     1      -5.959  48.904 -30.503  1.00  0.00     0.020 C 
BRANCH  43  45
HETATM   45  C35 UNL     1      -4.805  46.740 -30.859  1.00  0.00     0.176 C 
BRANCH  45  46
HETATM   46  O7  UNL     1      -4.558  47.479 -32.042  1.00  0.00    -0.400 OA
HETATM   47  H51 UNL     1      -4.823  46.929 -32.804  1.00  0.00     0.209 HD
ENDBRANCH  45  46
ENDBRANCH  43  45
BRANCH  43  48
HETATM   48  C36 UNL     1      -4.930  47.700 -28.538  1.00  0.00     0.019 C 
BRANCH  48  49
HETATM   49  C37 UNL     1      -4.184  49.032 -28.368  1.00  0.00     0.039 C 
BRANCH  49  50
HETATM   50  C38 UNL     1      -3.631  49.196 -26.969  1.00  0.00    -0.053 A 
HETATM   51  C39 UNL     1      -4.143  48.448 -25.910  1.00  0.00     0.024 A 
HETATM   52  C40 UNL     1      -3.609  48.617 -24.641  1.00  0.00     0.090 A 
HETATM   53  N1  UNL     1      -2.606  49.486 -24.445  1.00  0.00    -0.353 N 
HETATM   54  C41 UNL     1      -2.063  50.214 -25.429  1.00  0.00     0.098 A 
HETATM   55  H58 UNL     1      -2.242  49.615 -23.505  1.00  0.00     0.166 HD
HETATM   56  C42 UNL     1      -2.595  50.100 -26.714  1.00  0.00     0.055 A 
BRANCH  54  57
HETATM   57  N2  UNL     1      -1.063  51.124 -25.134  1.00  0.00    -0.385 N 
HETATM   58  H59 UNL     1      -0.371  51.254 -25.873  1.00  0.00     0.157 HD
HETATM   59  H60 UNL     1      -0.642  51.147 -24.214  1.00  0.00     0.157 HD
ENDBRANCH  54  57
ENDBRANCH  49  50
ENDBRANCH  48  49
ENDBRANCH  43  48
ENDBRANCH  39  43
ENDBRANCH  38  39
ENDBRANCH   6  36
TORSDOF 13
ENDMDL
MODEL 7
REMARK minimizedAffinity -10.0966873
REMARK CNNscore 0.297726989
REMARK CNNaffinity 7.75428534
REMARK  13 active torsions:
REMARK  status: ('A' for Active; 'I' for Inactive)
REMARK    1  A    between atoms: C5_6  and  C6_7 
REMARK    2  A    between atoms: C5_6  and  C29_33 
REMARK    3  A    between atoms: C19_20  and  O2_21 
REMARK    4  A    between atoms: C28_31  and  O4_32 
REMARK    5  A    between atoms: C30_35  and  C31_36 
REMARK    6  A    between atoms: C31_36  and  O6_38 
REMARK    7  A    between atoms: C31_36  and  C33_39 
REMARK    8  A    between atoms: C33_39  and  C35_41 
REMARK    9  A    between atoms: C33_39  and  C36_43 
REMARK   10  A    between atoms: C35_41  and  O7_42 
REMARK   11  A    between atoms: C36_43  and  C37_44 
REMARK   12  A    between atoms: C37_44  and  C38_45 
REMARK   13  A    between atoms: C41_49  and  N2_50 
ROOT
HETATM    1  C1  UNL     1      -2.686  48.466 -26.853  1.00  0.00     0.010 C 
HETATM    2  C2  UNL     1      -3.152  49.113 -25.547  1.00  0.00    -0.014 C 
HETATM    3  C3  UNL     1      -3.395  50.608 -25.737  1.00  0.00     0.030 C 
HETATM    4  C4  UNL     1      -3.942  51.206 -24.452  1.00  0.00     0.169 C 
HETATM    5  O1  UNL     1      -5.147  50.572 -24.046  1.00  0.00    -0.377 OA
HETATM    6  C5  UNL     1      -5.073  49.153 -23.815  1.00  0.00     0.094 C 
HETATM    7  C43 UNL     1      -4.436  48.449 -25.035  1.00  0.00     0.045 C 
ENDROOT
BRANCH   6   8
HETATM    8  C6  UNL     1      -6.554  48.642 -23.600  1.00  0.00     0.035 C 
HETATM    9  C7  UNL     1      -6.971  47.527 -24.658  1.00  0.00     0.016 C 
HETATM   10  C8  UNL     1      -7.842  46.517 -23.901  1.00  0.00     0.026 C 
HETATM   11  C9  UNL     1      -9.000  45.832 -24.605  1.00  0.00     0.013 C 
HETATM   12  C28 UNL     1      -8.353  47.353 -22.741  1.00  0.00     0.094 C 
HETATM   13  C10 UNL     1      -9.782  44.964 -23.583  1.00  0.00     0.043 C 
HETATM   14  C11 UNL     1      -9.901  45.545 -22.179  1.00  0.00    -0.006 C 
HETATM   15  C12 UNL     1      -9.203  46.619 -21.767  1.00  0.00    -0.030 C 
HETATM   16  C22 UNL     1     -10.977  45.003 -21.296  1.00  0.00     0.161 C 
HETATM   17  C13 UNL     1      -9.443  47.345 -20.477  1.00  0.00     0.031 C 
HETATM   18  C14 UNL     1      -8.254  48.227 -19.971  1.00  0.00    -0.005 C 
HETATM   19  C23 UNL     1      -9.980  46.434 -19.340  1.00  0.00    -0.022 C 
HETATM   20  C15 UNL     1      -8.741  49.144 -18.832  1.00  0.00     0.006 C 
HETATM   21  C25 UNL     1      -7.524  49.009 -21.102  1.00  0.00     0.018 C 
HETATM   22  C16 UNL     1      -9.480  48.375 -17.717  1.00  0.00     0.006 C 
HETATM   23  C17 UNL     1     -10.562  47.448 -18.299  1.00  0.00    -0.003 C 
HETATM   24  C18 UNL     1     -11.427  46.741 -17.260  1.00  0.00     0.037 C 
HETATM   25  C19 UNL     1     -12.626  46.042 -17.933  1.00  0.00     0.119 C 
HETATM   26  C20 UNL     1     -12.489  45.889 -19.459  1.00  0.00     0.045 C 
HETATM   27  C21 UNL     1     -11.072  45.430 -19.831  1.00  0.00     0.072 C 
HETATM   28  C26 UNL     1      -7.060  48.033 -22.223  1.00  0.00    -0.002 C 
HETATM   29  C27 UNL     1      -6.031  47.033 -21.632  1.00  0.00     0.019 C 
HETATM   30  C24 UNL     1      -8.858  45.541 -18.729  1.00  0.00     0.017 C 
HETATM   31  O3  UNL     1     -11.787  44.203 -21.767  1.00  0.00    -0.292 OA
BRANCH  25  32
HETATM   32  O2  UNL     1     -12.765  44.754 -17.332  1.00  0.00    -0.396 OA
HETATM   33  H27 UNL     1     -13.540  44.322 -17.733  1.00  0.00     0.210 HD
ENDBRANCH  25  32
BRANCH  12  34
HETATM   34  O4  UNL     1      -9.227  48.385 -23.264  1.00  0.00    -0.384 OA
HETATM   35  H39 UNL     1     -10.109  48.000 -23.407  1.00  0.00     0.211 HD
ENDBRANCH  12  34
ENDBRANCH   6   8
BRANCH   6  36
HETATM   36  C29 UNL     1      -4.308  48.926 -22.499  1.00  0.00     0.189 A 
HETATM   37  O5  UNL     1      -3.472  47.752 -22.552  1.00  0.00    -0.369 OA
HETATM   38  C30 UNL     1      -2.791  48.978 -22.253  1.00  0.00     0.189 A 
BRANCH  38  39
HETATM   39  C31 UNL     1      -2.138  48.928 -20.869  1.00  0.00     0.092 C 
HETATM   40  C32 UNL     1      -0.921  47.983 -20.965  1.00  0.00     0.049 C 
BRANCH  39  41
HETATM   41  O6  UNL     1      -3.050  48.279 -19.958  1.00  0.00    -0.387 OA
HETATM   42  H45 UNL     1      -3.425  47.525 -20.461  1.00  0.00     0.210 HD
ENDBRANCH  39  41
BRANCH  39  43
HETATM   43  C33 UNL     1      -1.813  50.358 -20.271  1.00  0.00     0.011 C 
HETATM   44  C34 UNL     1      -0.505  50.316 -19.439  1.00  0.00     0.020 C 
BRANCH  43  45
HETATM   45  C35 UNL     1      -2.920  50.857 -19.301  1.00  0.00     0.176 C 
BRANCH  45  46
HETATM   46  O7  UNL     1      -2.574  52.087 -18.687  1.00  0.00    -0.400 OA
HETATM   47  H51 UNL     1      -2.615  51.964 -17.719  1.00  0.00     0.209 HD
ENDBRANCH  45  46
ENDBRANCH  43  45
BRANCH  43  48
HETATM   48  C36 UNL     1      -1.641  51.460 -21.381  1.00  0.00     0.019 C 
BRANCH  48  49
HETATM   49  C37 UNL     1      -0.552  51.215 -22.436  1.00  0.00     0.039 C 
BRANCH  49  50
HETATM   50  C38 UNL     1       0.090  52.506 -22.896  1.00  0.00    -0.053 A 
HETATM   51  C39 UNL     1       0.898  53.246 -22.033  1.00  0.00     0.024 A 
HETATM   52  C40 UNL     1       1.476  54.420 -22.488  1.00  0.00     0.090 A 
HETATM   53  N1  UNL     1       1.264  54.831 -23.748  1.00  0.00    -0.353 N 
HETATM   54  C41 UNL     1       0.515  54.149 -24.624  1.00  0.00     0.098 A 
HETATM   55  H58 UNL     1       1.676  55.705 -24.058  1.00  0.00     0.166 HD
HETATM   56  C42 UNL     1      -0.115  52.980 -24.196  1.00  0.00     0.055 A 
BRANCH  54  57
HETATM   57  N2  UNL     1       0.305  54.666 -25.890  1.00  0.00    -0.385 N 
HETATM   58  H59 UNL     1       0.204  53.966 -26.627  1.00  0.00     0.157 HD
HETATM   59  H60 UNL     1       0.821  55.477 -26.209  1.00  0.00     0.157 HD
ENDBRANCH  54  57
ENDBRANCH  49  50
ENDBRANCH  48  49
ENDBRANCH  43  48
ENDBRANCH  39  43
ENDBRANCH  38  39
ENDBRANCH   6  36
TORSDOF 13
ENDMDL
MODEL 8
REMARK minimizedAffinity -9.64059448
REMARK CNNscore 0.293445319
REMARK CNNaffinity 7.3368659
REMARK  13 active torsions:
REMARK  status: ('A' for Active; 'I' for Inactive)
REMARK    1  A    between atoms: C5_6  and  C6_7 
REMARK    2  A    between atoms: C5_6  and  C29_33 
REMARK    3  A    between atoms: C19_20  and  O2_21 
REMARK    4  A    between atoms: C28_31  and  O4_32 
REMARK    5  A    between atoms: C30_35  and  C31_36 
REMARK    6  A    between atoms: C31_36  and  O6_38 
REMARK    7  A    between atoms: C31_36  and  C33_39 
REMARK    8  A    between atoms: C33_39  and  C35_41 
REMARK    9  A    between atoms: C33_39  and  C36_43 
REMARK   10  A    between atoms: C35_41  and  O7_42 
REMARK   11  A    between atoms: C36_43  and  C37_44 
REMARK   12  A    between atoms: C37_44  and  C38_45 
REMARK   13  A    between atoms: C41_49  and  N2_50 
ROOT
HETATM    1  C1  UNL     1      -1.191  49.397  -9.917  1.00  0.00     0.010 C 
HETATM    2  C2  UNL     1      -1.115  50.516 -10.958  1.00  0.00    -0.014 C 
HETATM    3  C3  UNL     1      -2.499  51.096 -11.236  1.00  0.00     0.030 C 
HETATM    4  C4  UNL     1      -2.383  52.262 -12.202  1.00  0.00     0.169 C 
HETATM    5  O1  UNL     1      -1.529  53.281 -11.699  1.00  0.00    -0.377 OA
HETATM    6  C5  UNL     1      -0.177  52.886 -11.398  1.00  0.00     0.094 C 
HETATM    7  C43 UNL     1      -0.178  51.637 -10.489  1.00  0.00     0.045 C 
ENDROOT
BRANCH   6   8
HETATM    8  C6  UNL     1       0.505  54.104 -10.654  1.00  0.00     0.035 C 
HETATM    9  C7  UNL     1      -0.528  54.926  -9.763  1.00  0.00     0.016 C 
HETATM   10  C8  UNL     1       0.230  55.347  -8.499  1.00  0.00     0.026 C 
HETATM   11  C9  UNL     1      -0.068  56.683  -7.840  1.00  0.00     0.013 C 
HETATM   12  C28 UNL     1       1.672  55.303  -8.970  1.00  0.00     0.094 C 
HETATM   13  C10 UNL     1       0.919  56.907  -6.664  1.00  0.00     0.043 C 
HETATM   14  C11 UNL     1       2.339  56.398  -6.888  1.00  0.00    -0.006 C 
HETATM   15  C12 UNL     1       2.682  55.612  -7.924  1.00  0.00    -0.030 C 
HETATM   16  C22 UNL     1       3.417  56.955  -6.017  1.00  0.00     0.161 C 
HETATM   17  C13 UNL     1       4.093  55.266  -8.297  1.00  0.00     0.031 C 
HETATM   18  C14 UNL     1       4.258  53.995  -9.194  1.00  0.00    -0.005 C 
HETATM   19  C23 UNL     1       5.064  55.219  -7.086  1.00  0.00    -0.022 C 
HETATM   20  C15 UNL     1       5.694  53.941  -9.752  1.00  0.00     0.006 C 
HETATM   21  C25 UNL     1       3.176  53.864 -10.306  1.00  0.00     0.018 C 
HETATM   22  C16 UNL     1       6.769  54.088  -8.655  1.00  0.00     0.006 C 
HETATM   23  C17 UNL     1       6.481  55.296  -7.746  1.00  0.00    -0.003 C 
HETATM   24  C18 UNL     1       7.560  55.591  -6.710  1.00  0.00     0.037 C 
HETATM   25  C19 UNL     1       7.304  56.949  -6.026  1.00  0.00     0.119 C 
HETATM   26  C20 UNL     1       5.885  57.505  -6.245  1.00  0.00     0.045 C 
HETATM   27  C21 UNL     1       4.838  56.394  -6.081  1.00  0.00     0.072 C 
HETATM   28  C26 UNL     1       1.750  53.929  -9.683  1.00  0.00    -0.002 C 
HETATM   29  C27 UNL     1       1.558  52.724  -8.725  1.00  0.00     0.019 C 
HETATM   30  C24 UNL     1       4.878  53.924  -6.239  1.00  0.00     0.017 C 
HETATM   31  O3  UNL     1       3.142  57.873  -5.242  1.00  0.00    -0.292 OA
BRANCH  25  32
HETATM   32  O2  UNL     1       7.541  56.778  -4.628  1.00  0.00    -0.396 OA
HETATM   33  H27 UNL     1       7.410  57.641  -4.197  1.00  0.00     0.210 HD
ENDBRANCH  25  32
BRANCH  12  34
HETATM   34  O4  UNL     1       1.866  56.339  -9.965  1.00  0.00    -0.384 OA
HETATM   35  H39 UNL     1       2.015  57.185  -9.506  1.00  0.00     0.211 HD
ENDBRANCH  12  34
ENDBRANCH   6   8
BRANCH   6  36
HETATM   36  C29 UNL     1       0.566  52.682 -12.731  1.00  0.00     0.189 A 
HETATM   37  O5  UNL     1       1.297  51.441 -12.761  1.00  0.00    -0.369 OA
HETATM   38  C30 UNL     1       0.327  51.608 -13.804  1.00  0.00     0.189 A 
BRANCH  38  39
HETATM   39  C31 UNL     1       0.990  51.604 -15.185  1.00  0.00     0.092 C 
HETATM   40  C32 UNL     1       2.457  51.164 -14.993  1.00  0.00     0.049 C 
BRANCH  39  41
HETATM   41  O6  UNL     1       1.061  52.965 -15.660  1.00  0.00    -0.387 OA
HETATM   42  H45 UNL     1       1.326  53.497 -14.880  1.00  0.00     0.210 HD
ENDBRANCH  39  41
BRANCH  39  43
HETATM   43  C33 UNL     1       0.190  50.770 -16.268  1.00  0.00     0.011 C 
HETATM   44  C34 UNL     1      -1.338  50.912 -16.047  1.00  0.00     0.020 C 
BRANCH  43  45
HETATM   45  C35 UNL     1       0.494  49.248 -16.183  1.00  0.00     0.176 C 
BRANCH  45  46
HETATM   46  O7  UNL     1      -0.547  48.466 -16.742  1.00  0.00    -0.400 OA
HETATM   47  H51 UNL     1      -0.852  47.836 -16.060  1.00  0.00     0.209 HD
ENDBRANCH  45  46
ENDBRANCH  43  45
BRANCH  43  48
HETATM   48  C36 UNL     1       0.506  51.220 -17.742  1.00  0.00     0.019 C 
BRANCH  48  49
HETATM   49  C37 UNL     1      -0.691  51.639 -18.609  1.00  0.00     0.039 C 
BRANCH  49  50
HETATM   50  C38 UNL     1      -0.267  52.024 -20.010  1.00  0.00    -0.053 A 
HETATM   51  C39 UNL     1       0.682  53.025 -20.216  1.00  0.00     0.024 A 
HETATM   52  C40 UNL     1       1.052  53.348 -21.513  1.00  0.00     0.090 A 
HETATM   53  N1  UNL     1       0.507  52.697 -22.551  1.00  0.00    -0.353 N 
HETATM   54  C41 UNL     1      -0.393  51.715 -22.409  1.00  0.00     0.098 A 
HETATM   55  H58 UNL     1       0.772  52.963 -23.494  1.00  0.00     0.166 HD
HETATM   56  C42 UNL     1      -0.820  51.382 -21.123  1.00  0.00     0.055 A 
BRANCH  54  57
HETATM   57  N2  UNL     1      -0.945  51.127 -23.533  1.00  0.00    -0.385 N 
HETATM   58  H59 UNL     1      -1.182  50.140 -23.427  1.00  0.00     0.157 HD
HETATM   59  H60 UNL     1      -0.577  51.329 -24.455  1.00  0.00     0.157 HD
ENDBRANCH  54  57
ENDBRANCH  49  50
ENDBRANCH  48  49
ENDBRANCH  43  48
ENDBRANCH  39  43
ENDBRANCH  38  39
ENDBRANCH   6  36
TORSDOF 13
ENDMDL
MODEL 9
REMARK minimizedAffinity -9.20315552
REMARK CNNscore 0.229280189
REMARK CNNaffinity 6.40666246
REMARK  13 active torsions:
REMARK  status: ('A' for Active; 'I' for Inactive)
REMARK    1  A    between atoms: C5_6  and  C6_7 
REMARK    2  A    between atoms: C5_6  and  C29_33 
REMARK    3  A    between atoms: C19_20  and  O2_21 
REMARK    4  A    between atoms: C28_31  and  O4_32 
REMARK    5  A    between atoms: C30_35  and  C31_36 
REMARK    6  A    between atoms: C31_36  and  O6_38 
REMARK    7  A    between atoms: C31_36  and  C33_39 
REMARK    8  A    between atoms: C33_39  and  C35_41 
REMARK    9  A    between atoms: C33_39  and  C36_43 
REMARK   10  A    between atoms: C35_41  and  O7_42 
REMARK   11  A    between atoms: C36_43  and  C37_44 
REMARK   12  A    between atoms: C37_44  and  C38_45 
REMARK   13  A    between atoms: C41_49  and  N2_50 
ROOT
HETATM    1  C1  UNL     1     -15.726  44.222 -28.520  1.00  0.00     0.010 C 
HETATM    2  C2  UNL     1     -14.826  44.212 -27.282  1.00  0.00    -0.014 C 
HETATM    3  C3  UNL     1     -14.085  42.883 -27.160  1.00  0.00     0.030 C 
HETATM    4  C4  UNL     1     -13.133  42.933 -25.977  1.00  0.00     0.169 C 
HETATM    5  O1  UNL     1     -12.197  43.996 -26.097  1.00  0.00    -0.377 OA
HETATM    6  C5  UNL     1     -12.749  45.320 -26.211  1.00  0.00     0.094 C 
HETATM    7  C43 UNL     1     -13.810  45.359 -27.335  1.00  0.00     0.045 C 
ENDROOT
BRANCH   6   8
HETATM    8  C6  UNL     1     -11.550  46.292 -26.557  1.00  0.00     0.035 C 
HETATM    9  C7  UNL     1     -10.618  46.578 -25.298  1.00  0.00     0.016 C 
HETATM   10  C8  UNL     1      -9.182  46.643 -25.829  1.00  0.00     0.026 C 
HETATM   11  C9  UNL     1      -8.181  47.600 -25.204  1.00  0.00     0.013 C 
HETATM   12  C28 UNL     1      -9.404  46.994 -27.289  1.00  0.00     0.094 C 
HETATM   13  C10 UNL     1      -6.853  47.551 -26.007  1.00  0.00     0.043 C 
HETATM   14  C11 UNL     1      -7.000  47.383 -27.515  1.00  0.00    -0.006 C 
HETATM   15  C12 UNL     1      -8.167  47.073 -28.109  1.00  0.00    -0.030 C 
HETATM   16  C22 UNL     1      -5.835  47.763 -28.368  1.00  0.00     0.161 C 
HETATM   17  C13 UNL     1      -8.401  47.106 -29.590  1.00  0.00     0.031 C 
HETATM   18  C14 UNL     1      -9.624  46.272 -30.095  1.00  0.00    -0.005 C 
HETATM   19  C23 UNL     1      -7.132  46.792 -30.429  1.00  0.00    -0.022 C 
HETATM   20  C15 UNL     1      -9.932  46.643 -31.559  1.00  0.00     0.006 C 
HETATM   21  C25 UNL     1     -10.876  46.369 -29.175  1.00  0.00     0.018 C 
HETATM   22  C16 UNL     1      -8.689  46.564 -32.471  1.00  0.00     0.006 C 
HETATM   23  C17 UNL     1      -7.496  47.317 -31.858  1.00  0.00    -0.003 C 
HETATM   24  C18 UNL     1      -6.261  47.397 -32.750  1.00  0.00     0.037 C 
HETATM   25  C19 UNL     1      -5.223  48.372 -32.158  1.00  0.00     0.119 C 
HETATM   26  C20 UNL     1      -5.473  48.739 -30.684  1.00  0.00     0.045 C 
HETATM   27  C21 UNL     1      -5.850  47.491 -29.874  1.00  0.00     0.072 C 
HETATM   28  C26 UNL     1     -10.503  45.988 -27.712  1.00  0.00    -0.002 C 
HETATM   29  C27 UNL     1     -10.034  44.509 -27.676  1.00  0.00     0.019 C 
HETATM   30  C24 UNL     1      -6.794  45.271 -30.428  1.00  0.00     0.017 C 
HETATM   31  O3  UNL     1      -4.858  48.296 -27.840  1.00  0.00    -0.292 OA
BRANCH  25  32
HETATM   32  O2  UNL     1      -3.938  47.763 -32.289  1.00  0.00    -0.396 OA
HETATM   33  H27 UNL     1      -3.276  48.388 -31.945  1.00  0.00     0.210 HD
ENDBRANCH  25  32
BRANCH  12  34
HETATM   34  O4  UNL     1      -9.962  48.330 -27.363  1.00  0.00    -0.384 OA
HETATM   35  H39 UNL     1      -9.236  48.974 -27.293  1.00  0.00     0.211 HD
ENDBRANCH  12  34
ENDBRANCH   6   8
BRANCH   6  36
HETATM   36  C29 UNL     1     -13.293  45.728 -24.831  1.00  0.00     0.189 A 
HETATM   37  O5  UNL     1     -14.221  46.828 -24.915  1.00  0.00    -0.369 OA
HETATM   38  C30 UNL     1     -14.736  45.637 -24.305  1.00  0.00     0.189 A 
BRANCH  38  39
HETATM   39  C31 UNL     1     -15.143  45.888 -22.851  1.00  0.00     0.092 C 
HETATM   40  C32 UNL     1     -14.732  47.333 -22.498  1.00  0.00     0.049 C 
BRANCH  39  41
HETATM   41  O6  UNL     1     -14.336  45.046 -22.000  1.00  0.00    -0.387 OA
HETATM   42  H45 UNL     1     -13.431  45.091 -22.375  1.00  0.00     0.210 HD
ENDBRANCH  39  41
BRANCH  39  43
HETATM   43  C33 UNL     1     -16.659  45.544 -22.550  1.00  0.00     0.011 C 
HETATM   44  C34 UNL     1     -16.788  44.116 -21.961  1.00  0.00     0.020 C 
BRANCH  43  45
HETATM   45  C35 UNL     1     -17.534  45.556 -23.835  1.00  0.00     0.176 C 
BRANCH  45  46
HETATM   46  O7  UNL     1     -17.969  46.863 -24.170  1.00  0.00    -0.400 OA
HETATM   47  H51 UNL     1     -18.944  46.852 -24.225  1.00  0.00     0.209 HD
ENDBRANCH  45  46
ENDBRANCH  43  45
BRANCH  43  48
HETATM   48  C36 UNL     1     -17.323  46.545 -21.533  1.00  0.00     0.019 C 
BRANCH  48  49
HETATM   49  C37 UNL     1     -17.352  46.114 -20.058  1.00  0.00     0.039 C 
BRANCH  49  50
HETATM   50  C38 UNL     1     -16.377  46.910 -19.217  1.00  0.00    -0.053 A 
HETATM   51  C39 UNL     1     -15.170  46.347 -18.804  1.00  0.00     0.024 A 
HETATM   52  C40 UNL     1     -14.297  47.106 -18.040  1.00  0.00     0.090 A 
HETATM   53  N1  UNL     1     -14.612  48.368 -17.712  1.00  0.00    -0.353 N 
HETATM   54  C41 UNL     1     -15.748  48.964 -18.098  1.00  0.00     0.098 A 
HETATM   55  H58 UNL     1     -13.972  48.901 -17.132  1.00  0.00     0.166 HD
HETATM   56  C42 UNL     1     -16.671  48.224 -18.839  1.00  0.00     0.055 A 
BRANCH  54  57
HETATM   57  N2  UNL     1     -16.020  50.253 -17.677  1.00  0.00    -0.385 N 
HETATM   58  H59 UNL     1     -16.553  50.816 -18.340  1.00  0.00     0.157 HD
HETATM   59  H60 UNL     1     -15.314  50.800 -17.199  1.00  0.00     0.157 HD
ENDBRANCH  54  57
ENDBRANCH  49  50
ENDBRANCH  48  49
ENDBRANCH  43  48
ENDBRANCH  39  43
ENDBRANCH  38  39
ENDBRANCH   6  36
TORSDOF 13
ENDMDL
