MODEL 1
REMARK minimizedAffinity -8.64610672
REMARK CNNscore 0.71746999
REMARK CNNaffinity 6.8669486
REMARK  18 active torsions:
REMARK  status: ('A' for Active; 'I' for Inactive)
REMARK    1  A    between atoms: C14_15  and  O2_16 
REMARK    2  A    between atoms: C14_15  and  C15_17 
REMARK    3  A    between atoms: C15_17  and  C16_19 
REMARK    4  A    between atoms: C16_19  and  O4_20 
REMARK    5  A    between atoms: O4_20  and  C17_21 
REMARK    6  A    between atoms: C17_21  and  C18_23 
REMARK    7  A    between atoms: C18_23  and  C19_24 
REMARK    8  A    between atoms: C19_24  and  C20_25 
REMARK       I    between atoms: C20_25  and  N1_27 
REMARK    9  A    between atoms: N1_27  and  C21_28 
REMARK   10  A    between atoms: C21_28  and  C22_29 
REMARK   11  A    between atoms: C22_29  and  C23_30 
REMARK   12  A    between atoms: C23_30  and  C24_31 
REMARK   13  A    between atoms: C24_31  and  C25_32 
REMARK   14  A    between atoms: C25_32  and  C26_33 
REMARK       I    between atoms: C26_33  and  N2_35 
REMARK   15  A    between atoms: N2_35  and  C27_36 
REMARK   16  A    between atoms: C27_36  and  C28_37 
REMARK   17  A    between atoms: C31_40  and  C32_41 
REMARK   18  A    between atoms: C32_41  and  O9_43 
ROOT
HETATM    1  C17 UNL     1      -2.075  50.600 -15.298  1.00  0.00     0.259 C 
HETATM    2  O5  UNL     1      -0.860  50.708 -15.199  1.00  0.00    -0.265 OA
ENDROOT
BRANCH   1   3
HETATM    3  O4  UNL     1      -2.737  50.150 -16.389  1.00  0.00    -0.314 OA
BRANCH   3   4
HETATM    4  C16 UNL     1      -2.575  48.801 -16.821  1.00  0.00     0.260 C 
BRANCH   4   5
HETATM    5  C15 UNL     1      -2.465  48.309 -18.281  1.00  0.00     0.185 C 
HETATM    6  O3  UNL     1      -2.966  47.224 -18.597  1.00  0.00    -0.292 OA
BRANCH   5   7
HETATM    7  C14 UNL     1      -1.800  49.252 -19.329  1.00  0.00     0.128 C 
HETATM    8  C13 UNL     1      -0.865  48.431 -20.228  1.00  0.00     0.047 C 
HETATM    9  C12 UNL     1      -1.736  47.928 -21.365  1.00  0.00     0.009 C 
HETATM   10  C11 UNL     1      -2.831  48.983 -21.582  1.00  0.00     0.002 C 
HETATM   11  C10 UNL     1      -2.728  49.758 -22.920  1.00  0.00    -0.004 C 
HETATM   12  C35 UNL     1      -2.798  49.931 -20.336  1.00  0.00    -0.002 C 
HETATM   13  C9  UNL     1      -2.854  48.836 -24.145  1.00  0.00     0.010 C 
HETATM   14  C39 UNL     1      -1.434  50.606 -23.008  1.00  0.00     0.002 C 
HETATM   15  C8  UNL     1      -2.858  49.643 -25.437  1.00  0.00     0.035 C 
HETATM   16  C7  UNL     1      -1.643  50.535 -25.550  1.00  0.00    -0.068 C 
HETATM   17  C2  UNL     1      -1.329  51.437 -24.346  1.00  0.00    -0.016 C 
HETATM   18  C6  UNL     1      -0.914  50.528 -26.681  1.00  0.00     0.053 C 
HETATM   19  C1  UNL     1      -2.323  52.621 -24.373  1.00  0.00     0.020 C 
HETATM   20  C3  UNL     1       0.128  51.978 -24.460  1.00  0.00     0.022 C 
HETATM   21  C4  UNL     1       0.476  52.512 -25.843  1.00  0.00     0.084 C 
HETATM   22  C5  UNL     1       0.212  51.467 -26.894  1.00  0.00     0.149 C 
HETATM   23  O1  UNL     1       0.851  51.419 -27.944  1.00  0.00    -0.293 OA
HETATM   24  C38 UNL     1      -1.212  51.447 -21.728  1.00  0.00     0.007 C 
HETATM   25  C37 UNL     1      -2.373  51.374 -20.740  1.00  0.00     0.013 C 
HETATM   26  C36 UNL     1      -4.230  50.064 -19.771  1.00  0.00     0.019 C 
BRANCH   7  27
HETATM   27  O2  UNL     1      -1.000  50.222 -18.655  1.00  0.00    -0.381 OA
HETATM   28  H19 UNL     1      -0.244  49.727 -18.278  1.00  0.00     0.211 HD
ENDBRANCH   7  27
ENDBRANCH   5   7
ENDBRANCH   4   5
ENDBRANCH   3   4
ENDBRANCH   1   3
BRANCH   1  29
HETATM   29  C18 UNL     1      -3.065  51.003 -14.235  1.00  0.00     0.120 C 
BRANCH  29  30
HETATM   30  C19 UNL     1      -2.571  50.609 -12.847  1.00  0.00     0.112 C 
BRANCH  30  31
HETATM   31  C20 UNL     1      -3.545  51.034 -11.770  1.00  0.00     0.217 C 
HETATM   32  O6  UNL     1      -3.651  52.191 -11.375  1.00  0.00    -0.274 OA
HETATM   33  N1  UNL     1      -4.308  49.989 -11.293  1.00  0.00    -0.361 N 
HETATM   34  H26 UNL     1      -4.002  49.048 -11.516  1.00  0.00     0.162 HD
BRANCH  33  35
HETATM   35  C21 UNL     1      -5.169  50.154 -10.138  1.00  0.00     0.122 C 
BRANCH  35  36
HETATM   36  C22 UNL     1      -6.611  49.765 -10.440  1.00  0.00     0.020 C 
BRANCH  36  37
HETATM   37  C23 UNL     1      -7.116  48.506  -9.722  1.00  0.00     0.002 C 
BRANCH  37  38
HETATM   38  C24 UNL     1      -7.719  48.758  -8.336  1.00  0.00     0.009 C 
BRANCH  38  39
HETATM   39  C25 UNL     1      -9.024  49.552  -8.373  1.00  0.00     0.103 C 
BRANCH  39  40
HETATM   40  C26 UNL     1     -10.190  48.749  -7.826  1.00  0.00     0.217 C 
HETATM   41  O7  UNL     1     -10.330  47.545  -8.000  1.00  0.00    -0.274 OA
HETATM   42  N2  UNL     1     -11.077  49.524  -7.112  1.00  0.00    -0.357 N 
HETATM   43  H37 UNL     1     -10.963  50.528  -7.122  1.00  0.00     0.162 HD
BRANCH  42  44
HETATM   44  C27 UNL     1     -12.313  48.987  -6.594  1.00  0.00     0.161 C 
BRANCH  44  45
HETATM   45  C28 UNL     1     -13.497  49.581  -7.314  1.00  0.00    -0.040 A 
HETATM   46  C29 UNL     1     -14.440  48.741  -7.923  1.00  0.00     0.010 A 
HETATM   47  C30 UNL     1     -15.528  49.278  -8.613  1.00  0.00     0.019 A 
HETATM   48  C31 UNL     1     -15.687  50.666  -8.704  1.00  0.00     0.037 A 
HETATM   49  C33 UNL     1     -14.743  51.511  -8.109  1.00  0.00     0.019 A 
HETATM   50  C34 UNL     1     -13.652  50.970  -7.421  1.00  0.00     0.010 A 
BRANCH  48  51
HETATM   51  C32 UNL     1     -16.858  51.191  -9.446  1.00  0.00     0.176 C 
HETATM   52  O8  UNL     1     -17.703  50.523 -10.013  1.00  0.00    -0.646 OA
BRANCH  51  53
HETATM   53  O9  UNL     1     -16.920  52.534  -9.445  1.00  0.00    -0.773 OA
HETATM   54  H42 UNL     1     -17.732  52.726  -9.958  1.00  0.00     0.167 HD
ENDBRANCH  51  53
ENDBRANCH  48  51
ENDBRANCH  44  45
ENDBRANCH  42  44
ENDBRANCH  39  40
ENDBRANCH  38  39
ENDBRANCH  37  38
ENDBRANCH  36  37
ENDBRANCH  35  36
ENDBRANCH  33  35
ENDBRANCH  30  31
ENDBRANCH  29  30
ENDBRANCH   1  29
TORSDOF 18
ENDMDL
MODEL 2
REMARK minimizedAffinity -9.02219486
REMARK CNNscore 0.676311195
REMARK CNNaffinity 7.1082921
REMARK  18 active torsions:
REMARK  status: ('A' for Active; 'I' for Inactive)
REMARK    1  A    between atoms: C14_15  and  O2_16 
REMARK    2  A    between atoms: C14_15  and  C15_17 
REMARK    3  A    between atoms: C15_17  and  C16_19 
REMARK    4  A    between atoms: C16_19  and  O4_20 
REMARK    5  A    between atoms: O4_20  and  C17_21 
REMARK    6  A    between atoms: C17_21  and  C18_23 
REMARK    7  A    between atoms: C18_23  and  C19_24 
REMARK    8  A    between atoms: C19_24  and  C20_25 
REMARK       I    between atoms: C20_25  and  N1_27 
REMARK    9  A    between atoms: N1_27  and  C21_28 
REMARK   10  A    between atoms: C21_28  and  C22_29 
REMARK   11  A    between atoms: C22_29  and  C23_30 
REMARK   12  A    between atoms: C23_30  and  C24_31 
REMARK   13  A    between atoms: C24_31  and  C25_32 
REMARK   14  A    between atoms: C25_32  and  C26_33 
REMARK       I    between atoms: C26_33  and  N2_35 
REMARK   15  A    between atoms: N2_35  and  C27_36 
REMARK   16  A    between atoms: C27_36  and  C28_37 
REMARK   17  A    between atoms: C31_40  and  C32_41 
REMARK   18  A    between atoms: C32_41  and  O9_43 
ROOT
HETATM    1  C17 UNL     1       1.571  52.473 -16.272  1.00  0.00     0.259 C 
HETATM    2  O5  UNL     1       0.807  52.799 -15.373  1.00  0.00    -0.265 OA
ENDROOT
BRANCH   1   3
HETATM    3  O4  UNL     1       1.245  51.711 -17.342  1.00  0.00    -0.314 OA
BRANCH   3   4
HETATM    4  C16 UNL     1      -0.079  51.202 -17.482  1.00  0.00     0.260 C 
BRANCH   4   5
HETATM    5  C15 UNL     1      -0.530  50.050 -18.408  1.00  0.00     0.185 C 
HETATM    6  O3  UNL     1      -0.805  48.948 -17.920  1.00  0.00    -0.292 OA
BRANCH   5   7
HETATM    7  C14 UNL     1      -0.711  50.352 -19.926  1.00  0.00     0.128 C 
HETATM    8  C13 UNL     1      -0.338  49.105 -20.739  1.00  0.00     0.047 C 
HETATM    9  C12 UNL     1      -1.614  48.290 -20.840  1.00  0.00     0.009 C 
HETATM   10  C11 UNL     1      -2.779  49.292 -20.826  1.00  0.00     0.002 C 
HETATM   11  C10 UNL     1      -3.558  49.398 -22.162  1.00  0.00    -0.004 C 
HETATM   12  C35 UNL     1      -2.187  50.667 -20.367  1.00  0.00    -0.002 C 
HETATM   13  C9  UNL     1      -4.217  48.069 -22.566  1.00  0.00     0.010 C 
HETATM   14  C39 UNL     1      -2.674  49.939 -23.315  1.00  0.00     0.002 C 
HETATM   15  C8  UNL     1      -5.061  48.239 -23.823  1.00  0.00     0.035 C 
HETATM   16  C7  UNL     1      -4.262  48.818 -24.967  1.00  0.00    -0.068 C 
HETATM   17  C2  UNL     1      -3.458  50.095 -24.675  1.00  0.00    -0.016 C 
HETATM   18  C6  UNL     1      -4.303  48.228 -26.175  1.00  0.00     0.053 C 
HETATM   19  C1  UNL     1      -4.452  51.279 -24.639  1.00  0.00     0.020 C 
HETATM   20  C3  UNL     1      -2.412  50.328 -25.807  1.00  0.00     0.022 C 
HETATM   21  C4  UNL     1      -2.982  50.165 -27.209  1.00  0.00     0.084 C 
HETATM   22  C5  UNL     1      -3.639  48.819 -27.361  1.00  0.00     0.149 C 
HETATM   23  O1  UNL     1      -3.702  48.239 -28.443  1.00  0.00    -0.293 OA
HETATM   24  C38 UNL     1      -1.893  51.207 -22.891  1.00  0.00     0.007 C 
HETATM   25  C37 UNL     1      -2.274  51.724 -21.507  1.00  0.00     0.013 C 
HETATM   26  C36 UNL     1      -3.056  51.226 -19.217  1.00  0.00     0.019 C 
BRANCH   7  27
HETATM   27  O2  UNL     1       0.181  51.397 -20.312  1.00  0.00    -0.381 OA
HETATM   28  H19 UNL     1       1.079  51.010 -20.260  1.00  0.00     0.211 HD
ENDBRANCH   7  27
ENDBRANCH   5   7
ENDBRANCH   4   5
ENDBRANCH   3   4
ENDBRANCH   1   3
BRANCH   1  29
HETATM   29  C18 UNL     1       3.038  52.817 -16.324  1.00  0.00     0.120 C 
BRANCH  29  30
HETATM   30  C19 UNL     1       3.875  51.755 -15.618  1.00  0.00     0.112 C 
BRANCH  30  31
HETATM   31  C20 UNL     1       3.237  51.321 -14.317  1.00  0.00     0.217 C 
HETATM   32  O6  UNL     1       2.936  50.158 -14.069  1.00  0.00    -0.274 OA
HETATM   33  N1  UNL     1       3.046  52.367 -13.438  1.00  0.00    -0.361 N 
HETATM   34  H26 UNL     1       3.120  53.308 -13.808  1.00  0.00     0.162 HD
BRANCH  33  35
HETATM   35  C21 UNL     1       2.288  52.189 -12.214  1.00  0.00     0.122 C 
BRANCH  35  36
HETATM   36  C22 UNL     1       2.989  52.811 -11.012  1.00  0.00     0.020 C 
BRANCH  36  37
HETATM   37  C23 UNL     1       2.122  53.744 -10.156  1.00  0.00     0.002 C 
BRANCH  37  38
HETATM   38  C24 UNL     1       2.127  55.210 -10.602  1.00  0.00     0.009 C 
BRANCH  38  39
HETATM   39  C25 UNL     1       3.526  55.763 -10.868  1.00  0.00     0.103 C 
BRANCH  39  40
HETATM   40  C26 UNL     1       4.272  56.058  -9.579  1.00  0.00     0.217 C 
HETATM   41  O7  UNL     1       5.292  55.477  -9.233  1.00  0.00    -0.274 OA
HETATM   42  N2  UNL     1       3.673  57.054  -8.839  1.00  0.00    -0.357 N 
HETATM   43  H37 UNL     1       2.765  57.394  -9.125  1.00  0.00     0.162 HD
BRANCH  42  44
HETATM   44  C27 UNL     1       4.151  57.422  -7.528  1.00  0.00     0.161 C 
BRANCH  44  45
HETATM   45  C28 UNL     1       3.010  57.503  -6.546  1.00  0.00    -0.040 A 
HETATM   46  C29 UNL     1       3.215  58.072  -5.280  1.00  0.00     0.010 A 
HETATM   47  C30 UNL     1       2.173  58.133  -4.353  1.00  0.00     0.019 A 
HETATM   48  C31 UNL     1       0.910  57.624  -4.680  1.00  0.00     0.037 A 
HETATM   49  C33 UNL     1       0.702  57.045  -5.937  1.00  0.00     0.019 A 
HETATM   50  C34 UNL     1       1.749  56.981  -6.863  1.00  0.00     0.010 A 
BRANCH  48  51
HETATM   51  C32 UNL     1      -0.166  57.711  -3.664  1.00  0.00     0.176 C 
HETATM   52  O8  UNL     1      -0.008  57.800  -2.461  1.00  0.00    -0.646 OA
BRANCH  51  53
HETATM   53  O9  UNL     1      -1.398  57.685  -4.203  1.00  0.00    -0.773 OA
HETATM   54  H42 UNL     1      -1.990  57.755  -3.425  1.00  0.00     0.167 HD
ENDBRANCH  51  53
ENDBRANCH  48  51
ENDBRANCH  44  45
ENDBRANCH  42  44
ENDBRANCH  39  40
ENDBRANCH  38  39
ENDBRANCH  37  38
ENDBRANCH  36  37
ENDBRANCH  35  36
ENDBRANCH  33  35
ENDBRANCH  30  31
ENDBRANCH  29  30
ENDBRANCH   1  29
TORSDOF 18
ENDMDL
MODEL 3
REMARK minimizedAffinity -8.43346691
REMARK CNNscore 0.611304641
REMARK CNNaffinity 6.98010015
REMARK  18 active torsions:
REMARK  status: ('A' for Active; 'I' for Inactive)
REMARK    1  A    between atoms: C14_15  and  O2_16 
REMARK    2  A    between atoms: C14_15  and  C15_17 
REMARK    3  A    between atoms: C15_17  and  C16_19 
REMARK    4  A    between atoms: C16_19  and  O4_20 
REMARK    5  A    between atoms: O4_20  and  C17_21 
REMARK    6  A    between atoms: C17_21  and  C18_23 
REMARK    7  A    between atoms: C18_23  and  C19_24 
REMARK    8  A    between atoms: C19_24  and  C20_25 
REMARK       I    between atoms: C20_25  and  N1_27 
REMARK    9  A    between atoms: N1_27  and  C21_28 
REMARK   10  A    between atoms: C21_28  and  C22_29 
REMARK   11  A    between atoms: C22_29  and  C23_30 
REMARK   12  A    between atoms: C23_30  and  C24_31 
REMARK   13  A    between atoms: C24_31  and  C25_32 
REMARK   14  A    between atoms: C25_32  and  C26_33 
REMARK       I    between atoms: C26_33  and  N2_35 
REMARK   15  A    between atoms: N2_35  and  C27_36 
REMARK   16  A    between atoms: C27_36  and  C28_37 
REMARK   17  A    between atoms: C31_40  and  C32_41 
REMARK   18  A    between atoms: C32_41  and  O9_43 
ROOT
HETATM    1  C17 UNL     1      -7.913  46.543 -25.693  1.00  0.00     0.259 C 
HETATM    2  O5  UNL     1      -8.536  45.538 -26.006  1.00  0.00    -0.265 OA
ENDROOT
BRANCH   1   3
HETATM    3  O4  UNL     1      -7.417  46.809 -24.461  1.00  0.00    -0.314 OA
BRANCH   3   4
HETATM    4  C16 UNL     1      -7.986  47.849 -23.669  1.00  0.00     0.260 C 
BRANCH   4   5
HETATM    5  C15 UNL     1      -7.293  48.616 -22.522  1.00  0.00     0.185 C 
HETATM    6  O3  UNL     1      -7.856  48.713 -21.426  1.00  0.00    -0.292 OA
BRANCH   5   7
HETATM    7  C14 UNL     1      -5.854  49.166 -22.765  1.00  0.00     0.128 C 
HETATM    8  C13 UNL     1      -5.845  50.683 -22.533  1.00  0.00     0.047 C 
HETATM    9  C12 UNL     1      -5.568  50.864 -21.053  1.00  0.00     0.009 C 
HETATM   10  C11 UNL     1      -4.697  49.675 -20.618  1.00  0.00     0.002 C 
HETATM   11  C10 UNL     1      -3.243  50.045 -20.232  1.00  0.00    -0.004 C 
HETATM   12  C35 UNL     1      -4.762  48.622 -21.775  1.00  0.00    -0.002 C 
HETATM   13  C9  UNL     1      -3.178  51.009 -19.036  1.00  0.00     0.010 C 
HETATM   14  C39 UNL     1      -2.444  50.614 -21.433  1.00  0.00     0.002 C 
HETATM   15  C8  UNL     1      -1.735  51.263 -18.617  1.00  0.00     0.035 C 
HETATM   16  C7  UNL     1      -0.893  51.766 -19.766  1.00  0.00    -0.068 C 
HETATM   17  C2  UNL     1      -0.947  50.958 -21.072  1.00  0.00    -0.016 C 
HETATM   18  C6  UNL     1      -0.126  52.859 -19.602  1.00  0.00     0.053 C 
HETATM   19  C1  UNL     1      -0.091  49.685 -20.873  1.00  0.00     0.020 C 
HETATM   20  C3  UNL     1      -0.356  51.805 -22.240  1.00  0.00     0.022 C 
HETATM   21  C4  UNL     1       0.959  52.489 -21.894  1.00  0.00     0.084 C 
HETATM   22  C5  UNL     1       0.810  53.326 -20.652  1.00  0.00     0.149 C 
HETATM   23  O1  UNL     1       1.487  54.334 -20.455  1.00  0.00    -0.293 OA
HETATM   24  C38 UNL     1      -2.600  49.731 -22.694  1.00  0.00     0.007 C 
HETATM   25  C37 UNL     1      -3.367  48.436 -22.442  1.00  0.00     0.013 C 
HETATM   26  C36 UNL     1      -5.121  47.243 -21.175  1.00  0.00     0.019 C 
BRANCH   7  27
HETATM   27  O2  UNL     1      -5.484  48.939 -24.125  1.00  0.00    -0.381 OA
HETATM   28  H19 UNL     1      -6.050  49.534 -24.656  1.00  0.00     0.211 HD
ENDBRANCH   7  27
ENDBRANCH   5   7
ENDBRANCH   4   5
ENDBRANCH   3   4
ENDBRANCH   1   3
BRANCH   1  29
HETATM   29  C18 UNL     1      -7.630  47.704 -26.613  1.00  0.00     0.120 C 
BRANCH  29  30
HETATM   30  C19 UNL     1      -6.281  47.540 -27.304  1.00  0.00     0.112 C 
BRANCH  30  31
HETATM   31  C20 UNL     1      -6.443  47.311 -28.790  1.00  0.00     0.217 C 
HETATM   32  O6  UNL     1      -6.416  46.199 -29.308  1.00  0.00    -0.274 OA
HETATM   33  N1  UNL     1      -6.638  48.480 -29.496  1.00  0.00    -0.361 N 
HETATM   34  H26 UNL     1      -6.427  49.352 -29.022  1.00  0.00     0.162 HD
BRANCH  33  35
HETATM   35  C21 UNL     1      -6.635  48.491 -30.946  1.00  0.00     0.122 C 
BRANCH  35  36
HETATM   36  C22 UNL     1      -5.221  48.487 -31.514  1.00  0.00     0.020 C 
BRANCH  36  37
HETATM   37  C23 UNL     1      -4.934  47.395 -32.553  1.00  0.00     0.002 C 
BRANCH  37  38
HETATM   38  C24 UNL     1      -6.117  46.466 -32.850  1.00  0.00     0.009 C 
BRANCH  38  39
HETATM   39  C25 UNL     1      -7.311  47.181 -33.479  1.00  0.00     0.103 C 
BRANCH  39  40
HETATM   40  C26 UNL     1      -8.213  46.220 -34.232  1.00  0.00     0.217 C 
HETATM   41  O7  UNL     1      -8.303  45.026 -33.975  1.00  0.00    -0.274 OA
HETATM   42  N2  UNL     1      -8.921  46.839 -35.239  1.00  0.00    -0.357 N 
HETATM   43  H37 UNL     1      -8.697  47.795 -35.474  1.00  0.00     0.162 HD
BRANCH  42  44
HETATM   44  C27 UNL     1      -9.757  46.095 -36.150  1.00  0.00     0.161 C 
BRANCH  44  45
HETATM   45  C28 UNL     1     -10.569  47.028 -37.012  1.00  0.00    -0.040 A 
HETATM   46  C29 UNL     1     -11.960  46.869 -37.098  1.00  0.00     0.010 A 
HETATM   47  C30 UNL     1     -12.722  47.711 -37.911  1.00  0.00     0.019 A 
HETATM   48  C31 UNL     1     -12.100  48.725 -38.650  1.00  0.00     0.037 A 
HETATM   49  C33 UNL     1     -10.711  48.881 -38.578  1.00  0.00     0.019 A 
HETATM   50  C34 UNL     1      -9.950  48.034 -37.766  1.00  0.00     0.010 A 
BRANCH  48  51
HETATM   51  C32 UNL     1     -12.949  49.595 -39.498  1.00  0.00     0.176 C 
HETATM   52  O8  UNL     1     -13.713  50.455 -39.101  1.00  0.00    -0.646 OA
BRANCH  51  53
HETATM   53  O9  UNL     1     -12.803  49.350 -40.812  1.00  0.00    -0.773 OA
HETATM   54  H42 UNL     1     -13.410  49.993 -41.234  1.00  0.00     0.167 HD
ENDBRANCH  51  53
ENDBRANCH  48  51
ENDBRANCH  44  45
ENDBRANCH  42  44
ENDBRANCH  39  40
ENDBRANCH  38  39
ENDBRANCH  37  38
ENDBRANCH  36  37
ENDBRANCH  35  36
ENDBRANCH  33  35
ENDBRANCH  30  31
ENDBRANCH  29  30
ENDBRANCH   1  29
TORSDOF 18
ENDMDL
MODEL 4
REMARK minimizedAffinity -9.10189533
REMARK CNNscore 0.582730532
REMARK CNNaffinity 7.51332426
REMARK  18 active torsions:
REMARK  status: ('A' for Active; 'I' for Inactive)
REMARK    1  A    between atoms: C14_15  and  O2_16 
REMARK    2  A    between atoms: C14_15  and  C15_17 
REMARK    3  A    between atoms: C15_17  and  C16_19 
REMARK    4  A    between atoms: C16_19  and  O4_20 
REMARK    5  A    between atoms: O4_20  and  C17_21 
REMARK    6  A    between atoms: C17_21  and  C18_23 
REMARK    7  A    between atoms: C18_23  and  C19_24 
REMARK    8  A    between atoms: C19_24  and  C20_25 
REMARK       I    between atoms: C20_25  and  N1_27 
REMARK    9  A    between atoms: N1_27  and  C21_28 
REMARK   10  A    between atoms: C21_28  and  C22_29 
REMARK   11  A    between atoms: C22_29  and  C23_30 
REMARK   12  A    between atoms: C23_30  and  C24_31 
REMARK   13  A    between atoms: C24_31  and  C25_32 
REMARK   14  A    between atoms: C25_32  and  C26_33 
REMARK       I    between atoms: C26_33  and  N2_35 
REMARK   15  A    between atoms: N2_35  and  C27_36 
REMARK   16  A    between atoms: C27_36  and  C28_37 
REMARK   17  A    between atoms: C31_40  and  C32_41 
REMARK   18  A    between atoms: C32_41  and  O9_43 
ROOT
HETATM    1  C17 UNL     1       1.780  52.519 -16.493  1.00  0.00     0.259 C 
HETATM    2  O5  UNL     1       1.000  53.198 -15.840  1.00  0.00    -0.265 OA
ENDROOT
BRANCH   1   3
HETATM    3  O4  UNL     1       1.440  51.473 -17.282  1.00  0.00    -0.314 OA
BRANCH   3   4
HETATM    4  C16 UNL     1       0.092  51.011 -17.318  1.00  0.00     0.260 C 
BRANCH   4   5
HETATM    5  C15 UNL     1      -0.485  49.927 -18.255  1.00  0.00     0.185 C 
HETATM    6  O3  UNL     1      -0.861  48.849 -17.781  1.00  0.00    -0.292 OA
BRANCH   5   7
HETATM    7  C14 UNL     1      -0.658  50.274 -19.765  1.00  0.00     0.128 C 
HETATM    8  C13 UNL     1      -0.275  49.053 -20.613  1.00  0.00     0.047 C 
HETATM    9  C12 UNL     1      -1.547  48.237 -20.745  1.00  0.00     0.009 C 
HETATM   10  C11 UNL     1      -2.716  49.233 -20.710  1.00  0.00     0.002 C 
HETATM   11  C10 UNL     1      -3.486  49.376 -22.047  1.00  0.00    -0.004 C 
HETATM   12  C35 UNL     1      -2.132  50.596 -20.205  1.00  0.00    -0.002 C 
HETATM   13  C9  UNL     1      -4.138  48.057 -22.495  1.00  0.00     0.010 C 
HETATM   14  C39 UNL     1      -2.597  49.955 -23.177  1.00  0.00     0.002 C 
HETATM   15  C8  UNL     1      -4.975  48.261 -23.751  1.00  0.00     0.035 C 
HETATM   16  C7  UNL     1      -4.171  48.878 -24.872  1.00  0.00    -0.068 C 
HETATM   17  C2  UNL     1      -3.374  50.148 -24.537  1.00  0.00    -0.016 C 
HETATM   18  C6  UNL     1      -4.202  48.324 -26.098  1.00  0.00     0.053 C 
HETATM   19  C1  UNL     1      -4.373  51.327 -24.472  1.00  0.00     0.020 C 
HETATM   20  C3  UNL     1      -2.321  50.419 -25.655  1.00  0.00     0.022 C 
HETATM   21  C4  UNL     1      -2.881  50.296 -27.065  1.00  0.00     0.084 C 
HETATM   22  C5  UNL     1      -3.532  48.953 -27.261  1.00  0.00     0.149 C 
HETATM   23  O1  UNL     1      -3.586  48.405 -28.360  1.00  0.00    -0.293 OA
HETATM   24  C38 UNL     1      -1.824  51.212 -22.710  1.00  0.00     0.007 C 
HETATM   25  C37 UNL     1      -2.216  51.687 -21.314  1.00  0.00     0.013 C 
HETATM   26  C36 UNL     1      -3.010  51.117 -19.045  1.00  0.00     0.019 C 
BRANCH   7  27
HETATM   27  O2  UNL     1       0.233  51.333 -20.114  1.00  0.00    -0.381 OA
HETATM   28  H19 UNL     1       1.132  50.948 -20.067  1.00  0.00     0.211 HD
ENDBRANCH   7  27
ENDBRANCH   5   7
ENDBRANCH   4   5
ENDBRANCH   3   4
ENDBRANCH   1   3
BRANCH   1  29
HETATM   29  C18 UNL     1       3.278  52.689 -16.494  1.00  0.00     0.120 C 
BRANCH  29  30
HETATM   30  C19 UNL     1       3.941  51.717 -15.524  1.00  0.00     0.112 C 
BRANCH  30  31
HETATM   31  C20 UNL     1       2.966  51.231 -14.474  1.00  0.00     0.217 C 
HETATM   32  O6  UNL     1       2.525  50.086 -14.442  1.00  0.00    -0.274 OA
HETATM   33  N1  UNL     1       2.640  52.204 -13.552  1.00  0.00    -0.361 N 
HETATM   34  H26 UNL     1       2.875  53.164 -13.783  1.00  0.00     0.162 HD
BRANCH  33  35
HETATM   35  C21 UNL     1       1.588  51.991 -12.577  1.00  0.00     0.122 C 
BRANCH  35  36
HETATM   36  C22 UNL     1       0.204  52.234 -13.167  1.00  0.00     0.020 C 
BRANCH  36  37
HETATM   37  C23 UNL     1      -0.656  50.979 -13.364  1.00  0.00     0.002 C 
BRANCH  37  38
HETATM   38  C24 UNL     1      -1.958  50.961 -12.554  1.00  0.00     0.009 C 
BRANCH  38  39
HETATM   39  C25 UNL     1      -2.802  52.223 -12.727  1.00  0.00     0.103 C 
BRANCH  39  40
HETATM   40  C26 UNL     1      -2.937  52.995 -11.427  1.00  0.00     0.217 C 
HETATM   41  O7  UNL     1      -3.819  52.793 -10.602  1.00  0.00    -0.274 OA
HETATM   42  N2  UNL     1      -1.956  53.951 -11.277  1.00  0.00    -0.357 N 
HETATM   43  H37 UNL     1      -1.344  54.146 -12.056  1.00  0.00     0.162 HD
BRANCH  42  44
HETATM   44  C27 UNL     1      -1.955  54.873 -10.166  1.00  0.00     0.161 C 
BRANCH  44  45
HETATM   45  C28 UNL     1      -0.546  55.174  -9.723  1.00  0.00    -0.040 A 
HETATM   46  C29 UNL     1      -0.315  55.746  -8.463  1.00  0.00     0.010 A 
HETATM   47  C30 UNL     1       0.983  56.051  -8.049  1.00  0.00     0.019 A 
HETATM   48  C31 UNL     1       2.069  55.788  -8.892  1.00  0.00     0.037 A 
HETATM   49  C33 UNL     1       1.845  55.228 -10.155  1.00  0.00     0.019 A 
HETATM   50  C34 UNL     1       0.544  54.927 -10.569  1.00  0.00     0.010 A 
BRANCH  48  51
HETATM   51  C32 UNL     1       3.429  56.128  -8.410  1.00  0.00     0.176 C 
HETATM   52  O8  UNL     1       4.137  55.425  -7.712  1.00  0.00    -0.646 OA
BRANCH  51  53
HETATM   53  O9  UNL     1       3.845  57.337  -8.824  1.00  0.00    -0.773 OA
HETATM   54  H42 UNL     1       4.743  57.416  -8.439  1.00  0.00     0.167 HD
ENDBRANCH  51  53
ENDBRANCH  48  51
ENDBRANCH  44  45
ENDBRANCH  42  44
ENDBRANCH  39  40
ENDBRANCH  38  39
ENDBRANCH  37  38
ENDBRANCH  36  37
ENDBRANCH  35  36
ENDBRANCH  33  35
ENDBRANCH  30  31
ENDBRANCH  29  30
ENDBRANCH   1  29
TORSDOF 18
ENDMDL
MODEL 5
REMARK minimizedAffinity -9.26232147
REMARK CNNscore 0.559558451
REMARK CNNaffinity 7.1684041
REMARK  18 active torsions:
REMARK  status: ('A' for Active; 'I' for Inactive)
REMARK    1  A    between atoms: C14_15  and  O2_16 
REMARK    2  A    between atoms: C14_15  and  C15_17 
REMARK    3  A    between atoms: C15_17  and  C16_19 
REMARK    4  A    between atoms: C16_19  and  O4_20 
REMARK    5  A    between atoms: O4_20  and  C17_21 
REMARK    6  A    between atoms: C17_21  and  C18_23 
REMARK    7  A    between atoms: C18_23  and  C19_24 
REMARK    8  A    between atoms: C19_24  and  C20_25 
REMARK       I    between atoms: C20_25  and  N1_27 
REMARK    9  A    between atoms: N1_27  and  C21_28 
REMARK   10  A    between atoms: C21_28  and  C22_29 
REMARK   11  A    between atoms: C22_29  and  C23_30 
REMARK   12  A    between atoms: C23_30  and  C24_31 
REMARK   13  A    between atoms: C24_31  and  C25_32 
REMARK   14  A    between atoms: C25_32  and  C26_33 
REMARK       I    between atoms: C26_33  and  N2_35 
REMARK   15  A    between atoms: N2_35  and  C27_36 
REMARK   16  A    between atoms: C27_36  and  C28_37 
REMARK   17  A    between atoms: C31_40  and  C32_41 
REMARK   18  A    between atoms: C32_41  and  O9_43 
ROOT
HETATM    1  C17 UNL     1      -2.319  49.045 -15.048  1.00  0.00     0.259 C 
HETATM    2  O5  UNL     1      -2.721  48.516 -14.021  1.00  0.00    -0.265 OA
ENDROOT
BRANCH   1   3
HETATM    3  O4  UNL     1      -1.964  48.394 -16.180  1.00  0.00    -0.314 OA
BRANCH   3   4
HETATM    4  C16 UNL     1      -2.903  48.242 -17.243  1.00  0.00     0.260 C 
BRANCH   4   5
HETATM    5  C15 UNL     1      -2.596  47.776 -18.683  1.00  0.00     0.185 C 
HETATM    6  O3  UNL     1      -2.960  46.654 -19.052  1.00  0.00    -0.292 OA
BRANCH   5   7
HETATM    7  C14 UNL     1      -1.912  48.786 -19.655  1.00  0.00     0.128 C 
HETATM    8  C13 UNL     1      -0.981  48.023 -20.607  1.00  0.00     0.047 C 
HETATM    9  C12 UNL     1      -1.850  47.616 -21.782  1.00  0.00     0.009 C 
HETATM   10  C11 UNL     1      -2.932  48.698 -21.927  1.00  0.00     0.002 C 
HETATM   11  C10 UNL     1      -2.811  49.568 -23.203  1.00  0.00    -0.004 C 
HETATM   12  C35 UNL     1      -2.896  49.551 -20.614  1.00  0.00    -0.002 C 
HETATM   13  C9  UNL     1      -2.939  48.742 -24.494  1.00  0.00     0.010 C 
HETATM   14  C39 UNL     1      -1.507  50.405 -23.221  1.00  0.00     0.002 C 
HETATM   15  C8  UNL     1      -2.925  49.643 -25.722  1.00  0.00     0.035 C 
HETATM   16  C7  UNL     1      -1.699  50.525 -25.762  1.00  0.00    -0.068 C 
HETATM   17  C2  UNL     1      -1.383  51.331 -24.492  1.00  0.00    -0.016 C 
HETATM   18  C6  UNL     1      -0.963  50.594 -26.886  1.00  0.00     0.053 C 
HETATM   19  C1  UNL     1      -2.363  52.526 -24.437  1.00  0.00     0.020 C 
HETATM   20  C3  UNL     1       0.082  51.862 -24.558  1.00  0.00     0.022 C 
HETATM   21  C4  UNL     1       0.444  52.493 -25.895  1.00  0.00     0.084 C 
HETATM   22  C5  UNL     1       0.175  51.532 -27.023  1.00  0.00     0.149 C 
HETATM   23  O1  UNL     1       0.821  51.554 -28.070  1.00  0.00    -0.293 OA
HETATM   24  C38 UNL     1      -1.283  51.146 -21.880  1.00  0.00     0.007 C 
HETATM   25  C37 UNL     1      -2.451  51.014 -20.908  1.00  0.00     0.013 C 
HETATM   26  C36 UNL     1      -4.330  49.658 -20.049  1.00  0.00     0.019 C 
BRANCH   7  27
HETATM   27  O2  UNL     1      -1.106  49.694 -18.905  1.00  0.00    -0.381 OA
HETATM   28  H19 UNL     1      -0.358  49.163 -18.562  1.00  0.00     0.211 HD
ENDBRANCH   7  27
ENDBRANCH   5   7
ENDBRANCH   4   5
ENDBRANCH   3   4
ENDBRANCH   1   3
BRANCH   1  29
HETATM   29  C18 UNL     1      -2.088  50.525 -15.221  1.00  0.00     0.120 C 
BRANCH  29  30
HETATM   30  C19 UNL     1      -1.826  51.200 -13.879  1.00  0.00     0.112 C 
BRANCH  30  31
HETATM   31  C20 UNL     1      -2.987  52.077 -13.464  1.00  0.00     0.217 C 
HETATM   32  O6  UNL     1      -3.742  52.619 -14.266  1.00  0.00    -0.274 OA
HETATM   33  N1  UNL     1      -3.112  52.191 -12.096  1.00  0.00    -0.361 N 
HETATM   34  H26 UNL     1      -2.325  51.895 -11.528  1.00  0.00     0.162 HD
BRANCH  33  35
HETATM   35  C21 UNL     1      -4.047  53.127 -11.503  1.00  0.00     0.122 C 
BRANCH  35  36
HETATM   36  C22 UNL     1      -3.425  53.901 -10.346  1.00  0.00     0.020 C 
BRANCH  36  37
HETATM   37  C23 UNL     1      -1.903  53.762 -10.206  1.00  0.00     0.002 C 
BRANCH  37  38
HETATM   38  C24 UNL     1      -1.113  55.042 -10.505  1.00  0.00     0.009 C 
BRANCH  38  39
HETATM   39  C25 UNL     1       0.118  55.220  -9.619  1.00  0.00     0.103 C 
BRANCH  39  40
HETATM   40  C26 UNL     1       1.402  54.899 -10.364  1.00  0.00     0.217 C 
HETATM   41  O7  UNL     1       1.536  53.935 -11.108  1.00  0.00    -0.274 OA
HETATM   42  N2  UNL     1       2.401  55.813 -10.112  1.00  0.00    -0.357 N 
HETATM   43  H37 UNL     1       2.257  56.504  -9.390  1.00  0.00     0.162 HD
BRANCH  42  44
HETATM   44  C27 UNL     1       3.737  55.644 -10.631  1.00  0.00     0.161 C 
BRANCH  44  45
HETATM   45  C28 UNL     1       4.741  55.566  -9.508  1.00  0.00    -0.040 A 
HETATM   46  C29 UNL     1       4.454  56.159  -8.270  1.00  0.00     0.010 A 
HETATM   47  C30 UNL     1       5.383  56.115  -7.230  1.00  0.00     0.019 A 
HETATM   48  C31 UNL     1       6.615  55.475  -7.415  1.00  0.00     0.037 A 
HETATM   49  C33 UNL     1       6.912  54.891  -8.651  1.00  0.00     0.019 A 
HETATM   50  C34 UNL     1       5.981  54.940  -9.693  1.00  0.00     0.010 A 
BRANCH  48  51
HETATM   51  C32 UNL     1       7.570  55.452  -6.281  1.00  0.00     0.176 C 
HETATM   52  O8  UNL     1       8.487  56.232  -6.102  1.00  0.00    -0.646 OA
BRANCH  51  53
HETATM   53  O9  UNL     1       7.334  54.448  -5.419  1.00  0.00    -0.773 OA
HETATM   54  H42 UNL     1       8.028  54.564  -4.736  1.00  0.00     0.167 HD
ENDBRANCH  51  53
ENDBRANCH  48  51
ENDBRANCH  44  45
ENDBRANCH  42  44
ENDBRANCH  39  40
ENDBRANCH  38  39
ENDBRANCH  37  38
ENDBRANCH  36  37
ENDBRANCH  35  36
ENDBRANCH  33  35
ENDBRANCH  30  31
ENDBRANCH  29  30
ENDBRANCH   1  29
TORSDOF 18
ENDMDL
MODEL 6
REMARK minimizedAffinity -8.42918396
REMARK CNNscore 0.533023953
REMARK CNNaffinity 6.77565765
REMARK  18 active torsions:
REMARK  status: ('A' for Active; 'I' for Inactive)
REMARK    1  A    between atoms: C14_15  and  O2_16 
REMARK    2  A    between atoms: C14_15  and  C15_17 
REMARK    3  A    between atoms: C15_17  and  C16_19 
REMARK    4  A    between atoms: C16_19  and  O4_20 
REMARK    5  A    between atoms: O4_20  and  C17_21 
REMARK    6  A    between atoms: C17_21  and  C18_23 
REMARK    7  A    between atoms: C18_23  and  C19_24 
REMARK    8  A    between atoms: C19_24  and  C20_25 
REMARK       I    between atoms: C20_25  and  N1_27 
REMARK    9  A    between atoms: N1_27  and  C21_28 
REMARK   10  A    between atoms: C21_28  and  C22_29 
REMARK   11  A    between atoms: C22_29  and  C23_30 
REMARK   12  A    between atoms: C23_30  and  C24_31 
REMARK   13  A    between atoms: C24_31  and  C25_32 
REMARK   14  A    between atoms: C25_32  and  C26_33 
REMARK       I    between atoms: C26_33  and  N2_35 
REMARK   15  A    between atoms: N2_35  and  C27_36 
REMARK   16  A    between atoms: C27_36  and  C28_37 
REMARK   17  A    between atoms: C31_40  and  C32_41 
REMARK   18  A    between atoms: C32_41  and  O9_43 
ROOT
HETATM    1  C17 UNL     1      -9.188  46.022 -22.171  1.00  0.00     0.259 C 
HETATM    2  O5  UNL     1      -8.818  44.856 -22.149  1.00  0.00    -0.265 OA
ENDROOT
BRANCH   1   3
HETATM    3  O4  UNL     1      -8.437  47.090 -21.814  1.00  0.00    -0.314 OA
BRANCH   3   4
HETATM    4  C16 UNL     1      -7.460  47.612 -22.711  1.00  0.00     0.260 C 
BRANCH   4   5
HETATM    5  C15 UNL     1      -6.337  48.615 -22.368  1.00  0.00     0.185 C 
HETATM    6  O3  UNL     1      -6.038  48.814 -21.185  1.00  0.00    -0.292 OA
BRANCH   5   7
HETATM    7  C14 UNL     1      -5.553  49.275 -23.543  1.00  0.00     0.128 C 
HETATM    8  C13 UNL     1      -5.692  50.801 -23.451  1.00  0.00     0.047 C 
HETATM    9  C12 UNL     1      -4.557  51.258 -22.554  1.00  0.00     0.009 C 
HETATM   10  C11 UNL     1      -3.403  50.265 -22.762  1.00  0.00     0.002 C 
HETATM   11  C10 UNL     1      -2.161  50.856 -23.476  1.00  0.00    -0.004 C 
HETATM   12  C35 UNL     1      -4.000  49.032 -23.521  1.00  0.00    -0.002 C 
HETATM   13  C9  UNL     1      -1.520  52.009 -22.683  1.00  0.00     0.010 C 
HETATM   14  C39 UNL     1      -2.474  51.303 -24.926  1.00  0.00     0.002 C 
HETATM   15  C8  UNL     1      -0.242  52.490 -23.358  1.00  0.00     0.035 C 
HETATM   16  C7  UNL     1      -0.478  52.886 -24.797  1.00  0.00    -0.068 C 
HETATM   17  C2  UNL     1      -1.212  51.869 -25.685  1.00  0.00    -0.016 C 
HETATM   18  C6  UNL     1      -0.024  54.071 -25.246  1.00  0.00     0.053 C 
HETATM   19  C1  UNL     1      -0.207  50.753 -26.053  1.00  0.00     0.020 C 
HETATM   20  C3  UNL     1      -1.711  52.570 -26.986  1.00  0.00     0.022 C 
HETATM   21  C4  UNL     1      -0.658  53.447 -27.650  1.00  0.00     0.084 C 
HETATM   22  C5  UNL     1      -0.119  54.458 -26.673  1.00  0.00     0.149 C 
HETATM   23  O1  UNL     1       0.306  55.555 -27.033  1.00  0.00    -0.293 OA
HETATM   24  C38 UNL     1      -3.240  50.209 -25.709  1.00  0.00     0.007 C 
HETATM   25  C37 UNL     1      -3.381  48.896 -24.944  1.00  0.00     0.013 C 
HETATM   26  C36 UNL     1      -3.600  47.742 -22.771  1.00  0.00     0.019 C 
BRANCH   7  27
HETATM   27  O2  UNL     1      -6.126  48.867 -24.784  1.00  0.00    -0.381 OA
HETATM   28  H19 UNL     1      -7.005  49.297 -24.824  1.00  0.00     0.211 HD
ENDBRANCH   7  27
ENDBRANCH   5   7
ENDBRANCH   4   5
ENDBRANCH   3   4
ENDBRANCH   1   3
BRANCH   1  29
HETATM   29  C18 UNL     1     -10.574  46.481 -22.548  1.00  0.00     0.120 C 
BRANCH  29  30
HETATM   30  C19 UNL     1     -10.754  46.493 -24.062  1.00  0.00     0.112 C 
BRANCH  30  31
HETATM   31  C20 UNL     1     -12.216  46.420 -24.447  1.00  0.00     0.217 C 
HETATM   32  O6  UNL     1     -12.995  47.358 -24.314  1.00  0.00    -0.274 OA
HETATM   33  N1  UNL     1     -12.572  45.196 -24.973  1.00  0.00    -0.361 N 
HETATM   34  H26 UNL     1     -11.927  44.424 -24.841  1.00  0.00     0.162 HD
BRANCH  33  35
HETATM   35  C21 UNL     1     -13.960  44.866 -25.234  1.00  0.00     0.122 C 
BRANCH  35  36
HETATM   36  C22 UNL     1     -14.283  44.892 -26.723  1.00  0.00     0.020 C 
BRANCH  36  37
HETATM   37  C23 UNL     1     -15.724  45.283 -27.076  1.00  0.00     0.002 C 
BRANCH  37  38
HETATM   38  C24 UNL     1     -16.647  45.487 -25.869  1.00  0.00     0.009 C 
BRANCH  38  39
HETATM   39  C25 UNL     1     -18.132  45.455 -26.223  1.00  0.00     0.103 C 
BRANCH  39  40
HETATM   40  C26 UNL     1     -19.003  45.850 -25.043  1.00  0.00     0.217 C 
HETATM   41  O7  UNL     1     -19.936  46.640 -25.119  1.00  0.00    -0.274 OA
HETATM   42  N2  UNL     1     -18.628  45.221 -23.877  1.00  0.00    -0.357 N 
HETATM   43  H37 UNL     1     -17.772  44.686 -23.866  1.00  0.00     0.162 HD
BRANCH  42  44
HETATM   44  C27 UNL     1     -19.249  45.530 -22.611  1.00  0.00     0.161 C 
BRANCH  44  45
HETATM   45  C28 UNL     1     -18.244  46.112 -21.650  1.00  0.00    -0.040 A 
HETATM   46  C29 UNL     1     -16.880  46.112 -21.978  1.00  0.00     0.010 A 
HETATM   47  C30 UNL     1     -15.937  46.627 -21.087  1.00  0.00     0.019 A 
HETATM   48  C31 UNL     1     -16.346  47.149 -19.854  1.00  0.00     0.037 A 
HETATM   49  C33 UNL     1     -17.704  47.143 -19.516  1.00  0.00     0.019 A 
HETATM   50  C34 UNL     1     -18.647  46.623 -20.408  1.00  0.00     0.010 A 
BRANCH  48  51
HETATM   51  C32 UNL     1     -15.308  47.686 -18.942  1.00  0.00     0.176 C 
HETATM   52  O8  UNL     1     -15.511  48.298 -17.909  1.00  0.00    -0.646 OA
BRANCH  51  53
HETATM   53  O9  UNL     1     -14.057  47.433 -19.364  1.00  0.00    -0.773 OA
HETATM   54  H42 UNL     1     -13.495  47.836 -18.670  1.00  0.00     0.167 HD
ENDBRANCH  51  53
ENDBRANCH  48  51
ENDBRANCH  44  45
ENDBRANCH  42  44
ENDBRANCH  39  40
ENDBRANCH  38  39
ENDBRANCH  37  38
ENDBRANCH  36  37
ENDBRANCH  35  36
ENDBRANCH  33  35
ENDBRANCH  30  31
ENDBRANCH  29  30
ENDBRANCH   1  29
TORSDOF 18
ENDMDL
MODEL 7
REMARK minimizedAffinity -8.75618935
REMARK CNNscore 0.528024077
REMARK CNNaffinity 7.22477388
REMARK  18 active torsions:
REMARK  status: ('A' for Active; 'I' for Inactive)
REMARK    1  A    between atoms: C14_15  and  O2_16 
REMARK    2  A    between atoms: C14_15  and  C15_17 
REMARK    3  A    between atoms: C15_17  and  C16_19 
REMARK    4  A    between atoms: C16_19  and  O4_20 
REMARK    5  A    between atoms: O4_20  and  C17_21 
REMARK    6  A    between atoms: C17_21  and  C18_23 
REMARK    7  A    between atoms: C18_23  and  C19_24 
REMARK    8  A    between atoms: C19_24  and  C20_25 
REMARK       I    between atoms: C20_25  and  N1_27 
REMARK    9  A    between atoms: N1_27  and  C21_28 
REMARK   10  A    between atoms: C21_28  and  C22_29 
REMARK   11  A    between atoms: C22_29  and  C23_30 
REMARK   12  A    between atoms: C23_30  and  C24_31 
REMARK   13  A    between atoms: C24_31  and  C25_32 
REMARK   14  A    between atoms: C25_32  and  C26_33 
REMARK       I    between atoms: C26_33  and  N2_35 
REMARK   15  A    between atoms: N2_35  and  C27_36 
REMARK   16  A    between atoms: C27_36  and  C28_37 
REMARK   17  A    between atoms: C31_40  and  C32_41 
REMARK   18  A    between atoms: C32_41  and  O9_43 
ROOT
HETATM    1  C17 UNL     1      -0.583  50.810 -17.798  1.00  0.00     0.259 C 
HETATM    2  O5  UNL     1      -0.019  51.880 -17.980  1.00  0.00    -0.265 OA
ENDROOT
BRANCH   1   3
HETATM    3  O4  UNL     1      -0.628  49.786 -18.682  1.00  0.00    -0.314 OA
BRANCH   3   4
HETATM    4  C16 UNL     1      -1.701  48.848 -18.637  1.00  0.00     0.260 C 
BRANCH   4   5
HETATM    5  C15 UNL     1      -3.139  49.070 -19.155  1.00  0.00     0.185 C 
HETATM    6  O3  UNL     1      -4.086  49.035 -18.360  1.00  0.00    -0.292 OA
BRANCH   5   7
HETATM    7  C14 UNL     1      -3.335  49.425 -20.660  1.00  0.00     0.128 C 
HETATM    8  C13 UNL     1      -3.489  50.945 -20.807  1.00  0.00     0.047 C 
HETATM    9  C12 UNL     1      -2.078  51.483 -20.955  1.00  0.00     0.009 C 
HETATM   10  C11 UNL     1      -1.258  50.384 -21.649  1.00  0.00     0.002 C 
HETATM   11  C10 UNL     1      -0.803  50.728 -23.090  1.00  0.00    -0.004 C 
HETATM   12  C35 UNL     1      -2.115  49.074 -21.587  1.00  0.00    -0.002 C 
HETATM   13  C9  UNL     1       0.114  51.962 -23.139  1.00  0.00     0.010 C 
HETATM   14  C39 UNL     1      -2.001  50.903 -24.058  1.00  0.00     0.002 C 
HETATM   15  C8  UNL     1       0.628  52.203 -24.553  1.00  0.00     0.035 C 
HETATM   16  C7  UNL     1      -0.499  52.325 -25.551  1.00  0.00    -0.068 C 
HETATM   17  C2  UNL     1      -1.559  51.212 -25.540  1.00  0.00    -0.016 C 
HETATM   18  C6  UNL     1      -0.520  53.361 -26.409  1.00  0.00     0.053 C 
HETATM   19  C1  UNL     1      -0.947  49.973 -26.234  1.00  0.00     0.020 C 
HETATM   20  C3  UNL     1      -2.820  51.679 -26.329  1.00  0.00     0.022 C 
HETATM   21  C4  UNL     1      -2.499  52.326 -27.669  1.00  0.00     0.084 C 
HETATM   22  C5  UNL     1      -1.532  53.466 -27.488  1.00  0.00     0.149 C 
HETATM   23  O1  UNL     1      -1.512  54.435 -28.245  1.00  0.00    -0.293 OA
HETATM   24  C38 UNL     1      -3.012  49.737 -23.934  1.00  0.00     0.007 C 
HETATM   25  C37 UNL     1      -2.541  48.615 -23.013  1.00  0.00     0.013 C 
HETATM   26  C36 UNL     1      -1.239  47.931 -21.028  1.00  0.00     0.019 C 
BRANCH   7  27
HETATM   27  O2  UNL     1      -4.540  48.826 -21.136  1.00  0.00    -0.381 OA
HETATM   28  H19 UNL     1      -5.268  49.304 -20.690  1.00  0.00     0.211 HD
ENDBRANCH   7  27
ENDBRANCH   5   7
ENDBRANCH   4   5
ENDBRANCH   3   4
ENDBRANCH   1   3
BRANCH   1  29
HETATM   29  C18 UNL     1      -1.384  50.456 -16.571  1.00  0.00     0.120 C 
BRANCH  29  30
HETATM   30  C19 UNL     1      -0.471  50.153 -15.388  1.00  0.00     0.112 C 
BRANCH  30  31
HETATM   31  C20 UNL     1      -1.046  50.685 -14.094  1.00  0.00     0.217 C 
HETATM   32  O6  UNL     1      -0.378  50.851 -13.077  1.00  0.00    -0.274 OA
HETATM   33  N1  UNL     1      -2.391  50.975 -14.182  1.00  0.00    -0.361 N 
HETATM   34  H26 UNL     1      -2.898  50.604 -14.979  1.00  0.00     0.162 HD
BRANCH  33  35
HETATM   35  C21 UNL     1      -3.163  51.323 -13.005  1.00  0.00     0.122 C 
BRANCH  35  36
HETATM   36  C22 UNL     1      -3.714  52.742 -13.082  1.00  0.00     0.020 C 
BRANCH  36  37
HETATM   37  C23 UNL     1      -3.892  53.452 -11.734  1.00  0.00     0.002 C 
BRANCH  37  38
HETATM   38  C24 UNL     1      -3.405  52.653 -10.520  1.00  0.00     0.009 C 
BRANCH  38  39
HETATM   39  C25 UNL     1      -1.883  52.587 -10.403  1.00  0.00     0.103 C 
BRANCH  39  40
HETATM   40  C26 UNL     1      -1.257  53.971 -10.395  1.00  0.00     0.217 C 
HETATM   41  O7  UNL     1      -1.888  55.004 -10.212  1.00  0.00    -0.274 OA
HETATM   42  N2  UNL     1       0.102  53.936 -10.619  1.00  0.00    -0.357 N 
HETATM   43  H37 UNL     1       0.528  53.061 -10.890  1.00  0.00     0.162 HD
BRANCH  42  44
HETATM   44  C27 UNL     1       0.882  55.142 -10.761  1.00  0.00     0.161 C 
BRANCH  44  45
HETATM   45  C28 UNL     1       2.322  54.895 -10.389  1.00  0.00    -0.040 A 
HETATM   46  C29 UNL     1       3.166  55.977 -10.098  1.00  0.00     0.010 A 
HETATM   47  C30 UNL     1       4.507  55.763  -9.775  1.00  0.00     0.019 A 
HETATM   48  C31 UNL     1       5.023  54.462  -9.740  1.00  0.00     0.037 A 
HETATM   49  C33 UNL     1       4.189  53.379 -10.040  1.00  0.00     0.019 A 
HETATM   50  C34 UNL     1       2.847  53.595 -10.367  1.00  0.00     0.010 A 
BRANCH  48  51
HETATM   51  C32 UNL     1       6.453  54.283  -9.391  1.00  0.00     0.176 C 
HETATM   52  O8  UNL     1       7.064  53.231  -9.393  1.00  0.00    -0.646 OA
BRANCH  51  53
HETATM   53  O9  UNL     1       7.057  55.436  -9.052  1.00  0.00    -0.773 OA
HETATM   54  H42 UNL     1       7.978  55.163  -8.857  1.00  0.00     0.167 HD
ENDBRANCH  51  53
ENDBRANCH  48  51
ENDBRANCH  44  45
ENDBRANCH  42  44
ENDBRANCH  39  40
ENDBRANCH  38  39
ENDBRANCH  37  38
ENDBRANCH  36  37
ENDBRANCH  35  36
ENDBRANCH  33  35
ENDBRANCH  30  31
ENDBRANCH  29  30
ENDBRANCH   1  29
TORSDOF 18
ENDMDL
MODEL 8
REMARK minimizedAffinity -8.13214016
REMARK CNNscore 0.506951153
REMARK CNNaffinity 6.59935904
REMARK  18 active torsions:
REMARK  status: ('A' for Active; 'I' for Inactive)
REMARK    1  A    between atoms: C14_15  and  O2_16 
REMARK    2  A    between atoms: C14_15  and  C15_17 
REMARK    3  A    between atoms: C15_17  and  C16_19 
REMARK    4  A    between atoms: C16_19  and  O4_20 
REMARK    5  A    between atoms: O4_20  and  C17_21 
REMARK    6  A    between atoms: C17_21  and  C18_23 
REMARK    7  A    between atoms: C18_23  and  C19_24 
REMARK    8  A    between atoms: C19_24  and  C20_25 
REMARK       I    between atoms: C20_25  and  N1_27 
REMARK    9  A    between atoms: N1_27  and  C21_28 
REMARK   10  A    between atoms: C21_28  and  C22_29 
REMARK   11  A    between atoms: C22_29  and  C23_30 
REMARK   12  A    between atoms: C23_30  and  C24_31 
REMARK   13  A    between atoms: C24_31  and  C25_32 
REMARK   14  A    between atoms: C25_32  and  C26_33 
REMARK       I    between atoms: C26_33  and  N2_35 
REMARK   15  A    between atoms: N2_35  and  C27_36 
REMARK   16  A    between atoms: C27_36  and  C28_37 
REMARK   17  A    between atoms: C31_40  and  C32_41 
REMARK   18  A    between atoms: C32_41  and  O9_43 
ROOT
HETATM    1  C17 UNL     1      -9.196  46.901 -26.498  1.00  0.00     0.259 C 
HETATM    2  O5  UNL     1      -8.455  46.514 -25.605  1.00  0.00    -0.265 OA
ENDROOT
BRANCH   1   3
HETATM    3  O4  UNL     1     -10.300  46.254 -26.939  1.00  0.00    -0.314 OA
BRANCH   3   4
HETATM    4  C16 UNL     1     -11.564  46.493 -26.324  1.00  0.00     0.260 C 
BRANCH   4   5
HETATM    5  C15 UNL     1     -12.390  45.484 -25.495  1.00  0.00     0.185 C 
HETATM    6  O3  UNL     1     -12.058  44.293 -25.477  1.00  0.00    -0.292 OA
BRANCH   5   7
HETATM    7  C14 UNL     1     -13.567  46.029 -24.631  1.00  0.00     0.128 C 
HETATM    8  C13 UNL     1     -14.762  45.072 -24.741  1.00  0.00     0.047 C 
HETATM    9  C12 UNL     1     -14.555  44.039 -23.649  1.00  0.00     0.009 C 
HETATM   10  C11 UNL     1     -13.809  44.747 -22.507  1.00  0.00     0.002 C 
HETATM   11  C10 UNL     1     -14.639  44.942 -21.213  1.00  0.00    -0.004 C 
HETATM   12  C35 UNL     1     -13.277  46.101 -23.087  1.00  0.00    -0.002 C 
HETATM   13  C9  UNL     1     -15.084  43.606 -20.593  1.00  0.00     0.010 C 
HETATM   14  C39 UNL     1     -15.860  45.871 -21.433  1.00  0.00     0.002 C 
HETATM   15  C8  UNL     1     -15.801  43.832 -19.268  1.00  0.00     0.035 C 
HETATM   16  C7  UNL     1     -16.969  44.780 -19.412  1.00  0.00    -0.068 C 
HETATM   17  C2  UNL     1     -16.696  46.117 -20.117  1.00  0.00    -0.016 C 
HETATM   18  C6  UNL     1     -18.169  44.440 -18.907  1.00  0.00     0.053 C 
HETATM   19  C1  UNL     1     -15.950  47.032 -19.118  1.00  0.00     0.020 C 
HETATM   20  C3  UNL     1     -18.045  46.783 -20.525  1.00  0.00     0.022 C 
HETATM   21  C4  UNL     1     -19.089  46.777 -19.417  1.00  0.00     0.084 C 
HETATM   22  C5  UNL     1     -19.317  45.378 -18.911  1.00  0.00     0.149 C 
HETATM   23  O1  UNL     1     -20.395  45.018 -18.442  1.00  0.00    -0.293 OA
HETATM   24  C38 UNL     1     -15.464  47.170 -22.177  1.00  0.00     0.007 C 
HETATM   25  C37 UNL     1     -13.960  47.316 -22.392  1.00  0.00     0.013 C 
HETATM   26  C36 UNL     1     -11.773  46.228 -22.759  1.00  0.00     0.019 C 
BRANCH   7  27
HETATM   27  O2  UNL     1     -13.985  47.294 -25.141  1.00  0.00    -0.381 OA
HETATM   28  H19 UNL     1     -14.402  47.106 -26.007  1.00  0.00     0.211 HD
ENDBRANCH   7  27
ENDBRANCH   5   7
ENDBRANCH   4   5
ENDBRANCH   3   4
ENDBRANCH   1   3
BRANCH   1  29
HETATM   29  C18 UNL     1      -8.981  48.150 -27.316  1.00  0.00     0.120 C 
BRANCH  29  30
HETATM   30  C19 UNL     1      -8.589  47.806 -28.749  1.00  0.00     0.112 C 
BRANCH  30  31
HETATM   31  C20 UNL     1      -7.144  47.367 -28.838  1.00  0.00     0.217 C 
HETATM   32  O6  UNL     1      -6.803  46.228 -29.144  1.00  0.00    -0.274 OA
HETATM   33  N1  UNL     1      -6.255  48.382 -28.552  1.00  0.00    -0.361 N 
HETATM   34  H26 UNL     1      -6.624  49.213 -28.102  1.00  0.00     0.162 HD
BRANCH  33  35
HETATM   35  C21 UNL     1      -4.836  48.119 -28.408  1.00  0.00     0.122 C 
BRANCH  35  36
HETATM   36  C22 UNL     1      -4.289  48.648 -27.088  1.00  0.00     0.020 C 
BRANCH  36  37
HETATM   37  C23 UNL     1      -3.101  49.612 -27.208  1.00  0.00     0.002 C 
BRANCH  37  38
HETATM   38  C24 UNL     1      -3.153  50.814 -26.257  1.00  0.00     0.009 C 
BRANCH  38  39
HETATM   39  C25 UNL     1      -2.559  52.089 -26.852  1.00  0.00     0.103 C 
BRANCH  39  40
HETATM   40  C26 UNL     1      -1.074  52.212 -26.557  1.00  0.00     0.217 C 
HETATM   41  O7  UNL     1      -0.204  51.608 -27.171  1.00  0.00    -0.274 OA
HETATM   42  N2  UNL     1      -0.813  53.081 -25.520  1.00  0.00    -0.357 N 
HETATM   43  H37 UNL     1      -1.587  53.439 -24.979  1.00  0.00     0.162 HD
BRANCH  42  44
HETATM   44  C27 UNL     1       0.521  53.267 -25.000  1.00  0.00     0.161 C 
BRANCH  44  45
HETATM   45  C28 UNL     1       0.533  53.130 -23.499  1.00  0.00    -0.040 A 
HETATM   46  C29 UNL     1      -0.059  52.013 -22.892  1.00  0.00     0.010 A 
HETATM   47  C30 UNL     1      -0.075  51.885 -21.502  1.00  0.00     0.019 A 
HETATM   48  C31 UNL     1       0.501  52.876 -20.699  1.00  0.00     0.037 A 
HETATM   49  C33 UNL     1       1.084  53.999 -21.297  1.00  0.00     0.019 A 
HETATM   50  C34 UNL     1       1.096  54.127 -22.690  1.00  0.00     0.010 A 
BRANCH  48  51
HETATM   51  C32 UNL     1       0.462  52.697 -19.228  1.00  0.00     0.176 C 
HETATM   52  O8  UNL     1       1.413  52.772 -18.472  1.00  0.00    -0.646 OA
BRANCH  51  53
HETATM   53  O9  UNL     1      -0.773  52.431 -18.766  1.00  0.00    -0.773 OA
HETATM   54  H42 UNL     1      -0.642  52.346 -17.798  1.00  0.00     0.167 HD
ENDBRANCH  51  53
ENDBRANCH  48  51
ENDBRANCH  44  45
ENDBRANCH  42  44
ENDBRANCH  39  40
ENDBRANCH  38  39
ENDBRANCH  37  38
ENDBRANCH  36  37
ENDBRANCH  35  36
ENDBRANCH  33  35
ENDBRANCH  30  31
ENDBRANCH  29  30
ENDBRANCH   1  29
TORSDOF 18
ENDMDL
MODEL 9
REMARK minimizedAffinity -8.17349148
REMARK CNNscore 0.449712217
REMARK CNNaffinity 6.70054388
REMARK  18 active torsions:
REMARK  status: ('A' for Active; 'I' for Inactive)
REMARK    1  A    between atoms: C14_15  and  O2_16 
REMARK    2  A    between atoms: C14_15  and  C15_17 
REMARK    3  A    between atoms: C15_17  and  C16_19 
REMARK    4  A    between atoms: C16_19  and  O4_20 
REMARK    5  A    between atoms: O4_20  and  C17_21 
REMARK    6  A    between atoms: C17_21  and  C18_23 
REMARK    7  A    between atoms: C18_23  and  C19_24 
REMARK    8  A    between atoms: C19_24  and  C20_25 
REMARK       I    between atoms: C20_25  and  N1_27 
REMARK    9  A    between atoms: N1_27  and  C21_28 
REMARK   10  A    between atoms: C21_28  and  C22_29 
REMARK   11  A    between atoms: C22_29  and  C23_30 
REMARK   12  A    between atoms: C23_30  and  C24_31 
REMARK   13  A    between atoms: C24_31  and  C25_32 
REMARK   14  A    between atoms: C25_32  and  C26_33 
REMARK       I    between atoms: C26_33  and  N2_35 
REMARK   15  A    between atoms: N2_35  and  C27_36 
REMARK   16  A    between atoms: C27_36  and  C28_37 
REMARK   17  A    between atoms: C31_40  and  C32_41 
REMARK   18  A    between atoms: C32_41  and  O9_43 
ROOT
HETATM    1  C17 UNL     1      -9.267  46.222 -22.620  1.00  0.00     0.259 C 
HETATM    2  O5  UNL     1      -8.694  45.174 -22.358  1.00  0.00    -0.265 OA
ENDROOT
BRANCH   1   3
HETATM    3  O4  UNL     1      -8.829  47.460 -22.291  1.00  0.00    -0.314 OA
BRANCH   3   4
HETATM    4  C16 UNL     1      -7.490  47.849 -22.587  1.00  0.00     0.260 C 
BRANCH   4   5
HETATM    5  C15 UNL     1      -7.018  48.673 -23.805  1.00  0.00     0.185 C 
HETATM    6  O3  UNL     1      -7.823  48.954 -24.700  1.00  0.00    -0.292 OA
BRANCH   5   7
HETATM    7  C14 UNL     1      -5.552  49.203 -23.813  1.00  0.00     0.128 C 
HETATM    8  C13 UNL     1      -5.561  50.723 -23.597  1.00  0.00     0.047 C 
HETATM    9  C12 UNL     1      -5.529  50.918 -22.093  1.00  0.00     0.009 C 
HETATM   10  C11 UNL     1      -4.757  49.724 -21.510  1.00  0.00     0.002 C 
HETATM   11  C10 UNL     1      -3.381  50.082 -20.894  1.00  0.00    -0.004 C 
HETATM   12  C35 UNL     1      -4.644  48.658 -22.651  1.00  0.00    -0.002 C 
HETATM   13  C9  UNL     1      -3.500  51.059 -19.711  1.00  0.00     0.010 C 
HETATM   14  C39 UNL     1      -2.388  50.628 -21.951  1.00  0.00     0.002 C 
HETATM   15  C8  UNL     1      -2.143  51.300 -19.064  1.00  0.00     0.035 C 
HETATM   16  C7  UNL     1      -1.117  51.781 -20.064  1.00  0.00    -0.068 C 
HETATM   17  C2  UNL     1      -0.966  50.958 -21.353  1.00  0.00    -0.016 C 
HETATM   18  C6  UNL     1      -0.373  52.867 -19.786  1.00  0.00     0.053 C 
HETATM   19  C1  UNL     1      -0.171  49.679 -21.004  1.00  0.00     0.020 C 
HETATM   20  C3  UNL     1      -0.180  51.786 -22.415  1.00  0.00     0.022 C 
HETATM   21  C4  UNL     1       1.069  52.458 -21.865  1.00  0.00     0.084 C 
HETATM   22  C5  UNL     1       0.729  53.311 -20.671  1.00  0.00     0.149 C 
HETATM   23  O1  UNL     1       1.378  54.313 -20.376  1.00  0.00    -0.293 OA
HETATM   24  C38 UNL     1      -2.346  49.732 -23.213  1.00  0.00     0.007 C 
HETATM   25  C37 UNL     1      -3.161  48.449 -23.079  1.00  0.00     0.013 C 
HETATM   26  C36 UNL     1      -5.115  47.291 -22.106  1.00  0.00     0.019 C 
BRANCH   7  27
HETATM   27  O2  UNL     1      -4.965  48.957 -25.091  1.00  0.00    -0.381 OA
HETATM   28  H19 UNL     1      -5.429  49.552 -25.714  1.00  0.00     0.211 HD
ENDBRANCH   7  27
ENDBRANCH   5   7
ENDBRANCH   4   5
ENDBRANCH   3   4
ENDBRANCH   1   3
BRANCH   1  29
HETATM   29  C18 UNL     1     -10.603  46.325 -23.312  1.00  0.00     0.120 C 
BRANCH  29  30
HETATM   30  C19 UNL     1     -10.497  45.908 -24.775  1.00  0.00     0.112 C 
BRANCH  30  31
HETATM   31  C20 UNL     1     -10.652  47.094 -25.702  1.00  0.00     0.217 C 
HETATM   32  O6  UNL     1     -11.426  48.021 -25.486  1.00  0.00    -0.274 OA
HETATM   33  N1  UNL     1      -9.823  47.027 -26.802  1.00  0.00    -0.361 N 
HETATM   34  H26 UNL     1      -9.387  46.134 -27.006  1.00  0.00     0.162 HD
BRANCH  33  35
HETATM   35  C21 UNL     1      -9.949  47.972 -27.895  1.00  0.00     0.122 C 
BRANCH  35  36
HETATM   36  C22 UNL     1     -10.008  47.276 -29.249  1.00  0.00     0.020 C 
BRANCH  36  37
HETATM   37  C23 UNL     1      -9.471  48.092 -30.432  1.00  0.00     0.002 C 
BRANCH  37  38
HETATM   38  C24 UNL     1      -8.476  47.345 -31.327  1.00  0.00     0.009 C 
BRANCH  38  39
HETATM   39  C25 UNL     1      -8.246  48.018 -32.679  1.00  0.00     0.103 C 
BRANCH  39  40
HETATM   40  C26 UNL     1      -8.628  47.110 -33.834  1.00  0.00     0.217 C 
HETATM   41  O7  UNL     1      -9.060  45.973 -33.694  1.00  0.00    -0.274 OA
HETATM   42  N2  UNL     1      -8.434  47.707 -35.061  1.00  0.00    -0.357 N 
HETATM   43  H37 UNL     1      -7.953  48.594 -35.099  1.00  0.00     0.162 HD
BRANCH  42  44
HETATM   44  C27 UNL     1      -8.630  46.987 -36.297  1.00  0.00     0.161 C 
BRANCH  44  45
HETATM   45  C28 UNL     1      -9.748  47.601 -37.101  1.00  0.00    -0.040 A 
HETATM   46  C29 UNL     1     -10.815  46.803 -37.538  1.00  0.00     0.010 A 
HETATM   47  C30 UNL     1     -11.845  47.354 -38.303  1.00  0.00     0.019 A 
HETATM   48  C31 UNL     1     -11.821  48.712 -38.641  1.00  0.00     0.037 A 
HETATM   49  C33 UNL     1     -10.753  49.511 -38.218  1.00  0.00     0.019 A 
HETATM   50  C34 UNL     1      -9.720  48.957 -37.455  1.00  0.00     0.010 A 
BRANCH  48  51
HETATM   51  C32 UNL     1     -12.937  49.253 -39.454  1.00  0.00     0.176 C 
HETATM   52  O8  UNL     1     -13.417  48.734 -40.444  1.00  0.00    -0.646 OA
BRANCH  51  53
HETATM   53  O9  UNL     1     -13.404  50.424 -38.987  1.00  0.00    -0.773 OA
HETATM   54  H42 UNL     1     -14.126  50.647 -39.611  1.00  0.00     0.167 HD
ENDBRANCH  51  53
ENDBRANCH  48  51
ENDBRANCH  44  45
ENDBRANCH  42  44
ENDBRANCH  39  40
ENDBRANCH  38  39
ENDBRANCH  37  38
ENDBRANCH  36  37
ENDBRANCH  35  36
ENDBRANCH  33  35
ENDBRANCH  30  31
ENDBRANCH  29  30
ENDBRANCH   1  29
TORSDOF 18
ENDMDL
