MODEL 1
REMARK minimizedAffinity -8.74153709
REMARK CNNscore 0.610720396
REMARK CNNaffinity 7.38994217
REMARK  14 active torsions:
REMARK  status: ('A' for Active; 'I' for Inactive)
REMARK    1  A    between atoms: C4_4  and  C5_5 
REMARK    2  A    between atoms: C5_5  and  C6_6 
REMARK    3  A    between atoms: C6_6  and  C7_7 
REMARK    4  A    between atoms: C9_10  and  C10_11 
REMARK    5  A    between atoms: C12_13  and  C13_14 
REMARK    6  A    between atoms: C13_14  and  C14_15 
REMARK    7  A    between atoms: C14_15  and  C15_16 
REMARK    8  A    between atoms: C17_18  and  C18_19 
REMARK    9  A    between atoms: C18_19  and  C19_20 
REMARK   10  A    between atoms: C19_20  and  C20_21 
REMARK   11  A    between atoms: C20_21  and  O2_22 
REMARK   12  A    between atoms: C22_24  and  C24_26 
REMARK   13  A    between atoms: C27_30  and  O4_32 
REMARK   14  A    between atoms: C30_34  and  O5_35 
ROOT
HETATM    1  C15 UNL     1      -0.020   7.113  13.041  1.00  0.00    -0.006 C 
HETATM    2  C16 UNL     1       0.039   5.828  13.919  1.00  0.00     0.019 C 
HETATM    3  C17 UNL     1      -0.052   6.757  11.463  1.00  0.00     0.026 C 
HETATM    4  C21 UNL     1       1.317   6.929  10.787  1.00  0.00    -0.066 C 
HETATM    5  C22 UNL     1       1.550   7.493   9.573  1.00  0.00    -0.021 C 
HETATM    6  C23 UNL     1       2.912   7.681   8.959  1.00  0.00     0.052 C 
HETATM    7  C25 UNL     1       2.442   6.456  11.669  1.00  0.00     0.038 C 
HETATM    8  C26 UNL     1       2.563   7.339  12.910  1.00  0.00     0.042 C 
HETATM    9  C27 UNL     1       1.240   8.020  13.360  1.00  0.00     0.062 C 
HETATM   10  C28 UNL     1       1.143   9.434  12.752  1.00  0.00     0.046 C 
ENDROOT
BRANCH   1  11
HETATM   11  C14 UNL     1      -1.391   7.824  13.366  1.00  0.00     0.016 C 
BRANCH  11  12
HETATM   12  C13 UNL     1      -1.939   7.693  14.797  1.00  0.00     0.028 C 
BRANCH  12  13
HETATM   13  C12 UNL     1      -3.130   6.766  14.846  1.00  0.00    -0.022 C 
HETATM   14  C10 UNL     1      -4.413   7.035  14.524  1.00  0.00    -0.059 C 
HETATM   15  C11 UNL     1      -4.880   8.373  14.002  1.00  0.00     0.046 C 
BRANCH  14  16
HETATM   16  C9  UNL     1      -5.523   5.997  14.583  1.00  0.00     0.153 C 
HETATM   17  O1  UNL     1      -6.468   6.230  13.518  1.00  0.00    -0.368 OA
HETATM   18  C7  UNL     1      -7.788   5.830  13.957  1.00  0.00     0.084 C 
HETATM   19  C8  UNL     1      -8.650   7.094  14.037  1.00  0.00     0.049 C 
HETATM   20  C30 UNL     1      -7.580   5.168  15.338  1.00  0.00     0.155 C 
HETATM   21  C29 UNL     1      -6.352   5.882  15.856  1.00  0.00     0.071 C 
BRANCH  18  22
HETATM   22  C6  UNL     1      -8.347   4.791  12.959  1.00  0.00     0.044 C 
BRANCH  22  23
HETATM   23  C5  UNL     1      -7.584   3.459  12.871  1.00  0.00     0.030 C 
BRANCH  23  24
HETATM   24  C4  UNL     1      -6.292   3.565  12.103  1.00  0.00    -0.025 C 
HETATM   25  C2  UNL     1      -5.662   2.606  11.396  1.00  0.00    -0.091 C 
HETATM   26  C1  UNL     1      -4.367   2.907  10.687  1.00  0.00     0.042 C 
HETATM   27  C3  UNL     1      -6.138   1.191  11.224  1.00  0.00     0.042 C 
ENDBRANCH  23  24
ENDBRANCH  22  23
ENDBRANCH  18  22
BRANCH  20  28
HETATM   28  O5  UNL     1      -8.689   5.291  16.211  1.00  0.00    -0.392 OA
HETATM   29  H50 UNL     1      -8.414   4.964  17.087  1.00  0.00     0.210 HD
ENDBRANCH  20  28
ENDBRANCH  14  16
ENDBRANCH  12  13
ENDBRANCH  11  12
ENDBRANCH   1  11
BRANCH   3  30
HETATM   30  C18 UNL     1      -0.693   5.368  11.170  1.00  0.00     0.012 C 
BRANCH  30  31
HETATM   31  C19 UNL     1       0.114   4.147  11.628  1.00  0.00     0.027 C 
BRANCH  31  32
HETATM   32  C20 UNL     1      -0.691   2.853  11.629  1.00  0.00     0.164 C 
BRANCH  32  33
HETATM   33  O2  UNL     1       0.033   1.831  10.952  1.00  0.00    -0.401 OA
HETATM   34  H34 UNL     1       0.188   2.141  10.042  1.00  0.00     0.209 HD
ENDBRANCH  32  33
ENDBRANCH  31  32
ENDBRANCH  30  31
ENDBRANCH   3  30
BRANCH   9  35
HETATM   35  O4  UNL     1       1.361   8.259  14.772  1.00  0.00    -0.389 OA
HETATM   36  H46 UNL     1       1.687   7.456  15.207  1.00  0.00     0.210 HD
ENDBRANCH   9  35
BRANCH   5  37
HETATM   37  C24 UNL     1       0.466   8.020   8.682  1.00  0.00     0.265 C 
HETATM   38  O3  UNL     1      -0.120   9.081   8.854  1.00  0.00    -0.302 OA
ENDBRANCH   5  37
TORSDOF 14
ENDMDL
MODEL 2
REMARK minimizedAffinity -8.27532387
REMARK CNNscore 0.589241326
REMARK CNNaffinity 7.31898499
REMARK  14 active torsions:
REMARK  status: ('A' for Active; 'I' for Inactive)
REMARK    1  A    between atoms: C4_4  and  C5_5 
REMARK    2  A    between atoms: C5_5  and  C6_6 
REMARK    3  A    between atoms: C6_6  and  C7_7 
REMARK    4  A    between atoms: C9_10  and  C10_11 
REMARK    5  A    between atoms: C12_13  and  C13_14 
REMARK    6  A    between atoms: C13_14  and  C14_15 
REMARK    7  A    between atoms: C14_15  and  C15_16 
REMARK    8  A    between atoms: C17_18  and  C18_19 
REMARK    9  A    between atoms: C18_19  and  C19_20 
REMARK   10  A    between atoms: C19_20  and  C20_21 
REMARK   11  A    between atoms: C20_21  and  O2_22 
REMARK   12  A    between atoms: C22_24  and  C24_26 
REMARK   13  A    between atoms: C27_30  and  O4_32 
REMARK   14  A    between atoms: C30_34  and  O5_35 
ROOT
HETATM    1  C15 UNL     1      -0.892   7.552  13.099  1.00  0.00    -0.006 C 
HETATM    2  C16 UNL     1      -1.710   6.567  12.212  1.00  0.00     0.019 C 
HETATM    3  C17 UNL     1       0.270   8.295  12.252  1.00  0.00     0.026 C 
HETATM    4  C21 UNL     1       1.659   7.679  12.482  1.00  0.00    -0.066 C 
HETATM    5  C22 UNL     1       2.821   8.360  12.657  1.00  0.00    -0.021 C 
HETATM    6  C23 UNL     1       4.160   7.722  12.920  1.00  0.00     0.052 C 
HETATM    7  C25 UNL     1       1.600   6.177  12.571  1.00  0.00     0.038 C 
HETATM    8  C26 UNL     1       0.825   5.740  13.812  1.00  0.00     0.042 C 
HETATM    9  C27 UNL     1      -0.246   6.752  14.305  1.00  0.00     0.062 C 
HETATM   10  C28 UNL     1       0.355   7.667  15.392  1.00  0.00     0.046 C 
ENDROOT
BRANCH   1  11
HETATM   11  C14 UNL     1      -1.891   8.679  13.570  1.00  0.00     0.016 C 
BRANCH  11  12
HETATM   12  C13 UNL     1      -3.288   8.705  12.928  1.00  0.00     0.028 C 
BRANCH  12  13
HETATM   13  C12 UNL     1      -4.208   7.695  13.573  1.00  0.00    -0.022 C 
HETATM   14  C10 UNL     1      -4.968   7.843  14.678  1.00  0.00    -0.059 C 
HETATM   15  C11 UNL     1      -5.052   9.126  15.469  1.00  0.00     0.046 C 
BRANCH  14  16
HETATM   16  C9  UNL     1      -5.885   6.752  15.211  1.00  0.00     0.153 C 
HETATM   17  O1  UNL     1      -6.314   5.901  14.126  1.00  0.00    -0.368 OA
HETATM   18  C7  UNL     1      -7.647   5.410  14.405  1.00  0.00     0.084 C 
HETATM   19  C8  UNL     1      -8.588   6.014  13.358  1.00  0.00     0.049 C 
HETATM   20  C30 UNL     1      -7.971   5.889  15.838  1.00  0.00     0.155 C 
HETATM   21  C29 UNL     1      -7.156   7.158  15.946  1.00  0.00     0.071 C 
BRANCH  18  22
HETATM   22  C6  UNL     1      -7.622   3.866  14.364  1.00  0.00     0.044 C 
BRANCH  22  23
HETATM   23  C5  UNL     1      -7.600   3.227  12.966  1.00  0.00     0.030 C 
BRANCH  23  24
HETATM   24  C4  UNL     1      -6.333   3.513  12.202  1.00  0.00    -0.025 C 
HETATM   25  C2  UNL     1      -5.599   2.664  11.456  1.00  0.00    -0.091 C 
HETATM   26  C1  UNL     1      -4.352   3.142  10.758  1.00  0.00     0.042 C 
HETATM   27  C3  UNL     1      -5.907   1.210  11.228  1.00  0.00     0.042 C 
ENDBRANCH  23  24
ENDBRANCH  22  23
ENDBRANCH  18  22
BRANCH  20  28
HETATM   28  O5  UNL     1      -9.351   6.107  16.076  1.00  0.00    -0.392 OA
HETATM   29  H50 UNL     1      -9.438   6.527  16.950  1.00  0.00     0.210 HD
ENDBRANCH  20  28
ENDBRANCH  14  16
ENDBRANCH  12  13
ENDBRANCH  11  12
ENDBRANCH   1  11
BRANCH   3  30
HETATM   30  C18 UNL     1      -0.080   8.434  10.742  1.00  0.00     0.012 C 
BRANCH  30  31
HETATM   31  C19 UNL     1       0.837   7.683   9.769  1.00  0.00     0.027 C 
BRANCH  31  32
HETATM   32  C20 UNL     1       1.060   8.421   8.453  1.00  0.00     0.164 C 
BRANCH  32  33
HETATM   33  O2  UNL     1       2.236   7.931   7.815  1.00  0.00    -0.401 OA
HETATM   34  H34 UNL     1       2.979   8.081   8.426  1.00  0.00     0.209 HD
ENDBRANCH  32  33
ENDBRANCH  31  32
ENDBRANCH  30  31
ENDBRANCH   3  30
BRANCH   9  35
HETATM   35  O4  UNL     1      -1.240   5.988  15.010  1.00  0.00    -0.389 OA
HETATM   36  H46 UNL     1      -1.485   5.214  14.480  1.00  0.00     0.210 HD
ENDBRANCH   9  35
BRANCH   5  37
HETATM   37  C24 UNL     1       2.920   9.855  12.624  1.00  0.00     0.265 C 
HETATM   38  O3  UNL     1       3.850  10.501  13.091  1.00  0.00    -0.302 OA
ENDBRANCH   5  37
TORSDOF 14
ENDMDL
MODEL 3
REMARK minimizedAffinity -8.76011276
REMARK CNNscore 0.556176543
REMARK CNNaffinity 7.00016832
REMARK  14 active torsions:
REMARK  status: ('A' for Active; 'I' for Inactive)
REMARK    1  A    between atoms: C4_4  and  C5_5 
REMARK    2  A    between atoms: C5_5  and  C6_6 
REMARK    3  A    between atoms: C6_6  and  C7_7 
REMARK    4  A    between atoms: C9_10  and  C10_11 
REMARK    5  A    between atoms: C12_13  and  C13_14 
REMARK    6  A    between atoms: C13_14  and  C14_15 
REMARK    7  A    between atoms: C14_15  and  C15_16 
REMARK    8  A    between atoms: C17_18  and  C18_19 
REMARK    9  A    between atoms: C18_19  and  C19_20 
REMARK   10  A    between atoms: C19_20  and  C20_21 
REMARK   11  A    between atoms: C20_21  and  O2_22 
REMARK   12  A    between atoms: C22_24  and  C24_26 
REMARK   13  A    between atoms: C27_30  and  O4_32 
REMARK   14  A    between atoms: C30_34  and  O5_35 
ROOT
HETATM    1  C15 UNL     1       0.543   6.388  11.478  1.00  0.00    -0.006 C 
HETATM    2  C16 UNL     1       1.175   5.905  12.818  1.00  0.00     0.019 C 
HETATM    3  C17 UNL     1       1.497   6.058  10.214  1.00  0.00     0.026 C 
HETATM    4  C21 UNL     1       2.291   7.283   9.733  1.00  0.00    -0.066 C 
HETATM    5  C22 UNL     1       2.496   7.651   8.442  1.00  0.00    -0.021 C 
HETATM    6  C23 UNL     1       3.247   8.883   8.009  1.00  0.00     0.052 C 
HETATM    7  C25 UNL     1       2.785   8.119  10.884  1.00  0.00     0.038 C 
HETATM    8  C26 UNL     1       1.613   8.748  11.636  1.00  0.00     0.042 C 
HETATM    9  C27 UNL     1       0.282   7.949  11.560  1.00  0.00     0.062 C 
HETATM   10  C28 UNL     1      -0.587   8.483  10.402  1.00  0.00     0.046 C 
ENDROOT
BRANCH   1  11
HETATM   11  C14 UNL     1      -0.778   5.550  11.272  1.00  0.00     0.016 C 
BRANCH  11  12
HETATM   12  C13 UNL     1      -1.441   4.945  12.520  1.00  0.00     0.028 C 
BRANCH  12  13
HETATM   13  C12 UNL     1      -2.935   4.810  12.337  1.00  0.00    -0.022 C 
HETATM   14  C10 UNL     1      -3.921   5.333  13.096  1.00  0.00    -0.059 C 
HETATM   15  C11 UNL     1      -3.673   6.214  14.297  1.00  0.00     0.046 C 
BRANCH  14  16
HETATM   16  C9  UNL     1      -5.398   5.151  12.783  1.00  0.00     0.153 C 
HETATM   17  O1  UNL     1      -6.191   5.956  13.681  1.00  0.00    -0.368 OA
HETATM   18  C7  UNL     1      -7.452   5.290  13.930  1.00  0.00     0.084 C 
HETATM   19  C8  UNL     1      -7.477   4.889  15.408  1.00  0.00     0.049 C 
HETATM   20  C30 UNL     1      -7.466   4.067  12.985  1.00  0.00     0.155 C 
HETATM   21  C29 UNL     1      -5.993   3.750  12.847  1.00  0.00     0.071 C 
BRANCH  18  22
HETATM   22  C6  UNL     1      -8.601   6.251  13.554  1.00  0.00     0.044 C 
BRANCH  22  23
HETATM   23  C5  UNL     1      -9.371   6.876  14.729  1.00  0.00     0.030 C 
BRANCH  23  24
HETATM   24  C4  UNL     1     -10.383   7.906  14.296  1.00  0.00    -0.025 C 
HETATM   25  C2  UNL     1     -11.708   7.745  14.111  1.00  0.00    -0.091 C 
HETATM   26  C1  UNL     1     -12.564   8.907  13.675  1.00  0.00     0.042 C 
HETATM   27  C3  UNL     1     -12.470   6.465  14.307  1.00  0.00     0.042 C 
ENDBRANCH  23  24
ENDBRANCH  22  23
ENDBRANCH  18  22
BRANCH  20  28
HETATM   28  O5  UNL     1      -8.214   2.968  13.473  1.00  0.00    -0.392 OA
HETATM   29  H50 UNL     1      -8.054   2.213  12.879  1.00  0.00     0.210 HD
ENDBRANCH  20  28
ENDBRANCH  14  16
ENDBRANCH  12  13
ENDBRANCH  11  12
ENDBRANCH   1  11
BRANCH   3  30
HETATM   30  C18 UNL     1       2.403   4.814  10.450  1.00  0.00     0.012 C 
BRANCH  30  31
HETATM   31  C19 UNL     1       3.788   4.858   9.794  1.00  0.00     0.027 C 
BRANCH  31  32
HETATM   32  C20 UNL     1       4.133   3.592   9.017  1.00  0.00     0.164 C 
BRANCH  32  33
HETATM   33  O2  UNL     1       3.587   3.664   7.704  1.00  0.00    -0.401 OA
HETATM   34  H34 UNL     1       2.623   3.762   7.797  1.00  0.00     0.209 HD
ENDBRANCH  32  33
ENDBRANCH  31  32
ENDBRANCH  30  31
ENDBRANCH   3  30
BRANCH   9  35
HETATM   35  O4  UNL     1      -0.468   8.288  12.738  1.00  0.00    -0.389 OA
HETATM   36  H46 UNL     1       0.110   8.229  13.515  1.00  0.00     0.210 HD
ENDBRANCH   9  35
BRANCH   5  37
HETATM   37  C24 UNL     1       1.984   6.875   7.267  1.00  0.00     0.265 C 
HETATM   38  O3  UNL     1       1.849   7.332   6.138  1.00  0.00    -0.302 OA
ENDBRANCH   5  37
TORSDOF 14
ENDMDL
MODEL 4
REMARK minimizedAffinity -7.63341045
REMARK CNNscore 0.549156368
REMARK CNNaffinity 7.06667471
REMARK  14 active torsions:
REMARK  status: ('A' for Active; 'I' for Inactive)
REMARK    1  A    between atoms: C4_4  and  C5_5 
REMARK    2  A    between atoms: C5_5  and  C6_6 
REMARK    3  A    between atoms: C6_6  and  C7_7 
REMARK    4  A    between atoms: C9_10  and  C10_11 
REMARK    5  A    between atoms: C12_13  and  C13_14 
REMARK    6  A    between atoms: C13_14  and  C14_15 
REMARK    7  A    between atoms: C14_15  and  C15_16 
REMARK    8  A    between atoms: C17_18  and  C18_19 
REMARK    9  A    between atoms: C18_19  and  C19_20 
REMARK   10  A    between atoms: C19_20  and  C20_21 
REMARK   11  A    between atoms: C20_21  and  O2_22 
REMARK   12  A    between atoms: C22_24  and  C24_26 
REMARK   13  A    between atoms: C27_30  and  O4_32 
REMARK   14  A    between atoms: C30_34  and  O5_35 
ROOT
HETATM    1  C15 UNL     1       0.858   7.088  10.222  1.00  0.00    -0.006 C 
HETATM    2  C16 UNL     1       0.516   8.159   9.143  1.00  0.00     0.019 C 
HETATM    3  C17 UNL     1       0.925   7.733  11.704  1.00  0.00     0.026 C 
HETATM    4  C21 UNL     1       2.365   7.985  12.179  1.00  0.00    -0.066 C 
HETATM    5  C22 UNL     1       2.859   7.732  13.418  1.00  0.00    -0.021 C 
HETATM    6  C23 UNL     1       4.289   7.956  13.835  1.00  0.00     0.052 C 
HETATM    7  C25 UNL     1       3.240   8.498  11.066  1.00  0.00     0.038 C 
HETATM    8  C26 UNL     1       3.420   7.434   9.986  1.00  0.00     0.042 C 
HETATM    9  C27 UNL     1       2.249   6.418   9.866  1.00  0.00     0.062 C 
HETATM   10  C28 UNL     1       2.555   5.162  10.708  1.00  0.00     0.046 C 
ENDROOT
BRANCH   1  11
HETATM   11  C14 UNL     1      -0.338   6.059  10.236  1.00  0.00     0.016 C 
BRANCH  11  12
HETATM   12  C13 UNL     1      -0.267   4.898  11.241  1.00  0.00     0.028 C 
BRANCH  12  13
HETATM   13  C12 UNL     1      -1.012   5.227  12.513  1.00  0.00    -0.022 C 
HETATM   14  C10 UNL     1      -2.308   4.992  12.808  1.00  0.00    -0.059 C 
HETATM   15  C11 UNL     1      -3.263   4.290  11.873  1.00  0.00     0.046 C 
BRANCH  14  16
HETATM   16  C9  UNL     1      -2.935   5.343  14.148  1.00  0.00     0.153 C 
HETATM   17  O1  UNL     1      -4.323   5.693  13.963  1.00  0.00    -0.368 OA
HETATM   18  C7  UNL     1      -4.700   6.684  14.948  1.00  0.00     0.084 C 
HETATM   19  C8  UNL     1      -5.011   7.984  14.199  1.00  0.00     0.049 C 
HETATM   20  C30 UNL     1      -3.479   6.819  15.885  1.00  0.00     0.155 C 
HETATM   21  C29 UNL     1      -2.328   6.476  14.966  1.00  0.00     0.071 C 
BRANCH  18  22
HETATM   22  C6  UNL     1      -5.912   6.152  15.744  1.00  0.00     0.044 C 
BRANCH  22  23
HETATM   23  C5  UNL     1      -7.201   5.918  14.939  1.00  0.00     0.030 C 
BRANCH  23  24
HETATM   24  C4  UNL     1      -7.328   4.511  14.415  1.00  0.00    -0.025 C 
HETATM   25  C2  UNL     1      -7.788   4.107  13.215  1.00  0.00    -0.091 C 
HETATM   26  C1  UNL     1      -7.835   2.641  12.869  1.00  0.00     0.042 C 
HETATM   27  C3  UNL     1      -8.284   5.009  12.119  1.00  0.00     0.042 C 
ENDBRANCH  23  24
ENDBRANCH  22  23
ENDBRANCH  18  22
BRANCH  20  28
HETATM   28  O5  UNL     1      -3.341   8.100  16.474  1.00  0.00    -0.392 OA
HETATM   29  H50 UNL     1      -2.483   8.124  16.934  1.00  0.00     0.210 HD
ENDBRANCH  20  28
ENDBRANCH  14  16
ENDBRANCH  12  13
ENDBRANCH  11  12
ENDBRANCH   1  11
BRANCH   3  30
HETATM   30  C18 UNL     1       0.017   8.988  11.858  1.00  0.00     0.012 C 
BRANCH  30  31
HETATM   31  C19 UNL     1      -1.419   8.724  12.327  1.00  0.00     0.027 C 
BRANCH  31  32
HETATM   32  C20 UNL     1      -1.882   9.671  13.428  1.00  0.00     0.164 C 
BRANCH  32  33
HETATM   33  O2  UNL     1      -1.058  10.832  13.448  1.00  0.00    -0.401 OA
HETATM   34  H34 UNL     1      -0.145  10.536  13.608  1.00  0.00     0.209 HD
ENDBRANCH  32  33
ENDBRANCH  31  32
ENDBRANCH  30  31
ENDBRANCH   3  30
BRANCH   9  35
HETATM   35  O4  UNL     1       2.261   5.936   8.512  1.00  0.00    -0.389 OA
HETATM   36  H46 UNL     1       2.339   6.687   7.904  1.00  0.00     0.210 HD
ENDBRANCH   9  35
BRANCH   5  37
HETATM   37  C24 UNL     1       2.036   7.178  14.541  1.00  0.00     0.265 C 
HETATM   38  O3  UNL     1       0.969   7.645  14.917  1.00  0.00    -0.302 OA
ENDBRANCH   5  37
TORSDOF 14
ENDMDL
MODEL 5
REMARK minimizedAffinity -6.85641813
REMARK CNNscore 0.530358911
REMARK CNNaffinity 6.44886923
REMARK  14 active torsions:
REMARK  status: ('A' for Active; 'I' for Inactive)
REMARK    1  A    between atoms: C4_4  and  C5_5 
REMARK    2  A    between atoms: C5_5  and  C6_6 
REMARK    3  A    between atoms: C6_6  and  C7_7 
REMARK    4  A    between atoms: C9_10  and  C10_11 
REMARK    5  A    between atoms: C12_13  and  C13_14 
REMARK    6  A    between atoms: C13_14  and  C14_15 
REMARK    7  A    between atoms: C14_15  and  C15_16 
REMARK    8  A    between atoms: C17_18  and  C18_19 
REMARK    9  A    between atoms: C18_19  and  C19_20 
REMARK   10  A    between atoms: C19_20  and  C20_21 
REMARK   11  A    between atoms: C20_21  and  O2_22 
REMARK   12  A    between atoms: C22_24  and  C24_26 
REMARK   13  A    between atoms: C27_30  and  O4_32 
REMARK   14  A    between atoms: C30_34  and  O5_35 
ROOT
HETATM    1  C15 UNL     1      -3.460   6.681  13.708  1.00  0.00    -0.006 C 
HETATM    2  C16 UNL     1      -3.846   6.762  15.216  1.00  0.00     0.019 C 
HETATM    3  C17 UNL     1      -4.305   5.537  12.936  1.00  0.00     0.026 C 
HETATM    4  C21 UNL     1      -3.502   4.245  12.725  1.00  0.00    -0.066 C 
HETATM    5  C22 UNL     1      -3.471   3.492  11.595  1.00  0.00    -0.021 C 
HETATM    6  C23 UNL     1      -2.639   2.251  11.411  1.00  0.00     0.052 C 
HETATM    7  C25 UNL     1      -2.652   3.910  13.923  1.00  0.00     0.038 C 
HETATM    8  C26 UNL     1      -1.560   4.959  14.121  1.00  0.00     0.042 C 
HETATM    9  C27 UNL     1      -1.910   6.376  13.585  1.00  0.00     0.062 C 
HETATM   10  C28 UNL     1      -1.367   6.544  12.150  1.00  0.00     0.046 C 
ENDROOT
BRANCH   1  11
HETATM   11  C14 UNL     1      -3.872   8.058  13.058  1.00  0.00     0.016 C 
BRANCH  11  12
HETATM   12  C13 UNL     1      -4.164   9.234  14.005  1.00  0.00     0.028 C 
BRANCH  12  13
HETATM   13  C12 UNL     1      -2.886   9.852  14.522  1.00  0.00    -0.022 C 
HETATM   14  C10 UNL     1      -2.589  10.224  15.785  1.00  0.00    -0.059 C 
HETATM   15  C11 UNL     1      -3.527  10.039  16.953  1.00  0.00     0.046 C 
BRANCH  14  16
HETATM   16  C9  UNL     1      -1.243  10.807  16.186  1.00  0.00     0.153 C 
HETATM   17  O1  UNL     1      -1.058  10.676  17.612  1.00  0.00    -0.368 OA
HETATM   18  C7  UNL     1      -0.268  11.788  18.094  1.00  0.00     0.084 C 
HETATM   19  C8  UNL     1      -1.167  12.630  19.006  1.00  0.00     0.049 C 
HETATM   20  C30 UNL     1       0.176  12.557  16.829  1.00  0.00     0.155 C 
HETATM   21  C29 UNL     1      -0.951  12.267  15.863  1.00  0.00     0.071 C 
BRANCH  18  22
HETATM   22  C6  UNL     1       0.971  11.232  18.829  1.00  0.00     0.044 C 
BRANCH  22  23
HETATM   23  C5  UNL     1       0.931  11.291  20.364  1.00  0.00     0.030 C 
BRANCH  23  24
HETATM   24  C4  UNL     1       1.781  10.236  21.022  1.00  0.00    -0.025 C 
HETATM   25  C2  UNL     1       2.718  10.396  21.977  1.00  0.00    -0.091 C 
HETATM   26  C1  UNL     1       3.469   9.206  22.518  1.00  0.00     0.042 C 
HETATM   27  C3  UNL     1       3.117  11.704  22.600  1.00  0.00     0.042 C 
ENDBRANCH  23  24
ENDBRANCH  22  23
ENDBRANCH  18  22
BRANCH  20  28
HETATM   28  O5  UNL     1       0.370  13.945  17.035  1.00  0.00    -0.392 OA
HETATM   29  H50 UNL     1       0.517  14.356  16.164  1.00  0.00     0.210 HD
ENDBRANCH  20  28
ENDBRANCH  14  16
ENDBRANCH  12  13
ENDBRANCH  11  12
ENDBRANCH   1  11
BRANCH   3  30
HETATM   30  C18 UNL     1      -5.698   5.277  13.582  1.00  0.00     0.012 C 
BRANCH  30  31
HETATM   31  C19 UNL     1      -6.465   4.058  13.054  1.00  0.00     0.027 C 
BRANCH  31  32
HETATM   32  C20 UNL     1      -7.974   4.267  13.000  1.00  0.00     0.164 C 
BRANCH  32  33
HETATM   33  O2  UNL     1      -8.640   3.009  13.035  1.00  0.00    -0.401 OA
HETATM   34  H34 UNL     1      -8.333   2.498  12.265  1.00  0.00     0.209 HD
ENDBRANCH  32  33
ENDBRANCH  31  32
ENDBRANCH  30  31
ENDBRANCH   3  30
BRANCH   9  35
HETATM   35  O4  UNL     1      -1.135   7.309  14.357  1.00  0.00    -0.389 OA
HETATM   36  H46 UNL     1      -1.218   7.094  15.298  1.00  0.00     0.210 HD
ENDBRANCH   9  35
BRANCH   5  37
HETATM   37  C24 UNL     1      -4.262   3.814  10.363  1.00  0.00     0.265 C 
HETATM   38  O3  UNL     1      -5.259   3.203   9.999  1.00  0.00    -0.302 OA
ENDBRANCH   5  37
TORSDOF 14
ENDMDL
MODEL 6
REMARK minimizedAffinity -7.13638592
REMARK CNNscore 0.499279648
REMARK CNNaffinity 7.46504211
REMARK  14 active torsions:
REMARK  status: ('A' for Active; 'I' for Inactive)
REMARK    1  A    between atoms: C4_4  and  C5_5 
REMARK    2  A    between atoms: C5_5  and  C6_6 
REMARK    3  A    between atoms: C6_6  and  C7_7 
REMARK    4  A    between atoms: C9_10  and  C10_11 
REMARK    5  A    between atoms: C12_13  and  C13_14 
REMARK    6  A    between atoms: C13_14  and  C14_15 
REMARK    7  A    between atoms: C14_15  and  C15_16 
REMARK    8  A    between atoms: C17_18  and  C18_19 
REMARK    9  A    between atoms: C18_19  and  C19_20 
REMARK   10  A    between atoms: C19_20  and  C20_21 
REMARK   11  A    between atoms: C20_21  and  O2_22 
REMARK   12  A    between atoms: C22_24  and  C24_26 
REMARK   13  A    between atoms: C27_30  and  O4_32 
REMARK   14  A    between atoms: C30_34  and  O5_35 
ROOT
HETATM    1  C15 UNL     1      -3.608   7.006  14.126  1.00  0.00    -0.006 C 
HETATM    2  C16 UNL     1      -3.719   5.683  14.942  1.00  0.00     0.019 C 
HETATM    3  C17 UNL     1      -2.428   6.928  13.021  1.00  0.00     0.026 C 
HETATM    4  C21 UNL     1      -1.147   7.650  13.467  1.00  0.00    -0.066 C 
HETATM    5  C22 UNL     1      -0.368   8.454  12.698  1.00  0.00    -0.021 C 
HETATM    6  C23 UNL     1       0.861   9.178  13.182  1.00  0.00     0.052 C 
HETATM    7  C25 UNL     1      -0.860   7.432  14.929  1.00  0.00     0.038 C 
HETATM    8  C26 UNL     1      -1.937   8.085  15.795  1.00  0.00     0.042 C 
HETATM    9  C27 UNL     1      -3.332   8.208  15.120  1.00  0.00     0.062 C 
HETATM   10  C28 UNL     1      -3.475   9.593  14.457  1.00  0.00     0.046 C 
ENDROOT
BRANCH   1  11
HETATM   11  C14 UNL     1      -4.959   7.162  13.327  1.00  0.00     0.016 C 
BRANCH  11  12
HETATM   12  C13 UNL     1      -5.986   6.022  13.433  1.00  0.00     0.028 C 
BRANCH  12  13
HETATM   13  C12 UNL     1      -7.351   6.547  13.813  1.00  0.00    -0.022 C 
HETATM   14  C10 UNL     1      -7.900   6.636  15.043  1.00  0.00    -0.059 C 
HETATM   15  C11 UNL     1      -7.182   6.234  16.309  1.00  0.00     0.046 C 
BRANCH  14  16
HETATM   16  C9  UNL     1      -9.280   7.221  15.298  1.00  0.00     0.153 C 
HETATM   17  O1  UNL     1     -10.250   6.577  14.445  1.00  0.00    -0.368 OA
HETATM   18  C7  UNL     1     -11.291   7.524  14.108  1.00  0.00     0.084 C 
HETATM   19  C8  UNL     1     -11.201   7.792  12.602  1.00  0.00     0.049 C 
HETATM   20  C30 UNL     1     -10.992   8.783  14.952  1.00  0.00     0.155 C 
HETATM   21  C29 UNL     1      -9.489   8.718  15.106  1.00  0.00     0.071 C 
BRANCH  18  22
HETATM   22  C6  UNL     1     -12.654   6.928  14.526  1.00  0.00     0.044 C 
BRANCH  22  23
HETATM   23  C5  UNL     1     -13.618   6.577  13.381  1.00  0.00     0.030 C 
BRANCH  23  24
HETATM   24  C4  UNL     1     -15.056   6.902  13.694  1.00  0.00    -0.025 C 
HETATM   25  C2  UNL     1     -15.963   6.137  14.332  1.00  0.00    -0.091 C 
HETATM   26  C1  UNL     1     -17.366   6.643  14.556  1.00  0.00     0.042 C 
HETATM   27  C3  UNL     1     -15.717   4.760  14.879  1.00  0.00     0.042 C 
ENDBRANCH  23  24
ENDBRANCH  22  23
ENDBRANCH  18  22
BRANCH  20  28
HETATM   28  O5  UNL     1     -11.425   9.994  14.357  1.00  0.00    -0.392 OA
HETATM   29  H50 UNL     1     -11.077  10.729  14.895  1.00  0.00     0.210 HD
ENDBRANCH  20  28
ENDBRANCH  14  16
ENDBRANCH  12  13
ENDBRANCH  11  12
ENDBRANCH   1  11
BRANCH   3  30
HETATM   30  C18 UNL     1      -2.156   5.476  12.531  1.00  0.00     0.012 C 
BRANCH  30  31
HETATM   31  C19 UNL     1      -3.059   4.387  13.122  1.00  0.00     0.027 C 
BRANCH  31  32
HETATM   32  C20 UNL     1      -3.389   3.270  12.138  1.00  0.00     0.164 C 
BRANCH  32  33
HETATM   33  O2  UNL     1      -4.215   3.773  11.093  1.00  0.00    -0.401 OA
HETATM   34  H34 UNL     1      -5.025   4.121  11.507  1.00  0.00     0.209 HD
ENDBRANCH  32  33
ENDBRANCH  31  32
ENDBRANCH  30  31
ENDBRANCH   3  30
BRANCH   9  35
HETATM   35  O4  UNL     1      -4.300   8.234  16.183  1.00  0.00    -0.389 OA
HETATM   36  H46 UNL     1      -4.107   7.522  16.811  1.00  0.00     0.210 HD
ENDBRANCH   9  35
BRANCH   5  37
HETATM   37  C24 UNL     1      -0.642   8.737  11.252  1.00  0.00     0.265 C 
HETATM   38  O3  UNL     1       0.082   8.391  10.327  1.00  0.00    -0.302 OA
ENDBRANCH   5  37
TORSDOF 14
ENDMDL
MODEL 7
REMARK minimizedAffinity -6.66661167
REMARK CNNscore 0.478001535
REMARK CNNaffinity 6.47164345
REMARK  14 active torsions:
REMARK  status: ('A' for Active; 'I' for Inactive)
REMARK    1  A    between atoms: C4_4  and  C5_5 
REMARK    2  A    between atoms: C5_5  and  C6_6 
REMARK    3  A    between atoms: C6_6  and  C7_7 
REMARK    4  A    between atoms: C9_10  and  C10_11 
REMARK    5  A    between atoms: C12_13  and  C13_14 
REMARK    6  A    between atoms: C13_14  and  C14_15 
REMARK    7  A    between atoms: C14_15  and  C15_16 
REMARK    8  A    between atoms: C17_18  and  C18_19 
REMARK    9  A    between atoms: C18_19  and  C19_20 
REMARK   10  A    between atoms: C19_20  and  C20_21 
REMARK   11  A    between atoms: C20_21  and  O2_22 
REMARK   12  A    between atoms: C22_24  and  C24_26 
REMARK   13  A    between atoms: C27_30  and  O4_32 
REMARK   14  A    between atoms: C30_34  and  O5_35 
ROOT
HETATM    1  C15 UNL     1      -1.659  10.955  16.739  1.00  0.00    -0.006 C 
HETATM    2  C16 UNL     1      -0.996  11.151  15.343  1.00  0.00     0.019 C 
HETATM    3  C17 UNL     1      -2.717  12.134  17.069  1.00  0.00     0.026 C 
HETATM    4  C21 UNL     1      -2.144  13.199  18.016  1.00  0.00    -0.066 C 
HETATM    5  C22 UNL     1      -2.789  13.775  19.064  1.00  0.00    -0.021 C 
HETATM    6  C23 UNL     1      -2.180  14.788  19.997  1.00  0.00     0.052 C 
HETATM    7  C25 UNL     1      -0.703  13.510  17.706  1.00  0.00     0.038 C 
HETATM    8  C26 UNL     1       0.183  12.297  17.982  1.00  0.00     0.042 C 
HETATM    9  C27 UNL     1      -0.530  10.922  17.850  1.00  0.00     0.062 C 
HETATM   10  C28 UNL     1      -1.045  10.462  19.230  1.00  0.00     0.046 C 
ENDROOT
BRANCH   1  11
HETATM   11  C14 UNL     1      -2.490   9.616  16.664  1.00  0.00     0.016 C 
BRANCH  11  12
HETATM   12  C13 UNL     1      -2.549   8.889  15.310  1.00  0.00     0.028 C 
BRANCH  12  13
HETATM   13  C12 UNL     1      -3.564   7.770  15.332  1.00  0.00    -0.022 C 
HETATM   14  C10 UNL     1      -4.581   7.546  14.472  1.00  0.00    -0.059 C 
HETATM   15  C11 UNL     1      -4.858   8.409  13.265  1.00  0.00     0.046 C 
BRANCH  14  16
HETATM   16  C9  UNL     1      -5.519   6.355  14.585  1.00  0.00     0.153 C 
HETATM   17  O1  UNL     1      -6.506   6.409  13.532  1.00  0.00    -0.368 OA
HETATM   18  C7  UNL     1      -7.743   5.828  14.010  1.00  0.00     0.084 C 
HETATM   19  C8  UNL     1      -8.785   6.950  14.070  1.00  0.00     0.049 C 
HETATM   20  C30 UNL     1      -7.416   5.250  15.405  1.00  0.00     0.155 C 
HETATM   21  C29 UNL     1      -6.302   6.158  15.877  1.00  0.00     0.071 C 
BRANCH  18  22
HETATM   22  C6  UNL     1      -8.153   4.686  13.055  1.00  0.00     0.044 C 
BRANCH  22  23
HETATM   23  C5  UNL     1      -7.326   3.394  13.150  1.00  0.00     0.030 C 
BRANCH  23  24
HETATM   24  C4  UNL     1      -6.001   3.482  12.437  1.00  0.00    -0.025 C 
HETATM   25  C2  UNL     1      -5.436   2.577  11.614  1.00  0.00    -0.091 C 
HETATM   26  C1  UNL     1      -4.094   2.849  10.986  1.00  0.00     0.042 C 
HETATM   27  C3  UNL     1      -6.033   1.252  11.228  1.00  0.00     0.042 C 
ENDBRANCH  23  24
ENDBRANCH  22  23
ENDBRANCH  18  22
BRANCH  20  28
HETATM   28  O5  UNL     1      -8.516   5.233  16.296  1.00  0.00    -0.392 OA
HETATM   29  H50 UNL     1      -8.182   4.979  17.176  1.00  0.00     0.210 HD
ENDBRANCH  20  28
ENDBRANCH  14  16
ENDBRANCH  12  13
ENDBRANCH  11  12
ENDBRANCH   1  11
BRANCH   3  30
HETATM   30  C18 UNL     1      -3.350  12.752  15.788  1.00  0.00     0.012 C 
BRANCH  30  31
HETATM   31  C19 UNL     1      -4.859  13.021  15.848  1.00  0.00     0.027 C 
BRANCH  31  32
HETATM   32  C20 UNL     1      -5.226  14.481  15.612  1.00  0.00     0.164 C 
BRANCH  32  33
HETATM   33  O2  UNL     1      -6.237  14.883  16.530  1.00  0.00    -0.401 OA
HETATM   34  H34 UNL     1      -7.006  14.305  16.384  1.00  0.00     0.209 HD
ENDBRANCH  32  33
ENDBRANCH  31  32
ENDBRANCH  30  31
ENDBRANCH   3  30
BRANCH   9  35
HETATM   35  O4  UNL     1       0.489   9.961  17.526  1.00  0.00    -0.389 OA
HETATM   36  H46 UNL     1       1.044  10.310  16.812  1.00  0.00     0.210 HD
ENDBRANCH   9  35
BRANCH   5  37
HETATM   37  C24 UNL     1      -4.206  13.461  19.439  1.00  0.00     0.265 C 
HETATM   38  O3  UNL     1      -5.170  14.160  19.156  1.00  0.00    -0.302 OA
ENDBRANCH   5  37
TORSDOF 14
ENDMDL
MODEL 8
REMARK minimizedAffinity -7.84060478
REMARK CNNscore 0.472569525
REMARK CNNaffinity 6.81405592
REMARK  14 active torsions:
REMARK  status: ('A' for Active; 'I' for Inactive)
REMARK    1  A    between atoms: C4_4  and  C5_5 
REMARK    2  A    between atoms: C5_5  and  C6_6 
REMARK    3  A    between atoms: C6_6  and  C7_7 
REMARK    4  A    between atoms: C9_10  and  C10_11 
REMARK    5  A    between atoms: C12_13  and  C13_14 
REMARK    6  A    between atoms: C13_14  and  C14_15 
REMARK    7  A    between atoms: C14_15  and  C15_16 
REMARK    8  A    between atoms: C17_18  and  C18_19 
REMARK    9  A    between atoms: C18_19  and  C19_20 
REMARK   10  A    between atoms: C19_20  and  C20_21 
REMARK   11  A    between atoms: C20_21  and  O2_22 
REMARK   12  A    between atoms: C22_24  and  C24_26 
REMARK   13  A    between atoms: C27_30  and  O4_32 
REMARK   14  A    between atoms: C30_34  and  O5_35 
ROOT
HETATM    1  C15 UNL     1       1.444   7.318  11.998  1.00  0.00    -0.006 C 
HETATM    2  C16 UNL     1       1.719   8.763  12.514  1.00  0.00     0.019 C 
HETATM    3  C17 UNL     1       2.731   6.700  11.238  1.00  0.00     0.026 C 
HETATM    4  C21 UNL     1       2.605   6.762   9.708  1.00  0.00    -0.066 C 
HETATM    5  C22 UNL     1       2.942   5.780   8.833  1.00  0.00    -0.021 C 
HETATM    6  C23 UNL     1       2.767   5.862   7.339  1.00  0.00     0.052 C 
HETATM    7  C25 UNL     1       1.975   8.050   9.249  1.00  0.00     0.038 C 
HETATM    8  C26 UNL     1       0.522   8.136   9.713  1.00  0.00     0.042 C 
HETATM    9  C27 UNL     1       0.203   7.346  11.013  1.00  0.00     0.062 C 
HETATM   10  C28 UNL     1      -0.326   5.941  10.659  1.00  0.00     0.046 C 
ENDROOT
BRANCH   1  11
HETATM   11  C14 UNL     1       1.202   6.420  13.272  1.00  0.00     0.016 C 
BRANCH  11  12
HETATM   12  C13 UNL     1       0.193   5.266  13.149  1.00  0.00     0.028 C 
BRANCH  12  13
HETATM   13  C12 UNL     1      -1.074   5.561  13.918  1.00  0.00    -0.022 C 
HETATM   14  C10 UNL     1      -2.324   5.116  13.672  1.00  0.00    -0.059 C 
HETATM   15  C11 UNL     1      -2.669   4.173  12.545  1.00  0.00     0.046 C 
BRANCH  14  16
HETATM   16  C9  UNL     1      -3.518   5.460  14.550  1.00  0.00     0.153 C 
HETATM   17  O1  UNL     1      -4.691   5.647  13.729  1.00  0.00    -0.368 OA
HETATM   18  C7  UNL     1      -5.550   6.636  14.345  1.00  0.00     0.084 C 
HETATM   19  C8  UNL     1      -5.582   7.857  13.420  1.00  0.00     0.049 C 
HETATM   20  C30 UNL     1      -4.905   6.948  15.714  1.00  0.00     0.155 C 
HETATM   21  C29 UNL     1      -3.439   6.690  15.445  1.00  0.00     0.071 C 
BRANCH  18  22
HETATM   22  C6  UNL     1      -6.947   6.012  14.556  1.00  0.00     0.044 C 
BRANCH  22  23
HETATM   23  C5  UNL     1      -7.450   5.956  16.008  1.00  0.00     0.030 C 
BRANCH  23  24
HETATM   24  C4  UNL     1      -8.357   7.104  16.368  1.00  0.00    -0.025 C 
HETATM   25  C2  UNL     1      -9.376   7.617  15.652  1.00  0.00    -0.091 C 
HETATM   26  C1  UNL     1     -10.178   8.776  16.187  1.00  0.00     0.042 C 
HETATM   27  C3  UNL     1      -9.831   7.131  14.305  1.00  0.00     0.042 C 
ENDBRANCH  23  24
ENDBRANCH  22  23
ENDBRANCH  18  22
BRANCH  20  28
HETATM   28  O5  UNL     1      -5.148   8.262  16.181  1.00  0.00    -0.392 OA
HETATM   29  H50 UNL     1      -4.599   8.401  16.974  1.00  0.00     0.210 HD
ENDBRANCH  20  28
ENDBRANCH  14  16
ENDBRANCH  12  13
ENDBRANCH  11  12
ENDBRANCH   1  11
BRANCH   3  30
HETATM   30  C18 UNL     1       4.077   7.292  11.752  1.00  0.00     0.012 C 
BRANCH  30  31
HETATM   31  C19 UNL     1       5.178   7.467  10.698  1.00  0.00     0.027 C 
BRANCH  31  32
HETATM   32  C20 UNL     1       6.587   7.318  11.262  1.00  0.00     0.164 C 
BRANCH  32  33
HETATM   33  O2  UNL     1       7.407   6.611  10.337  1.00  0.00    -0.401 OA
HETATM   34  H34 UNL     1       6.997   5.739  10.195  1.00  0.00     0.209 HD
ENDBRANCH  32  33
ENDBRANCH  31  32
ENDBRANCH  30  31
ENDBRANCH   3  30
BRANCH   9  35
HETATM   35  O4  UNL     1      -0.927   7.996  11.621  1.00  0.00    -0.389 OA
HETATM   36  H46 UNL     1      -0.775   8.953  11.639  1.00  0.00     0.210 HD
ENDBRANCH   9  35
BRANCH   5  37
HETATM   37  C24 UNL     1       3.528   4.464   9.248  1.00  0.00     0.265 C 
HETATM   38  O3  UNL     1       4.720   4.267   9.449  1.00  0.00    -0.302 OA
ENDBRANCH   5  37
TORSDOF 14
ENDMDL
MODEL 9
REMARK minimizedAffinity -6.68297052
REMARK CNNscore 0.465937018
REMARK CNNaffinity 7.1544075
REMARK  14 active torsions:
REMARK  status: ('A' for Active; 'I' for Inactive)
REMARK    1  A    between atoms: C4_4  and  C5_5 
REMARK    2  A    between atoms: C5_5  and  C6_6 
REMARK    3  A    between atoms: C6_6  and  C7_7 
REMARK    4  A    between atoms: C9_10  and  C10_11 
REMARK    5  A    between atoms: C12_13  and  C13_14 
REMARK    6  A    between atoms: C13_14  and  C14_15 
REMARK    7  A    between atoms: C14_15  and  C15_16 
REMARK    8  A    between atoms: C17_18  and  C18_19 
REMARK    9  A    between atoms: C18_19  and  C19_20 
REMARK   10  A    between atoms: C19_20  and  C20_21 
REMARK   11  A    between atoms: C20_21  and  O2_22 
REMARK   12  A    between atoms: C22_24  and  C24_26 
REMARK   13  A    between atoms: C27_30  and  O4_32 
REMARK   14  A    between atoms: C30_34  and  O5_35 
ROOT
HETATM    1  C15 UNL     1      -1.718   8.693  14.931  1.00  0.00    -0.006 C 
HETATM    2  C16 UNL     1      -1.731   7.797  16.206  1.00  0.00     0.019 C 
HETATM    3  C17 UNL     1      -1.027   7.938  13.678  1.00  0.00     0.026 C 
HETATM    4  C21 UNL     1       0.421   8.391  13.436  1.00  0.00    -0.066 C 
HETATM    5  C22 UNL     1       0.991   8.652  12.231  1.00  0.00    -0.021 C 
HETATM    6  C23 UNL     1       2.405   9.133  12.035  1.00  0.00     0.052 C 
HETATM    7  C25 UNL     1       1.168   8.598  14.727  1.00  0.00     0.038 C 
HETATM    8  C26 UNL     1       0.574   9.766  15.513  1.00  0.00     0.042 C 
HETATM    9  C27 UNL     1      -0.934  10.034  15.247  1.00  0.00     0.062 C 
HETATM   10  C28 UNL     1      -1.092  11.106  14.149  1.00  0.00     0.046 C 
ENDROOT
BRANCH   1  11
HETATM   11  C14 UNL     1      -3.224   8.938  14.531  1.00  0.00     0.016 C 
BRANCH  11  12
HETATM   12  C13 UNL     1      -4.261   8.999  15.665  1.00  0.00     0.028 C 
BRANCH  12  13
HETATM   13  C12 UNL     1      -5.436   8.092  15.382  1.00  0.00    -0.022 C 
HETATM   14  C10 UNL     1      -5.458   6.743  15.333  1.00  0.00    -0.059 C 
HETATM   15  C11 UNL     1      -4.251   5.877  15.601  1.00  0.00     0.046 C 
BRANCH  14  16
HETATM   16  C9  UNL     1      -6.723   5.940  15.071  1.00  0.00     0.153 C 
HETATM   17  O1  UNL     1      -6.592   5.210  13.832  1.00  0.00    -0.368 OA
HETATM   18  C7  UNL     1      -7.893   5.089  13.211  1.00  0.00     0.084 C 
HETATM   19  C8  UNL     1      -7.859   5.898  11.910  1.00  0.00     0.049 C 
HETATM   20  C30 UNL     1      -8.896   5.663  14.237  1.00  0.00     0.155 C 
HETATM   21  C29 UNL     1      -8.053   6.678  14.978  1.00  0.00     0.071 C 
BRANCH  18  22
HETATM   22  C6  UNL     1      -8.190   3.592  12.973  1.00  0.00     0.044 C 
BRANCH  22  23
HETATM   23  C5  UNL     1      -6.974   2.703  12.664  1.00  0.00     0.030 C 
BRANCH  23  24
HETATM   24  C4  UNL     1      -6.017   3.325  11.680  1.00  0.00    -0.025 C 
HETATM   25  C2  UNL     1      -4.817   2.862  11.279  1.00  0.00    -0.091 C 
HETATM   26  C1  UNL     1      -3.999   3.632  10.274  1.00  0.00     0.042 C 
HETATM   27  C3  UNL     1      -4.169   1.589  11.746  1.00  0.00     0.042 C 
ENDBRANCH  23  24
ENDBRANCH  22  23
ENDBRANCH  18  22
BRANCH  20  28
HETATM   28  O5  UNL     1     -10.052   6.238  13.656  1.00  0.00    -0.392 OA
HETATM   29  H50 UNL     1     -10.550   6.683  14.366  1.00  0.00     0.210 HD
ENDBRANCH  20  28
ENDBRANCH  14  16
ENDBRANCH  12  13
ENDBRANCH  11  12
ENDBRANCH   1  11
BRANCH   3  30
HETATM   30  C18 UNL     1      -1.164   6.390  13.756  1.00  0.00     0.012 C 
BRANCH  30  31
HETATM   31  C19 UNL     1      -0.050   5.582  13.079  1.00  0.00     0.027 C 
BRANCH  31  32
HETATM   32  C20 UNL     1      -0.549   4.686  11.951  1.00  0.00     0.164 C 
BRANCH  32  33
HETATM   33  O2  UNL     1       0.531   3.923  11.422  1.00  0.00    -0.401 OA
HETATM   34  H34 UNL     1       1.196   4.554  11.095  1.00  0.00     0.209 HD
ENDBRANCH  32  33
ENDBRANCH  31  32
ENDBRANCH  30  31
ENDBRANCH   3  30
BRANCH   9  35
HETATM   35  O4  UNL     1      -1.452  10.671  16.427  1.00  0.00    -0.389 OA
HETATM   36  H46 UNL     1      -1.159  10.181  17.211  1.00  0.00     0.210 HD
ENDBRANCH   9  35
BRANCH   5  37
HETATM   37  C24 UNL     1       0.272   8.505  10.924  1.00  0.00     0.265 C 
HETATM   38  O3  UNL     1       0.533   7.659  10.079  1.00  0.00    -0.302 OA
ENDBRANCH   5  37
TORSDOF 14
ENDMDL
