MODEL 1
REMARK minimizedAffinity -6.52779388
REMARK CNNscore 0.413560927
REMARK CNNaffinity 6.32690668
REMARK  0 active torsions:
REMARK  status: ('A' for Active; 'I' for Inactive)
ROOT
HETATM    1  C1  UNL     1      -7.462  21.224   6.756  1.00  0.00     0.023 C 
HETATM    2  C2  UNL     1      -6.832  20.206   7.733  1.00  0.00     0.017 C 
HETATM    3  C3  UNL     1      -6.597  20.993   9.050  1.00  0.00     0.023 C 
HETATM    4  C4  UNL     1      -7.843  19.078   7.980  1.00  0.00     0.135 C 
HETATM    5  O1  UNL     1      -8.575  19.061   8.971  1.00  0.00    -0.297 OA
HETATM    6  C5  UNL     1      -7.998  18.025   6.904  1.00  0.00     0.080 C 
HETATM    7  C6  UNL     1      -6.658  17.470   6.428  1.00  0.00     0.017 C 
HETATM    8  C7  UNL     1      -5.613  18.550   6.002  1.00  0.00    -0.035 C 
HETATM    9  C8  UNL     1      -6.155  19.239   4.725  1.00  0.00     0.016 C 
HETATM   10  C9  UNL     1      -5.483  19.563   7.201  1.00  0.00     0.009 C 
HETATM   11  C10 UNL     1      -4.697  18.950   8.397  1.00  0.00     0.007 C 
HETATM   12  C11 UNL     1      -3.721  17.819   8.099  1.00  0.00     0.011 C 
HETATM   13  C12 UNL     1      -3.075  17.875   6.705  1.00  0.00    -0.032 C 
HETATM   14  C13 UNL     1      -2.317  19.235   6.602  1.00  0.00     0.016 C 
HETATM   15  C14 UNL     1      -4.225  17.796   5.646  1.00  0.00     0.003 C 
HETATM   16  C15 UNL     1      -3.632  18.069   4.237  1.00  0.00     0.006 C 
HETATM   17  C16 UNL     1      -2.262  17.421   3.976  1.00  0.00     0.006 C 
HETATM   18  C17 UNL     1      -1.979  16.246   4.915  1.00  0.00    -0.000 C 
HETATM   19  C18 UNL     1      -0.737  15.396   4.572  1.00  0.00     0.009 C 
HETATM   20  C19 UNL     1      -0.400  15.068   3.112  1.00  0.00     0.067 C 
HETATM   21  C20 UNL     1       1.032  14.480   3.214  1.00  0.00     0.140 C 
HETATM   22  C21 UNL     1       1.545  14.793   4.632  1.00  0.00     0.042 C 
HETATM   23  C22 UNL     1       0.600  15.894   5.146  1.00  0.00    -0.037 C 
HETATM   24  C23 UNL     1       1.102  17.250   4.601  1.00  0.00     0.015 C 
HETATM   25  C24 UNL     1       0.477  15.943   6.672  1.00  0.00     0.010 C 
HETATM   26  C25 UNL     1      -0.650  16.893   7.103  1.00  0.00     0.011 C 
HETATM   27  C26 UNL     1      -2.058  16.619   6.462  1.00  0.00    -0.032 C 
HETATM   28  C27 UNL     1      -2.594  15.330   7.174  1.00  0.00     0.016 C 
HETATM   29  O2  UNL     1       0.951  13.053   3.040  1.00  0.00    -0.313 OA
HETATM   30  C28 UNL     1      -0.301  12.701   2.623  1.00  0.00     0.297 C 
HETATM   31  O3  UNL     1      -0.686  11.566   2.399  1.00  0.00    -0.262 OA
HETATM   32  C29 UNL     1      -1.132  13.913   2.535  1.00  0.00     0.175 A 
HETATM   33  C30 UNL     1      -2.611  13.887   2.250  1.00  0.00     0.218 A 
HETATM   34  O4  UNL     1      -1.661  14.182   1.220  1.00  0.00    -0.364 OA
ENDROOT
TORSDOF 0
ENDMDL
MODEL 2
REMARK minimizedAffinity -6.95801449
REMARK CNNscore 0.328973949
REMARK CNNaffinity 6.21742868
REMARK  0 active torsions:
REMARK  status: ('A' for Active; 'I' for Inactive)
ROOT
HETATM    1  C1  UNL     1     -12.754  -7.210  32.348  1.00  0.00     0.023 C 
HETATM    2  C2  UNL     1     -13.682  -6.117  31.772  1.00  0.00     0.017 C 
HETATM    3  C3  UNL     1     -14.527  -5.622  32.976  1.00  0.00     0.023 C 
HETATM    4  C4  UNL     1     -12.812  -4.967  31.246  1.00  0.00     0.135 C 
HETATM    5  O1  UNL     1     -12.595  -3.953  31.911  1.00  0.00    -0.297 OA
HETATM    6  C5  UNL     1     -12.127  -5.160  29.909  1.00  0.00     0.080 C 
HETATM    7  C6  UNL     1     -13.078  -5.670  28.830  1.00  0.00     0.017 C 
HETATM    8  C7  UNL     1     -13.896  -6.943  29.224  1.00  0.00    -0.035 C 
HETATM    9  C8  UNL     1     -12.892  -8.114  29.358  1.00  0.00     0.016 C 
HETATM   10  C9  UNL     1     -14.611  -6.625  30.591  1.00  0.00     0.009 C 
HETATM   11  C10 UNL     1     -15.802  -5.640  30.410  1.00  0.00     0.007 C 
HETATM   12  C11 UNL     1     -16.468  -5.576  29.041  1.00  0.00     0.011 C 
HETATM   13  C12 UNL     1     -16.432  -6.891  28.245  1.00  0.00    -0.032 C 
HETATM   14  C13 UNL     1     -17.155  -7.972  29.106  1.00  0.00     0.016 C 
HETATM   15  C14 UNL     1     -14.929  -7.269  28.021  1.00  0.00     0.003 C 
HETATM   16  C15 UNL     1     -14.854  -8.697  27.413  1.00  0.00     0.006 C 
HETATM   17  C16 UNL     1     -15.921  -9.002  26.348  1.00  0.00     0.006 C 
HETATM   18  C17 UNL     1     -16.511  -7.735  25.727  1.00  0.00    -0.000 C 
HETATM   19  C18 UNL     1     -17.414  -7.950  24.493  1.00  0.00     0.009 C 
HETATM   20  C19 UNL     1     -17.047  -8.999  23.436  1.00  0.00     0.067 C 
HETATM   21  C20 UNL     1     -18.334  -9.083  22.573  1.00  0.00     0.140 C 
HETATM   22  C21 UNL     1     -19.441  -8.343  23.348  1.00  0.00     0.042 C 
HETATM   23  C22 UNL     1     -18.896  -8.236  24.784  1.00  0.00    -0.037 C 
HETATM   24  C23 UNL     1     -19.195  -9.566  25.510  1.00  0.00     0.015 C 
HETATM   25  C24 UNL     1     -19.465  -7.055  25.575  1.00  0.00     0.010 C 
HETATM   26  C25 UNL     1     -18.711  -6.866  26.900  1.00  0.00     0.011 C 
HETATM   27  C26 UNL     1     -17.151  -6.731  26.786  1.00  0.00    -0.032 C 
HETATM   28  C27 UNL     1     -16.900  -5.298  26.203  1.00  0.00     0.016 C 
HETATM   29  O2  UNL     1     -18.089  -8.404  21.326  1.00  0.00    -0.313 OA
HETATM   30  C28 UNL     1     -16.762  -8.107  21.206  1.00  0.00     0.297 C 
HETATM   31  O3  UNL     1     -16.243  -7.525  20.268  1.00  0.00    -0.262 OA
HETATM   32  C29 UNL     1     -16.061  -8.559  22.419  1.00  0.00     0.175 A 
HETATM   33  C30 UNL     1     -14.610  -8.264  22.698  1.00  0.00     0.218 A 
HETATM   34  O4  UNL     1     -15.023  -9.533  22.182  1.00  0.00    -0.364 OA
ENDROOT
TORSDOF 0
ENDMDL
MODEL 3
REMARK minimizedAffinity -7.00823689
REMARK CNNscore 0.328870833
REMARK CNNaffinity 5.69666147
REMARK  0 active torsions:
REMARK  status: ('A' for Active; 'I' for Inactive)
ROOT
HETATM    1  C1  UNL     1      16.629  -2.810  -2.441  1.00  0.00     0.023 C 
HETATM    2  C2  UNL     1      16.560  -4.296  -2.022  1.00  0.00     0.017 C 
HETATM    3  C3  UNL     1      15.837  -5.018  -3.190  1.00  0.00     0.023 C 
HETATM    4  C4  UNL     1      17.992  -4.833  -1.892  1.00  0.00     0.135 C 
HETATM    5  O1  UNL     1      18.538  -5.466  -2.797  1.00  0.00    -0.297 OA
HETATM    6  C5  UNL     1      18.769  -4.465  -0.646  1.00  0.00     0.080 C 
HETATM    7  C6  UNL     1      17.973  -4.703   0.634  1.00  0.00     0.017 C 
HETATM    8  C7  UNL     1      16.552  -4.054   0.655  1.00  0.00    -0.035 C 
HETATM    9  C8  UNL     1      16.746  -2.518   0.670  1.00  0.00     0.016 C 
HETATM   10  C9  UNL     1      15.807  -4.537  -0.646  1.00  0.00     0.009 C 
HETATM   11  C10 UNL     1      15.374  -6.028  -0.548  1.00  0.00     0.007 C 
HETATM   12  C11 UNL     1      15.176  -6.620   0.841  1.00  0.00     0.011 C 
HETATM   13  C12 UNL     1      14.714  -5.616   1.910  1.00  0.00    -0.032 C 
HETATM   14  C13 UNL     1      13.360  -5.013   1.422  1.00  0.00     0.016 C 
HETATM   15  C14 UNL     1      15.812  -4.505   2.022  1.00  0.00     0.003 C 
HETATM   16  C15 UNL     1      15.281  -3.362   2.930  1.00  0.00     0.006 C 
HETATM   17  C16 UNL     1      14.491  -3.832   4.164  1.00  0.00     0.006 C 
HETATM   18  C17 UNL     1      14.802  -5.280   4.544  1.00  0.00    -0.000 C 
HETATM   19  C18 UNL     1      14.234  -5.756   5.899  1.00  0.00     0.009 C 
HETATM   20  C19 UNL     1      14.242  -4.821   7.115  1.00  0.00     0.067 C 
HETATM   21  C20 UNL     1      13.339  -5.569   8.130  1.00  0.00     0.140 C 
HETATM   22  C21 UNL     1      12.625  -6.691   7.352  1.00  0.00     0.042 C 
HETATM   23  C22 UNL     1      12.795  -6.299   5.873  1.00  0.00    -0.037 C 
HETATM   24  C23 UNL     1      11.695  -5.273   5.520  1.00  0.00     0.015 C 
HETATM   25  C24 UNL     1      12.750  -7.487   4.908  1.00  0.00     0.010 C 
HETATM   26  C25 UNL     1      13.160  -7.061   3.491  1.00  0.00     0.011 C 
HETATM   27  C26 UNL     1      14.544  -6.328   3.371  1.00  0.00    -0.032 C 
HETATM   28  C27 UNL     1      15.624  -7.446   3.568  1.00  0.00     0.016 C 
HETATM   29  O2  UNL     1      14.180  -6.152   9.143  1.00  0.00    -0.313 OA
HETATM   30  C28 UNL     1      15.456  -5.681   9.022  1.00  0.00     0.297 C 
HETATM   31  O3  UNL     1      16.402  -5.994   9.725  1.00  0.00    -0.262 OA
HETATM   32  C29 UNL     1      15.520  -4.769   7.868  1.00  0.00     0.175 A 
HETATM   33  C30 UNL     1      16.804  -4.180   7.345  1.00  0.00     0.218 A 
HETATM   34  O4  UNL     1      15.929  -3.424   8.191  1.00  0.00    -0.364 OA
ENDROOT
TORSDOF 0
ENDMDL
MODEL 4
REMARK minimizedAffinity -10.0179615
REMARK CNNscore 0.324094087
REMARK CNNaffinity 6.82475853
REMARK  0 active torsions:
REMARK  status: ('A' for Active; 'I' for Inactive)
ROOT
HETATM    1  C1  UNL     1       4.435   6.254  10.828  1.00  0.00     0.023 C 
HETATM    2  C2  UNL     1       3.523   7.501  10.813  1.00  0.00     0.017 C 
HETATM    3  C3  UNL     1       4.403   8.658  11.357  1.00  0.00     0.023 C 
HETATM    4  C4  UNL     1       3.125   7.796   9.360  1.00  0.00     0.135 C 
HETATM    5  O1  UNL     1       3.712   8.638   8.679  1.00  0.00    -0.297 OA
HETATM    6  C5  UNL     1       2.043   6.936   8.740  1.00  0.00     0.080 C 
HETATM    7  C6  UNL     1       0.813   6.805   9.634  1.00  0.00     0.017 C 
HETATM    8  C7  UNL     1       1.110   6.351  11.099  1.00  0.00    -0.035 C 
HETATM    9  C8  UNL     1       1.627   4.893  11.036  1.00  0.00     0.016 C 
HETATM   10  C9  UNL     1       2.200   7.334  11.672  1.00  0.00     0.009 C 
HETATM   11  C10 UNL     1       1.608   8.738  11.988  1.00  0.00     0.007 C 
HETATM   12  C11 UNL     1       0.114   8.832  12.269  1.00  0.00     0.011 C 
HETATM   13  C12 UNL     1      -0.500   7.579  12.913  1.00  0.00    -0.032 C 
HETATM   14  C13 UNL     1       0.251   7.336  14.259  1.00  0.00     0.016 C 
HETATM   15  C14 UNL     1      -0.280   6.382  11.928  1.00  0.00     0.003 C 
HETATM   16  C15 UNL     1      -0.691   5.063  12.638  1.00  0.00     0.006 C 
HETATM   17  C16 UNL     1      -1.960   5.162  13.501  1.00  0.00     0.006 C 
HETATM   18  C17 UNL     1      -2.846   6.346  13.109  1.00  0.00    -0.000 C 
HETATM   19  C18 UNL     1      -4.244   6.385  13.764  1.00  0.00     0.009 C 
HETATM   20  C19 UNL     1      -5.049   5.093  13.950  1.00  0.00     0.067 C 
HETATM   21  C20 UNL     1      -6.206   5.540  14.882  1.00  0.00     0.140 C 
HETATM   22  C21 UNL     1      -5.833   6.934  15.422  1.00  0.00     0.042 C 
HETATM   23  C22 UNL     1      -4.324   7.060  15.143  1.00  0.00    -0.037 C 
HETATM   24  C23 UNL     1      -3.565   6.350  16.285  1.00  0.00     0.015 C 
HETATM   25  C24 UNL     1      -3.840   8.506  14.996  1.00  0.00     0.010 C 
HETATM   26  C25 UNL     1      -2.391   8.553  14.488  1.00  0.00     0.011 C 
HETATM   27  C26 UNL     1      -2.106   7.756  13.164  1.00  0.00    -0.032 C 
HETATM   28  C27 UNL     1      -2.751   8.609  12.019  1.00  0.00     0.016 C 
HETATM   29  O2  UNL     1      -7.410   5.639  14.097  1.00  0.00    -0.313 OA
HETATM   30  C28 UNL     1      -7.208   5.100  12.859  1.00  0.00     0.297 C 
HETATM   31  O3  UNL     1      -8.032   5.043  11.962  1.00  0.00    -0.262 OA
HETATM   32  C29 UNL     1      -5.812   4.642  12.760  1.00  0.00     0.175 A 
HETATM   33  C30 UNL     1      -5.195   4.129  11.485  1.00  0.00     0.218 A 
HETATM   34  O4  UNL     1      -5.663   3.231  12.497  1.00  0.00    -0.364 OA
ENDROOT
TORSDOF 0
ENDMDL
MODEL 5
REMARK minimizedAffinity -6.5028553
REMARK CNNscore 0.286955059
REMARK CNNaffinity 5.9803257
REMARK  0 active torsions:
REMARK  status: ('A' for Active; 'I' for Inactive)
ROOT
HETATM    1  C1  UNL     1     -18.954   7.990  20.569  1.00  0.00     0.023 C 
HETATM    2  C2  UNL     1     -17.413   7.968  20.467  1.00  0.00     0.017 C 
HETATM    3  C3  UNL     1     -17.105   7.765  18.959  1.00  0.00     0.023 C 
HETATM    4  C4  UNL     1     -16.874   9.330  20.925  1.00  0.00     0.135 C 
HETATM    5  O1  UNL     1     -16.574  10.217  20.125  1.00  0.00    -0.297 OA
HETATM    6  C5  UNL     1     -16.821   9.599  22.414  1.00  0.00     0.080 C 
HETATM    7  C6  UNL     1     -16.173   8.460  23.195  1.00  0.00     0.017 C 
HETATM    8  C7  UNL     1     -16.770   7.044  22.908  1.00  0.00    -0.035 C 
HETATM    9  C8  UNL     1     -18.219   7.034  23.454  1.00  0.00     0.016 C 
HETATM   10  C9  UNL     1     -16.731   6.837  21.347  1.00  0.00     0.009 C 
HETATM   11  C10 UNL     1     -15.286   6.580  20.830  1.00  0.00     0.007 C 
HETATM   12  C11 UNL     1     -14.272   6.007  21.812  1.00  0.00     0.011 C 
HETATM   13  C12 UNL     1     -14.870   5.099  22.899  1.00  0.00    -0.032 C 
HETATM   14  C13 UNL     1     -15.589   3.920  22.172  1.00  0.00     0.016 C 
HETATM   15  C14 UNL     1     -15.893   5.953  23.722  1.00  0.00     0.003 C 
HETATM   16  C15 UNL     1     -16.673   5.016  24.684  1.00  0.00     0.006 C 
HETATM   17  C16 UNL     1     -15.821   3.926  25.356  1.00  0.00     0.006 C 
HETATM   18  C17 UNL     1     -14.330   4.267  25.364  1.00  0.00    -0.000 C 
HETATM   19  C18 UNL     1     -13.435   3.345  26.220  1.00  0.00     0.009 C 
HETATM   20  C19 UNL     1     -13.923   2.837  27.582  1.00  0.00     0.067 C 
HETATM   21  C20 UNL     1     -12.878   1.746  27.937  1.00  0.00     0.140 C 
HETATM   22  C21 UNL     1     -12.065   1.472  26.657  1.00  0.00     0.042 C 
HETATM   23  C22 UNL     1     -12.919   2.073  25.526  1.00  0.00    -0.037 C 
HETATM   24  C23 UNL     1     -13.995   1.036  25.135  1.00  0.00     0.015 C 
HETATM   25  C24 UNL     1     -12.110   2.495  24.296  1.00  0.00     0.010 C 
HETATM   26  C25 UNL     1     -12.978   3.296  23.314  1.00  0.00     0.011 C 
HETATM   27  C26 UNL     1     -13.720   4.542  23.918  1.00  0.00    -0.032 C 
HETATM   28  C27 UNL     1     -12.607   5.623  24.136  1.00  0.00     0.016 C 
HETATM   29  O2  UNL     1     -12.004   2.269  28.955  1.00  0.00    -0.313 OA
HETATM   30  C28 UNL     1     -12.498   3.445  29.439  1.00  0.00     0.297 C 
HETATM   31  O3  UNL     1     -11.980   4.136  30.301  1.00  0.00    -0.262 OA
HETATM   32  C29 UNL     1     -13.736   3.776  28.715  1.00  0.00     0.175 A 
HETATM   33  C30 UNL     1     -14.474   5.079  28.884  1.00  0.00     0.218 A 
HETATM   34  O4  UNL     1     -14.906   3.889  29.552  1.00  0.00    -0.364 OA
ENDROOT
TORSDOF 0
ENDMDL
MODEL 6
REMARK minimizedAffinity -5.90034056
REMARK CNNscore 0.235347703
REMARK CNNaffinity 6.09348536
REMARK  0 active torsions:
REMARK  status: ('A' for Active; 'I' for Inactive)
ROOT
HETATM    1  C1  UNL     1     -14.615   4.104  34.180  1.00  0.00     0.023 C 
HETATM    2  C2  UNL     1     -15.406   3.083  33.331  1.00  0.00     0.017 C 
HETATM    3  C3  UNL     1     -15.171   1.711  34.017  1.00  0.00     0.023 C 
HETATM    4  C4  UNL     1     -16.896   3.444  33.397  1.00  0.00     0.135 C 
HETATM    5  O1  UNL     1     -17.671   2.884  34.174  1.00  0.00    -0.297 OA
HETATM    6  C5  UNL     1     -17.377   4.600  32.545  1.00  0.00     0.080 C 
HETATM    7  C6  UNL     1     -16.897   4.504  31.100  1.00  0.00     0.017 C 
HETATM    8  C7  UNL     1     -15.357   4.294  30.931  1.00  0.00    -0.035 C 
HETATM    9  C8  UNL     1     -14.658   5.584  31.425  1.00  0.00     0.016 C 
HETATM   10  C9  UNL     1     -14.966   3.044  31.806  1.00  0.00     0.009 C 
HETATM   11  C10 UNL     1     -15.446   1.710  31.164  1.00  0.00     0.007 C 
HETATM   12  C11 UNL     1     -15.663   1.687  29.656  1.00  0.00     0.011 C 
HETATM   13  C12 UNL     1     -14.756   2.639  28.860  1.00  0.00    -0.032 C 
HETATM   14  C13 UNL     1     -13.281   2.231  29.162  1.00  0.00     0.016 C 
HETATM   15  C14 UNL     1     -15.046   4.096  29.355  1.00  0.00     0.003 C 
HETATM   16  C15 UNL     1     -13.997   5.057  28.731  1.00  0.00     0.006 C 
HETATM   17  C16 UNL     1     -13.651   4.768  27.261  1.00  0.00     0.006 C 
HETATM   18  C17 UNL     1     -14.733   3.953  26.551  1.00  0.00    -0.000 C 
HETATM   19  C18 UNL     1     -14.577   3.819  25.021  1.00  0.00     0.009 C 
HETATM   20  C19 UNL     1     -14.103   5.012  24.181  1.00  0.00     0.067 C 
HETATM   21  C20 UNL     1     -13.811   4.366  22.801  1.00  0.00     0.140 C 
HETATM   22  C21 UNL     1     -13.822   2.840  23.009  1.00  0.00     0.042 C 
HETATM   23  C22 UNL     1     -13.691   2.661  24.533  1.00  0.00    -0.037 C 
HETATM   24  C23 UNL     1     -12.193   2.760  24.899  1.00  0.00     0.015 C 
HETATM   25  C24 UNL     1     -14.285   1.350  25.056  1.00  0.00     0.010 C 
HETATM   26  C25 UNL     1     -14.335   1.343  26.591  1.00  0.00     0.011 C 
HETATM   27  C26 UNL     1     -15.066   2.564  27.257  1.00  0.00    -0.032 C 
HETATM   28  C27 UNL     1     -16.593   2.323  27.001  1.00  0.00     0.016 C 
HETATM   29  O2  UNL     1     -14.869   4.732  21.895  1.00  0.00    -0.313 OA
HETATM   30  C28 UNL     1     -15.657   5.694  22.458  1.00  0.00     0.297 C 
HETATM   31  O3  UNL     1     -16.640   6.202  21.945  1.00  0.00    -0.262 OA
HETATM   32  C29 UNL     1     -15.158   5.988  23.811  1.00  0.00     0.175 A 
HETATM   33  C30 UNL     1     -15.871   6.893  24.781  1.00  0.00     0.218 A 
HETATM   34  O4  UNL     1     -14.754   7.357  24.016  1.00  0.00    -0.364 OA
ENDROOT
TORSDOF 0
ENDMDL
MODEL 7
REMARK minimizedAffinity -5.96183443
REMARK CNNscore 0.21904254
REMARK CNNaffinity 5.47008514
REMARK  0 active torsions:
REMARK  status: ('A' for Active; 'I' for Inactive)
ROOT
HETATM    1  C1  UNL     1     -21.494   6.780  23.304  1.00  0.00     0.023 C 
HETATM    2  C2  UNL     1     -20.076   7.353  23.081  1.00  0.00     0.017 C 
HETATM    3  C3  UNL     1     -20.018   7.723  21.574  1.00  0.00     0.023 C 
HETATM    4  C4  UNL     1     -19.924   8.622  23.929  1.00  0.00     0.135 C 
HETATM    5  O1  UNL     1     -20.084   9.749  23.457  1.00  0.00    -0.297 OA
HETATM    6  C5  UNL     1     -19.674   8.449  25.413  1.00  0.00     0.080 C 
HETATM    7  C6  UNL     1     -18.557   7.452  25.707  1.00  0.00     0.017 C 
HETATM    8  C7  UNL     1     -18.713   6.064  25.005  1.00  0.00    -0.035 C 
HETATM    9  C8  UNL     1     -19.948   5.368  25.627  1.00  0.00     0.016 C 
HETATM   10  C9  UNL     1     -18.913   6.347  23.469  1.00  0.00     0.009 C 
HETATM   11  C10 UNL     1     -17.590   6.798  22.783  1.00  0.00     0.007 C 
HETATM   12  C11 UNL     1     -16.277   6.376  23.430  1.00  0.00     0.011 C 
HETATM   13  C12 UNL     1     -16.331   5.040  24.188  1.00  0.00    -0.032 C 
HETATM   14  C13 UNL     1     -16.761   3.945  23.163  1.00  0.00     0.016 C 
HETATM   15  C14 UNL     1     -17.393   5.184  25.329  1.00  0.00     0.003 C 
HETATM   16  C15 UNL     1     -17.631   3.792  25.975  1.00  0.00     0.006 C 
HETATM   17  C16 UNL     1     -16.363   2.944  26.168  1.00  0.00     0.006 C 
HETATM   18  C17 UNL     1     -15.087   3.788  26.175  1.00  0.00    -0.000 C 
HETATM   19  C18 UNL     1     -13.797   3.051  26.594  1.00  0.00     0.009 C 
HETATM   20  C19 UNL     1     -13.824   2.029  27.737  1.00  0.00     0.067 C 
HETATM   21  C20 UNL     1     -12.437   1.343  27.617  1.00  0.00     0.140 C 
HETATM   22  C21 UNL     1     -11.843   1.769  26.261  1.00  0.00     0.042 C 
HETATM   23  C22 UNL     1     -13.046   2.316  25.472  1.00  0.00    -0.037 C 
HETATM   24  C23 UNL     1     -13.787   1.119  24.838  1.00  0.00     0.015 C 
HETATM   25  C24 UNL     1     -12.667   3.341  24.398  1.00  0.00     0.010 C 
HETATM   26  C25 UNL     1     -13.918   4.017  23.818  1.00  0.00     0.011 C 
HETATM   27  C26 UNL     1     -14.889   4.673  24.864  1.00  0.00    -0.032 C 
HETATM   28  C27 UNL     1     -14.160   5.973  25.348  1.00  0.00     0.016 C 
HETATM   29  O2  UNL     1     -11.596   1.831  28.681  1.00  0.00    -0.313 OA
HETATM   30  C28 UNL     1     -12.337   2.551  29.573  1.00  0.00     0.297 C 
HETATM   31  O3  UNL     1     -11.911   3.102  30.574  1.00  0.00    -0.262 OA
HETATM   32  C29 UNL     1     -13.732   2.600  29.103  1.00  0.00     0.175 A 
HETATM   33  C30 UNL     1     -14.800   3.435  29.761  1.00  0.00     0.218 A 
HETATM   34  O4  UNL     1     -14.691   2.031  30.017  1.00  0.00    -0.364 OA
ENDROOT
TORSDOF 0
ENDMDL
MODEL 8
REMARK minimizedAffinity -6.00617838
REMARK CNNscore 0.21106571
REMARK CNNaffinity 5.45788574
REMARK  0 active torsions:
REMARK  status: ('A' for Active; 'I' for Inactive)
ROOT
HETATM    1  C1  UNL     1     -16.110  13.574  24.207  1.00  0.00     0.023 C 
HETATM    2  C2  UNL     1     -14.914  12.877  23.521  1.00  0.00     0.017 C 
HETATM    3  C3  UNL     1     -14.896  13.430  22.070  1.00  0.00     0.023 C 
HETATM    4  C4  UNL     1     -13.626  13.292  24.246  1.00  0.00     0.135 C 
HETATM    5  O1  UNL     1     -12.902  14.196  23.827  1.00  0.00    -0.297 OA
HETATM    6  C5  UNL     1     -13.320  12.624  25.570  1.00  0.00     0.080 C 
HETATM    7  C6  UNL     1     -13.451  11.105  25.505  1.00  0.00     0.017 C 
HETATM    8  C7  UNL     1     -14.806  10.586  24.922  1.00  0.00    -0.035 C 
HETATM    9  C8  UNL     1     -15.919  10.970  25.928  1.00  0.00     0.016 C 
HETATM   10  C9  UNL     1     -15.007  11.293  23.530  1.00  0.00     0.009 C 
HETATM   11  C10 UNL     1     -14.058  10.714  22.441  1.00  0.00     0.007 C 
HETATM   12  C11 UNL     1     -13.541   9.294  22.632  1.00  0.00     0.011 C 
HETATM   13  C12 UNL     1     -14.494   8.359  23.395  1.00  0.00    -0.032 C 
HETATM   14  C13 UNL     1     -15.830   8.305  22.590  1.00  0.00     0.016 C 
HETATM   15  C14 UNL     1     -14.724   8.973  24.817  1.00  0.00     0.003 C 
HETATM   16  C15 UNL     1     -15.847   8.175  25.534  1.00  0.00     0.006 C 
HETATM   17  C16 UNL     1     -15.795   6.653  25.322  1.00  0.00     0.006 C 
HETATM   18  C17 UNL     1     -14.410   6.166  24.893  1.00  0.00    -0.000 C 
HETATM   19  C18 UNL     1     -14.208   4.636  24.884  1.00  0.00     0.009 C 
HETATM   20  C19 UNL     1     -14.812   3.767  25.995  1.00  0.00     0.067 C 
HETATM   21  C20 UNL     1     -14.629   2.328  25.444  1.00  0.00     0.140 C 
HETATM   22  C21 UNL     1     -14.240   2.463  23.960  1.00  0.00     0.042 C 
HETATM   23  C22 UNL     1     -14.624   3.909  23.594  1.00  0.00    -0.037 C 
HETATM   24  C23 UNL     1     -16.132   3.935  23.263  1.00  0.00     0.015 C 
HETATM   25  C24 UNL     1     -13.810   4.491  22.434  1.00  0.00     0.010 C 
HETATM   26  C25 UNL     1     -14.072   5.997  22.279  1.00  0.00     0.011 C 
HETATM   27  C26 UNL     1     -13.857   6.864  23.571  1.00  0.00    -0.032 C 
HETATM   28  C27 UNL     1     -12.304   6.946  23.762  1.00  0.00     0.016 C 
HETATM   29  O2  UNL     1     -13.551   1.700  26.164  1.00  0.00    -0.313 OA
HETATM   30  C28 UNL     1     -13.190   2.468  27.233  1.00  0.00     0.297 C 
HETATM   31  O3  UNL     1     -12.302   2.212  28.029  1.00  0.00    -0.262 OA
HETATM   32  C29 UNL     1     -14.015   3.688  27.244  1.00  0.00     0.175 A 
HETATM   33  C30 UNL     1     -13.791   4.834  28.196  1.00  0.00     0.218 A 
HETATM   34  O4  UNL     1     -14.813   3.860  28.433  1.00  0.00    -0.364 OA
ENDROOT
TORSDOF 0
ENDMDL
MODEL 9
REMARK minimizedAffinity -6.37013531
REMARK CNNscore 0.20491235
REMARK CNNaffinity 5.50620985
REMARK  0 active torsions:
REMARK  status: ('A' for Active; 'I' for Inactive)
ROOT
HETATM    1  C1  UNL     1     -10.634  17.160   6.774  1.00  0.00     0.023 C 
HETATM    2  C2  UNL     1      -9.902  17.255   5.417  1.00  0.00     0.017 C 
HETATM    3  C3  UNL     1      -9.422  18.727   5.312  1.00  0.00     0.023 C 
HETATM    4  C4  UNL     1      -8.686  16.318   5.452  1.00  0.00     0.135 C 
HETATM    5  O1  UNL     1      -7.552  16.728   5.707  1.00  0.00    -0.297 OA
HETATM    6  C5  UNL     1      -8.936  14.836   5.270  1.00  0.00     0.080 C 
HETATM    7  C6  UNL     1      -9.829  14.534   4.070  1.00  0.00     0.017 C 
HETATM    8  C7  UNL     1     -11.173  15.332   4.033  1.00  0.00    -0.035 C 
HETATM    9  C8  UNL     1     -12.037  14.837   5.219  1.00  0.00     0.016 C 
HETATM   10  C9  UNL     1     -10.805  16.857   4.174  1.00  0.00     0.009 C 
HETATM   11  C10 UNL     1     -10.171  17.426   2.871  1.00  0.00     0.007 C 
HETATM   12  C11 UNL     1     -10.497  16.724   1.559  1.00  0.00     0.011 C 
HETATM   13  C12 UNL     1     -11.882  16.058   1.511  1.00  0.00    -0.032 C 
HETATM   14  C13 UNL     1     -12.941  17.176   1.760  1.00  0.00     0.016 C 
HETATM   15  C14 UNL     1     -11.930  14.980   2.647  1.00  0.00     0.003 C 
HETATM   16  C15 UNL     1     -13.382  14.442   2.768  1.00  0.00     0.006 C 
HETATM   17  C16 UNL     1     -14.103  14.221   1.428  1.00  0.00     0.006 C 
HETATM   18  C17 UNL     1     -13.133  14.079   0.255  1.00  0.00    -0.000 C 
HETATM   19  C18 UNL     1     -13.758  13.625  -1.082  1.00  0.00     0.009 C 
HETATM   20  C19 UNL     1     -14.855  12.554  -1.101  1.00  0.00     0.067 C 
HETATM   21  C20 UNL     1     -15.382  12.627  -2.559  1.00  0.00     0.140 C 
HETATM   22  C21 UNL     1     -14.802  13.912  -3.180  1.00  0.00     0.042 C 
HETATM   23  C22 UNL     1     -14.330  14.741  -1.972  1.00  0.00    -0.037 C 
HETATM   24  C23 UNL     1     -15.551  15.497  -1.403  1.00  0.00     0.015 C 
HETATM   25  C24 UNL     1     -13.198  15.721  -2.297  1.00  0.00     0.010 C 
HETATM   26  C25 UNL     1     -12.618  16.336  -1.016  1.00  0.00     0.011 C 
HETATM   27  C26 UNL     1     -12.142  15.315   0.079  1.00  0.00    -0.032 C 
HETATM   28  C27 UNL     1     -10.810  14.703  -0.475  1.00  0.00     0.016 C 
HETATM   29  O2  UNL     1     -14.885  11.483  -3.280  1.00  0.00    -0.313 OA
HETATM   30  C28 UNL     1     -14.311  10.597  -2.415  1.00  0.00     0.297 C 
HETATM   31  O3  UNL     1     -13.791   9.537  -2.720  1.00  0.00    -0.262 OA
HETATM   32  C29 UNL     1     -14.375  11.151  -1.052  1.00  0.00     0.175 A 
HETATM   33  C30 UNL     1     -13.705  10.512   0.136  1.00  0.00     0.218 A 
HETATM   34  O4  UNL     1     -15.105  10.338  -0.110  1.00  0.00    -0.364 OA
ENDROOT
TORSDOF 0
ENDMDL
