MODEL 1
REMARK minimizedAffinity -6.67854452
REMARK CNNscore 0.42731899
REMARK CNNaffinity 6.26825571
REMARK  9 active torsions:
REMARK  status: ('A' for Active; 'I' for Inactive)
REMARK    1  A    between atoms: C2_2  and  O1_3 
REMARK    2  A    between atoms: O1_3  and  C3_4 
REMARK    3  A    between atoms: C14_15  and  O2_16 
REMARK    4  A    between atoms: O2_16  and  C15_17 
REMARK    5  A    between atoms: C21_24  and  O4_25 
REMARK    6  A    between atoms: O4_25  and  C22_26 
REMARK    7  A    between atoms: C24_29  and  O6_30 
REMARK    8  A    between atoms: C25_31  and  O7_32 
REMARK    9  A    between atoms: C26_33  and  O8_34 
ROOT
HETATM    1  C3  UNL     1      -6.811  15.855  24.129  1.00  0.00     0.260 C 
HETATM    2  C4  UNL     1      -7.829  16.369  23.096  1.00  0.00     0.065 C 
HETATM    3  C5  UNL     1      -7.732  15.559  21.798  1.00  0.00    -0.007 C 
HETATM    4  C6  UNL     1      -8.835  15.958  20.822  1.00  0.00     0.010 C 
HETATM    5  C7  UNL     1      -6.322  15.781  21.212  1.00  0.00     0.027 C 
HETATM    6  C8  UNL     1      -5.249  15.879  22.336  1.00  0.00     0.130 C 
HETATM    7  C9  UNL     1      -3.982  15.180  21.806  1.00  0.00     0.042 C 
HETATM    8  C10 UNL     1      -4.193  15.081  20.282  1.00  0.00    -0.029 C 
HETATM    9  C11 UNL     1      -3.820  16.472  19.678  1.00  0.00     0.016 C 
HETATM   10  C12 UNL     1      -3.375  13.957  19.596  1.00  0.00     0.006 C 
HETATM   11  C13 UNL     1      -1.883  14.273  19.449  1.00  0.00     0.039 C 
HETATM   12  C14 UNL     1      -1.133  13.061  18.887  1.00  0.00     0.138 C 
HETATM   13  C17 UNL     1      -1.548  12.816  17.416  1.00  0.00     0.035 C 
HETATM   14  C18 UNL     1      -0.901  11.546  16.722  1.00  0.00    -0.015 C 
HETATM   15  C19 UNL     1       0.499  11.927  16.166  1.00  0.00     0.018 C 
HETATM   16  C20 UNL     1      -0.689  10.367  17.697  1.00  0.00     0.018 C 
HETATM   17  C21 UNL     1      -1.774  11.064  15.498  1.00  0.00     0.133 C 
HETATM   18  C27 UNL     1      -2.430  12.257  14.799  1.00  0.00     0.034 C 
HETATM   19  C28 UNL     1      -3.414  12.996  15.706  1.00  0.00     0.013 C 
HETATM   20  C29 UNL     1      -3.064  12.871  17.185  1.00  0.00    -0.025 A 
HETATM   21  C30 UNL     1      -3.990  12.018  18.015  1.00  0.00     0.021 A 
HETATM   22  C31 UNL     1      -3.992  13.517  18.250  1.00  0.00    -0.027 A 
HETATM   23  C32 UNL     1      -5.196  14.309  17.729  1.00  0.00     0.011 C 
HETATM   24  C33 UNL     1      -6.191  14.862  18.765  1.00  0.00     0.011 C 
HETATM   25  C34 UNL     1      -5.726  14.737  20.220  1.00  0.00    -0.030 C 
HETATM   26  C35 UNL     1      -6.082  13.300  20.706  1.00  0.00     0.016 C 
HETATM   27  O9  UNL     1      -5.686  15.221  23.519  1.00  0.00    -0.356 OA
ENDROOT
BRANCH  17  28
HETATM   28  O4  UNL     1      -2.764  10.138  15.956  1.00  0.00    -0.353 OA
BRANCH  28  29
HETATM   29  C22 UNL     1      -3.037   9.057  15.059  1.00  0.00     0.291 C 
HETATM   30  O5  UNL     1      -4.367   9.168  14.537  1.00  0.00    -0.356 OA
HETATM   31  C23 UNL     1      -4.604   8.228  13.476  1.00  0.00     0.205 C 
HETATM   32  C24 UNL     1      -3.960   6.853  13.730  1.00  0.00     0.173 C 
HETATM   33  C25 UNL     1      -3.769   6.622  15.239  1.00  0.00     0.182 C 
HETATM   34  C26 UNL     1      -2.941   7.751  15.886  1.00  0.00     0.204 C 
BRANCH  32  35
HETATM   35  O6  UNL     1      -2.707   6.813  13.038  1.00  0.00    -0.391 OA
HETATM   36  H39 UNL     1      -2.196   6.053  13.374  1.00  0.00     0.210 HD
ENDBRANCH  32  35
BRANCH  33  37
HETATM   37  O7  UNL     1      -5.044   6.505  15.887  1.00  0.00    -0.390 OA
HETATM   38  H41 UNL     1      -5.492   7.374  15.827  1.00  0.00     0.210 HD
ENDBRANCH  33  37
BRANCH  34  39
HETATM   39  O8  UNL     1      -1.570   7.340  16.020  1.00  0.00    -0.388 OA
HETATM   40  H43 UNL     1      -1.499   6.942  16.907  1.00  0.00     0.210 HD
ENDBRANCH  34  39
ENDBRANCH  28  29
ENDBRANCH  17  28
BRANCH  12  41
HETATM   41  O2  UNL     1       0.280  13.352  18.928  1.00  0.00    -0.316 OA
BRANCH  41  42
HETATM   42  C15 UNL     1       0.889  13.200  20.138  1.00  0.00     0.255 C 
HETATM   43  C16 UNL     1       1.164  11.748  20.388  1.00  0.00     0.126 C 
HETATM   44  O3  UNL     1       1.200  14.101  20.905  1.00  0.00    -0.266 OA
ENDBRANCH  41  42
ENDBRANCH  12  41
BRANCH   1  45
HETATM   45  O1  UNL     1      -6.418  16.950  24.960  1.00  0.00    -0.362 OA
BRANCH  45  46
HETATM   46  C2  UNL     1      -6.046  16.569  26.280  1.00  0.00     0.166 C 
HETATM   47  C1  UNL     1      -7.214  16.039  27.096  1.00  0.00     0.033 C 
ENDBRANCH  45  46
ENDBRANCH   1  45
TORSDOF 9
ENDMDL
MODEL 2
REMARK minimizedAffinity -7.32965136
REMARK CNNscore 0.393386215
REMARK CNNaffinity 6.16054153
REMARK  9 active torsions:
REMARK  status: ('A' for Active; 'I' for Inactive)
REMARK    1  A    between atoms: C2_2  and  O1_3 
REMARK    2  A    between atoms: O1_3  and  C3_4 
REMARK    3  A    between atoms: C14_15  and  O2_16 
REMARK    4  A    between atoms: O2_16  and  C15_17 
REMARK    5  A    between atoms: C21_24  and  O4_25 
REMARK    6  A    between atoms: O4_25  and  C22_26 
REMARK    7  A    between atoms: C24_29  and  O6_30 
REMARK    8  A    between atoms: C25_31  and  O7_32 
REMARK    9  A    between atoms: C26_33  and  O8_34 
ROOT
HETATM    1  C3  UNL     1     -16.596   8.039  13.689  1.00  0.00     0.260 C 
HETATM    2  C4  UNL     1     -16.955   7.965  15.183  1.00  0.00     0.065 C 
HETATM    3  C5  UNL     1     -16.562   6.601  15.763  1.00  0.00    -0.007 C 
HETATM    4  C6  UNL     1     -16.775   6.568  17.274  1.00  0.00     0.010 C 
HETATM    5  C7  UNL     1     -17.391   5.525  15.031  1.00  0.00     0.027 C 
HETATM    6  C8  UNL     1     -17.583   5.882  13.528  1.00  0.00     0.130 C 
HETATM    7  C9  UNL     1     -17.513   4.558  12.742  1.00  0.00     0.042 C 
HETATM    8  C10 UNL     1     -17.713   3.457  13.803  1.00  0.00    -0.029 C 
HETATM    9  C11 UNL     1     -19.248   3.353  14.070  1.00  0.00     0.016 C 
HETATM   10  C12 UNL     1     -17.138   2.075  13.403  1.00  0.00     0.006 C 
HETATM   11  C13 UNL     1     -17.976   1.330  12.357  1.00  0.00     0.039 C 
HETATM   12  C14 UNL     1     -17.268   0.042  11.925  1.00  0.00     0.138 C 
HETATM   13  C17 UNL     1     -17.252  -0.973  13.094  1.00  0.00     0.035 C 
HETATM   14  C18 UNL     1     -16.488  -2.334  12.813  1.00  0.00    -0.015 C 
HETATM   15  C19 UNL     1     -17.451  -3.319  12.094  1.00  0.00     0.018 C 
HETATM   16  C20 UNL     1     -15.260  -2.157  11.894  1.00  0.00     0.018 C 
HETATM   17  C21 UNL     1     -16.040  -3.020  14.161  1.00  0.00     0.133 C 
HETATM   18  C27 UNL     1     -17.063  -2.753  15.269  1.00  0.00     0.034 C 
HETATM   19  C28 UNL     1     -17.177  -1.268  15.613  1.00  0.00     0.013 C 
HETATM   20  C29 UNL     1     -16.833  -0.360  14.437  1.00  0.00    -0.025 A 
HETATM   21  C30 UNL     1     -15.541   0.409  14.550  1.00  0.00     0.021 A 
HETATM   22  C31 UNL     1     -16.845   1.181  14.628  1.00  0.00    -0.027 A 
HETATM   23  C32 UNL     1     -17.272   1.703  16.004  1.00  0.00     0.011 C 
HETATM   24  C33 UNL     1     -17.184   3.220  16.253  1.00  0.00     0.011 C 
HETATM   25  C34 UNL     1     -16.885   4.050  15.000  1.00  0.00    -0.030 C 
HETATM   26  C35 UNL     1     -15.342   4.038  14.784  1.00  0.00     0.016 C 
HETATM   27  O9  UNL     1     -16.554   6.752  13.073  1.00  0.00    -0.356 OA
ENDROOT
BRANCH  17  28
HETATM   28  O4  UNL     1     -14.749  -2.532  14.536  1.00  0.00    -0.353 OA
BRANCH  28  29
HETATM   29  C22 UNL     1     -13.793  -3.546  14.861  1.00  0.00     0.291 C 
HETATM   30  O5  UNL     1     -12.954  -3.817  13.732  1.00  0.00    -0.356 OA
HETATM   31  C23 UNL     1     -11.850  -4.671  14.080  1.00  0.00     0.205 C 
HETATM   32  C24 UNL     1     -12.234  -5.782  15.073  1.00  0.00     0.173 C 
HETATM   33  C25 UNL     1     -13.738  -6.092  14.974  1.00  0.00     0.182 C 
HETATM   34  C26 UNL     1     -14.594  -4.828  15.197  1.00  0.00     0.204 C 
BRANCH  32  35
HETATM   35  O6  UNL     1     -11.882  -5.345  16.390  1.00  0.00    -0.391 OA
HETATM   36  H39 UNL     1     -12.322  -5.929  17.034  1.00  0.00     0.210 HD
ENDBRANCH  32  35
BRANCH  33  37
HETATM   37  O7  UNL     1     -14.040  -6.679  13.701  1.00  0.00    -0.390 OA
HETATM   38  H41 UNL     1     -13.884  -6.001  13.012  1.00  0.00     0.210 HD
ENDBRANCH  33  37
BRANCH  34  39
HETATM   39  O8  UNL     1     -15.063  -4.786  16.556  1.00  0.00    -0.388 OA
HETATM   40  H43 UNL     1     -15.931  -5.228  16.549  1.00  0.00     0.210 HD
ENDBRANCH  34  39
ENDBRANCH  28  29
ENDBRANCH  17  28
BRANCH  12  41
HETATM   41  O2  UNL     1     -18.012  -0.528  10.826  1.00  0.00    -0.316 OA
BRANCH  41  42
HETATM   42  C15 UNL     1     -19.317  -0.148  10.724  1.00  0.00     0.255 C 
HETATM   43  C16 UNL     1     -20.199  -1.203  11.320  1.00  0.00     0.126 C 
HETATM   44  O3  UNL     1     -19.726   0.902  10.249  1.00  0.00    -0.266 OA
ENDBRANCH  41  42
ENDBRANCH  12  41
BRANCH   1  45
HETATM   45  O1  UNL     1     -17.528   8.909  13.042  1.00  0.00    -0.362 OA
BRANCH  45  46
HETATM   46  C2  UNL     1     -16.963  10.140  12.607  1.00  0.00     0.166 C 
HETATM   47  C1  UNL     1     -15.524  10.001  12.139  1.00  0.00     0.033 C 
ENDBRANCH  45  46
ENDBRANCH   1  45
TORSDOF 9
ENDMDL
MODEL 3
REMARK minimizedAffinity -8.60473156
REMARK CNNscore 0.381775022
REMARK CNNaffinity 6.49850655
REMARK  9 active torsions:
REMARK  status: ('A' for Active; 'I' for Inactive)
REMARK    1  A    between atoms: C2_2  and  O1_3 
REMARK    2  A    between atoms: O1_3  and  C3_4 
REMARK    3  A    between atoms: C14_15  and  O2_16 
REMARK    4  A    between atoms: O2_16  and  C15_17 
REMARK    5  A    between atoms: C21_24  and  O4_25 
REMARK    6  A    between atoms: O4_25  and  C22_26 
REMARK    7  A    between atoms: C24_29  and  O6_30 
REMARK    8  A    between atoms: C25_31  and  O7_32 
REMARK    9  A    between atoms: C26_33  and  O8_34 
ROOT
HETATM    1  C3  UNL     1      -4.165  15.177  18.994  1.00  0.00     0.260 C 
HETATM    2  C4  UNL     1      -2.916  15.109  19.890  1.00  0.00     0.065 C 
HETATM    3  C5  UNL     1      -1.776  14.383  19.167  1.00  0.00    -0.007 C 
HETATM    4  C6  UNL     1      -0.488  14.439  19.983  1.00  0.00     0.010 C 
HETATM    5  C7  UNL     1      -2.238  12.934  18.902  1.00  0.00     0.027 C 
HETATM    6  C8  UNL     1      -3.754  12.877  18.552  1.00  0.00     0.130 C 
HETATM    7  C9  UNL     1      -3.924  11.787  17.476  1.00  0.00     0.042 C 
HETATM    8  C10 UNL     1      -2.621  10.964  17.539  1.00  0.00    -0.029 C 
HETATM    9  C11 UNL     1      -2.766   9.970  18.734  1.00  0.00     0.016 C 
HETATM   10  C12 UNL     1      -2.290  10.196  16.233  1.00  0.00     0.006 C 
HETATM   11  C13 UNL     1      -3.158   8.954  16.004  1.00  0.00     0.039 C 
HETATM   12  C14 UNL     1      -2.855   8.337  14.635  1.00  0.00     0.138 C 
HETATM   13  C17 UNL     1      -1.431   7.729  14.631  1.00  0.00     0.035 C 
HETATM   14  C18 UNL     1      -0.951   7.112  13.251  1.00  0.00    -0.015 C 
HETATM   15  C19 UNL     1      -1.473   5.653  13.137  1.00  0.00     0.018 C 
HETATM   16  C20 UNL     1      -1.493   7.879  12.026  1.00  0.00     0.018 C 
HETATM   17  C21 UNL     1       0.625   7.051  13.176  1.00  0.00     0.133 C 
HETATM   18  C27 UNL     1       1.221   6.781  14.560  1.00  0.00     0.034 C 
HETATM   19  C28 UNL     1       0.927   7.905  15.553  1.00  0.00     0.013 C 
HETATM   20  C29 UNL     1      -0.364   8.652  15.234  1.00  0.00    -0.025 A 
HETATM   21  C30 UNL     1      -0.205  10.063  14.726  1.00  0.00     0.021 A 
HETATM   22  C31 UNL     1      -0.786   9.861  16.113  1.00  0.00    -0.027 A 
HETATM   23  C32 UNL     1       0.112  10.195  17.308  1.00  0.00     0.011 C 
HETATM   24  C33 UNL     1      -0.223  11.456  18.125  1.00  0.00     0.011 C 
HETATM   25  C34 UNL     1      -1.564  12.105  17.767  1.00  0.00    -0.030 C 
HETATM   26  C35 UNL     1      -1.328  13.021  16.528  1.00  0.00     0.016 C 
HETATM   27  O9  UNL     1      -4.206  14.122  18.033  1.00  0.00    -0.356 OA
ENDROOT
BRANCH  17  28
HETATM   28  O4  UNL     1       1.123   8.281  12.642  1.00  0.00    -0.353 OA
BRANCH  28  29
HETATM   29  C22 UNL     1       1.951   8.143  11.483  1.00  0.00     0.291 C 
HETATM   30  O5  UNL     1       1.143   8.025  10.306  1.00  0.00    -0.356 OA
HETATM   31  C23 UNL     1       1.933   8.099   9.107  1.00  0.00     0.205 C 
HETATM   32  C24 UNL     1       3.281   7.367   9.224  1.00  0.00     0.173 C 
HETATM   33  C25 UNL     1       3.201   6.265  10.295  1.00  0.00     0.182 C 
HETATM   34  C26 UNL     1       2.756   6.832  11.660  1.00  0.00     0.204 C 
BRANCH  32  35
HETATM   35  O6  UNL     1       4.287   8.333   9.550  1.00  0.00    -0.391 OA
HETATM   36  H39 UNL     1       5.084   7.857   9.848  1.00  0.00     0.210 HD
ENDBRANCH  32  35
BRANCH  33  37
HETATM   37  O7  UNL     1       2.307   5.227   9.872  1.00  0.00    -0.390 OA
HETATM   38  H41 UNL     1       1.403   5.604   9.839  1.00  0.00     0.210 HD
ENDBRANCH  33  37
BRANCH  34  39
HETATM   39  O8  UNL     1       3.904   7.055  12.497  1.00  0.00    -0.388 OA
HETATM   40  H43 UNL     1       4.020   6.234  13.009  1.00  0.00     0.210 HD
ENDBRANCH  34  39
ENDBRANCH  28  29
ENDBRANCH  17  28
BRANCH  12  41
HETATM   41  O2  UNL     1      -3.810   7.281  14.401  1.00  0.00    -0.316 OA
BRANCH  41  42
HETATM   42  C15 UNL     1      -4.813   7.562  13.521  1.00  0.00     0.255 C 
HETATM   43  C16 UNL     1      -5.826   6.458  13.538  1.00  0.00     0.126 C 
HETATM   44  O3  UNL     1      -4.905   8.570  12.835  1.00  0.00    -0.266 OA
ENDBRANCH  41  42
ENDBRANCH  12  41
BRANCH   1  45
HETATM   45  O1  UNL     1      -5.323  15.180  19.833  1.00  0.00    -0.362 OA
BRANCH  45  46
HETATM   46  C2  UNL     1      -5.055  14.840  21.189  1.00  0.00     0.166 C 
HETATM   47  C1  UNL     1      -5.786  13.587  21.643  1.00  0.00     0.033 C 
ENDBRANCH  45  46
ENDBRANCH   1  45
TORSDOF 9
ENDMDL
MODEL 4
REMARK minimizedAffinity -6.28785372
REMARK CNNscore 0.322174996
REMARK CNNaffinity 6.18564749
REMARK  9 active torsions:
REMARK  status: ('A' for Active; 'I' for Inactive)
REMARK    1  A    between atoms: C2_2  and  O1_3 
REMARK    2  A    between atoms: O1_3  and  C3_4 
REMARK    3  A    between atoms: C14_15  and  O2_16 
REMARK    4  A    between atoms: O2_16  and  C15_17 
REMARK    5  A    between atoms: C21_24  and  O4_25 
REMARK    6  A    between atoms: O4_25  and  C22_26 
REMARK    7  A    between atoms: C24_29  and  O6_30 
REMARK    8  A    between atoms: C25_31  and  O7_32 
REMARK    9  A    between atoms: C26_33  and  O8_34 
ROOT
HETATM    1  C3  UNL     1      -5.352  17.559   4.074  1.00  0.00     0.260 C 
HETATM    2  C4  UNL     1      -4.904  17.083   5.466  1.00  0.00     0.065 C 
HETATM    3  C5  UNL     1      -3.374  17.061   5.560  1.00  0.00    -0.007 C 
HETATM    4  C6  UNL     1      -2.919  16.735   6.979  1.00  0.00     0.010 C 
HETATM    5  C7  UNL     1      -2.857  16.036   4.528  1.00  0.00     0.027 C 
HETATM    6  C8  UNL     1      -3.714  16.057   3.229  1.00  0.00     0.130 C 
HETATM    7  C9  UNL     1      -2.745  15.837   2.051  1.00  0.00     0.042 C 
HETATM    8  C10 UNL     1      -1.461  15.277   2.695  1.00  0.00    -0.029 C 
HETATM    9  C11 UNL     1      -1.698  13.753   2.937  1.00  0.00     0.016 C 
HETATM   10  C12 UNL     1      -0.178  15.499   1.853  1.00  0.00     0.006 C 
HETATM   11  C13 UNL     1      -0.064  14.575   0.635  1.00  0.00     0.039 C 
HETATM   12  C14 UNL     1       1.158  14.952  -0.208  1.00  0.00     0.138 C 
HETATM   13  C17 UNL     1       2.458  14.615   0.563  1.00  0.00     0.035 C 
HETATM   14  C18 UNL     1       3.810  15.015  -0.162  1.00  0.00    -0.015 C 
HETATM   15  C19 UNL     1       4.212  13.884  -1.149  1.00  0.00     0.018 C 
HETATM   16  C20 UNL     1       3.689  16.311  -0.992  1.00  0.00     0.018 C 
HETATM   17  C21 UNL     1       4.987  15.166   0.879  1.00  0.00     0.133 C 
HETATM   18  C27 UNL     1       4.822  14.169   2.029  1.00  0.00     0.034 C 
HETATM   19  C28 UNL     1       3.552  14.422   2.844  1.00  0.00     0.013 C 
HETATM   20  C29 UNL     1       2.446  15.078   2.025  1.00  0.00    -0.025 A 
HETATM   21  C30 UNL     1       2.134  16.514   2.364  1.00  0.00     0.021 A 
HETATM   22  C31 UNL     1       1.105  15.455   2.713  1.00  0.00    -0.027 A 
HETATM   23  C32 UNL     1       0.955  15.078   4.190  1.00  0.00     0.011 C 
HETATM   24  C33 UNL     1      -0.317  15.541   4.922  1.00  0.00     0.011 C 
HETATM   25  C34 UNL     1      -1.391  16.140   4.007  1.00  0.00    -0.030 C 
HETATM   26  C35 UNL     1      -1.030  17.638   3.774  1.00  0.00     0.016 C 
HETATM   27  O9  UNL     1      -4.370  17.309   3.068  1.00  0.00    -0.356 OA
ENDROOT
BRANCH  17  28
HETATM   28  O4  UNL     1       5.014  16.508   1.373  1.00  0.00    -0.353 OA
BRANCH  28  29
HETATM   29  C22 UNL     1       6.035  16.773   2.340  1.00  0.00     0.291 C 
HETATM   30  O5  UNL     1       5.473  17.402   3.497  1.00  0.00    -0.356 OA
HETATM   31  C23 UNL     1       6.423  17.490   4.572  1.00  0.00     0.205 C 
HETATM   32  C24 UNL     1       7.848  17.826   4.096  1.00  0.00     0.173 C 
HETATM   33  C25 UNL     1       7.800  18.567   2.748  1.00  0.00     0.182 C 
HETATM   34  C26 UNL     1       7.034  17.757   1.682  1.00  0.00     0.204 C 
BRANCH  32  35
HETATM   35  O6  UNL     1       8.583  16.602   3.986  1.00  0.00    -0.391 OA
HETATM   36  H39 UNL     1       9.394  16.776   3.475  1.00  0.00     0.210 HD
ENDBRANCH  32  35
BRANCH  33  37
HETATM   37  O7  UNL     1       7.202  19.860   2.915  1.00  0.00    -0.390 OA
HETATM   38  H41 UNL     1       6.262  19.729   3.156  1.00  0.00     0.210 HD
ENDBRANCH  33  37
BRANCH  34  39
HETATM   39  O8  UNL     1       7.962  17.047   0.843  1.00  0.00    -0.388 OA
HETATM   40  H43 UNL     1       8.145  17.639   0.091  1.00  0.00     0.210 HD
ENDBRANCH  34  39
ENDBRANCH  28  29
ENDBRANCH  17  28
BRANCH  12  41
HETATM   41  O2  UNL     1       1.121  14.169  -1.420  1.00  0.00    -0.316 OA
BRANCH  41  42
HETATM   42  C15 UNL     1       0.136  14.483  -2.308  1.00  0.00     0.255 C 
HETATM   43  C16 UNL     1       0.428  15.810  -2.940  1.00  0.00     0.126 C 
HETATM   44  O3  UNL     1      -0.832  13.788  -2.583  1.00  0.00    -0.266 OA
ENDBRANCH  41  42
ENDBRANCH  12  41
BRANCH   1  45
HETATM   45  O1  UNL     1      -6.602  16.938   3.763  1.00  0.00    -0.362 OA
BRANCH  45  46
HETATM   46  C2  UNL     1      -7.634  17.216   4.703  1.00  0.00     0.166 C 
HETATM   47  C1  UNL     1      -8.456  15.988   5.062  1.00  0.00     0.033 C 
ENDBRANCH  45  46
ENDBRANCH   1  45
TORSDOF 9
ENDMDL
MODEL 5
REMARK minimizedAffinity -6.22943878
REMARK CNNscore 0.319233268
REMARK CNNaffinity 6.24770021
REMARK  9 active torsions:
REMARK  status: ('A' for Active; 'I' for Inactive)
REMARK    1  A    between atoms: C2_2  and  O1_3 
REMARK    2  A    between atoms: O1_3  and  C3_4 
REMARK    3  A    between atoms: C14_15  and  O2_16 
REMARK    4  A    between atoms: O2_16  and  C15_17 
REMARK    5  A    between atoms: C21_24  and  O4_25 
REMARK    6  A    between atoms: O4_25  and  C22_26 
REMARK    7  A    between atoms: C24_29  and  O6_30 
REMARK    8  A    between atoms: C25_31  and  O7_32 
REMARK    9  A    between atoms: C26_33  and  O8_34 
ROOT
HETATM    1  C3  UNL     1       8.994  11.581  20.785  1.00  0.00     0.260 C 
HETATM    2  C4  UNL     1       8.236  12.492  19.804  1.00  0.00     0.065 C 
HETATM    3  C5  UNL     1       8.905  12.471  18.425  1.00  0.00    -0.007 C 
HETATM    4  C6  UNL     1       8.079  13.249  17.405  1.00  0.00     0.010 C 
HETATM    5  C7  UNL     1      10.328  13.045  18.586  1.00  0.00     0.027 C 
HETATM    6  C8  UNL     1      10.964  12.613  19.941  1.00  0.00     0.130 C 
HETATM    7  C9  UNL     1      12.460  12.360  19.672  1.00  0.00     0.042 C 
HETATM    8  C10 UNL     1      12.740  13.047  18.320  1.00  0.00    -0.029 C 
HETATM    9  C11 UNL     1      12.929  14.569  18.610  1.00  0.00     0.016 C 
HETATM   10  C12 UNL     1      13.969  12.483  17.562  1.00  0.00     0.006 C 
HETATM   11  C13 UNL     1      15.317  12.916  18.151  1.00  0.00     0.039 C 
HETATM   12  C14 UNL     1      16.467  12.211  17.427  1.00  0.00     0.138 C 
HETATM   13  C17 UNL     1      16.579  12.732  15.974  1.00  0.00     0.035 C 
HETATM   14  C18 UNL     1      17.689  12.039  15.078  1.00  0.00    -0.015 C 
HETATM   15  C19 UNL     1      19.055  12.733  15.333  1.00  0.00     0.018 C 
HETATM   16  C20 UNL     1      17.878  10.542  15.404  1.00  0.00     0.018 C 
HETATM   17  C21 UNL     1      17.360  12.204  13.542  1.00  0.00     0.133 C 
HETATM   18  C27 UNL     1      16.674  13.547  13.278  1.00  0.00     0.034 C 
HETATM   19  C28 UNL     1      15.317  13.656  13.975  1.00  0.00     0.013 C 
HETATM   20  C29 UNL     1      15.233  12.810  15.241  1.00  0.00    -0.025 A 
HETATM   21  C30 UNL     1      14.336  11.599  15.170  1.00  0.00     0.021 A 
HETATM   22  C31 UNL     1      13.904  12.762  16.044  1.00  0.00    -0.027 A 
HETATM   23  C32 UNL     1      12.756  13.638  15.533  1.00  0.00     0.011 C 
HETATM   24  C33 UNL     1      11.396  13.522  16.245  1.00  0.00     0.011 C 
HETATM   25  C34 UNL     1      11.425  12.694  17.534  1.00  0.00    -0.030 C 
HETATM   26  C35 UNL     1      11.297  11.194  17.134  1.00  0.00     0.016 C 
HETATM   27  O9  UNL     1      10.367  11.417  20.428  1.00  0.00    -0.356 OA
ENDROOT
BRANCH  17  28
HETATM   28  O4  UNL     1      16.532  11.119  13.114  1.00  0.00    -0.353 OA
BRANCH  28  29
HETATM   29  C22 UNL     1      16.314  11.050  11.702  1.00  0.00     0.291 C 
HETATM   30  O5  UNL     1      14.911  10.993  11.418  1.00  0.00    -0.356 OA
HETATM   31  C23 UNL     1      14.644  11.137  10.013  1.00  0.00     0.205 C 
HETATM   32  C24 UNL     1      15.667  10.407   9.124  1.00  0.00     0.173 C 
HETATM   33  C25 UNL     1      16.318   9.248   9.898  1.00  0.00     0.182 C 
HETATM   34  C26 UNL     1      16.969   9.735  11.209  1.00  0.00     0.204 C 
BRANCH  32  35
HETATM   35  O6  UNL     1      16.648  11.359   8.698  1.00  0.00    -0.391 OA
HETATM   36  H39 UNL     1      17.410  10.872   8.335  1.00  0.00     0.210 HD
ENDBRANCH  32  35
BRANCH  33  37
HETATM   37  O7  UNL     1      15.346   8.229  10.174  1.00  0.00    -0.390 OA
HETATM   38  H41 UNL     1      14.689   8.602  10.797  1.00  0.00     0.210 HD
ENDBRANCH  33  37
BRANCH  34  39
HETATM   39  O8  UNL     1      18.382   9.919  11.018  1.00  0.00    -0.388 OA
HETATM   40  H43 UNL     1      18.795   9.072  11.268  1.00  0.00     0.210 HD
ENDBRANCH  34  39
ENDBRANCH  28  29
ENDBRANCH  17  28
BRANCH  12  41
HETATM   41  O2  UNL     1      17.691  12.521  18.126  1.00  0.00    -0.316 OA
BRANCH  41  42
HETATM   42  C15 UNL     1      17.728  12.191  19.448  1.00  0.00     0.255 C 
HETATM   43  C16 UNL     1      18.330  13.316  20.235  1.00  0.00     0.126 C 
HETATM   44  O3  UNL     1      17.311  11.152  19.942  1.00  0.00    -0.266 OA
ENDBRANCH  41  42
ENDBRANCH  12  41
BRANCH   1  45
HETATM   45  O1  UNL     1       8.848  12.115  22.103  1.00  0.00    -0.362 OA
BRANCH  45  46
HETATM   46  C2  UNL     1       7.682  12.913  22.277  1.00  0.00     0.166 C 
HETATM   47  C1  UNL     1       6.583  12.199  23.045  1.00  0.00     0.033 C 
ENDBRANCH  45  46
ENDBRANCH   1  45
TORSDOF 9
ENDMDL
MODEL 6
REMARK minimizedAffinity -6.46863794
REMARK CNNscore 0.295289487
REMARK CNNaffinity 5.51690912
REMARK  9 active torsions:
REMARK  status: ('A' for Active; 'I' for Inactive)
REMARK    1  A    between atoms: C2_2  and  O1_3 
REMARK    2  A    between atoms: O1_3  and  C3_4 
REMARK    3  A    between atoms: C14_15  and  O2_16 
REMARK    4  A    between atoms: O2_16  and  C15_17 
REMARK    5  A    between atoms: C21_24  and  O4_25 
REMARK    6  A    between atoms: O4_25  and  C22_26 
REMARK    7  A    between atoms: C24_29  and  O6_30 
REMARK    8  A    between atoms: C25_31  and  O7_32 
REMARK    9  A    between atoms: C26_33  and  O8_34 
ROOT
HETATM    1  C3  UNL     1      -3.623  13.868  19.354  1.00  0.00     0.260 C 
HETATM    2  C4  UNL     1      -4.097  12.416  19.172  1.00  0.00     0.065 C 
HETATM    3  C5  UNL     1      -2.911  11.501  18.846  1.00  0.00    -0.007 C 
HETATM    4  C6  UNL     1      -3.343  10.038  18.811  1.00  0.00     0.010 C 
HETATM    5  C7  UNL     1      -2.314  11.968  17.502  1.00  0.00     0.027 C 
HETATM    6  C8  UNL     1      -2.364  13.518  17.367  1.00  0.00     0.130 C 
HETATM    7  C9  UNL     1      -1.071  13.946  16.645  1.00  0.00     0.042 C 
HETATM    8  C10 UNL     1      -0.527  12.651  16.010  1.00  0.00    -0.029 C 
HETATM    9  C11 UNL     1      -1.327  12.418  14.689  1.00  0.00     0.016 C 
HETATM   10  C12 UNL     1       0.996  12.673  15.723  1.00  0.00     0.006 C 
HETATM   11  C13 UNL     1       1.390  13.527  14.512  1.00  0.00     0.039 C 
HETATM   12  C14 UNL     1       2.915  13.600  14.384  1.00  0.00     0.138 C 
HETATM   13  C17 UNL     1       3.481  12.215  13.988  1.00  0.00     0.035 C 
HETATM   14  C18 UNL     1       5.060  12.121  13.885  1.00  0.00    -0.015 C 
HETATM   15  C19 UNL     1       5.508  12.603  12.477  1.00  0.00     0.018 C 
HETATM   16  C20 UNL     1       5.786  13.013  14.915  1.00  0.00     0.018 C 
HETATM   17  C21 UNL     1       5.550  10.629  14.045  1.00  0.00     0.133 C 
HETATM   18  C27 UNL     1       4.532   9.659  13.441  1.00  0.00     0.034 C 
HETATM   19  C28 UNL     1       3.185   9.701  14.164  1.00  0.00     0.013 C 
HETATM   20  C29 UNL     1       2.902  11.054  14.808  1.00  0.00    -0.025 A 
HETATM   21  C30 UNL     1       2.944  11.094  16.314  1.00  0.00     0.021 A 
HETATM   22  C31 UNL     1       1.599  11.254  15.630  1.00  0.00    -0.027 A 
HETATM   23  C32 UNL     1       0.631  10.068  15.692  1.00  0.00     0.011 C 
HETATM   24  C33 UNL     1      -0.610  10.203  16.592  1.00  0.00     0.011 C 
HETATM   25  C34 UNL     1      -0.838  11.612  17.148  1.00  0.00    -0.030 C 
HETATM   26  C35 UNL     1       0.050  11.767  18.420  1.00  0.00     0.016 C 
HETATM   27  O9  UNL     1      -2.414  14.142  18.645  1.00  0.00    -0.356 OA
ENDROOT
BRANCH  17  28
HETATM   28  O4  UNL     1       5.761  10.345  15.431  1.00  0.00    -0.353 OA
BRANCH  28  29
HETATM   29  C22 UNL     1       6.940   9.586  15.717  1.00  0.00     0.291 C 
HETATM   30  O5  UNL     1       8.106  10.301  15.293  1.00  0.00    -0.356 OA
HETATM   31  C23 UNL     1       9.315   9.673  15.753  1.00  0.00     0.205 C 
HETATM   32  C24 UNL     1       9.258   8.136  15.696  1.00  0.00     0.173 C 
HETATM   33  C25 UNL     1       8.240   7.677  14.637  1.00  0.00     0.182 C 
HETATM   34  C26 UNL     1       6.842   8.275  14.898  1.00  0.00     0.204 C 
BRANCH  32  35
HETATM   35  O6  UNL     1       8.904   7.653  16.997  1.00  0.00    -0.391 OA
HETATM   36  H39 UNL     1       8.644   6.717  16.916  1.00  0.00     0.210 HD
ENDBRANCH  32  35
BRANCH  33  37
HETATM   37  O7  UNL     1       8.696   8.031  13.325  1.00  0.00    -0.390 OA
HETATM   38  H41 UNL     1       8.695   9.009  13.259  1.00  0.00     0.210 HD
ENDBRANCH  33  37
BRANCH  34  39
HETATM   39  O8  UNL     1       6.016   7.316  15.580  1.00  0.00    -0.388 OA
HETATM   40  H43 UNL     1       5.546   6.828  14.880  1.00  0.00     0.210 HD
ENDBRANCH  34  39
ENDBRANCH  28  29
ENDBRANCH  17  28
BRANCH  12  41
HETATM   41  O2  UNL     1       3.229  14.546  13.340  1.00  0.00    -0.316 OA
BRANCH  41  42
HETATM   42  C15 UNL     1       2.371  15.596  13.202  1.00  0.00     0.255 C 
HETATM   43  C16 UNL     1       2.806  16.724  14.087  1.00  0.00     0.126 C 
HETATM   44  O3  UNL     1       1.405  15.641  12.454  1.00  0.00    -0.266 OA
ENDBRANCH  41  42
ENDBRANCH  12  41
BRANCH   1  45
HETATM   45  O1  UNL     1      -4.682  14.743  18.958  1.00  0.00    -0.362 OA
BRANCH  45  46
HETATM   46  C2  UNL     1      -5.822  14.070  18.435  1.00  0.00     0.166 C 
HETATM   47  C1  UNL     1      -6.151  14.479  17.008  1.00  0.00     0.033 C 
ENDBRANCH  45  46
ENDBRANCH   1  45
TORSDOF 9
ENDMDL
MODEL 7
REMARK minimizedAffinity -7.95956516
REMARK CNNscore 0.2767995
REMARK CNNaffinity 6.25366068
REMARK  9 active torsions:
REMARK  status: ('A' for Active; 'I' for Inactive)
REMARK    1  A    between atoms: C2_2  and  O1_3 
REMARK    2  A    between atoms: O1_3  and  C3_4 
REMARK    3  A    between atoms: C14_15  and  O2_16 
REMARK    4  A    between atoms: O2_16  and  C15_17 
REMARK    5  A    between atoms: C21_24  and  O4_25 
REMARK    6  A    between atoms: O4_25  and  C22_26 
REMARK    7  A    between atoms: C24_29  and  O6_30 
REMARK    8  A    between atoms: C25_31  and  O7_32 
REMARK    9  A    between atoms: C26_33  and  O8_34 
ROOT
HETATM    1  C3  UNL     1       0.748   5.690  10.812  1.00  0.00     0.260 C 
HETATM    2  C4  UNL     1      -0.461   4.821  11.199  1.00  0.00     0.065 C 
HETATM    3  C5  UNL     1      -1.524   5.666  11.910  1.00  0.00    -0.007 C 
HETATM    4  C6  UNL     1      -2.789   4.852  12.164  1.00  0.00     0.010 C 
HETATM    5  C7  UNL     1      -0.900   6.201  13.216  1.00  0.00     0.027 C 
HETATM    6  C8  UNL     1       0.603   6.559  13.021  1.00  0.00     0.130 C 
HETATM    7  C9  UNL     1       0.874   7.823  13.861  1.00  0.00     0.042 C 
HETATM    8  C10 UNL     1      -0.319   7.915  14.833  1.00  0.00    -0.029 C 
HETATM    9  C11 UNL     1      -0.028   6.929  16.009  1.00  0.00     0.016 C 
HETATM   10  C12 UNL     1      -0.590   9.341  15.377  1.00  0.00     0.006 C 
HETATM   11  C13 UNL     1       0.414   9.804  16.439  1.00  0.00     0.039 C 
HETATM   12  C14 UNL     1       0.152  11.264  16.820  1.00  0.00     0.138 C 
HETATM   13  C17 UNL     1      -1.189  11.380  17.584  1.00  0.00     0.035 C 
HETATM   14  C18 UNL     1      -1.626  12.851  17.985  1.00  0.00    -0.015 C 
HETATM   15  C19 UNL     1      -0.938  13.241  19.322  1.00  0.00     0.018 C 
HETATM   16  C20 UNL     1      -1.209  13.910  16.942  1.00  0.00     0.018 C 
HETATM   17  C21 UNL     1      -3.185  12.933  18.222  1.00  0.00     0.133 C 
HETATM   18  C27 UNL     1      -3.710  11.625  18.818  1.00  0.00     0.034 C 
HETATM   19  C28 UNL     1      -3.527  10.437  17.873  1.00  0.00     0.013 C 
HETATM   20  C29 UNL     1      -2.342  10.611  16.928  1.00  0.00    -0.025 A 
HETATM   21  C30 UNL     1      -2.681  10.842  15.477  1.00  0.00     0.021 A 
HETATM   22  C31 UNL     1      -2.045   9.520  15.863  1.00  0.00    -0.027 A 
HETATM   23  C32 UNL     1      -2.947   8.281  15.871  1.00  0.00     0.011 C 
HETATM   24  C33 UNL     1      -2.744   7.241  14.755  1.00  0.00     0.011 C 
HETATM   25  C34 UNL     1      -1.499   7.472  13.892  1.00  0.00    -0.030 C 
HETATM   26  C35 UNL     1      -1.873   8.514  12.796  1.00  0.00     0.016 C 
HETATM   27  O9  UNL     1       0.891   6.834  11.655  1.00  0.00    -0.356 OA
ENDROOT
BRANCH  17  28
HETATM   28  O4  UNL     1      -3.839  13.223  16.983  1.00  0.00    -0.353 OA
BRANCH  28  29
HETATM   29  C22 UNL     1      -4.874  14.208  17.065  1.00  0.00     0.291 C 
HETATM   30  O5  UNL     1      -6.130  13.585  17.356  1.00  0.00    -0.356 OA
HETATM   31  C23 UNL     1      -7.150  14.554  17.656  1.00  0.00     0.205 C 
HETATM   32  C24 UNL     1      -7.069  15.811  16.773  1.00  0.00     0.173 C 
HETATM   33  C25 UNL     1      -6.367  15.487  15.442  1.00  0.00     0.182 C 
HETATM   34  C26 UNL     1      -4.968  14.879  15.672  1.00  0.00     0.204 C 
BRANCH  32  35
HETATM   35  O6  UNL     1      -6.360  16.822  17.498  1.00  0.00    -0.391 OA
HETATM   36  H39 UNL     1      -6.107  17.526  16.873  1.00  0.00     0.210 HD
ENDBRANCH  32  35
BRANCH  33  37
HETATM   37  O7  UNL     1      -7.175  14.595  14.661  1.00  0.00    -0.390 OA
HETATM   38  H41 UNL     1      -7.217  13.737  15.132  1.00  0.00     0.210 HD
ENDBRANCH  33  37
BRANCH  34  39
HETATM   39  O8  UNL     1      -3.961  15.896  15.535  1.00  0.00    -0.388 OA
HETATM   40  H43 UNL     1      -3.688  15.873  14.600  1.00  0.00     0.210 HD
ENDBRANCH  34  39
ENDBRANCH  28  29
ENDBRANCH  17  28
BRANCH  12  41
HETATM   41  O2  UNL     1       1.221  11.696  17.689  1.00  0.00    -0.316 OA
BRANCH  41  42
HETATM   42  C15 UNL     1       1.801  10.728  18.453  1.00  0.00     0.255 C 
HETATM   43  C16 UNL     1       1.511  10.984  19.901  1.00  0.00     0.126 C 
HETATM   44  O3  UNL     1       2.441   9.772  18.039  1.00  0.00    -0.266 OA
ENDBRANCH  41  42
ENDBRANCH  12  41
BRANCH   1  45
HETATM   45  O1  UNL     1       1.918   4.869  10.827  1.00  0.00    -0.362 OA
BRANCH  45  46
HETATM   46  C2  UNL     1       3.086   5.518  10.336  1.00  0.00     0.166 C 
HETATM   47  C1  UNL     1       3.009   5.836   8.852  1.00  0.00     0.033 C 
ENDBRANCH  45  46
ENDBRANCH   1  45
TORSDOF 9
ENDMDL
MODEL 8
REMARK minimizedAffinity -6.77222538
REMARK CNNscore 0.275562763
REMARK CNNaffinity 5.81351089
REMARK  9 active torsions:
REMARK  status: ('A' for Active; 'I' for Inactive)
REMARK    1  A    between atoms: C2_2  and  O1_3 
REMARK    2  A    between atoms: O1_3  and  C3_4 
REMARK    3  A    between atoms: C14_15  and  O2_16 
REMARK    4  A    between atoms: O2_16  and  C15_17 
REMARK    5  A    between atoms: C21_24  and  O4_25 
REMARK    6  A    between atoms: O4_25  and  C22_26 
REMARK    7  A    between atoms: C24_29  and  O6_30 
REMARK    8  A    between atoms: C25_31  and  O7_32 
REMARK    9  A    between atoms: C26_33  and  O8_34 
ROOT
HETATM    1  C3  UNL     1      -7.354  15.951  25.720  1.00  0.00     0.260 C 
HETATM    2  C4  UNL     1      -8.659  15.894  24.907  1.00  0.00     0.065 C 
HETATM    3  C5  UNL     1      -8.507  14.945  23.713  1.00  0.00    -0.007 C 
HETATM    4  C6  UNL     1      -9.836  14.765  22.986  1.00  0.00     0.010 C 
HETATM    5  C7  UNL     1      -7.410  15.523  22.793  1.00  0.00     0.027 C 
HETATM    6  C8  UNL     1      -6.265  16.178  23.619  1.00  0.00     0.130 C 
HETATM    7  C9  UNL     1      -4.947  15.866  22.882  1.00  0.00     0.042 C 
HETATM    8  C10 UNL     1      -5.380  15.430  21.468  1.00  0.00    -0.029 C 
HETATM    9  C11 UNL     1      -5.664  16.732  20.653  1.00  0.00     0.016 C 
HETATM   10  C12 UNL     1      -4.343  14.545  20.729  1.00  0.00     0.006 C 
HETATM   11  C13 UNL     1      -3.126  15.316  20.205  1.00  0.00     0.039 C 
HETATM   12  C14 UNL     1      -2.097  14.349  19.611  1.00  0.00     0.138 C 
HETATM   13  C17 UNL     1      -2.652  13.717  18.311  1.00  0.00     0.035 C 
HETATM   14  C18 UNL     1      -1.718  12.638  17.618  1.00  0.00    -0.015 C 
HETATM   15  C19 UNL     1      -0.684  13.365  16.714  1.00  0.00     0.018 C 
HETATM   16  C20 UNL     1      -0.913  11.797  18.632  1.00  0.00     0.018 C 
HETATM   17  C21 UNL     1      -2.558  11.678  16.689  1.00  0.00     0.133 C 
HETATM   18  C27 UNL     1      -3.723  12.432  16.044  1.00  0.00     0.034 C 
HETATM   19  C28 UNL     1      -4.729  12.944  17.076  1.00  0.00     0.013 C 
HETATM   20  C29 UNL     1      -4.096  13.213  18.436  1.00  0.00    -0.025 A 
HETATM   21  C30 UNL     1      -4.474  12.261  19.543  1.00  0.00     0.021 A 
HETATM   22  C31 UNL     1      -4.987  13.687  19.617  1.00  0.00    -0.027 A 
HETATM   23  C32 UNL     1      -6.471  13.918  19.313  1.00  0.00     0.011 C 
HETATM   24  C33 UNL     1      -7.395  14.278  20.491  1.00  0.00     0.011 C 
HETATM   25  C34 UNL     1      -6.661  14.581  21.801  1.00  0.00    -0.030 C 
HETATM   26  C35 UNL     1      -6.367  13.221  22.503  1.00  0.00     0.016 C 
HETATM   27  O9  UNL     1      -6.206  15.636  24.932  1.00  0.00    -0.356 OA
ENDROOT
BRANCH  17  28
HETATM   28  O4  UNL     1      -3.035  10.570  17.458  1.00  0.00    -0.353 OA
BRANCH  28  29
HETATM   29  C22 UNL     1      -2.810   9.286  16.868  1.00  0.00     0.291 C 
HETATM   30  O5  UNL     1      -1.471   9.196  16.367  1.00  0.00    -0.356 OA
HETATM   31  C23 UNL     1      -1.141   7.857  15.962  1.00  0.00     0.205 C 
HETATM   32  C24 UNL     1      -2.304   7.133  15.260  1.00  0.00     0.173 C 
HETATM   33  C25 UNL     1      -3.268   8.154  14.629  1.00  0.00     0.182 C 
HETATM   34  C26 UNL     1      -3.790   9.162  15.674  1.00  0.00     0.204 C 
BRANCH  32  35
HETATM   35  O6  UNL     1      -2.974   6.320  16.229  1.00  0.00    -0.391 OA
HETATM   36  H39 UNL     1      -3.832   6.045  15.858  1.00  0.00     0.210 HD
ENDBRANCH  32  35
BRANCH  33  37
HETATM   37  O7  UNL     1      -2.621   8.845  13.552  1.00  0.00    -0.390 OA
HETATM   38  H41 UNL     1      -1.901   9.390  13.933  1.00  0.00     0.210 HD
ENDBRANCH  33  37
BRANCH  34  39
HETATM   39  O8  UNL     1      -5.093   8.763  16.133  1.00  0.00    -0.388 OA
HETATM   40  H43 UNL     1      -5.729   9.218  15.551  1.00  0.00     0.210 HD
ENDBRANCH  34  39
ENDBRANCH  28  29
ENDBRANCH  17  28
BRANCH  12  41
HETATM   41  O2  UNL     1      -0.910  15.104  19.290  1.00  0.00    -0.316 OA
BRANCH  41  42
HETATM   42  C15 UNL     1       0.025  15.200  20.277  1.00  0.00     0.255 C 
HETATM   43  C16 UNL     1       1.166  14.272  19.986  1.00  0.00     0.126 C 
HETATM   44  O3  UNL     1      -0.025  15.945  21.246  1.00  0.00    -0.266 OA
ENDBRANCH  41  42
ENDBRANCH  12  41
BRANCH   1  45
HETATM   45  O1  UNL     1      -7.250  17.244  26.319  1.00  0.00    -0.362 OA
BRANCH  45  46
HETATM   46  C2  UNL     1      -7.086  17.215  27.733  1.00  0.00     0.166 C 
HETATM   47  C1  UNL     1      -6.150  16.112  28.199  1.00  0.00     0.033 C 
ENDBRANCH  45  46
ENDBRANCH   1  45
TORSDOF 9
ENDMDL
MODEL 9
REMARK minimizedAffinity -6.57672119
REMARK CNNscore 0.275201797
REMARK CNNaffinity 5.89278173
REMARK  9 active torsions:
REMARK  status: ('A' for Active; 'I' for Inactive)
REMARK    1  A    between atoms: C2_2  and  O1_3 
REMARK    2  A    between atoms: O1_3  and  C3_4 
REMARK    3  A    between atoms: C14_15  and  O2_16 
REMARK    4  A    between atoms: O2_16  and  C15_17 
REMARK    5  A    between atoms: C21_24  and  O4_25 
REMARK    6  A    between atoms: O4_25  and  C22_26 
REMARK    7  A    between atoms: C24_29  and  O6_30 
REMARK    8  A    between atoms: C25_31  and  O7_32 
REMARK    9  A    between atoms: C26_33  and  O8_34 
ROOT
HETATM    1  C3  UNL     1     -11.916   9.565  21.434  1.00  0.00     0.260 C 
HETATM    2  C4  UNL     1     -13.293  10.250  21.441  1.00  0.00     0.065 C 
HETATM    3  C5  UNL     1     -14.032   9.959  22.753  1.00  0.00    -0.007 C 
HETATM    4  C6  UNL     1     -15.332  10.753  22.836  1.00  0.00     0.010 C 
HETATM    5  C7  UNL     1     -14.270   8.435  22.826  1.00  0.00     0.027 C 
HETATM    6  C8  UNL     1     -13.068   7.644  22.234  1.00  0.00     0.130 C 
HETATM    7  C9  UNL     1     -12.891   6.383  23.102  1.00  0.00     0.042 C 
HETATM    8  C10 UNL     1     -14.215   6.251  23.881  1.00  0.00    -0.029 C 
HETATM    9  C11 UNL     1     -15.248   5.585  22.917  1.00  0.00     0.016 C 
HETATM   10  C12 UNL     1     -14.102   5.440  25.197  1.00  0.00     0.006 C 
HETATM   11  C13 UNL     1     -13.982   3.927  24.989  1.00  0.00     0.039 C 
HETATM   12  C14 UNL     1     -13.741   3.221  26.327  1.00  0.00     0.138 C 
HETATM   13  C17 UNL     1     -15.008   3.316  27.211  1.00  0.00     0.035 C 
HETATM   14  C18 UNL     1     -14.884   2.685  28.661  1.00  0.00    -0.015 C 
HETATM   15  C19 UNL     1     -15.168   1.160  28.579  1.00  0.00     0.018 C 
HETATM   16  C20 UNL     1     -13.473   2.846  29.269  1.00  0.00     0.018 C 
HETATM   17  C21 UNL     1     -15.952   3.307  29.642  1.00  0.00     0.133 C 
HETATM   18  C27 UNL     1     -17.246   3.637  28.893  1.00  0.00     0.034 C 
HETATM   19  C28 UNL     1     -17.042   4.706  27.819  1.00  0.00     0.013 C 
HETATM   20  C29 UNL     1     -15.623   4.721  27.261  1.00  0.00    -0.025 A 
HETATM   21  C30 UNL     1     -14.774   5.907  27.640  1.00  0.00     0.021 A 
HETATM   22  C31 UNL     1     -15.228   5.782  26.198  1.00  0.00    -0.027 A 
HETATM   23  C32 UNL     1     -16.335   6.730  25.723  1.00  0.00     0.011 C 
HETATM   24  C33 UNL     1     -15.942   7.861  24.756  1.00  0.00     0.011 C 
HETATM   25  C34 UNL     1     -14.514   7.759  24.210  1.00  0.00    -0.030 C 
HETATM   26  C35 UNL     1     -13.558   8.388  25.268  1.00  0.00     0.016 C 
HETATM   27  O9  UNL     1     -11.874   8.416  22.281  1.00  0.00    -0.356 OA
ENDROOT
BRANCH  17  28
HETATM   28  O4  UNL     1     -15.409   4.479  30.255  1.00  0.00    -0.353 OA
BRANCH  28  29
HETATM   29  C22 UNL     1     -15.728   4.638  31.641  1.00  0.00     0.291 C 
HETATM   30  O5  UNL     1     -16.698   5.678  31.812  1.00  0.00    -0.356 OA
HETATM   31  C23 UNL     1     -17.201   5.723  33.158  1.00  0.00     0.205 C 
HETATM   32  C24 UNL     1     -16.117   5.462  34.219  1.00  0.00     0.173 C 
HETATM   33  C25 UNL     1     -14.727   5.823  33.664  1.00  0.00     0.182 C 
HETATM   34  C26 UNL     1     -14.422   5.060  32.358  1.00  0.00     0.204 C 
BRANCH  32  35
HETATM   35  O6  UNL     1     -16.181   4.082  34.593  1.00  0.00    -0.391 OA
HETATM   36  H39 UNL     1     -15.367   3.858  35.081  1.00  0.00     0.210 HD
ENDBRANCH  32  35
BRANCH  33  37
HETATM   37  O7  UNL     1     -14.633   7.238  33.448  1.00  0.00    -0.390 OA
HETATM   38  H41 UNL     1     -15.253   7.474  32.728  1.00  0.00     0.210 HD
ENDBRANCH  33  37
BRANCH  34  39
HETATM   39  O8  UNL     1     -13.608   3.909  32.641  1.00  0.00    -0.388 OA
HETATM   40  H43 UNL     1     -12.686   4.207  32.543  1.00  0.00     0.210 HD
ENDBRANCH  34  39
ENDBRANCH  28  29
ENDBRANCH  17  28
BRANCH  12  41
HETATM   41  O2  UNL     1     -13.468   1.830  26.055  1.00  0.00    -0.316 OA
BRANCH  41  42
HETATM   42  C15 UNL     1     -12.177   1.428  26.220  1.00  0.00     0.255 C 
HETATM   43  C16 UNL     1     -11.563   1.134  24.885  1.00  0.00     0.126 C 
HETATM   44  O3  UNL     1     -11.581   1.341  27.285  1.00  0.00    -0.266 OA
ENDBRANCH  41  42
ENDBRANCH  12  41
BRANCH   1  45
HETATM   45  O1  UNL     1     -11.578   9.243  20.083  1.00  0.00    -0.362 OA
BRANCH  45  46
HETATM   46  C2  UNL     1     -11.685  10.341  19.183  1.00  0.00     0.166 C 
HETATM   47  C1  UNL     1     -11.184  10.014  17.786  1.00  0.00     0.033 C 
ENDBRANCH  45  46
ENDBRANCH   1  45
TORSDOF 9
ENDMDL
