MODEL 1
REMARK minimizedAffinity -9.77111149
REMARK CNNscore 0.697822571
REMARK CNNaffinity 6.92189074
REMARK  8 active torsions:
REMARK  status: ('A' for Active; 'I' for Inactive)
REMARK    1  A    between atoms: C2_2  and  C30_35 
REMARK    2  A    between atoms: C3_3  and  C4_4 
REMARK    3  A    between atoms: C4_4  and  O1_5 
REMARK    4  A    between atoms: C4_4  and  C5_6 
REMARK    5  A    between atoms: C5_6  and  C6_7 
REMARK    6  A    between atoms: C6_7  and  C8_9 
REMARK    7  A    between atoms: C29_33  and  O5_34 
REMARK    8  A    between atoms: C30_35  and  O7_37 
ROOT
HETATM    1  C8  UNL     1      -5.615   7.987  14.973  1.00  0.00     0.006 C 
HETATM    2  C9  UNL     1      -5.095   9.333  15.538  1.00  0.00     0.085 C 
HETATM    3  C10 UNL     1      -3.727   9.477  14.898  1.00  0.00     0.140 C 
HETATM    4  O2  UNL     1      -3.007  10.456  15.062  1.00  0.00    -0.297 OA
HETATM    5  C11 UNL     1      -3.407   8.296  13.972  1.00  0.00     0.051 C 
HETATM    6  C12 UNL     1      -3.873   8.803  12.577  1.00  0.00     0.029 C 
HETATM    7  C13 UNL     1      -2.008   7.729  13.779  1.00  0.00    -0.024 C 
HETATM    8  C14 UNL     1      -1.855   6.491  13.236  1.00  0.00     0.003 C 
HETATM    9  C15 UNL     1      -3.097   5.629  13.048  1.00  0.00     0.157 C 
HETATM   10  O3  UNL     1      -3.050   4.580  12.405  1.00  0.00    -0.293 OA
HETATM   11  C16 UNL     1      -4.435   6.047  13.657  1.00  0.00     0.094 C 
HETATM   12  C17 UNL     1      -4.303   7.199  14.653  1.00  0.00    -0.015 C 
HETATM   13  C18 UNL     1      -3.667   6.639  15.961  1.00  0.00     0.018 C 
HETATM   14  C19 UNL     1      -0.489   5.897  12.829  1.00  0.00    -0.008 C 
HETATM   15  C20 UNL     1      -0.136   4.818  13.890  1.00  0.00     0.021 C 
HETATM   16  C21 UNL     1      -0.536   5.203  11.431  1.00  0.00     0.022 C 
HETATM   17  C22 UNL     1       0.801   5.188  10.708  1.00  0.00     0.080 C 
HETATM   18  C23 UNL     1       1.277   6.596  10.429  1.00  0.00     0.135 C 
HETATM   19  O4  UNL     1       1.968   6.827   9.435  1.00  0.00    -0.297 OA
HETATM   20  C24 UNL     1       0.894   7.692  11.442  1.00  0.00     0.018 C 
HETATM   21  C25 UNL     1      -0.300   8.464  10.859  1.00  0.00     0.023 C 
HETATM   22  C26 UNL     1       2.084   8.674  11.526  1.00  0.00     0.023 C 
HETATM   23  C27 UNL     1       0.656   6.987  12.824  1.00  0.00     0.016 C 
HETATM   24  C28 UNL     1       0.518   7.917  14.037  1.00  0.00     0.043 C 
HETATM   25  C29 UNL     1      -0.840   8.598  14.165  1.00  0.00     0.149 C 
ENDROOT
BRANCH   1  26
HETATM   26  C6  UNL     1      -6.785   7.380  15.812  1.00  0.00    -0.011 C 
HETATM   27  C7  UNL     1      -6.780   5.858  15.984  1.00  0.00     0.010 C 
BRANCH  26  28
HETATM   28  C5  UNL     1      -8.159   7.896  15.310  1.00  0.00     0.040 C 
BRANCH  28  29
HETATM   29  C4  UNL     1      -9.046   6.927  14.504  1.00  0.00     0.142 C 
BRANCH  29  30
HETATM   30  C3  UNL     1      -8.350   5.691  14.012  1.00  0.00     0.018 C 
HETATM   31  C2  UNL     1      -8.319   5.236  12.740  1.00  0.00     0.010 C 
HETATM   32  C1  UNL     1      -8.973   5.888  11.559  1.00  0.00     0.055 C 
BRANCH  31  33
HETATM   33  C30 UNL     1      -7.547   3.989  12.505  1.00  0.00     0.171 C 
HETATM   34  O6  UNL     1      -6.451   3.902  11.981  1.00  0.00    -0.646 OA
BRANCH  33  35
HETATM   35  O7  UNL     1      -8.202   2.896  12.929  1.00  0.00    -0.773 OA
HETATM   36  H42 UNL     1      -7.587   2.162  12.723  1.00  0.00     0.167 HD
ENDBRANCH  33  35
ENDBRANCH  31  33
ENDBRANCH  29  30
BRANCH  29  37
HETATM   37  O1  UNL     1     -10.190   6.557  15.265  1.00  0.00    -0.392 OA
HETATM   38  H6  UNL     1      -9.933   5.859  15.892  1.00  0.00     0.210 HD
ENDBRANCH  29  37
ENDBRANCH  28  29
ENDBRANCH  26  28
ENDBRANCH   1  26
BRANCH  25  39
HETATM   39  O5  UNL     1      -0.965   8.931  15.545  1.00  0.00    -0.391 OA
HETATM   40  H41 UNL     1      -1.387   9.819  15.575  1.00  0.00     0.210 HD
ENDBRANCH  25  39
TORSDOF 8
ENDMDL
MODEL 2
REMARK minimizedAffinity -8.64425182
REMARK CNNscore 0.545565784
REMARK CNNaffinity 6.45084238
REMARK  8 active torsions:
REMARK  status: ('A' for Active; 'I' for Inactive)
REMARK    1  A    between atoms: C2_2  and  C30_35 
REMARK    2  A    between atoms: C3_3  and  C4_4 
REMARK    3  A    between atoms: C4_4  and  O1_5 
REMARK    4  A    between atoms: C4_4  and  C5_6 
REMARK    5  A    between atoms: C5_6  and  C6_7 
REMARK    6  A    between atoms: C6_7  and  C8_9 
REMARK    7  A    between atoms: C29_33  and  O5_34 
REMARK    8  A    between atoms: C30_35  and  O7_37 
ROOT
HETATM    1  C8  UNL     1      -0.477  10.965  17.988  1.00  0.00     0.006 C 
HETATM    2  C9  UNL     1      -1.847  11.608  18.319  1.00  0.00     0.085 C 
HETATM    3  C10 UNL     1      -2.830  10.766  17.527  1.00  0.00     0.140 C 
HETATM    4  O2  UNL     1      -4.044  10.935  17.566  1.00  0.00    -0.297 OA
HETATM    5  C11 UNL     1      -2.122   9.649  16.750  1.00  0.00     0.051 C 
HETATM    6  C12 UNL     1      -2.203   8.437  17.723  1.00  0.00     0.029 C 
HETATM    7  C13 UNL     1      -2.583   9.142  15.392  1.00  0.00    -0.024 C 
HETATM    8  C14 UNL     1      -1.728   8.418  14.620  1.00  0.00     0.003 C 
HETATM    9  C15 UNL     1      -0.268   8.333  15.050  1.00  0.00     0.157 C 
HETATM   10  O3  UNL     1       0.511   7.555  14.498  1.00  0.00    -0.293 OA
HETATM   11  C16 UNL     1       0.264   9.215  16.178  1.00  0.00     0.094 C 
HETATM   12  C17 UNL     1      -0.712  10.319  16.583  1.00  0.00    -0.015 C 
HETATM   13  C18 UNL     1      -0.699  11.410  15.470  1.00  0.00     0.018 C 
HETATM   14  C19 UNL     1      -2.145   7.705  13.315  1.00  0.00    -0.008 C 
HETATM   15  C20 UNL     1      -1.551   8.533  12.142  1.00  0.00     0.021 C 
HETATM   16  C21 UNL     1      -1.572   6.255  13.222  1.00  0.00     0.022 C 
HETATM   17  C22 UNL     1      -2.412   5.316  12.372  1.00  0.00     0.080 C 
HETATM   18  C23 UNL     1      -3.795   5.153  12.960  1.00  0.00     0.135 C 
HETATM   19  O4  UNL     1      -4.409   4.094  12.806  1.00  0.00    -0.297 OA
HETATM   20  C24 UNL     1      -4.399   6.354  13.711  1.00  0.00     0.018 C 
HETATM   21  C25 UNL     1      -4.221   6.097  15.216  1.00  0.00     0.023 C 
HETATM   22  C26 UNL     1      -5.916   6.364  13.419  1.00  0.00     0.023 C 
HETATM   23  C27 UNL     1      -3.716   7.649  13.144  1.00  0.00     0.016 C 
HETATM   24  C28 UNL     1      -4.349   8.982  13.565  1.00  0.00     0.043 C 
HETATM   25  C29 UNL     1      -4.002   9.433  14.979  1.00  0.00     0.149 C 
ENDROOT
BRANCH   1  26
HETATM   26  C6  UNL     1       0.733  11.903  18.298  1.00  0.00    -0.011 C 
HETATM   27  C7  UNL     1       1.860  11.926  17.261  1.00  0.00     0.010 C 
BRANCH  26  28
HETATM   28  C5  UNL     1       1.277  11.660  19.730  1.00  0.00     0.040 C 
BRANCH  28  29
HETATM   29  C4  UNL     1       2.409  10.629  19.909  1.00  0.00     0.142 C 
BRANCH  29  30
HETATM   30  C3  UNL     1       2.372   9.865  21.200  1.00  0.00     0.018 C 
HETATM   31  C2  UNL     1       2.977  10.211  22.358  1.00  0.00     0.010 C 
HETATM   32  C1  UNL     1       3.804  11.440  22.583  1.00  0.00     0.055 C 
BRANCH  31  33
HETATM   33  C30 UNL     1       2.779   9.290  23.507  1.00  0.00     0.171 C 
HETATM   34  O6  UNL     1       2.620   8.084  23.451  1.00  0.00    -0.646 OA
BRANCH  33  35
HETATM   35  O7  UNL     1       2.774   9.936  24.685  1.00  0.00    -0.773 OA
HETATM   36  H42 UNL     1       2.644   9.221  25.342  1.00  0.00     0.167 HD
ENDBRANCH  33  35
ENDBRANCH  31  33
ENDBRANCH  29  30
BRANCH  29  37
HETATM   37  O1  UNL     1       2.421   9.716  18.818  1.00  0.00    -0.392 OA
HETATM   38  H6  UNL     1       1.735   9.044  18.967  1.00  0.00     0.210 HD
ENDBRANCH  29  37
ENDBRANCH  28  29
ENDBRANCH  26  28
ENDBRANCH   1  26
BRANCH  25  39
HETATM   39  O5  UNL     1      -4.187  10.847  14.978  1.00  0.00    -0.391 OA
HETATM   40  H41 UNL     1      -4.598  11.068  15.843  1.00  0.00     0.210 HD
ENDBRANCH  25  39
TORSDOF 8
ENDMDL
MODEL 3
REMARK minimizedAffinity -9.01425171
REMARK CNNscore 0.532232285
REMARK CNNaffinity 6.68143606
REMARK  8 active torsions:
REMARK  status: ('A' for Active; 'I' for Inactive)
REMARK    1  A    between atoms: C2_2  and  C30_35 
REMARK    2  A    between atoms: C3_3  and  C4_4 
REMARK    3  A    between atoms: C4_4  and  O1_5 
REMARK    4  A    between atoms: C4_4  and  C5_6 
REMARK    5  A    between atoms: C5_6  and  C6_7 
REMARK    6  A    between atoms: C6_7  and  C8_9 
REMARK    7  A    between atoms: C29_33  and  O5_34 
REMARK    8  A    between atoms: C30_35  and  O7_37 
ROOT
HETATM    1  C8  UNL     1      -5.312   7.805  14.262  1.00  0.00     0.006 C 
HETATM    2  C9  UNL     1      -4.871   8.951  15.208  1.00  0.00     0.085 C 
HETATM    3  C10 UNL     1      -3.385   9.081  14.932  1.00  0.00     0.140 C 
HETATM    4  O2  UNL     1      -2.674   9.929  15.460  1.00  0.00    -0.297 OA
HETATM    5  C11 UNL     1      -2.916   8.083  13.865  1.00  0.00     0.051 C 
HETATM    6  C12 UNL     1      -3.012   8.904  12.547  1.00  0.00     0.029 C 
HETATM    7  C13 UNL     1      -1.543   7.428  13.866  1.00  0.00    -0.024 C 
HETATM    8  C14 UNL     1      -1.330   6.315  13.113  1.00  0.00     0.003 C 
HETATM    9  C15 UNL     1      -2.536   5.638  12.473  1.00  0.00     0.157 C 
HETATM   10  O3  UNL     1      -2.392   4.739  11.643  1.00  0.00    -0.293 OA
HETATM   11  C16 UNL     1      -3.956   6.058  12.849  1.00  0.00     0.094 C 
HETATM   12  C17 UNL     1      -4.003   6.969  14.075  1.00  0.00    -0.015 C 
HETATM   13  C18 UNL     1      -3.726   6.097  15.337  1.00  0.00     0.018 C 
HETATM   14  C19 UNL     1       0.061   5.679  12.898  1.00  0.00    -0.008 C 
HETATM   15  C20 UNL     1       0.096   4.379  13.750  1.00  0.00     0.021 C 
HETATM   16  C21 UNL     1       0.310   5.287  11.407  1.00  0.00     0.022 C 
HETATM   17  C22 UNL     1       1.777   5.282  11.011  1.00  0.00     0.080 C 
HETATM   18  C23 UNL     1       2.378   6.661  11.158  1.00  0.00     0.135 C 
HETATM   19  O4  UNL     1       3.297   7.015  10.416  1.00  0.00    -0.297 OA
HETATM   20  C24 UNL     1       1.824   7.566  12.275  1.00  0.00     0.018 C 
HETATM   21  C25 UNL     1       0.844   8.556  11.627  1.00  0.00     0.023 C 
HETATM   22  C26 UNL     1       3.010   8.386  12.832  1.00  0.00     0.023 C 
HETATM   23  C27 UNL     1       1.229   6.627  13.384  1.00  0.00     0.016 C 
HETATM   24  C28 UNL     1       0.856   7.305  14.709  1.00  0.00     0.043 C 
HETATM   25  C29 UNL     1      -0.456   8.080  14.679  1.00  0.00     0.149 C 
ENDROOT
BRANCH   1  26
HETATM   26  C6  UNL     1      -6.677   7.164  14.670  1.00  0.00    -0.011 C 
HETATM   27  C7  UNL     1      -6.727   6.484  16.041  1.00  0.00     0.010 C 
BRANCH  26  28
HETATM   28  C5  UNL     1      -7.215   6.236  13.549  1.00  0.00     0.040 C 
BRANCH  28  29
HETATM   29  C4  UNL     1      -8.596   5.582  13.752  1.00  0.00     0.142 C 
BRANCH  29  30
HETATM   30  C3  UNL     1      -9.748   6.339  13.158  1.00  0.00     0.018 C 
HETATM   31  C2  UNL     1     -10.487   7.291  13.770  1.00  0.00     0.010 C 
HETATM   32  C1  UNL     1     -10.293   7.788  15.170  1.00  0.00     0.055 C 
BRANCH  31  33
HETATM   33  C30 UNL     1     -11.572   7.905  12.961  1.00  0.00     0.171 C 
HETATM   34  O6  UNL     1     -11.541   8.991  12.411  1.00  0.00    -0.646 OA
BRANCH  33  35
HETATM   35  O7  UNL     1     -12.662   7.123  12.893  1.00  0.00    -0.773 OA
HETATM   36  H42 UNL     1     -13.282   7.636  12.335  1.00  0.00     0.167 HD
ENDBRANCH  33  35
ENDBRANCH  31  33
ENDBRANCH  29  30
BRANCH  29  37
HETATM   37  O1  UNL     1      -8.591   4.252  13.247  1.00  0.00    -0.392 OA
HETATM   38  H6  UNL     1      -8.707   4.286  12.281  1.00  0.00     0.210 HD
ENDBRANCH  29  37
ENDBRANCH  28  29
ENDBRANCH  26  28
ENDBRANCH   1  26
BRANCH  25  39
HETATM   39  O5  UNL     1      -0.887   8.140  16.037  1.00  0.00    -0.391 OA
HETATM   40  H41 UNL     1      -1.256   9.042  16.165  1.00  0.00     0.210 HD
ENDBRANCH  25  39
TORSDOF 8
ENDMDL
MODEL 4
REMARK minimizedAffinity -8.34110546
REMARK CNNscore 0.528530717
REMARK CNNaffinity 6.1090703
REMARK  8 active torsions:
REMARK  status: ('A' for Active; 'I' for Inactive)
REMARK    1  A    between atoms: C2_2  and  C30_35 
REMARK    2  A    between atoms: C3_3  and  C4_4 
REMARK    3  A    between atoms: C4_4  and  O1_5 
REMARK    4  A    between atoms: C4_4  and  C5_6 
REMARK    5  A    between atoms: C5_6  and  C6_7 
REMARK    6  A    between atoms: C6_7  and  C8_9 
REMARK    7  A    between atoms: C29_33  and  O5_34 
REMARK    8  A    between atoms: C30_35  and  O7_37 
ROOT
HETATM    1  C8  UNL     1       1.081  12.062  17.996  1.00  0.00     0.006 C 
HETATM    2  C9  UNL     1       0.110  13.173  17.522  1.00  0.00     0.085 C 
HETATM    3  C10 UNL     1      -0.892  12.422  16.666  1.00  0.00     0.140 C 
HETATM    4  O2  UNL     1      -1.863  12.956  16.141  1.00  0.00    -0.297 OA
HETATM    5  C11 UNL     1      -0.579  10.921  16.612  1.00  0.00     0.051 C 
HETATM    6  C12 UNL     1      -1.450  10.337  17.761  1.00  0.00     0.029 C 
HETATM    7  C13 UNL     1      -0.834  10.048  15.392  1.00  0.00    -0.024 C 
HETATM    8  C14 UNL     1      -0.220   8.837  15.293  1.00  0.00     0.003 C 
HETATM    9  C15 UNL     1       0.872   8.500  16.301  1.00  0.00     0.157 C 
HETATM   10  O3  UNL     1       1.338   7.362  16.374  1.00  0.00    -0.293 OA
HETATM   11  C16 UNL     1       1.417   9.570  17.246  1.00  0.00     0.094 C 
HETATM   12  C17 UNL     1       0.969  10.982  16.871  1.00  0.00    -0.015 C 
HETATM   13  C18 UNL     1       1.767  11.423  15.606  1.00  0.00     0.018 C 
HETATM   14  C19 UNL     1      -0.544   7.799  14.197  1.00  0.00    -0.008 C 
HETATM   15  C20 UNL     1       0.648   7.814  13.200  1.00  0.00     0.021 C 
HETATM   16  C21 UNL     1      -0.678   6.353  14.770  1.00  0.00     0.022 C 
HETATM   17  C22 UNL     1      -1.586   5.450  13.951  1.00  0.00     0.080 C 
HETATM   18  C23 UNL     1      -2.997   5.992  13.923  1.00  0.00     0.135 C 
HETATM   19  O4  UNL     1      -3.953   5.217  13.833  1.00  0.00    -0.297 OA
HETATM   20  C24 UNL     1      -3.177   7.521  13.974  1.00  0.00     0.018 C 
HETATM   21  C25 UNL     1      -3.545   7.896  15.418  1.00  0.00     0.023 C 
HETATM   22  C26 UNL     1      -4.389   7.871  13.081  1.00  0.00     0.023 C 
HETATM   23  C27 UNL     1      -1.863   8.164  13.404  1.00  0.00     0.016 C 
HETATM   24  C28 UNL     1      -1.921   9.671  13.121  1.00  0.00     0.043 C 
HETATM   25  C29 UNL     1      -1.803  10.555  14.357  1.00  0.00     0.149 C 
ENDROOT
BRANCH   1  26
HETATM   26  C6  UNL     1       2.450  12.618  18.505  1.00  0.00    -0.011 C 
HETATM   27  C7  UNL     1       3.052  13.777  17.706  1.00  0.00     0.010 C 
BRANCH  26  28
HETATM   28  C5  UNL     1       3.474  11.473  18.716  1.00  0.00     0.040 C 
BRANCH  28  29
HETATM   29  C4  UNL     1       4.020  11.244  20.140  1.00  0.00     0.142 C 
BRANCH  29  30
HETATM   30  C3  UNL     1       3.384  10.110  20.888  1.00  0.00     0.018 C 
HETATM   31  C2  UNL     1       3.086  10.080  22.206  1.00  0.00     0.010 C 
HETATM   32  C1  UNL     1       3.328  11.189  23.185  1.00  0.00     0.055 C 
BRANCH  31  33
HETATM   33  C30 UNL     1       2.443   8.839  22.709  1.00  0.00     0.171 C 
HETATM   34  O6  UNL     1       1.877   7.993  22.041  1.00  0.00    -0.646 OA
BRANCH  33  35
HETATM   35  O7  UNL     1       2.530   8.724  24.045  1.00  0.00    -0.773 OA
HETATM   36  H42 UNL     1       2.082   7.875  24.235  1.00  0.00     0.167 HD
ENDBRANCH  33  35
ENDBRANCH  31  33
ENDBRANCH  29  30
BRANCH  29  37
HETATM   37  O1  UNL     1       5.430  11.057  20.103  1.00  0.00    -0.392 OA
HETATM   38  H6  UNL     1       5.614  10.138  19.844  1.00  0.00     0.210 HD
ENDBRANCH  29  37
ENDBRANCH  28  29
ENDBRANCH  26  28
ENDBRANCH   1  26
BRANCH  25  39
HETATM   39  O5  UNL     1      -1.329  11.811  13.876  1.00  0.00    -0.391 OA
HETATM   40  H41 UNL     1      -1.813  12.498  14.386  1.00  0.00     0.210 HD
ENDBRANCH  25  39
TORSDOF 8
ENDMDL
MODEL 5
REMARK minimizedAffinity -7.4991169
REMARK CNNscore 0.447313279
REMARK CNNaffinity 6.35059786
REMARK  8 active torsions:
REMARK  status: ('A' for Active; 'I' for Inactive)
REMARK    1  A    between atoms: C2_2  and  C30_35 
REMARK    2  A    between atoms: C3_3  and  C4_4 
REMARK    3  A    between atoms: C4_4  and  O1_5 
REMARK    4  A    between atoms: C4_4  and  C5_6 
REMARK    5  A    between atoms: C5_6  and  C6_7 
REMARK    6  A    between atoms: C6_7  and  C8_9 
REMARK    7  A    between atoms: C29_33  and  O5_34 
REMARK    8  A    between atoms: C30_35  and  O7_37 
ROOT
HETATM    1  C8  UNL     1       1.616   7.859  12.391  1.00  0.00     0.006 C 
HETATM    2  C9  UNL     1       1.374   7.073  13.705  1.00  0.00     0.085 C 
HETATM    3  C10 UNL     1       2.453   7.598  14.633  1.00  0.00     0.140 C 
HETATM    4  O2  UNL     1       2.563   7.247  15.803  1.00  0.00    -0.297 OA
HETATM    5  C11 UNL     1       3.320   8.662  13.949  1.00  0.00     0.051 C 
HETATM    6  C12 UNL     1       2.627   9.996  14.354  1.00  0.00     0.029 C 
HETATM    7  C13 UNL     1       4.805   8.847  14.224  1.00  0.00    -0.024 C 
HETATM    8  C14 UNL     1       5.567   9.554  13.347  1.00  0.00     0.003 C 
HETATM    9  C15 UNL     1       4.950   9.943  12.009  1.00  0.00     0.157 C 
HETATM   10  O3  UNL     1       5.522  10.728  11.251  1.00  0.00    -0.293 OA
HETATM   11  C16 UNL     1       3.604   9.365  11.574  1.00  0.00     0.094 C 
HETATM   12  C17 UNL     1       3.139   8.207  12.457  1.00  0.00    -0.015 C 
HETATM   13  C18 UNL     1       4.002   6.956  12.108  1.00  0.00     0.018 C 
HETATM   14  C19 UNL     1       7.034   9.955  13.615  1.00  0.00    -0.008 C 
HETATM   15  C20 UNL     1       7.919   9.042  12.723  1.00  0.00     0.021 C 
HETATM   16  C21 UNL     1       7.324  11.440  13.226  1.00  0.00     0.022 C 
HETATM   17  C22 UNL     1       8.458  12.071  14.017  1.00  0.00     0.080 C 
HETATM   18  C23 UNL     1       8.126  12.112  15.491  1.00  0.00     0.135 C 
HETATM   19  O4  UNL     1       8.575  13.016  16.199  1.00  0.00    -0.297 OA
HETATM   20  C24 UNL     1       7.252  10.977  16.058  1.00  0.00     0.018 C 
HETATM   21  C25 UNL     1       5.818  11.515  16.183  1.00  0.00     0.023 C 
HETATM   22  C26 UNL     1       7.760  10.676  17.486  1.00  0.00     0.023 C 
HETATM   23  C27 UNL     1       7.445   9.729  15.125  1.00  0.00     0.016 C 
HETATM   24  C28 UNL     1       6.870   8.406  15.646  1.00  0.00     0.043 C 
HETATM   25  C29 UNL     1       5.359   8.266  15.498  1.00  0.00     0.149 C 
ENDROOT
BRANCH   1  26
HETATM   26  C6  UNL     1       0.951   7.193  11.144  1.00  0.00    -0.011 C 
HETATM   27  C7  UNL     1       0.632   8.119   9.968  1.00  0.00     0.010 C 
BRANCH  26  28
HETATM   28  C5  UNL     1      -0.279   6.342  11.555  1.00  0.00     0.040 C 
BRANCH  28  29
HETATM   29  C4  UNL     1      -0.099   4.815  11.665  1.00  0.00     0.142 C 
BRANCH  29  30
HETATM   30  C3  UNL     1      -1.272   4.004  11.199  1.00  0.00     0.018 C 
HETATM   31  C2  UNL     1      -2.486   3.931  11.788  1.00  0.00     0.010 C 
HETATM   32  C1  UNL     1      -2.905   4.661  13.029  1.00  0.00     0.055 C 
BRANCH  31  33
HETATM   33  C30 UNL     1      -3.492   3.063  11.123  1.00  0.00     0.171 C 
HETATM   34  O6  UNL     1      -4.032   2.082  11.600  1.00  0.00    -0.646 OA
BRANCH  33  35
HETATM   35  O7  UNL     1      -3.763   3.463   9.869  1.00  0.00    -0.773 OA
HETATM   36  H42 UNL     1      -4.432   2.820   9.559  1.00  0.00     0.167 HD
ENDBRANCH  33  35
ENDBRANCH  31  33
ENDBRANCH  29  30
BRANCH  29  37
HETATM   37  O1  UNL     1       1.069   4.405  10.964  1.00  0.00    -0.392 OA
HETATM   38  H6  UNL     1       0.860   4.350  10.016  1.00  0.00     0.210 HD
ENDBRANCH  29  37
ENDBRANCH  28  29
ENDBRANCH  26  28
ENDBRANCH   1  26
BRANCH  25  39
HETATM   39  O5  UNL     1       5.109   6.863  15.497  1.00  0.00    -0.391 OA
HETATM   40  H41 UNL     1       4.289   6.732  16.023  1.00  0.00     0.210 HD
ENDBRANCH  25  39
TORSDOF 8
ENDMDL
MODEL 6
REMARK minimizedAffinity -7.3453269
REMARK CNNscore 0.445584446
REMARK CNNaffinity 5.7053566
REMARK  8 active torsions:
REMARK  status: ('A' for Active; 'I' for Inactive)
REMARK    1  A    between atoms: C2_2  and  C30_35 
REMARK    2  A    between atoms: C3_3  and  C4_4 
REMARK    3  A    between atoms: C4_4  and  O1_5 
REMARK    4  A    between atoms: C4_4  and  C5_6 
REMARK    5  A    between atoms: C5_6  and  C6_7 
REMARK    6  A    between atoms: C6_7  and  C8_9 
REMARK    7  A    between atoms: C29_33  and  O5_34 
REMARK    8  A    between atoms: C30_35  and  O7_37 
ROOT
HETATM    1  C8  UNL     1     -16.888   3.708  14.933  1.00  0.00     0.006 C 
HETATM    2  C9  UNL     1     -17.249   3.753  13.426  1.00  0.00     0.085 C 
HETATM    3  C10 UNL     1     -17.522   2.300  13.087  1.00  0.00     0.140 C 
HETATM    4  O2  UNL     1     -17.892   1.926  11.979  1.00  0.00    -0.297 OA
HETATM    5  C11 UNL     1     -17.355   1.391  14.311  1.00  0.00     0.051 C 
HETATM    6  C12 UNL     1     -18.798   1.302  14.885  1.00  0.00     0.029 C 
HETATM    7  C13 UNL     1     -16.832  -0.036  14.238  1.00  0.00    -0.024 C 
HETATM    8  C14 UNL     1     -16.385  -0.646  15.370  1.00  0.00     0.003 C 
HETATM    9  C15 UNL     1     -16.217   0.202  16.625  1.00  0.00     0.157 C 
HETATM   10  O3  UNL     1     -15.989  -0.320  17.717  1.00  0.00    -0.293 OA
HETATM   11  C16 UNL     1     -16.328   1.724  16.558  1.00  0.00     0.094 C 
HETATM   12  C17 UNL     1     -16.331   2.259  15.126  1.00  0.00    -0.015 C 
HETATM   13  C18 UNL     1     -14.880   2.151  14.566  1.00  0.00     0.018 C 
HETATM   14  C19 UNL     1     -16.005  -2.141  15.446  1.00  0.00    -0.008 C 
HETATM   15  C20 UNL     1     -14.454  -2.207  15.516  1.00  0.00     0.021 C 
HETATM   16  C21 UNL     1     -16.577  -2.834  16.723  1.00  0.00     0.022 C 
HETATM   17  C22 UNL     1     -16.813  -4.327  16.556  1.00  0.00     0.080 C 
HETATM   18  C23 UNL     1     -17.837  -4.592  15.476  1.00  0.00     0.135 C 
HETATM   19  O4  UNL     1     -18.566  -5.584  15.548  1.00  0.00    -0.297 OA
HETATM   20  C24 UNL     1     -17.898  -3.607  14.294  1.00  0.00     0.018 C 
HETATM   21  C25 UNL     1     -19.077  -2.653  14.546  1.00  0.00     0.023 C 
HETATM   22  C26 UNL     1     -18.230  -4.429  13.028  1.00  0.00     0.023 C 
HETATM   23  C27 UNL     1     -16.482  -2.940  14.168  1.00  0.00     0.016 C 
HETATM   24  C28 UNL     1     -16.238  -2.117  12.896  1.00  0.00     0.043 C 
HETATM   25  C29 UNL     1     -16.875  -0.732  12.903  1.00  0.00     0.149 C 
ENDROOT
BRANCH   1  26
HETATM   26  C6  UNL     1     -16.126   4.982  15.421  1.00  0.00    -0.011 C 
HETATM   27  C7  UNL     1     -16.823   5.820  16.496  1.00  0.00     0.010 C 
BRANCH  26  28
HETATM   28  C5  UNL     1     -15.667   5.852  14.222  1.00  0.00     0.040 C 
BRANCH  28  29
HETATM   29  C4  UNL     1     -14.244   6.443  14.260  1.00  0.00     0.142 C 
BRANCH  29  30
HETATM   30  C3  UNL     1     -14.084   7.754  13.548  1.00  0.00     0.018 C 
HETATM   31  C2  UNL     1     -12.958   8.222  12.964  1.00  0.00     0.010 C 
HETATM   32  C1  UNL     1     -11.639   7.512  12.906  1.00  0.00     0.055 C 
BRANCH  31  33
HETATM   33  C30 UNL     1     -13.058   9.551  12.308  1.00  0.00     0.171 C 
HETATM   34  O6  UNL     1     -13.958  10.360  12.441  1.00  0.00    -0.646 OA
BRANCH  33  35
HETATM   35  O7  UNL     1     -12.018   9.798  11.494  1.00  0.00    -0.773 OA
HETATM   36  H42 UNL     1     -12.206  10.692  11.141  1.00  0.00     0.167 HD
ENDBRANCH  33  35
ENDBRANCH  31  33
ENDBRANCH  29  30
BRANCH  29  37
HETATM   37  O1  UNL     1     -13.801   6.577  15.605  1.00  0.00    -0.392 OA
HETATM   38  H6  UNL     1     -14.188   7.386  15.981  1.00  0.00     0.210 HD
ENDBRANCH  29  37
ENDBRANCH  28  29
ENDBRANCH  26  28
ENDBRANCH   1  26
BRANCH  25  39
HETATM   39  O5  UNL     1     -16.116   0.036  11.973  1.00  0.00    -0.391 OA
HETATM   40  H41 UNL     1     -16.763   0.593  11.486  1.00  0.00     0.210 HD
ENDBRANCH  25  39
TORSDOF 8
ENDMDL
MODEL 7
REMARK minimizedAffinity -9.78130722
REMARK CNNscore 0.380677909
REMARK CNNaffinity 6.48443604
REMARK  8 active torsions:
REMARK  status: ('A' for Active; 'I' for Inactive)
REMARK    1  A    between atoms: C2_2  and  C30_35 
REMARK    2  A    between atoms: C3_3  and  C4_4 
REMARK    3  A    between atoms: C4_4  and  O1_5 
REMARK    4  A    between atoms: C4_4  and  C5_6 
REMARK    5  A    between atoms: C5_6  and  C6_7 
REMARK    6  A    between atoms: C6_7  and  C8_9 
REMARK    7  A    between atoms: C29_33  and  O5_34 
REMARK    8  A    between atoms: C30_35  and  O7_37 
ROOT
HETATM    1  C8  UNL     1      -5.583   7.594  14.405  1.00  0.00     0.006 C 
HETATM    2  C9  UNL     1      -5.204   8.822  15.271  1.00  0.00     0.085 C 
HETATM    3  C10 UNL     1      -3.751   9.070  14.912  1.00  0.00     0.140 C 
HETATM    4  O2  UNL     1      -3.096  10.004  15.363  1.00  0.00    -0.297 OA
HETATM    5  C11 UNL     1      -3.244   8.064  13.870  1.00  0.00     0.051 C 
HETATM    6  C12 UNL     1      -3.478   8.805  12.522  1.00  0.00     0.029 C 
HETATM    7  C13 UNL     1      -1.818   7.535  13.830  1.00  0.00    -0.024 C 
HETATM    8  C14 UNL     1      -1.540   6.409  13.119  1.00  0.00     0.003 C 
HETATM    9  C15 UNL     1      -2.708   5.595  12.575  1.00  0.00     0.157 C 
HETATM   10  O3  UNL     1      -2.522   4.672  11.782  1.00  0.00    -0.293 OA
HETATM   11  C16 UNL     1      -4.141   5.906  13.005  1.00  0.00     0.094 C 
HETATM   12  C17 UNL     1      -4.213   6.870  14.189  1.00  0.00    -0.015 C 
HETATM   13  C18 UNL     1      -3.797   6.091  15.473  1.00  0.00     0.018 C 
HETATM   14  C19 UNL     1      -0.109   5.889  12.862  1.00  0.00    -0.008 C 
HETATM   15  C20 UNL     1       0.086   4.643  13.770  1.00  0.00     0.021 C 
HETATM   16  C21 UNL     1       0.104   5.445  11.380  1.00  0.00     0.022 C 
HETATM   17  C22 UNL     1       1.545   5.551  10.908  1.00  0.00     0.080 C 
HETATM   18  C23 UNL     1       2.022   6.985  10.959  1.00  0.00     0.135 C 
HETATM   19  O4  UNL     1       2.868   7.381  10.154  1.00  0.00    -0.297 OA
HETATM   20  C24 UNL     1       1.442   7.892  12.060  1.00  0.00     0.018 C 
HETATM   21  C25 UNL     1       0.345   8.756  11.419  1.00  0.00     0.023 C 
HETATM   22  C26 UNL     1       2.573   8.842  12.516  1.00  0.00     0.023 C 
HETATM   23  C27 UNL     1       0.990   6.961  13.241  1.00  0.00     0.016 C 
HETATM   24  C28 UNL     1       0.620   7.670  14.551  1.00  0.00     0.043 C 
HETATM   25  C29 UNL     1      -0.758   8.322  14.554  1.00  0.00     0.149 C 
ENDROOT
BRANCH   1  26
HETATM   26  C6  UNL     1      -6.862   6.855  14.912  1.00  0.00    -0.011 C 
HETATM   27  C7  UNL     1      -6.654   5.813  16.014  1.00  0.00     0.010 C 
BRANCH  26  28
HETATM   28  C5  UNL     1      -7.683   6.281  13.727  1.00  0.00     0.040 C 
BRANCH  28  29
HETATM   29  C4  UNL     1      -7.742   4.750  13.563  1.00  0.00     0.142 C 
BRANCH  29  30
HETATM   30  C3  UNL     1      -6.732   4.175  12.613  1.00  0.00     0.018 C 
HETATM   31  C2  UNL     1      -6.649   2.889  12.207  1.00  0.00     0.010 C 
HETATM   32  C1  UNL     1      -7.561   1.776  12.624  1.00  0.00     0.055 C 
BRANCH  31  33
HETATM   33  C30 UNL     1      -5.561   2.570  11.246  1.00  0.00     0.171 C 
HETATM   34  O6  UNL     1      -5.060   3.331  10.439  1.00  0.00    -0.646 OA
BRANCH  33  35
HETATM   35  O7  UNL     1      -5.161   1.290  11.334  1.00  0.00    -0.773 OA
HETATM   36  H42 UNL     1      -4.451   1.222  10.664  1.00  0.00     0.167 HD
ENDBRANCH  33  35
ENDBRANCH  31  33
ENDBRANCH  29  30
BRANCH  29  37
HETATM   37  O1  UNL     1      -7.619   4.113  14.829  1.00  0.00    -0.392 OA
HETATM   38  H6  UNL     1      -6.678   4.088  15.073  1.00  0.00     0.210 HD
ENDBRANCH  29  37
ENDBRANCH  28  29
ENDBRANCH  26  28
ENDBRANCH   1  26
BRANCH  25  39
HETATM   39  O5  UNL     1      -1.127   8.413  15.928  1.00  0.00    -0.391 OA
HETATM   40  H41 UNL     1      -1.571   9.284  16.034  1.00  0.00     0.210 HD
ENDBRANCH  25  39
TORSDOF 8
ENDMDL
MODEL 8
REMARK minimizedAffinity -7.50355577
REMARK CNNscore 0.33729285
REMARK CNNaffinity 5.98842669
REMARK  8 active torsions:
REMARK  status: ('A' for Active; 'I' for Inactive)
REMARK    1  A    between atoms: C2_2  and  C30_35 
REMARK    2  A    between atoms: C3_3  and  C4_4 
REMARK    3  A    between atoms: C4_4  and  O1_5 
REMARK    4  A    between atoms: C4_4  and  C5_6 
REMARK    5  A    between atoms: C5_6  and  C6_7 
REMARK    6  A    between atoms: C6_7  and  C8_9 
REMARK    7  A    between atoms: C29_33  and  O5_34 
REMARK    8  A    between atoms: C30_35  and  O7_37 
ROOT
HETATM    1  C8  UNL     1       1.898  10.337  17.102  1.00  0.00     0.006 C 
HETATM    2  C9  UNL     1       0.535  10.683  17.754  1.00  0.00     0.085 C 
HETATM    3  C10 UNL     1      -0.448   9.806  17.003  1.00  0.00     0.140 C 
HETATM    4  O2  UNL     1      -1.644   9.757  17.266  1.00  0.00    -0.297 OA
HETATM    5  C11 UNL     1       0.255   8.946  15.944  1.00  0.00     0.051 C 
HETATM    6  C12 UNL     1       0.533   7.614  16.699  1.00  0.00     0.029 C 
HETATM    7  C13 UNL     1      -0.374   8.563  14.613  1.00  0.00    -0.024 C 
HETATM    8  C14 UNL     1       0.416   8.111  13.602  1.00  0.00     0.003 C 
HETATM    9  C15 UNL     1       1.928   8.218  13.768  1.00  0.00     0.157 C 
HETATM   10  O3  UNL     1       2.693   7.670  12.974  1.00  0.00    -0.293 OA
HETATM   11  C16 UNL     1       2.530   9.011  14.927  1.00  0.00     0.094 C 
HETATM   12  C17 UNL     1       1.499   9.864  15.665  1.00  0.00    -0.015 C 
HETATM   13  C18 UNL     1       1.146  11.086  14.764  1.00  0.00     0.018 C 
HETATM   14  C19 UNL     1      -0.131   7.528  12.281  1.00  0.00    -0.008 C 
HETATM   15  C20 UNL     1       0.107   8.602  11.183  1.00  0.00     0.021 C 
HETATM   16  C21 UNL     1       0.617   6.225  11.853  1.00  0.00     0.022 C 
HETATM   17  C22 UNL     1      -0.225   5.285  11.005  1.00  0.00     0.080 C 
HETATM   18  C23 UNL     1      -1.435   4.807  11.774  1.00  0.00     0.135 C 
HETATM   19  O4  UNL     1      -1.909   3.691  11.546  1.00  0.00    -0.297 OA
HETATM   20  C24 UNL     1      -2.053   5.770  12.805  1.00  0.00     0.018 C 
HETATM   21  C25 UNL     1      -1.563   5.338  14.195  1.00  0.00     0.023 C 
HETATM   22  C26 UNL     1      -3.584   5.561  12.768  1.00  0.00     0.023 C 
HETATM   23  C27 UNL     1      -1.682   7.229  12.360  1.00  0.00     0.016 C 
HETATM   24  C28 UNL     1      -2.410   8.362  13.097  1.00  0.00     0.043 C 
HETATM   25  C29 UNL     1      -1.872   8.663  14.491  1.00  0.00     0.149 C 
ENDROOT
BRANCH   1  26
HETATM   26  C6  UNL     1       2.997  11.416  17.365  1.00  0.00    -0.011 C 
HETATM   27  C7  UNL     1       4.024  11.626  16.248  1.00  0.00     0.010 C 
BRANCH  26  28
HETATM   28  C5  UNL     1       3.680  11.193  18.739  1.00  0.00     0.040 C 
BRANCH  28  29
HETATM   29  C4  UNL     1       2.912  11.620  20.006  1.00  0.00     0.142 C 
BRANCH  29  30
HETATM   30  C3  UNL     1       2.526  10.495  20.921  1.00  0.00     0.018 C 
HETATM   31  C2  UNL     1       3.207  10.070  22.008  1.00  0.00     0.010 C 
HETATM   32  C1  UNL     1       4.490  10.651  22.522  1.00  0.00     0.055 C 
BRANCH  31  33
HETATM   33  C30 UNL     1       2.607   8.939  22.762  1.00  0.00     0.171 C 
HETATM   34  O6  UNL     1       2.690   8.741  23.960  1.00  0.00    -0.646 OA
BRANCH  33  35
HETATM   35  O7  UNL     1       1.936   8.092  21.963  1.00  0.00    -0.773 OA
HETATM   36  H42 UNL     1       1.593   7.413  22.580  1.00  0.00     0.167 HD
ENDBRANCH  33  35
ENDBRANCH  31  33
ENDBRANCH  29  30
BRANCH  29  37
HETATM   37  O1  UNL     1       3.660  12.588  20.733  1.00  0.00    -0.392 OA
HETATM   38  H6  UNL     1       4.340  12.127  21.254  1.00  0.00     0.210 HD
ENDBRANCH  29  37
ENDBRANCH  28  29
ENDBRANCH  26  28
ENDBRANCH   1  26
BRANCH  25  39
HETATM   39  O5  UNL     1      -2.255  10.010  14.758  1.00  0.00    -0.391 OA
HETATM   40  H41 UNL     1      -2.524  10.034  15.703  1.00  0.00     0.210 HD
ENDBRANCH  25  39
TORSDOF 8
ENDMDL
MODEL 9
REMARK minimizedAffinity -7.96878242
REMARK CNNscore 0.335212797
REMARK CNNaffinity 6.25728989
REMARK  8 active torsions:
REMARK  status: ('A' for Active; 'I' for Inactive)
REMARK    1  A    between atoms: C2_2  and  C30_35 
REMARK    2  A    between atoms: C3_3  and  C4_4 
REMARK    3  A    between atoms: C4_4  and  O1_5 
REMARK    4  A    between atoms: C4_4  and  C5_6 
REMARK    5  A    between atoms: C5_6  and  C6_7 
REMARK    6  A    between atoms: C6_7  and  C8_9 
REMARK    7  A    between atoms: C29_33  and  O5_34 
REMARK    8  A    between atoms: C30_35  and  O7_37 
ROOT
HETATM    1  C8  UNL     1       3.863   7.022  11.838  1.00  0.00     0.006 C 
HETATM    2  C9  UNL     1       4.879   6.925  10.672  1.00  0.00     0.085 C 
HETATM    3  C10 UNL     1       6.144   7.523  11.259  1.00  0.00     0.140 C 
HETATM    4  O2  UNL     1       7.206   7.582  10.648  1.00  0.00    -0.297 OA
HETATM    5  C11 UNL     1       5.942   7.961  12.715  1.00  0.00     0.051 C 
HETATM    6  C12 UNL     1       6.412   6.718  13.526  1.00  0.00     0.029 C 
HETATM    7  C13 UNL     1       6.629   9.167  13.338  1.00  0.00    -0.024 C 
HETATM    8  C14 UNL     1       6.144   9.692  14.495  1.00  0.00     0.003 C 
HETATM    9  C15 UNL     1       4.798   9.190  15.005  1.00  0.00     0.157 C 
HETATM   10  O3  UNL     1       4.392   9.492  16.127  1.00  0.00    -0.293 OA
HETATM   11  C16 UNL     1       3.918   8.297  14.131  1.00  0.00     0.094 C 
HETATM   12  C17 UNL     1       4.394   8.227  12.680  1.00  0.00    -0.015 C 
HETATM   13  C18 UNL     1       4.038   9.578  11.988  1.00  0.00     0.018 C 
HETATM   14  C19 UNL     1       6.863  10.792  15.305  1.00  0.00    -0.008 C 
HETATM   15  C20 UNL     1       6.069  12.108  15.078  1.00  0.00     0.021 C 
HETATM   16  C21 UNL     1       6.872  10.492  16.838  1.00  0.00     0.022 C 
HETATM   17  C22 UNL     1       8.044  11.115  17.578  1.00  0.00     0.080 C 
HETATM   18  C23 UNL     1       9.357  10.568  17.065  1.00  0.00     0.135 C 
HETATM   19  O4  UNL     1      10.325  10.478  17.823  1.00  0.00    -0.297 OA
HETATM   20  C24 UNL     1       9.432  10.171  15.578  1.00  0.00     0.018 C 
HETATM   21  C25 UNL     1       9.283   8.644  15.498  1.00  0.00     0.023 C 
HETATM   22  C26 UNL     1      10.852  10.525  15.080  1.00  0.00     0.023 C 
HETATM   23  C27 UNL     1       8.350  11.015  14.815  1.00  0.00     0.016 C 
HETATM   24  C28 UNL     1       8.423  10.972  13.283  1.00  0.00     0.043 C 
HETATM   25  C29 UNL     1       7.859   9.703  12.654  1.00  0.00     0.149 C 
ENDROOT
BRANCH   1  26
HETATM   26  C6  UNL     1       2.377   6.904  11.370  1.00  0.00    -0.011 C 
HETATM   27  C7  UNL     1       2.035   7.549  10.024  1.00  0.00     0.010 C 
BRANCH  26  28
HETATM   28  C5  UNL     1       1.401   7.355  12.487  1.00  0.00     0.040 C 
BRANCH  28  29
HETATM   29  C4  UNL     1       0.723   6.265  13.340  1.00  0.00     0.142 C 
BRANCH  29  30
HETATM   30  C3  UNL     1       0.337   5.023  12.590  1.00  0.00     0.018 C 
HETATM   31  C2  UNL     1      -0.911   4.665  12.214  1.00  0.00     0.010 C 
HETATM   32  C1  UNL     1      -2.163   5.448  12.467  1.00  0.00     0.055 C 
BRANCH  31  33
HETATM   33  C30 UNL     1      -1.032   3.387  11.466  1.00  0.00     0.171 C 
HETATM   34  O6  UNL     1      -2.044   2.933  10.965  1.00  0.00    -0.646 OA
BRANCH  33  35
HETATM   35  O7  UNL     1       0.135   2.724  11.395  1.00  0.00    -0.773 OA
HETATM   36  H42 UNL     1      -0.084   1.921  10.879  1.00  0.00     0.167 HD
ENDBRANCH  33  35
ENDBRANCH  31  33
ENDBRANCH  29  30
BRANCH  29  37
HETATM   37  O1  UNL     1       1.550   5.916  14.443  1.00  0.00    -0.392 OA
HETATM   38  H6  UNL     1       2.237   5.300  14.134  1.00  0.00     0.210 HD
ENDBRANCH  29  37
ENDBRANCH  28  29
ENDBRANCH  26  28
ENDBRANCH   1  26
BRANCH  25  39
HETATM   39  O5  UNL     1       7.508  10.068  11.322  1.00  0.00    -0.391 OA
HETATM   40  H41 UNL     1       7.762   9.306  10.755  1.00  0.00     0.210 HD
ENDBRANCH  25  39
TORSDOF 8
ENDMDL
