MODEL 1
REMARK minimizedAffinity -9.01747322
REMARK CNNscore 0.708038747
REMARK CNNaffinity 7.81839132
REMARK  13 active torsions:
REMARK  status: ('A' for Active; 'I' for Inactive)
REMARK    1  A    between atoms: C19_21  and  O3_22 
REMARK    2  A    between atoms: C19_21  and  C20_23 
REMARK    3  A    between atoms: C20_23  and  C21_25 
REMARK    4  A    between atoms: C21_25  and  O5_26 
REMARK    5  A    between atoms: O5_26  and  C22_27 
REMARK    6  A    between atoms: C22_27  and  C23_29 
REMARK    7  A    between atoms: C23_29  and  C24_30 
REMARK    8  A    between atoms: C24_30  and  C25_31 
REMARK       I    between atoms: C25_31  and  N1_33 
REMARK    9  A    between atoms: N1_33  and  C26_34 
REMARK   10  A    between atoms: C26_34  and  C27_35 
REMARK   11  A    between atoms: C27_35  and  C28_36 
REMARK   12  A    between atoms: C31_39  and  O8_40 
REMARK   13  A    between atoms: C32_41  and  O9_42 
ROOT
HETATM    1  C20 UNL     1      -3.470   6.972  14.172  1.00  0.00     0.185 C 
HETATM    2  O4  UNL     1      -3.797   6.229  13.234  1.00  0.00    -0.292 OA
ENDROOT
BRANCH   1   3
HETATM    3  C19 UNL     1      -1.962   7.265  14.415  1.00  0.00     0.128 C 
HETATM    4  C14 UNL     1      -1.190   7.973  13.249  1.00  0.00     0.005 C 
HETATM    5  C13 UNL     1      -0.047   8.896  13.754  1.00  0.00     0.091 C 
HETATM    6  C15 UNL     1      -2.132   8.866  12.415  1.00  0.00     0.019 C 
HETATM    7  C16 UNL     1      -0.632   6.786  12.403  1.00  0.00     0.002 C 
HETATM    8  C12 UNL     1       1.245   8.154  13.996  1.00  0.00     0.133 C 
HETATM    9  C11 UNL     1       1.851   7.397  12.819  1.00  0.00     0.072 C 
HETATM   10  O2  UNL     1       1.826   8.199  15.080  1.00  0.00    -0.297 OA
HETATM   11  C2  UNL     1       3.133   8.106  12.244  1.00  0.00    -0.009 C 
HETATM   12  C10 UNL     1       0.771   7.006  11.777  1.00  0.00     0.003 C 
HETATM   13  C1  UNL     1       3.094   9.647  12.370  1.00  0.00     0.021 C 
HETATM   14  C3  UNL     1       4.354   7.581  13.060  1.00  0.00     0.022 C 
HETATM   15  C7  UNL     1       3.306   7.784  10.757  1.00  0.00    -0.067 C 
HETATM   16  C4  UNL     1       5.701   7.877  12.412  1.00  0.00     0.084 C 
HETATM   17  C5  UNL     1       5.726   7.320  11.013  1.00  0.00     0.149 C 
HETATM   18  O1  UNL     1       6.750   6.872  10.496  1.00  0.00    -0.293 OA
HETATM   19  C6  UNL     1       4.476   7.393  10.217  1.00  0.00     0.053 C 
HETATM   20  C8  UNL     1       2.105   7.958   9.854  1.00  0.00     0.035 C 
HETATM   21  C9  UNL     1       0.760   7.964  10.584  1.00  0.00     0.010 C 
HETATM   22  C17 UNL     1      -0.631   5.552  13.341  1.00  0.00     0.009 C 
HETATM   23  C18 UNL     1      -1.139   6.015  14.699  1.00  0.00     0.047 C 
BRANCH   3  24
HETATM   24  O3  UNL     1      -1.939   8.072  15.601  1.00  0.00    -0.381 OA
HETATM   25  H25 UNL     1      -2.706   8.676  15.543  1.00  0.00     0.211 HD
ENDBRANCH   3  24
ENDBRANCH   1   3
BRANCH   1  26
HETATM   26  C21 UNL     1      -4.520   7.596  15.092  1.00  0.00     0.260 C 
BRANCH  26  27
HETATM   27  O5  UNL     1      -5.232   6.627  15.863  1.00  0.00    -0.314 OA
BRANCH  27  28
HETATM   28  C22 UNL     1      -6.586   6.774  15.834  1.00  0.00     0.259 C 
HETATM   29  O6  UNL     1      -7.251   7.270  16.734  1.00  0.00    -0.265 OA
BRANCH  28  30
HETATM   30  C23 UNL     1      -7.132   6.231  14.537  1.00  0.00     0.120 C 
BRANCH  30  31
HETATM   31  C24 UNL     1      -7.762   4.859  14.742  1.00  0.00     0.112 C 
BRANCH  31  32
HETATM   32  C25 UNL     1      -7.369   3.891  13.644  1.00  0.00     0.218 C 
HETATM   33  O7  UNL     1      -8.115   3.015  13.219  1.00  0.00    -0.274 OA
HETATM   34  N1  UNL     1      -6.107   4.128  13.145  1.00  0.00    -0.361 N 
HETATM   35  H32 UNL     1      -5.497   4.745  13.671  1.00  0.00     0.162 HD
BRANCH  34  36
HETATM   36  C26 UNL     1      -5.476   3.217  12.210  1.00  0.00     0.127 C 
BRANCH  36  37
HETATM   37  C27 UNL     1      -4.289   3.851  11.469  1.00  0.00     0.058 C 
BRANCH  37  38
HETATM   38  C28 UNL     1      -3.123   2.898  11.325  1.00  0.00    -0.054 A 
HETATM   39  C29 UNL     1      -3.339   1.509  11.367  1.00  0.00     0.010 A 
HETATM   40  C30 UNL     1      -2.269   0.616  11.284  1.00  0.00     0.040 A 
HETATM   41  C31 UNL     1      -0.984   1.116  11.150  1.00  0.00     0.098 A 
HETATM   42  C32 UNL     1      -0.753   2.489  11.097  1.00  0.00     0.099 A 
HETATM   43  C33 UNL     1      -1.813   3.387  11.186  1.00  0.00     0.046 A 
BRANCH  41  44
HETATM   44  O8  UNL     1       0.068   0.246  11.077  1.00  0.00    -0.358 OA
HETATM   45  H39 UNL     1       0.853   0.822  10.989  1.00  0.00     0.217 HD
ENDBRANCH  41  44
BRANCH  42  46
HETATM   46  O9  UNL     1       0.540   2.911  10.965  1.00  0.00    -0.358 OA
HETATM   47  H40 UNL     1       0.538   3.877  10.864  1.00  0.00     0.217 HD
ENDBRANCH  42  46
ENDBRANCH  37  38
ENDBRANCH  36  37
ENDBRANCH  34  36
ENDBRANCH  31  32
ENDBRANCH  30  31
ENDBRANCH  28  30
ENDBRANCH  27  28
ENDBRANCH  26  27
ENDBRANCH   1  26
TORSDOF 13
ENDMDL
MODEL 2
REMARK minimizedAffinity -9.85410881
REMARK CNNscore 0.693902612
REMARK CNNaffinity 7.41999197
REMARK  13 active torsions:
REMARK  status: ('A' for Active; 'I' for Inactive)
REMARK    1  A    between atoms: C19_21  and  O3_22 
REMARK    2  A    between atoms: C19_21  and  C20_23 
REMARK    3  A    between atoms: C20_23  and  C21_25 
REMARK    4  A    between atoms: C21_25  and  O5_26 
REMARK    5  A    between atoms: O5_26  and  C22_27 
REMARK    6  A    between atoms: C22_27  and  C23_29 
REMARK    7  A    between atoms: C23_29  and  C24_30 
REMARK    8  A    between atoms: C24_30  and  C25_31 
REMARK       I    between atoms: C25_31  and  N1_33 
REMARK    9  A    between atoms: N1_33  and  C26_34 
REMARK   10  A    between atoms: C26_34  and  C27_35 
REMARK   11  A    between atoms: C27_35  and  C28_36 
REMARK   12  A    between atoms: C31_39  and  O8_40 
REMARK   13  A    between atoms: C32_41  and  O9_42 
ROOT
HETATM    1  C20 UNL     1      -3.088   8.588  15.650  1.00  0.00     0.185 C 
HETATM    2  O4  UNL     1      -3.149   9.736  16.114  1.00  0.00    -0.292 OA
ENDROOT
BRANCH   1   3
HETATM    3  C19 UNL     1      -1.712   8.034  15.180  1.00  0.00     0.128 C 
HETATM    4  C14 UNL     1      -1.112   8.667  13.877  1.00  0.00     0.005 C 
HETATM    5  C13 UNL     1       0.442   8.698  13.882  1.00  0.00     0.091 C 
HETATM    6  C15 UNL     1      -1.575  10.127  13.699  1.00  0.00     0.019 C 
HETATM    7  C16 UNL     1      -1.659   7.751  12.738  1.00  0.00     0.002 C 
HETATM    8  C12 UNL     1       1.058   7.409  13.394  1.00  0.00     0.133 C 
HETATM    9  C11 UNL     1       0.685   6.939  11.993  1.00  0.00     0.072 C 
HETATM   10  O2  UNL     1       1.875   6.785  14.070  1.00  0.00    -0.297 OA
HETATM   11  C2  UNL     1       1.861   7.121  10.964  1.00  0.00    -0.009 C 
HETATM   12  C10 UNL     1      -0.692   7.500  11.551  1.00  0.00     0.003 C 
HETATM   13  C1  UNL     1       2.764   8.339  11.269  1.00  0.00     0.021 C 
HETATM   14  C3  UNL     1       2.740   5.834  11.036  1.00  0.00     0.022 C 
HETATM   15  C7  UNL     1       1.314   7.315   9.548  1.00  0.00    -0.067 C 
HETATM   16  C4  UNL     1       3.702   5.679   9.865  1.00  0.00     0.084 C 
HETATM   17  C5  UNL     1       2.937   5.719   8.569  1.00  0.00     0.149 C 
HETATM   18  O1  UNL     1       3.273   5.067   7.581  1.00  0.00    -0.293 OA
HETATM   19  C6  UNL     1       1.784   6.648   8.476  1.00  0.00     0.053 C 
HETATM   20  C8  UNL     1       0.220   8.339   9.349  1.00  0.00     0.035 C 
HETATM   21  C9  UNL     1      -0.541   8.709  10.625  1.00  0.00     0.010 C 
HETATM   22  C17 UNL     1      -2.061   6.416  13.414  1.00  0.00     0.009 C 
HETATM   23  C18 UNL     1      -1.726   6.538  14.894  1.00  0.00     0.047 C 
BRANCH   3  24
HETATM   24  O3  UNL     1      -0.838   8.249  16.296  1.00  0.00    -0.381 OA
HETATM   25  H25 UNL     1      -1.080   9.117  16.680  1.00  0.00     0.211 HD
ENDBRANCH   3  24
ENDBRANCH   1   3
BRANCH   1  26
HETATM   26  C21 UNL     1      -4.337   7.716  15.524  1.00  0.00     0.260 C 
BRANCH  26  27
HETATM   27  O5  UNL     1      -5.537   8.406  15.879  1.00  0.00    -0.314 OA
BRANCH  27  28
HETATM   28  C22 UNL     1      -6.526   8.323  14.945  1.00  0.00     0.259 C 
HETATM   29  O6  UNL     1      -6.342   8.095  13.757  1.00  0.00    -0.265 OA
BRANCH  28  30
HETATM   30  C23 UNL     1      -7.865   8.562  15.596  1.00  0.00     0.120 C 
BRANCH  30  31
HETATM   31  C24 UNL     1      -8.341   7.320  16.339  1.00  0.00     0.112 C 
BRANCH  31  32
HETATM   32  C25 UNL     1      -7.857   6.048  15.672  1.00  0.00     0.218 C 
HETATM   33  O7  UNL     1      -6.977   5.335  16.142  1.00  0.00    -0.274 OA
HETATM   34  N1  UNL     1      -8.538   5.757  14.511  1.00  0.00    -0.361 N 
HETATM   35  H32 UNL     1      -9.114   6.486  14.104  1.00  0.00     0.162 HD
BRANCH  34  36
HETATM   36  C26 UNL     1      -8.120   4.680  13.634  1.00  0.00     0.127 C 
BRANCH  36  37
HETATM   37  C27 UNL     1      -7.024   5.106  12.647  1.00  0.00     0.058 C 
BRANCH  37  38
HETATM   38  C28 UNL     1      -6.034   3.996  12.367  1.00  0.00    -0.054 A 
HETATM   39  C29 UNL     1      -4.687   4.143  12.744  1.00  0.00     0.010 A 
HETATM   40  C30 UNL     1      -3.751   3.151  12.452  1.00  0.00     0.040 A 
HETATM   41  C31 UNL     1      -4.166   2.008  11.788  1.00  0.00     0.098 A 
HETATM   42  C32 UNL     1      -5.498   1.842  11.416  1.00  0.00     0.099 A 
HETATM   43  C33 UNL     1      -6.439   2.830  11.698  1.00  0.00     0.046 A 
BRANCH  41  44
HETATM   44  O8  UNL     1      -3.251   1.037  11.491  1.00  0.00    -0.358 OA
HETATM   45  H39 UNL     1      -3.770   0.347  11.032  1.00  0.00     0.217 HD
ENDBRANCH  41  44
BRANCH  42  46
HETATM   46  O9  UNL     1      -5.837   0.690  10.763  1.00  0.00    -0.358 OA
HETATM   47  H40 UNL     1      -6.800   0.680  10.639  1.00  0.00     0.217 HD
ENDBRANCH  42  46
ENDBRANCH  37  38
ENDBRANCH  36  37
ENDBRANCH  34  36
ENDBRANCH  31  32
ENDBRANCH  30  31
ENDBRANCH  28  30
ENDBRANCH  27  28
ENDBRANCH  26  27
ENDBRANCH   1  26
TORSDOF 13
ENDMDL
MODEL 3
REMARK minimizedAffinity -8.96727848
REMARK CNNscore 0.507686615
REMARK CNNaffinity 7.16811371
REMARK  13 active torsions:
REMARK  status: ('A' for Active; 'I' for Inactive)
REMARK    1  A    between atoms: C19_21  and  O3_22 
REMARK    2  A    between atoms: C19_21  and  C20_23 
REMARK    3  A    between atoms: C20_23  and  C21_25 
REMARK    4  A    between atoms: C21_25  and  O5_26 
REMARK    5  A    between atoms: O5_26  and  C22_27 
REMARK    6  A    between atoms: C22_27  and  C23_29 
REMARK    7  A    between atoms: C23_29  and  C24_30 
REMARK    8  A    between atoms: C24_30  and  C25_31 
REMARK       I    between atoms: C25_31  and  N1_33 
REMARK    9  A    between atoms: N1_33  and  C26_34 
REMARK   10  A    between atoms: C26_34  and  C27_35 
REMARK   11  A    between atoms: C27_35  and  C28_36 
REMARK   12  A    between atoms: C31_39  and  O8_40 
REMARK   13  A    between atoms: C32_41  and  O9_42 
ROOT
HETATM    1  C20 UNL     1      -0.333   7.145  13.572  1.00  0.00     0.185 C 
HETATM    2  O4  UNL     1      -0.400   6.588  12.467  1.00  0.00    -0.292 OA
ENDROOT
BRANCH   1   3
HETATM    3  C19 UNL     1      -1.642   7.642  14.250  1.00  0.00     0.128 C 
HETATM    4  C14 UNL     1      -2.789   6.586  14.415  1.00  0.00     0.005 C 
HETATM    5  C13 UNL     1      -3.659   6.830  15.678  1.00  0.00     0.091 C 
HETATM    6  C15 UNL     1      -2.220   5.158  14.548  1.00  0.00     0.019 C 
HETATM    7  C16 UNL     1      -3.626   6.746  13.107  1.00  0.00     0.002 C 
HETATM    8  C12 UNL     1      -4.772   7.823  15.443  1.00  0.00     0.133 C 
HETATM    9  C11 UNL     1      -5.774   7.505  14.339  1.00  0.00     0.072 C 
HETATM   10  O2  UNL     1      -4.908   8.823  16.147  1.00  0.00    -0.297 OA
HETATM   11  C2  UNL     1      -7.175   7.067  14.906  1.00  0.00    -0.009 C 
HETATM   12  C10 UNL     1      -5.160   6.572  13.263  1.00  0.00     0.003 C 
HETATM   13  C1  UNL     1      -7.087   6.314  16.255  1.00  0.00     0.021 C 
HETATM   14  C3  UNL     1      -8.009   8.367  15.129  1.00  0.00     0.022 C 
HETATM   15  C7  UNL     1      -7.889   6.137  13.922  1.00  0.00    -0.067 C 
HETATM   16  C4  UNL     1      -9.498   8.116  15.326  1.00  0.00     0.084 C 
HETATM   17  C5  UNL     1     -10.043   7.338  14.158  1.00  0.00     0.149 C 
HETATM   18  O1  UNL     1     -11.188   7.495  13.733  1.00  0.00    -0.293 OA
HETATM   19  C6  UNL     1      -9.178   6.291  13.562  1.00  0.00     0.053 C 
HETATM   20  C8  UNL     1      -7.109   4.967  13.365  1.00  0.00     0.035 C 
HETATM   21  C9  UNL     1      -5.589   5.117  13.462  1.00  0.00     0.010 C 
HETATM   22  C17 UNL     1      -3.284   8.149  12.546  1.00  0.00     0.009 C 
HETATM   23  C18 UNL     1      -2.306   8.799  13.514  1.00  0.00     0.047 C 
BRANCH   3  24
HETATM   24  O3  UNL     1      -1.220   8.134  15.530  1.00  0.00    -0.381 OA
HETATM   25  H25 UNL     1      -0.526   7.522  15.851  1.00  0.00     0.211 HD
ENDBRANCH   3  24
ENDBRANCH   1   3
BRANCH   1  26
HETATM   26  C21 UNL     1       1.010   7.358  14.273  1.00  0.00     0.260 C 
BRANCH  26  27
HETATM   27  O5  UNL     1       1.536   8.673  14.081  1.00  0.00    -0.314 OA
BRANCH  27  28
HETATM   28  C22 UNL     1       2.897   8.730  14.047  1.00  0.00     0.259 C 
HETATM   29  O6  UNL     1       3.615   7.888  13.523  1.00  0.00    -0.265 OA
BRANCH  28  30
HETATM   30  C23 UNL     1       3.374   9.972  14.756  1.00  0.00     0.120 C 
BRANCH  30  31
HETATM   31  C24 UNL     1       2.813  10.043  16.171  1.00  0.00     0.112 C 
BRANCH  31  32
HETATM   32  C25 UNL     1       3.536  11.077  17.010  1.00  0.00     0.218 C 
HETATM   33  O7  UNL     1       4.408  11.816  16.565  1.00  0.00    -0.274 OA
HETATM   34  N1  UNL     1       3.082  11.129  18.309  1.00  0.00    -0.361 N 
HETATM   35  H32 UNL     1       2.496  10.368  18.638  1.00  0.00     0.162 HD
BRANCH  34  36
HETATM   36  C26 UNL     1       3.750  11.929  19.318  1.00  0.00     0.127 C 
BRANCH  36  37
HETATM   37  C27 UNL     1       4.671  11.098  20.223  1.00  0.00     0.058 C 
BRANCH  37  38
HETATM   38  C28 UNL     1       3.938  10.514  21.412  1.00  0.00    -0.054 A 
HETATM   39  C29 UNL     1       4.167  11.028  22.701  1.00  0.00     0.010 A 
HETATM   40  C30 UNL     1       3.537  10.471  23.815  1.00  0.00     0.040 A 
HETATM   41  C31 UNL     1       2.672   9.403  23.635  1.00  0.00     0.098 A 
HETATM   42  C32 UNL     1       2.428   8.888  22.364  1.00  0.00     0.099 A 
HETATM   43  C33 UNL     1       3.056   9.433  21.248  1.00  0.00     0.046 A 
BRANCH  41  44
HETATM   44  O8  UNL     1       2.060   8.848  24.724  1.00  0.00    -0.358 OA
HETATM   45  H39 UNL     1       1.513   8.127  24.353  1.00  0.00     0.217 HD
ENDBRANCH  41  44
BRANCH  42  46
HETATM   46  O9  UNL     1       1.564   7.833  22.262  1.00  0.00    -0.358 OA
HETATM   47  H40 UNL     1       1.433   7.636  21.320  1.00  0.00     0.217 HD
ENDBRANCH  42  46
ENDBRANCH  37  38
ENDBRANCH  36  37
ENDBRANCH  34  36
ENDBRANCH  31  32
ENDBRANCH  30  31
ENDBRANCH  28  30
ENDBRANCH  27  28
ENDBRANCH  26  27
ENDBRANCH   1  26
TORSDOF 13
ENDMDL
MODEL 4
REMARK minimizedAffinity -9.80259514
REMARK CNNscore 0.495889306
REMARK CNNaffinity 7.69242668
REMARK  13 active torsions:
REMARK  status: ('A' for Active; 'I' for Inactive)
REMARK    1  A    between atoms: C19_21  and  O3_22 
REMARK    2  A    between atoms: C19_21  and  C20_23 
REMARK    3  A    between atoms: C20_23  and  C21_25 
REMARK    4  A    between atoms: C21_25  and  O5_26 
REMARK    5  A    between atoms: O5_26  and  C22_27 
REMARK    6  A    between atoms: C22_27  and  C23_29 
REMARK    7  A    between atoms: C23_29  and  C24_30 
REMARK    8  A    between atoms: C24_30  and  C25_31 
REMARK       I    between atoms: C25_31  and  N1_33 
REMARK    9  A    between atoms: N1_33  and  C26_34 
REMARK   10  A    between atoms: C26_34  and  C27_35 
REMARK   11  A    between atoms: C27_35  and  C28_36 
REMARK   12  A    between atoms: C31_39  and  O8_40 
REMARK   13  A    between atoms: C32_41  and  O9_42 
ROOT
HETATM    1  C20 UNL     1      -3.413   8.570  15.489  1.00  0.00     0.185 C 
HETATM    2  O4  UNL     1      -3.538   9.769  15.777  1.00  0.00    -0.292 OA
ENDROOT
BRANCH   1   3
HETATM    3  C19 UNL     1      -2.010   8.030  15.087  1.00  0.00     0.128 C 
HETATM    4  C14 UNL     1      -1.360   8.662  13.807  1.00  0.00     0.005 C 
HETATM    5  C13 UNL     1       0.191   8.714  13.882  1.00  0.00     0.091 C 
HETATM    6  C15 UNL     1      -1.834  10.115  13.597  1.00  0.00     0.019 C 
HETATM    7  C16 UNL     1      -1.843   7.731  12.652  1.00  0.00     0.002 C 
HETATM    8  C12 UNL     1       0.846   7.429  13.433  1.00  0.00     0.133 C 
HETATM    9  C11 UNL     1       0.542   6.944  12.020  1.00  0.00     0.072 C 
HETATM   10  O2  UNL     1       1.639   6.821  14.150  1.00  0.00    -0.297 OA
HETATM   11  C2  UNL     1       1.762   7.135  11.044  1.00  0.00    -0.009 C 
HETATM   12  C10 UNL     1      -0.820   7.484  11.512  1.00  0.00     0.003 C 
HETATM   13  C1  UNL     1       2.634   8.367  11.380  1.00  0.00     0.021 C 
HETATM   14  C3  UNL     1       2.653   5.860  11.166  1.00  0.00     0.022 C 
HETATM   15  C7  UNL     1       1.277   7.311   9.602  1.00  0.00    -0.067 C 
HETATM   16  C4  UNL     1       3.669   5.709  10.040  1.00  0.00     0.084 C 
HETATM   17  C5  UNL     1       2.963   5.730   8.711  1.00  0.00     0.149 C 
HETATM   18  O1  UNL     1       3.352   5.075   7.744  1.00  0.00    -0.293 OA
HETATM   19  C6  UNL     1       1.803   6.642   8.558  1.00  0.00     0.053 C 
HETATM   20  C8  UNL     1       0.179   8.319   9.347  1.00  0.00     0.035 C 
HETATM   21  C9  UNL     1      -0.643   8.688  10.584  1.00  0.00     0.010 C 
HETATM   22  C17 UNL     1      -2.258   6.395  13.320  1.00  0.00     0.009 C 
HETATM   23  C18 UNL     1      -1.991   6.533  14.812  1.00  0.00     0.047 C 
BRANCH   3  24
HETATM   24  O3  UNL     1      -1.190   8.265  16.239  1.00  0.00    -0.381 OA
HETATM   25  H25 UNL     1      -1.461   9.132  16.605  1.00  0.00     0.211 HD
ENDBRANCH   3  24
ENDBRANCH   1   3
BRANCH   1  26
HETATM   26  C21 UNL     1      -4.610   7.618  15.516  1.00  0.00     0.260 C 
BRANCH  26  27
HETATM   27  O5  UNL     1      -5.799   8.203  14.980  1.00  0.00    -0.314 OA
BRANCH  27  28
HETATM   28  C22 UNL     1      -6.952   7.635  15.430  1.00  0.00     0.259 C 
HETATM   29  O6  UNL     1      -8.047   8.182  15.417  1.00  0.00    -0.265 OA
BRANCH  28  30
HETATM   30  C23 UNL     1      -6.670   6.248  15.950  1.00  0.00     0.120 C 
BRANCH  30  31
HETATM   31  C24 UNL     1      -7.584   5.222  15.292  1.00  0.00     0.112 C 
BRANCH  31  32
HETATM   32  C25 UNL     1      -7.183   4.953  13.855  1.00  0.00     0.218 C 
HETATM   33  O7  UNL     1      -7.992   4.727  12.961  1.00  0.00    -0.274 OA
HETATM   34  N1  UNL     1      -5.824   5.033  13.653  1.00  0.00    -0.361 N 
HETATM   35  H32 UNL     1      -5.222   5.042  14.470  1.00  0.00     0.162 HD
BRANCH  34  36
HETATM   36  C26 UNL     1      -5.218   4.647  12.393  1.00  0.00     0.127 C 
BRANCH  36  37
HETATM   37  C27 UNL     1      -5.126   3.125  12.217  1.00  0.00     0.058 C 
BRANCH  37  38
HETATM   38  C28 UNL     1      -3.750   2.676  11.775  1.00  0.00    -0.054 A 
HETATM   39  C29 UNL     1      -3.457   1.304  11.669  1.00  0.00     0.010 A 
HETATM   40  C30 UNL     1      -2.181   0.872  11.311  1.00  0.00     0.040 A 
HETATM   41  C31 UNL     1      -1.198   1.814  11.050  1.00  0.00     0.098 A 
HETATM   42  C32 UNL     1      -1.474   3.176  11.141  1.00  0.00     0.099 A 
HETATM   43  C33 UNL     1      -2.744   3.618  11.504  1.00  0.00     0.046 A 
BRANCH  41  44
HETATM   44  O8  UNL     1       0.056   1.395  10.706  1.00  0.00    -0.358 OA
HETATM   45  H39 UNL     1       0.561   2.223  10.576  1.00  0.00     0.217 HD
ENDBRANCH  41  44
BRANCH  42  46
HETATM   46  O9  UNL     1      -0.457   4.049  10.871  1.00  0.00    -0.358 OA
HETATM   47  H40 UNL     1      -0.815   4.952  10.898  1.00  0.00     0.217 HD
ENDBRANCH  42  46
ENDBRANCH  37  38
ENDBRANCH  36  37
ENDBRANCH  34  36
ENDBRANCH  31  32
ENDBRANCH  30  31
ENDBRANCH  28  30
ENDBRANCH  27  28
ENDBRANCH  26  27
ENDBRANCH   1  26
TORSDOF 13
ENDMDL
MODEL 5
REMARK minimizedAffinity -9.42219925
REMARK CNNscore 0.481503159
REMARK CNNaffinity 7.69427156
REMARK  13 active torsions:
REMARK  status: ('A' for Active; 'I' for Inactive)
REMARK    1  A    between atoms: C19_21  and  O3_22 
REMARK    2  A    between atoms: C19_21  and  C20_23 
REMARK    3  A    between atoms: C20_23  and  C21_25 
REMARK    4  A    between atoms: C21_25  and  O5_26 
REMARK    5  A    between atoms: O5_26  and  C22_27 
REMARK    6  A    between atoms: C22_27  and  C23_29 
REMARK    7  A    between atoms: C23_29  and  C24_30 
REMARK    8  A    between atoms: C24_30  and  C25_31 
REMARK       I    between atoms: C25_31  and  N1_33 
REMARK    9  A    between atoms: N1_33  and  C26_34 
REMARK   10  A    between atoms: C26_34  and  C27_35 
REMARK   11  A    between atoms: C27_35  and  C28_36 
REMARK   12  A    between atoms: C31_39  and  O8_40 
REMARK   13  A    between atoms: C32_41  and  O9_42 
ROOT
HETATM    1  C20 UNL     1      -0.407   7.739  13.782  1.00  0.00     0.185 C 
HETATM    2  O4  UNL     1       0.123   6.687  14.167  1.00  0.00    -0.292 OA
ENDROOT
BRANCH   1   3
HETATM    3  C19 UNL     1      -1.754   8.185  14.421  1.00  0.00     0.128 C 
HETATM    4  C14 UNL     1      -2.848   7.075  14.592  1.00  0.00     0.005 C 
HETATM    5  C13 UNL     1      -3.755   7.307  15.832  1.00  0.00     0.091 C 
HETATM    6  C15 UNL     1      -2.209   5.683  14.776  1.00  0.00     0.019 C 
HETATM    7  C16 UNL     1      -3.665   7.157  13.265  1.00  0.00     0.002 C 
HETATM    8  C12 UNL     1      -4.913   8.234  15.548  1.00  0.00     0.133 C 
HETATM    9  C11 UNL     1      -5.874   7.835  14.434  1.00  0.00     0.072 C 
HETATM   10  O2  UNL     1      -5.115   9.244  16.222  1.00  0.00    -0.297 OA
HETATM   11  C2  UNL     1      -7.262   7.340  14.987  1.00  0.00    -0.009 C 
HETATM   12  C10 UNL     1      -5.191   6.907  13.397  1.00  0.00     0.003 C 
HETATM   13  C1  UNL     1      -7.163   6.628  16.356  1.00  0.00     0.021 C 
HETATM   14  C3  UNL     1      -8.166   8.600  15.157  1.00  0.00     0.022 C 
HETATM   15  C7  UNL     1      -7.907   6.348  14.015  1.00  0.00    -0.067 C 
HETATM   16  C4  UNL     1      -9.645   8.278  15.333  1.00  0.00     0.084 C 
HETATM   17  C5  UNL     1     -10.124   7.441  14.177  1.00  0.00     0.149 C 
HETATM   18  O1  UNL     1     -11.267   7.528  13.725  1.00  0.00    -0.293 OA
HETATM   19  C6  UNL     1      -9.194   6.425  13.625  1.00  0.00     0.053 C 
HETATM   20  C8  UNL     1      -7.056   5.207  13.505  1.00  0.00     0.035 C 
HETATM   21  C9  UNL     1      -5.548   5.437  13.627  1.00  0.00     0.010 C 
HETATM   22  C17 UNL     1      -3.384   8.561  12.672  1.00  0.00     0.009 C 
HETATM   23  C18 UNL     1      -2.461   9.286  13.641  1.00  0.00     0.047 C 
BRANCH   3  24
HETATM   24  O3  UNL     1      -1.384   8.731  15.694  1.00  0.00    -0.381 OA
HETATM   25  H25 UNL     1      -0.667   8.166  16.045  1.00  0.00     0.211 HD
ENDBRANCH   3  24
ENDBRANCH   1   3
BRANCH   1  26
HETATM   26  C21 UNL     1       0.232   8.597  12.690  1.00  0.00     0.260 C 
BRANCH  26  27
HETATM   27  O5  UNL     1       1.273   7.917  11.985  1.00  0.00    -0.314 OA
BRANCH  27  28
HETATM   28  C22 UNL     1       2.520   8.416  12.214  1.00  0.00     0.259 C 
HETATM   29  O6  UNL     1       2.762   9.584  12.488  1.00  0.00    -0.265 OA
BRANCH  28  30
HETATM   30  C23 UNL     1       3.545   7.319  12.068  1.00  0.00     0.120 C 
BRANCH  30  31
HETATM   31  C24 UNL     1       3.698   6.904  10.610  1.00  0.00     0.112 C 
BRANCH  31  32
HETATM   32  C25 UNL     1       2.686   5.846  10.218  1.00  0.00     0.218 C 
HETATM   33  O7  UNL     1       2.410   5.575   9.055  1.00  0.00    -0.274 OA
HETATM   34  N1  UNL     1       2.143   5.194  11.303  1.00  0.00    -0.361 N 
HETATM   35  H32 UNL     1       2.286   5.601  12.222  1.00  0.00     0.162 HD
BRANCH  34  36
HETATM   36  C26 UNL     1       1.037   4.267  11.158  1.00  0.00     0.127 C 
BRANCH  36  37
HETATM   37  C27 UNL     1      -0.333   4.954  11.258  1.00  0.00     0.058 C 
BRANCH  37  38
HETATM   38  C28 UNL     1      -1.478   3.964  11.244  1.00  0.00    -0.054 A 
HETATM   39  C29 UNL     1      -2.803   4.419  11.360  1.00  0.00     0.010 A 
HETATM   40  C30 UNL     1      -3.868   3.518  11.397  1.00  0.00     0.040 A 
HETATM   41  C31 UNL     1      -3.604   2.160  11.311  1.00  0.00     0.098 A 
HETATM   42  C32 UNL     1      -2.298   1.693  11.187  1.00  0.00     0.099 A 
HETATM   43  C33 UNL     1      -1.229   2.584  11.155  1.00  0.00     0.046 A 
BRANCH  41  44
HETATM   44  O8  UNL     1      -4.643   1.273  11.356  1.00  0.00    -0.358 OA
HETATM   45  H39 UNL     1      -4.216   0.397  11.281  1.00  0.00     0.217 HD
ENDBRANCH  41  44
BRANCH  42  46
HETATM   46  O9  UNL     1      -2.112   0.341  11.108  1.00  0.00    -0.358 OA
HETATM   47  H40 UNL     1      -1.169   0.171  10.948  1.00  0.00     0.217 HD
ENDBRANCH  42  46
ENDBRANCH  37  38
ENDBRANCH  36  37
ENDBRANCH  34  36
ENDBRANCH  31  32
ENDBRANCH  30  31
ENDBRANCH  28  30
ENDBRANCH  27  28
ENDBRANCH  26  27
ENDBRANCH   1  26
TORSDOF 13
ENDMDL
MODEL 6
REMARK minimizedAffinity -9.11638451
REMARK CNNscore 0.478729695
REMARK CNNaffinity 7.08040667
REMARK  13 active torsions:
REMARK  status: ('A' for Active; 'I' for Inactive)
REMARK    1  A    between atoms: C19_21  and  O3_22 
REMARK    2  A    between atoms: C19_21  and  C20_23 
REMARK    3  A    between atoms: C20_23  and  C21_25 
REMARK    4  A    between atoms: C21_25  and  O5_26 
REMARK    5  A    between atoms: O5_26  and  C22_27 
REMARK    6  A    between atoms: C22_27  and  C23_29 
REMARK    7  A    between atoms: C23_29  and  C24_30 
REMARK    8  A    between atoms: C24_30  and  C25_31 
REMARK       I    between atoms: C25_31  and  N1_33 
REMARK    9  A    between atoms: N1_33  and  C26_34 
REMARK   10  A    between atoms: C26_34  and  C27_35 
REMARK   11  A    between atoms: C27_35  and  C28_36 
REMARK   12  A    between atoms: C31_39  and  O8_40 
REMARK   13  A    between atoms: C32_41  and  O9_42 
ROOT
HETATM    1  C20 UNL     1      -2.829   7.166  13.747  1.00  0.00     0.185 C 
HETATM    2  O4  UNL     1      -3.164   7.289  12.560  1.00  0.00    -0.292 OA
ENDROOT
BRANCH   1   3
HETATM    3  C19 UNL     1      -1.373   7.523  14.164  1.00  0.00     0.128 C 
HETATM    4  C14 UNL     1      -0.452   8.118  13.043  1.00  0.00     0.005 C 
HETATM    5  C13 UNL     1       0.599   9.121  13.595  1.00  0.00     0.091 C 
HETATM    6  C15 UNL     1      -1.275   8.888  11.990  1.00  0.00     0.019 C 
HETATM    7  C16 UNL     1       0.233   6.859  12.424  1.00  0.00     0.002 C 
HETATM    8  C12 UNL     1       1.852   8.443  14.097  1.00  0.00     0.133 C 
HETATM    9  C11 UNL     1       2.625   7.577  13.109  1.00  0.00     0.072 C 
HETATM   10  O2  UNL     1       2.273   8.624  15.239  1.00  0.00    -0.297 OA
HETATM   11  C2  UNL     1       3.968   8.251  12.642  1.00  0.00    -0.009 C 
HETATM   12  C10 UNL     1       1.708   7.045  11.978  1.00  0.00     0.003 C 
HETATM   13  C1  UNL     1       3.897   9.795  12.586  1.00  0.00     0.021 C 
HETATM   14  C3  UNL     1       5.068   7.852  13.674  1.00  0.00     0.022 C 
HETATM   15  C7  UNL     1       4.353   7.771  11.240  1.00  0.00    -0.067 C 
HETATM   16  C4  UNL     1       6.489   8.109  13.190  1.00  0.00     0.084 C 
HETATM   17  C5  UNL     1       6.717   7.401  11.882  1.00  0.00     0.149 C 
HETATM   18  O1  UNL     1       7.809   6.926  11.566  1.00  0.00    -0.293 OA
HETATM   19  C6  UNL     1       5.592   7.353  10.916  1.00  0.00     0.053 C 
HETATM   20  C8  UNL     1       3.291   7.812  10.165  1.00  0.00     0.035 C 
HETATM   21  C9  UNL     1       1.856   7.864  10.695  1.00  0.00     0.010 C 
HETATM   22  C17 UNL     1       0.114   5.738  13.486  1.00  0.00     0.009 C 
HETATM   23  C18 UNL     1      -0.586   6.334  14.699  1.00  0.00     0.047 C 
BRANCH   3  24
HETATM   24  O3  UNL     1      -1.526   8.457  15.241  1.00  0.00    -0.381 OA
HETATM   25  H25 UNL     1      -2.284   9.032  15.010  1.00  0.00     0.211 HD
ENDBRANCH   3  24
ENDBRANCH   1   3
BRANCH   1  26
HETATM   26  C21 UNL     1      -3.816   6.664  14.802  1.00  0.00     0.260 C 
BRANCH  26  27
HETATM   27  O5  UNL     1      -4.251   7.693  15.693  1.00  0.00    -0.314 OA
BRANCH  27  28
HETATM   28  C22 UNL     1      -4.853   8.748  15.077  1.00  0.00     0.259 C 
HETATM   29  O6  UNL     1      -4.263   9.726  14.638  1.00  0.00    -0.265 OA
BRANCH  28  30
HETATM   30  C23 UNL     1      -6.345   8.528  15.028  1.00  0.00     0.120 C 
BRANCH  30  31
HETATM   31  C24 UNL     1      -6.746   7.324  15.871  1.00  0.00     0.112 C 
BRANCH  31  32
HETATM   32  C25 UNL     1      -7.653   6.382  15.106  1.00  0.00     0.218 C 
HETATM   33  O7  UNL     1      -8.796   6.672  14.768  1.00  0.00    -0.274 OA
HETATM   34  N1  UNL     1      -7.045   5.187  14.792  1.00  0.00    -0.361 N 
HETATM   35  H32 UNL     1      -6.175   4.959  15.262  1.00  0.00     0.162 HD
BRANCH  34  36
HETATM   36  C26 UNL     1      -7.787   4.084  14.212  1.00  0.00     0.127 C 
BRANCH  36  37
HETATM   37  C27 UNL     1      -7.642   4.006  12.685  1.00  0.00     0.058 C 
BRANCH  37  38
HETATM   38  C28 UNL     1      -6.322   3.401  12.260  1.00  0.00    -0.054 A 
HETATM   39  C29 UNL     1      -6.269   2.068  11.815  1.00  0.00     0.010 A 
HETATM   40  C30 UNL     1      -5.053   1.479  11.465  1.00  0.00     0.040 A 
HETATM   41  C31 UNL     1      -3.891   2.229  11.554  1.00  0.00     0.098 A 
HETATM   42  C32 UNL     1      -3.927   3.553  11.984  1.00  0.00     0.099 A 
HETATM   43  C33 UNL     1      -5.134   4.148  12.341  1.00  0.00     0.046 A 
BRANCH  41  44
HETATM   44  O8  UNL     1      -2.697   1.654  11.221  1.00  0.00    -0.358 OA
HETATM   45  H39 UNL     1      -2.039   2.363  11.363  1.00  0.00     0.217 HD
ENDBRANCH  41  44
BRANCH  42  46
HETATM   46  O9  UNL     1      -2.742   4.232  12.048  1.00  0.00    -0.358 OA
HETATM   47  H40 UNL     1      -2.931   5.155  12.286  1.00  0.00     0.217 HD
ENDBRANCH  42  46
ENDBRANCH  37  38
ENDBRANCH  36  37
ENDBRANCH  34  36
ENDBRANCH  31  32
ENDBRANCH  30  31
ENDBRANCH  28  30
ENDBRANCH  27  28
ENDBRANCH  26  27
ENDBRANCH   1  26
TORSDOF 13
ENDMDL
MODEL 7
REMARK minimizedAffinity -9.09092617
REMARK CNNscore 0.46744439
REMARK CNNaffinity 6.05558825
REMARK  13 active torsions:
REMARK  status: ('A' for Active; 'I' for Inactive)
REMARK    1  A    between atoms: C19_21  and  O3_22 
REMARK    2  A    between atoms: C19_21  and  C20_23 
REMARK    3  A    between atoms: C20_23  and  C21_25 
REMARK    4  A    between atoms: C21_25  and  O5_26 
REMARK    5  A    between atoms: O5_26  and  C22_27 
REMARK    6  A    between atoms: C22_27  and  C23_29 
REMARK    7  A    between atoms: C23_29  and  C24_30 
REMARK    8  A    between atoms: C24_30  and  C25_31 
REMARK       I    between atoms: C25_31  and  N1_33 
REMARK    9  A    between atoms: N1_33  and  C26_34 
REMARK   10  A    between atoms: C26_34  and  C27_35 
REMARK   11  A    between atoms: C27_35  and  C28_36 
REMARK   12  A    between atoms: C31_39  and  O8_40 
REMARK   13  A    between atoms: C32_41  and  O9_42 
ROOT
HETATM    1  C20 UNL     1       0.475  10.868  17.673  1.00  0.00     0.185 C 
HETATM    2  O4  UNL     1      -0.475  10.753  18.462  1.00  0.00    -0.292 OA
ENDROOT
BRANCH   1   3
HETATM    3  C19 UNL     1       1.927  10.869  18.232  1.00  0.00     0.128 C 
HETATM    4  C14 UNL     1       2.092  11.235  19.748  1.00  0.00     0.005 C 
HETATM    5  C13 UNL     1       3.293  10.512  20.417  1.00  0.00     0.091 C 
HETATM    6  C15 UNL     1       0.840  10.840  20.559  1.00  0.00     0.019 C 
HETATM    7  C16 UNL     1       2.295  12.782  19.732  1.00  0.00     0.002 C 
HETATM    8  C12 UNL     1       4.601  11.242  20.223  1.00  0.00     0.133 C 
HETATM    9  C11 UNL     1       4.684  12.678  20.727  1.00  0.00     0.072 C 
HETATM   10  O2  UNL     1       5.585  10.689  19.731  1.00  0.00    -0.297 OA
HETATM   11  C2  UNL     1       5.562  12.809  22.027  1.00  0.00    -0.009 C 
HETATM   12  C10 UNL     1       3.285  13.343  20.788  1.00  0.00     0.003 C 
HETATM   13  C1  UNL     1       5.504  11.561  22.939  1.00  0.00     0.021 C 
HETATM   14  C3  UNL     1       7.040  13.007  21.567  1.00  0.00     0.022 C 
HETATM   15  C7  UNL     1       5.101  14.000  22.871  1.00  0.00    -0.067 C 
HETATM   16  C4  UNL     1       7.965  13.510  22.668  1.00  0.00     0.084 C 
HETATM   17  C5  UNL     1       7.420  14.789  23.246  1.00  0.00     0.149 C 
HETATM   18  O1  UNL     1       8.147  15.692  23.659  1.00  0.00    -0.293 OA
HETATM   19  C6  UNL     1       5.948  14.912  23.387  1.00  0.00     0.053 C 
HETATM   20  C8  UNL     1       3.624  14.125  23.166  1.00  0.00     0.035 C 
HETATM   21  C9  UNL     1       2.719  13.345  22.209  1.00  0.00     0.010 C 
HETATM   22  C17 UNL     1       2.758  13.141  18.297  1.00  0.00     0.009 C 
HETATM   23  C18 UNL     1       2.854  11.840  17.513  1.00  0.00     0.047 C 
BRANCH   3  24
HETATM   24  O3  UNL     1       2.412   9.544  17.977  1.00  0.00    -0.381 OA
HETATM   25  H25 UNL     1       1.664   8.934  18.141  1.00  0.00     0.211 HD
ENDBRANCH   3  24
ENDBRANCH   1   3
BRANCH   1  26
HETATM   26  C21 UNL     1       0.244  11.016  16.169  1.00  0.00     0.260 C 
BRANCH  26  27
HETATM   27  O5  UNL     1      -0.911  10.309  15.710  1.00  0.00    -0.314 OA
BRANCH  27  28
HETATM   28  C22 UNL     1      -1.246  10.568  14.415  1.00  0.00     0.259 C 
HETATM   29  O6  UNL     1      -1.786  11.596  14.030  1.00  0.00    -0.265 OA
BRANCH  28  30
HETATM   30  C23 UNL     1      -0.860   9.399  13.544  1.00  0.00     0.120 C 
BRANCH  30  31
HETATM   31  C24 UNL     1      -1.907   9.153  12.465  1.00  0.00     0.112 C 
BRANCH  31  32
HETATM   32  C25 UNL     1      -2.867   8.048  12.859  1.00  0.00     0.218 C 
HETATM   33  O7  UNL     1      -4.082   8.203  12.925  1.00  0.00    -0.274 OA
HETATM   34  N1  UNL     1      -2.237   6.845  13.089  1.00  0.00    -0.361 N 
HETATM   35  H32 UNL     1      -1.228   6.850  13.191  1.00  0.00     0.162 HD
BRANCH  34  36
HETATM   36  C26 UNL     1      -2.949   5.706  13.637  1.00  0.00     0.127 C 
BRANCH  36  37
HETATM   37  C27 UNL     1      -3.357   4.686  12.565  1.00  0.00     0.058 C 
BRANCH  37  38
HETATM   38  C28 UNL     1      -4.800   4.251  12.700  1.00  0.00    -0.054 A 
HETATM   39  C29 UNL     1      -5.252   3.097  12.036  1.00  0.00     0.010 A 
HETATM   40  C30 UNL     1      -6.590   2.708  12.110  1.00  0.00     0.040 A 
HETATM   41  C31 UNL     1      -7.473   3.471  12.857  1.00  0.00     0.098 A 
HETATM   42  C32 UNL     1      -7.039   4.611  13.529  1.00  0.00     0.099 A 
HETATM   43  C33 UNL     1      -5.708   5.012  13.455  1.00  0.00     0.046 A 
BRANCH  41  44
HETATM   44  O8  UNL     1      -8.787   3.099  12.926  1.00  0.00    -0.358 OA
HETATM   45  H39 UNL     1      -9.201   3.777  13.495  1.00  0.00     0.217 HD
ENDBRANCH  41  44
BRANCH  42  46
HETATM   46  O9  UNL     1      -7.966   5.317  14.245  1.00  0.00    -0.358 OA
HETATM   47  H40 UNL     1      -7.507   6.032  14.717  1.00  0.00     0.217 HD
ENDBRANCH  42  46
ENDBRANCH  37  38
ENDBRANCH  36  37
ENDBRANCH  34  36
ENDBRANCH  31  32
ENDBRANCH  30  31
ENDBRANCH  28  30
ENDBRANCH  27  28
ENDBRANCH  26  27
ENDBRANCH   1  26
TORSDOF 13
ENDMDL
MODEL 8
REMARK minimizedAffinity -8.05009937
REMARK CNNscore 0.43619889
REMARK CNNaffinity 7.23164034
REMARK  13 active torsions:
REMARK  status: ('A' for Active; 'I' for Inactive)
REMARK    1  A    between atoms: C19_21  and  O3_22 
REMARK    2  A    between atoms: C19_21  and  C20_23 
REMARK    3  A    between atoms: C20_23  and  C21_25 
REMARK    4  A    between atoms: C21_25  and  O5_26 
REMARK    5  A    between atoms: O5_26  and  C22_27 
REMARK    6  A    between atoms: C22_27  and  C23_29 
REMARK    7  A    between atoms: C23_29  and  C24_30 
REMARK    8  A    between atoms: C24_30  and  C25_31 
REMARK       I    between atoms: C25_31  and  N1_33 
REMARK    9  A    between atoms: N1_33  and  C26_34 
REMARK   10  A    between atoms: C26_34  and  C27_35 
REMARK   11  A    between atoms: C27_35  and  C28_36 
REMARK   12  A    between atoms: C31_39  and  O8_40 
REMARK   13  A    between atoms: C32_41  and  O9_42 
ROOT
HETATM    1  C20 UNL     1      -1.267   5.606  11.773  1.00  0.00     0.185 C 
HETATM    2  O4  UNL     1      -1.977   6.471  12.305  1.00  0.00    -0.292 OA
ENDROOT
BRANCH   1   3
HETATM    3  C19 UNL     1       0.135   6.006  11.230  1.00  0.00     0.128 C 
HETATM    4  C14 UNL     1       1.180   6.497  12.291  1.00  0.00     0.005 C 
HETATM    5  C13 UNL     1       2.643   6.142  11.906  1.00  0.00     0.091 C 
HETATM    6  C15 UNL     1       0.925   5.854  13.669  1.00  0.00     0.019 C 
HETATM    7  C16 UNL     1       0.962   8.042  12.333  1.00  0.00     0.002 C 
HETATM    8  C12 UNL     1       3.275   7.161  10.989  1.00  0.00     0.133 C 
HETATM    9  C11 UNL     1       3.344   8.602  11.483  1.00  0.00     0.072 C 
HETATM   10  O2  UNL     1       3.770   6.842   9.908  1.00  0.00    -0.297 OA
HETATM   11  C2  UNL     1       4.804   9.031  11.884  1.00  0.00    -0.009 C 
HETATM   12  C10 UNL     1       2.241   8.898  12.532  1.00  0.00     0.003 C 
HETATM   13  C1  UNL     1       5.656   7.868  12.447  1.00  0.00     0.021 C 
HETATM   14  C3  UNL     1       5.499   9.562  10.593  1.00  0.00     0.022 C 
HETATM   15  C7  UNL     1       4.770  10.120  12.959  1.00  0.00    -0.067 C 
HETATM   16  C4  UNL     1       6.776  10.350  10.860  1.00  0.00     0.084 C 
HETATM   17  C5  UNL     1       6.485  11.485  11.804  1.00  0.00     0.149 C 
HETATM   18  O1  UNL     1       7.071  12.567  11.741  1.00  0.00    -0.293 OA
HETATM   19  C6  UNL     1       5.508  11.245  12.895  1.00  0.00     0.053 C 
HETATM   20  C8  UNL     1       3.891   9.890  14.168  1.00  0.00     0.035 C 
HETATM   21  C9  UNL     1       2.788   8.849  13.960  1.00  0.00     0.010 C 
HETATM   22  C17 UNL     1       0.250   8.413  11.007  1.00  0.00     0.009 C 
HETATM   23  C18 UNL     1       0.091   7.130  10.204  1.00  0.00     0.047 C 
BRANCH   3  24
HETATM   24  O3  UNL     1       0.610   4.830  10.559  1.00  0.00    -0.381 OA
HETATM   25  H25 UNL     1       0.328   4.065  11.100  1.00  0.00     0.211 HD
ENDBRANCH   3  24
ENDBRANCH   1   3
BRANCH   1  26
HETATM   26  C21 UNL     1      -1.747   4.160  11.635  1.00  0.00     0.260 C 
BRANCH  26  27
HETATM   27  O5  UNL     1      -3.050   4.058  11.055  1.00  0.00    -0.314 OA
BRANCH  27  28
HETATM   28  C22 UNL     1      -3.861   3.147  11.662  1.00  0.00     0.259 C 
HETATM   29  O6  UNL     1      -3.542   1.994  11.915  1.00  0.00    -0.265 OA
BRANCH  28  30
HETATM   30  C23 UNL     1      -5.200   3.774  11.959  1.00  0.00     0.120 C 
BRANCH  30  31
HETATM   31  C24 UNL     1      -5.158   4.560  13.263  1.00  0.00     0.112 C 
BRANCH  31  32
HETATM   32  C25 UNL     1      -6.550   4.844  13.792  1.00  0.00     0.218 C 
HETATM   33  O7  UNL     1      -7.570   4.399  13.278  1.00  0.00    -0.274 OA
HETATM   34  N1  UNL     1      -6.544   5.615  14.934  1.00  0.00    -0.361 N 
HETATM   35  H32 UNL     1      -5.681   6.087  15.183  1.00  0.00     0.162 HD
BRANCH  34  36
HETATM   36  C26 UNL     1      -7.770   6.139  15.504  1.00  0.00     0.127 C 
BRANCH  36  37
HETATM   37  C27 UNL     1      -8.039   7.596  15.101  1.00  0.00     0.058 C 
BRANCH  37  38
HETATM   38  C28 UNL     1      -9.514   7.933  15.099  1.00  0.00    -0.054 A 
HETATM   39  C29 UNL     1     -10.022   8.879  16.007  1.00  0.00     0.010 A 
HETATM   40  C30 UNL     1     -11.386   9.166  16.052  1.00  0.00     0.040 A 
HETATM   41  C31 UNL     1     -12.242   8.510  15.181  1.00  0.00     0.098 A 
HETATM   42  C32 UNL     1     -11.754   7.578  14.269  1.00  0.00     0.099 A 
HETATM   43  C33 UNL     1     -10.395   7.280  14.221  1.00  0.00     0.046 A 
BRANCH  41  44
HETATM   44  O8  UNL     1     -13.580   8.782  15.227  1.00  0.00    -0.358 OA
HETATM   45  H39 UNL     1     -13.967   8.209  14.535  1.00  0.00     0.217 HD
ENDBRANCH  41  44
BRANCH  42  46
HETATM   46  O9  UNL     1     -12.655   6.968  13.441  1.00  0.00    -0.358 OA
HETATM   47  H40 UNL     1     -12.165   6.409  12.815  1.00  0.00     0.217 HD
ENDBRANCH  42  46
ENDBRANCH  37  38
ENDBRANCH  36  37
ENDBRANCH  34  36
ENDBRANCH  31  32
ENDBRANCH  30  31
ENDBRANCH  28  30
ENDBRANCH  27  28
ENDBRANCH  26  27
ENDBRANCH   1  26
TORSDOF 13
ENDMDL
MODEL 9
REMARK minimizedAffinity -9.74182034
REMARK CNNscore 0.433260202
REMARK CNNaffinity 7.17954969
REMARK  13 active torsions:
REMARK  status: ('A' for Active; 'I' for Inactive)
REMARK    1  A    between atoms: C19_21  and  O3_22 
REMARK    2  A    between atoms: C19_21  and  C20_23 
REMARK    3  A    between atoms: C20_23  and  C21_25 
REMARK    4  A    between atoms: C21_25  and  O5_26 
REMARK    5  A    between atoms: O5_26  and  C22_27 
REMARK    6  A    between atoms: C22_27  and  C23_29 
REMARK    7  A    between atoms: C23_29  and  C24_30 
REMARK    8  A    between atoms: C24_30  and  C25_31 
REMARK       I    between atoms: C25_31  and  N1_33 
REMARK    9  A    between atoms: N1_33  and  C26_34 
REMARK   10  A    between atoms: C26_34  and  C27_35 
REMARK   11  A    between atoms: C27_35  and  C28_36 
REMARK   12  A    between atoms: C31_39  and  O8_40 
REMARK   13  A    between atoms: C32_41  and  O9_42 
ROOT
HETATM    1  C20 UNL     1       0.100   7.473  13.926  1.00  0.00     0.185 C 
HETATM    2  O4  UNL     1       0.303   6.309  13.549  1.00  0.00    -0.292 OA
ENDROOT
BRANCH   1   3
HETATM    3  C19 UNL     1      -1.290   7.846  14.515  1.00  0.00     0.128 C 
HETATM    4  C14 UNL     1      -2.358   6.699  14.565  1.00  0.00     0.005 C 
HETATM    5  C13 UNL     1      -3.336   6.837  15.764  1.00  0.00     0.091 C 
HETATM    6  C15 UNL     1      -1.690   5.316  14.705  1.00  0.00     0.019 C 
HETATM    7  C16 UNL     1      -3.107   6.835  13.202  1.00  0.00     0.002 C 
HETATM    8  C12 UNL     1      -4.504   7.747  15.470  1.00  0.00     0.133 C 
HETATM    9  C11 UNL     1      -5.394   7.387  14.285  1.00  0.00     0.072 C 
HETATM   10  O2  UNL     1      -4.771   8.711  16.187  1.00  0.00    -0.297 OA
HETATM   11  C2  UNL     1      -6.794   6.825  14.733  1.00  0.00    -0.009 C 
HETATM   12  C10 UNL     1      -4.630   6.538  13.236  1.00  0.00     0.003 C 
HETATM   13  C1  UNL     1      -6.745   6.039  16.065  1.00  0.00     0.021 C 
HETATM   14  C3  UNL     1      -7.742   8.049  14.924  1.00  0.00     0.022 C 
HETATM   15  C7  UNL     1      -7.357   5.873  13.674  1.00  0.00    -0.067 C 
HETATM   16  C4  UNL     1      -9.217   7.678  15.001  1.00  0.00     0.084 C 
HETATM   17  C5  UNL     1      -9.611   6.897  13.776  1.00  0.00     0.149 C 
HETATM   18  O1  UNL     1     -10.730   6.978  13.269  1.00  0.00    -0.293 OA
HETATM   19  C6  UNL     1      -8.624   5.938  13.221  1.00  0.00     0.053 C 
HETATM   20  C8  UNL     1      -6.447   4.785  13.149  1.00  0.00     0.035 C 
HETATM   21  C9  UNL     1      -4.955   5.049  13.365  1.00  0.00     0.010 C 
HETATM   22  C17 UNL     1      -2.837   8.277  12.703  1.00  0.00     0.009 C 
HETATM   23  C18 UNL     1      -1.988   8.970  13.760  1.00  0.00     0.047 C 
BRANCH   3  24
HETATM   24  O3  UNL     1      -1.004   8.328  15.834  1.00  0.00    -0.381 OA
HETATM   25  H25 UNL     1      -0.290   7.763  16.192  1.00  0.00     0.211 HD
ENDBRANCH   3  24
ENDBRANCH   1   3
BRANCH   1  26
HETATM   26  C21 UNL     1       1.187   8.543  13.815  1.00  0.00     0.260 C 
BRANCH  26  27
HETATM   27  O5  UNL     1       2.347   8.243  14.593  1.00  0.00    -0.314 OA
BRANCH  27  28
HETATM   28  C22 UNL     1       3.525   8.426  13.932  1.00  0.00     0.259 C 
HETATM   29  O6  UNL     1       4.490   9.024  14.387  1.00  0.00    -0.265 OA
BRANCH  28  30
HETATM   30  C23 UNL     1       3.449   7.790  12.567  1.00  0.00     0.120 C 
BRANCH  30  31
HETATM   31  C24 UNL     1       4.744   8.005  11.792  1.00  0.00     0.112 C 
BRANCH  31  32
HETATM   32  C25 UNL     1       5.091   6.803  10.937  1.00  0.00     0.218 C 
HETATM   33  O7  UNL     1       6.207   6.610  10.468  1.00  0.00    -0.274 OA
HETATM   34  N1  UNL     1       4.036   5.932  10.779  1.00  0.00    -0.361 N 
HETATM   35  H32 UNL     1       3.110   6.256  11.042  1.00  0.00     0.162 HD
BRANCH  34  36
HETATM   36  C26 UNL     1       4.106   4.810   9.864  1.00  0.00     0.127 C 
BRANCH  36  37
HETATM   37  C27 UNL     1       3.498   5.123   8.489  1.00  0.00     0.058 C 
BRANCH  37  38
HETATM   38  C28 UNL     1       2.422   6.185   8.561  1.00  0.00    -0.054 A 
HETATM   39  C29 UNL     1       2.294   7.129   7.526  1.00  0.00     0.010 A 
HETATM   40  C30 UNL     1       1.340   8.144   7.598  1.00  0.00     0.040 A 
HETATM   41  C31 UNL     1       0.509   8.209   8.705  1.00  0.00     0.098 A 
HETATM   42  C32 UNL     1       0.615   7.277   9.734  1.00  0.00     0.099 A 
HETATM   43  C33 UNL     1       1.569   6.264   9.674  1.00  0.00     0.046 A 
BRANCH  41  44
HETATM   44  O8  UNL     1      -0.422   9.207   8.785  1.00  0.00    -0.358 OA
HETATM   45  H39 UNL     1      -0.875   9.048   9.636  1.00  0.00     0.217 HD
ENDBRANCH  41  44
BRANCH  42  46
HETATM   46  O9  UNL     1      -0.237   7.403  10.796  1.00  0.00    -0.358 OA
HETATM   47  H40 UNL     1      -0.099   6.646  11.389  1.00  0.00     0.217 HD
ENDBRANCH  42  46
ENDBRANCH  37  38
ENDBRANCH  36  37
ENDBRANCH  34  36
ENDBRANCH  31  32
ENDBRANCH  30  31
ENDBRANCH  28  30
ENDBRANCH  27  28
ENDBRANCH  26  27
ENDBRANCH   1  26
TORSDOF 13
ENDMDL
