MODEL 1
REMARK minimizedAffinity -6.95449877
REMARK CNNscore 0.866564989
REMARK CNNaffinity 7.12606859
REMARK  14 active torsions:
REMARK  status: ('A' for Active; 'I' for Inactive)
REMARK    1  A    between atoms: C5_5  and  C6_6 
REMARK    2  A    between atoms: C6_6  and  C8_8 
REMARK    3  A    between atoms: C8_8  and  O1_9 
REMARK    4  A    between atoms: O1_9  and  C9_10 
REMARK    5  A    between atoms: C17_20  and  O4_21 
REMARK    6  A    between atoms: C19_23  and  O5_24 
REMARK    7  A    between atoms: O5_24  and  C20_25 
REMARK    8  A    between atoms: C20_25  and  C21_27 
REMARK    9  A    between atoms: C21_27  and  C22_28 
REMARK   10  A    between atoms: C21_27  and  O7_30 
REMARK   11  A    between atoms: O7_30  and  C24_31 
REMARK   12  A    between atoms: C24_31  and  C25_33 
REMARK   13  A    between atoms: C25_33  and  C26_34 
REMARK   14  A    between atoms: C28_36  and  O9_38 
ROOT
HETATM    1  C1  UNL     1      -6.113   8.362  15.298  1.00  0.00     0.015 C 
HETATM    2  C2  UNL     1      -4.826   8.210  14.936  1.00  0.00    -0.082 C 
HETATM    3  C3  UNL     1      -4.435   7.517  13.662  1.00  0.00     0.034 C 
HETATM    4  C4  UNL     1      -3.417   8.365  12.914  1.00  0.00     0.010 C 
HETATM    5  C5  UNL     1      -2.109   8.614  13.702  1.00  0.00    -0.001 C 
HETATM    6  C11 UNL     1      -2.245   8.369  15.238  1.00  0.00     0.033 C 
HETATM    7  C12 UNL     1      -1.505   9.358  16.140  1.00  0.00     0.163 C 
HETATM    8  O3  UNL     1      -2.257  10.544  15.878  1.00  0.00    -0.376 OA
HETATM    9  C13 UNL     1      -3.627  10.216  16.094  1.00  0.00     0.134 C 
HETATM   10  C14 UNL     1      -3.921  10.622  17.556  1.00  0.00     0.068 C 
HETATM   11  C15 UNL     1      -3.298  11.967  18.001  1.00  0.00    -0.058 C 
HETATM   12  C16 UNL     1      -4.132  12.941  18.414  1.00  0.00     0.017 C 
HETATM   13  C17 UNL     1      -1.752  12.165  17.930  1.00  0.00     0.149 C 
HETATM   14  C18 UNL     1      -0.898  11.022  18.528  1.00  0.00     0.072 C 
HETATM   15  C19 UNL     1       0.237  10.360  17.677  1.00  0.00     0.171 C 
HETATM   16  C28 UNL     1      -0.031   9.765  16.214  1.00  0.00     0.107 C 
HETATM   17  C29 UNL     1       0.391  10.761  15.123  1.00  0.00     0.051 C 
HETATM   18  C30 UNL     1      -3.687   8.684  15.798  1.00  0.00     0.050 C 
ENDROOT
BRANCH  15  19
HETATM   19  O5  UNL     1       1.383  11.238  17.678  1.00  0.00    -0.311 OA
BRANCH  19  20
HETATM   20  C20 UNL     1       2.541  10.702  18.170  1.00  0.00     0.289 C 
HETATM   21  O6  UNL     1       3.418  10.185  17.486  1.00  0.00    -0.262 OA
BRANCH  20  22
HETATM   22  C21 UNL     1       2.586  10.833  19.694  1.00  0.00     0.231 C 
BRANCH  22  23
HETATM   23  C22 UNL     1       2.750  12.311  20.068  1.00  0.00     0.038 C 
HETATM   24  C23 UNL     1       1.497  12.884  20.717  1.00  0.00     0.008 C 
ENDBRANCH  22  23
BRANCH  22  25
HETATM   25  O7  UNL     1       3.712  10.107  20.217  1.00  0.00    -0.306 OA
BRANCH  25  26
HETATM   26  C24 UNL     1       4.565  10.866  20.958  1.00  0.00     0.259 C 
HETATM   27  O8  UNL     1       5.429  11.597  20.494  1.00  0.00    -0.265 OA
BRANCH  26  28
HETATM   28  C25 UNL     1       4.286  10.691  22.432  1.00  0.00     0.111 C 
BRANCH  28  29
HETATM   29  C26 UNL     1       4.008   9.236  22.792  1.00  0.00     0.005 C 
HETATM   30  C27 UNL     1       2.629   9.040  23.404  1.00  0.00     0.005 C 
ENDBRANCH  28  29
ENDBRANCH  26  28
ENDBRANCH  25  26
ENDBRANCH  22  25
ENDBRANCH  20  22
ENDBRANCH  19  20
ENDBRANCH  15  19
BRANCH  16  31
HETATM   31  O9  UNL     1       0.787   8.604  15.995  1.00  0.00    -0.385 OA
HETATM   32  H45 UNL     1       1.111   8.252  16.845  1.00  0.00     0.210 HD
ENDBRANCH  16  31
BRANCH  13  33
HETATM   33  O4  UNL     1      -1.406  13.362  18.648  1.00  0.00    -0.391 OA
HETATM   34  H25 UNL     1      -1.699  13.231  19.567  1.00  0.00     0.210 HD
ENDBRANCH  13  33
BRANCH   5  35
HETATM   35  C6  UNL     1      -0.886   7.856  13.087  1.00  0.00     0.010 C 
HETATM   36  C7  UNL     1      -1.179   6.394  12.724  1.00  0.00     0.012 C 
BRANCH  35  37
HETATM   37  C8  UNL     1      -0.329   8.597  11.855  1.00  0.00     0.183 C 
BRANCH  37  38
HETATM   38  O1  UNL     1      -0.060   7.653  10.803  1.00  0.00    -0.321 OA
BRANCH  38  39
HETATM   39  C9  UNL     1       0.583   8.126   9.703  1.00  0.00     0.254 C 
HETATM   40  C10 UNL     1      -0.410   8.697   8.740  1.00  0.00     0.126 C 
HETATM   41  O2  UNL     1       1.792   8.110   9.511  1.00  0.00    -0.266 OA
ENDBRANCH  38  39
ENDBRANCH  37  38
ENDBRANCH  35  37
ENDBRANCH   5  35
TORSDOF 14
ENDMDL
MODEL 2
REMARK minimizedAffinity -7.93347263
REMARK CNNscore 0.708463013
REMARK CNNaffinity 7.36150122
REMARK  14 active torsions:
REMARK  status: ('A' for Active; 'I' for Inactive)
REMARK    1  A    between atoms: C5_5  and  C6_6 
REMARK    2  A    between atoms: C6_6  and  C8_8 
REMARK    3  A    between atoms: C8_8  and  O1_9 
REMARK    4  A    between atoms: O1_9  and  C9_10 
REMARK    5  A    between atoms: C17_20  and  O4_21 
REMARK    6  A    between atoms: C19_23  and  O5_24 
REMARK    7  A    between atoms: O5_24  and  C20_25 
REMARK    8  A    between atoms: C20_25  and  C21_27 
REMARK    9  A    between atoms: C21_27  and  C22_28 
REMARK   10  A    between atoms: C21_27  and  O7_30 
REMARK   11  A    between atoms: O7_30  and  C24_31 
REMARK   12  A    between atoms: C24_31  and  C25_33 
REMARK   13  A    between atoms: C25_33  and  C26_34 
REMARK   14  A    between atoms: C28_36  and  O9_38 
ROOT
HETATM    1  C1  UNL     1      -8.093   8.952  15.529  1.00  0.00     0.015 C 
HETATM    2  C2  UNL     1      -7.366   7.889  15.138  1.00  0.00    -0.082 C 
HETATM    3  C3  UNL     1      -8.000   6.673  14.527  1.00  0.00     0.034 C 
HETATM    4  C4  UNL     1      -7.247   6.288  13.262  1.00  0.00     0.010 C 
HETATM    5  C5  UNL     1      -5.759   5.937  13.502  1.00  0.00    -0.001 C 
HETATM    6  C11 UNL     1      -5.197   6.478  14.854  1.00  0.00     0.033 C 
HETATM    7  C12 UNL     1      -3.769   7.023  14.814  1.00  0.00     0.163 C 
HETATM    8  O3  UNL     1      -3.966   8.179  13.999  1.00  0.00    -0.376 OA
HETATM    9  C13 UNL     1      -5.033   8.918  14.588  1.00  0.00     0.134 C 
HETATM   10  C14 UNL     1      -4.352   9.959  15.506  1.00  0.00     0.068 C 
HETATM   11  C15 UNL     1      -3.090  10.630  14.913  1.00  0.00    -0.058 C 
HETATM   12  C16 UNL     1      -3.102  11.968  14.760  1.00  0.00     0.017 C 
HETATM   13  C17 UNL     1      -1.874   9.752  14.486  1.00  0.00     0.149 C 
HETATM   14  C18 UNL     1      -1.412   8.694  15.516  1.00  0.00     0.072 C 
HETATM   15  C19 UNL     1      -1.259   7.195  15.091  1.00  0.00     0.171 C 
HETATM   16  C28 UNL     1      -2.446   6.386  14.380  1.00  0.00     0.107 C 
HETATM   17  C29 UNL     1      -2.251   6.339  12.857  1.00  0.00     0.051 C 
HETATM   18  C30 UNL     1      -5.873   7.825  15.321  1.00  0.00     0.050 C 
ENDROOT
BRANCH  15  19
HETATM   19  O5  UNL     1      -0.022   7.048  14.362  1.00  0.00    -0.311 OA
BRANCH  19  20
HETATM   20  C20 UNL     1      -0.038   7.492  13.069  1.00  0.00     0.289 C 
HETATM   21  O6  UNL     1      -0.727   8.421  12.659  1.00  0.00    -0.262 OA
BRANCH  20  22
HETATM   22  C21 UNL     1       0.920   6.668  12.207  1.00  0.00     0.231 C 
BRANCH  22  23
HETATM   23  C22 UNL     1       2.228   7.445  12.023  1.00  0.00     0.038 C 
HETATM   24  C23 UNL     1       2.091   8.908  12.426  1.00  0.00     0.008 C 
ENDBRANCH  22  23
BRANCH  22  25
HETATM   25  O7  UNL     1       0.342   6.441  10.910  1.00  0.00    -0.306 OA
BRANCH  25  26
HETATM   26  C24 UNL     1       1.251   6.408   9.897  1.00  0.00     0.259 C 
HETATM   27  O8  UNL     1       2.114   5.551   9.764  1.00  0.00    -0.265 OA
BRANCH  26  28
HETATM   28  C25 UNL     1       1.036   7.567   8.953  1.00  0.00     0.111 C 
BRANCH  28  29
HETATM   29  C26 UNL     1       2.100   7.621   7.863  1.00  0.00     0.005 C 
HETATM   30  C27 UNL     1       3.220   8.597   8.189  1.00  0.00     0.005 C 
ENDBRANCH  28  29
ENDBRANCH  26  28
ENDBRANCH  25  26
ENDBRANCH  22  25
ENDBRANCH  20  22
ENDBRANCH  19  20
ENDBRANCH  15  19
BRANCH  16  31
HETATM   31  O9  UNL     1      -2.427   5.012  14.801  1.00  0.00    -0.385 OA
HETATM   32  H45 UNL     1      -1.906   4.914  15.620  1.00  0.00     0.210 HD
ENDBRANCH  16  31
BRANCH  13  33
HETATM   33  O4  UNL     1      -0.747  10.611  14.239  1.00  0.00    -0.391 OA
HETATM   34  H25 UNL     1      -0.564  11.079  15.073  1.00  0.00     0.210 HD
ENDBRANCH  13  33
BRANCH   5  35
HETATM   35  C6  UNL     1      -5.462   4.415  13.303  1.00  0.00     0.010 C 
HETATM   36  C7  UNL     1      -6.723   3.546  13.180  1.00  0.00     0.012 C 
BRANCH  35  37
HETATM   37  C8  UNL     1      -4.545   4.176  12.086  1.00  0.00     0.183 C 
BRANCH  37  38
HETATM   38  O1  UNL     1      -4.017   2.837  12.133  1.00  0.00    -0.321 OA
BRANCH  38  39
HETATM   39  C9  UNL     1      -2.962   2.566  11.322  1.00  0.00     0.254 C 
HETATM   40  C10 UNL     1      -2.778   3.678  10.337  1.00  0.00     0.126 C 
HETATM   41  O2  UNL     1      -2.246   1.574  11.376  1.00  0.00    -0.266 OA
ENDBRANCH  38  39
ENDBRANCH  37  38
ENDBRANCH  35  37
ENDBRANCH   5  35
TORSDOF 14
ENDMDL
MODEL 3
REMARK minimizedAffinity -7.56491423
REMARK CNNscore 0.665506661
REMARK CNNaffinity 7.29818106
REMARK  14 active torsions:
REMARK  status: ('A' for Active; 'I' for Inactive)
REMARK    1  A    between atoms: C5_5  and  C6_6 
REMARK    2  A    between atoms: C6_6  and  C8_8 
REMARK    3  A    between atoms: C8_8  and  O1_9 
REMARK    4  A    between atoms: O1_9  and  C9_10 
REMARK    5  A    between atoms: C17_20  and  O4_21 
REMARK    6  A    between atoms: C19_23  and  O5_24 
REMARK    7  A    between atoms: O5_24  and  C20_25 
REMARK    8  A    between atoms: C20_25  and  C21_27 
REMARK    9  A    between atoms: C21_27  and  C22_28 
REMARK   10  A    between atoms: C21_27  and  O7_30 
REMARK   11  A    between atoms: O7_30  and  C24_31 
REMARK   12  A    between atoms: C24_31  and  C25_33 
REMARK   13  A    between atoms: C25_33  and  C26_34 
REMARK   14  A    between atoms: C28_36  and  O9_38 
ROOT
HETATM    1  C1  UNL     1      -1.064   4.021  11.840  1.00  0.00     0.015 C 
HETATM    2  C2  UNL     1      -1.547   5.040  12.576  1.00  0.00    -0.082 C 
HETATM    3  C3  UNL     1      -0.805   6.337  12.720  1.00  0.00     0.034 C 
HETATM    4  C4  UNL     1      -1.755   7.498  12.465  1.00  0.00     0.010 C 
HETATM    5  C5  UNL     1      -2.948   7.558  13.448  1.00  0.00    -0.001 C 
HETATM    6  C11 UNL     1      -3.218   6.212  14.191  1.00  0.00     0.033 C 
HETATM    7  C12 UNL     1      -4.689   5.841  14.387  1.00  0.00     0.163 C 
HETATM    8  O3  UNL     1      -5.069   5.607  13.030  1.00  0.00    -0.376 OA
HETATM    9  C13 UNL     1      -4.128   4.679  12.496  1.00  0.00     0.134 C 
HETATM   10  C14 UNL     1      -4.775   3.287  12.681  1.00  0.00     0.068 C 
HETATM   11  C15 UNL     1      -6.290   3.220  12.373  1.00  0.00    -0.058 C 
HETATM   12  C16 UNL     1      -6.698   2.386  11.398  1.00  0.00     0.017 C 
HETATM   13  C17 UNL     1      -7.281   4.129  13.163  1.00  0.00     0.149 C 
HETATM   14  C18 UNL     1      -7.107   4.139  14.700  1.00  0.00     0.072 C 
HETATM   15  C19 UNL     1      -6.951   5.495  15.466  1.00  0.00     0.171 C 
HETATM   16  C28 UNL     1      -5.848   6.582  15.058  1.00  0.00     0.107 C 
HETATM   17  C29 UNL     1      -6.457   7.694  14.191  1.00  0.00     0.051 C 
HETATM   18  C30 UNL     1      -2.840   4.938  13.339  1.00  0.00     0.050 C 
ENDROOT
BRANCH  15  19
HETATM   19  O5  UNL     1      -8.255   6.103  15.595  1.00  0.00    -0.311 OA
BRANCH  19  20
HETATM   20  C20 UNL     1      -8.823   6.540  14.431  1.00  0.00     0.289 C 
HETATM   21  O6  UNL     1      -8.360   6.345  13.312  1.00  0.00    -0.262 OA
BRANCH  20  22
HETATM   22  C21 UNL     1     -10.114   7.309  14.720  1.00  0.00     0.231 C 
BRANCH  22  23
HETATM   23  C22 UNL     1     -11.150   6.978  13.640  1.00  0.00     0.038 C 
HETATM   24  C23 UNL     1     -12.443   6.429  14.230  1.00  0.00     0.008 C 
ENDBRANCH  22  23
BRANCH  22  25
HETATM   25  O7  UNL     1      -9.862   8.724  14.686  1.00  0.00    -0.306 OA
BRANCH  25  26
HETATM   26  C24 UNL     1     -10.089   9.356  15.870  1.00  0.00     0.259 C 
HETATM   27  O8  UNL     1     -10.007   8.825  16.969  1.00  0.00    -0.265 OA
BRANCH  26  28
HETATM   28  C25 UNL     1     -10.443  10.805  15.638  1.00  0.00     0.111 C 
BRANCH  28  29
HETATM   29  C26 UNL     1     -10.428  11.611  16.932  1.00  0.00     0.005 C 
HETATM   30  C27 UNL     1      -9.553  12.852  16.836  1.00  0.00     0.005 C 
ENDBRANCH  28  29
ENDBRANCH  26  28
ENDBRANCH  25  26
ENDBRANCH  22  25
ENDBRANCH  20  22
ENDBRANCH  19  20
ENDBRANCH  15  19
BRANCH  16  31
HETATM   31  O9  UNL     1      -5.357   7.253  16.232  1.00  0.00    -0.385 OA
HETATM   32  H45 UNL     1      -5.567   6.735  17.032  1.00  0.00     0.210 HD
ENDBRANCH  16  31
BRANCH  13  33
HETATM   33  O4  UNL     1      -8.624   3.686  12.900  1.00  0.00    -0.391 OA
HETATM   34  H25 UNL     1      -8.679   2.763  13.204  1.00  0.00     0.210 HD
ENDBRANCH  13  33
BRANCH   5  35
HETATM   35  C6  UNL     1      -2.851   8.769  14.433  1.00  0.00     0.010 C 
HETATM   36  C7  UNL     1      -2.335   8.395  15.830  1.00  0.00     0.012 C 
BRANCH  35  37
HETATM   37  C8  UNL     1      -1.988   9.904  13.845  1.00  0.00     0.183 C 
BRANCH  37  38
HETATM   38  O1  UNL     1      -2.544  11.178  14.217  1.00  0.00    -0.321 OA
BRANCH  38  39
HETATM   39  C9  UNL     1      -1.665  12.193  14.428  1.00  0.00     0.254 C 
HETATM   40  C10 UNL     1      -0.675  11.797  15.479  1.00  0.00     0.126 C 
HETATM   41  O2  UNL     1      -1.657  13.272  13.851  1.00  0.00    -0.266 OA
ENDBRANCH  38  39
ENDBRANCH  37  38
ENDBRANCH  35  37
ENDBRANCH   5  35
TORSDOF 14
ENDMDL
MODEL 4
REMARK minimizedAffinity -8.47986221
REMARK CNNscore 0.640286446
REMARK CNNaffinity 7.16969442
REMARK  14 active torsions:
REMARK  status: ('A' for Active; 'I' for Inactive)
REMARK    1  A    between atoms: C5_5  and  C6_6 
REMARK    2  A    between atoms: C6_6  and  C8_8 
REMARK    3  A    between atoms: C8_8  and  O1_9 
REMARK    4  A    between atoms: O1_9  and  C9_10 
REMARK    5  A    between atoms: C17_20  and  O4_21 
REMARK    6  A    between atoms: C19_23  and  O5_24 
REMARK    7  A    between atoms: O5_24  and  C20_25 
REMARK    8  A    between atoms: C20_25  and  C21_27 
REMARK    9  A    between atoms: C21_27  and  C22_28 
REMARK   10  A    between atoms: C21_27  and  O7_30 
REMARK   11  A    between atoms: O7_30  and  C24_31 
REMARK   12  A    between atoms: C24_31  and  C25_33 
REMARK   13  A    between atoms: C25_33  and  C26_34 
REMARK   14  A    between atoms: C28_36  and  O9_38 
ROOT
HETATM    1  C1  UNL     1      -7.549   2.898  12.391  1.00  0.00     0.015 C 
HETATM    2  C2  UNL     1      -6.933   4.003  12.851  1.00  0.00    -0.082 C 
HETATM    3  C3  UNL     1      -7.585   4.922  13.843  1.00  0.00     0.034 C 
HETATM    4  C4  UNL     1      -6.613   5.223  14.974  1.00  0.00     0.010 C 
HETATM    5  C5  UNL     1      -5.313   5.923  14.511  1.00  0.00    -0.001 C 
HETATM    6  C11 UNL     1      -5.028   5.772  12.983  1.00  0.00     0.033 C 
HETATM    7  C12 UNL     1      -3.565   5.549  12.596  1.00  0.00     0.163 C 
HETATM    8  O3  UNL     1      -3.357   4.249  13.148  1.00  0.00    -0.376 OA
HETATM    9  C13 UNL     1      -4.400   3.418  12.645  1.00  0.00     0.134 C 
HETATM   10  C14 UNL     1      -3.809   2.733  11.391  1.00  0.00     0.068 C 
HETATM   11  C15 UNL     1      -2.345   2.252  11.534  1.00  0.00    -0.058 C 
HETATM   12  C16 UNL     1      -2.096   0.938  11.377  1.00  0.00     0.017 C 
HETATM   13  C17 UNL     1      -1.224   3.279  11.884  1.00  0.00     0.149 C 
HETATM   14  C18 UNL     1      -1.218   4.580  11.048  1.00  0.00     0.072 C 
HETATM   15  C19 UNL     1      -1.214   5.974  11.762  1.00  0.00     0.171 C 
HETATM   16  C28 UNL     1      -2.300   6.365  12.873  1.00  0.00     0.107 C 
HETATM   17  C29 UNL     1      -1.739   6.175  14.290  1.00  0.00     0.051 C 
HETATM   18  C30 UNL     1      -5.567   4.419  12.375  1.00  0.00     0.050 C 
ENDROOT
BRANCH  15  19
HETATM   19  O5  UNL     1       0.125   6.249  12.227  1.00  0.00    -0.311 OA
BRANCH  19  20
HETATM   20  C20 UNL     1       0.845   7.131  11.471  1.00  0.00     0.289 C 
HETATM   21  O6  UNL     1       0.425   7.696  10.466  1.00  0.00    -0.262 OA
BRANCH  20  22
HETATM   22  C21 UNL     1       2.249   7.314  12.052  1.00  0.00     0.231 C 
BRANCH  22  23
HETATM   23  C22 UNL     1       2.623   8.800  12.008  1.00  0.00     0.038 C 
HETATM   24  C23 UNL     1       2.282   9.518  13.307  1.00  0.00     0.008 C 
ENDBRANCH  22  23
BRANCH  22  25
HETATM   25  O7  UNL     1       3.205   6.584  11.265  1.00  0.00    -0.306 OA
BRANCH  25  26
HETATM   26  C24 UNL     1       2.646   5.752  10.345  1.00  0.00     0.259 C 
HETATM   27  O8  UNL     1       1.817   4.889  10.599  1.00  0.00    -0.265 OA
BRANCH  26  28
HETATM   28  C25 UNL     1       3.181   6.051   8.965  1.00  0.00     0.111 C 
BRANCH  28  29
HETATM   29  C26 UNL     1       2.131   6.704   8.075  1.00  0.00     0.005 C 
HETATM   30  C27 UNL     1       2.503   8.127   7.682  1.00  0.00     0.005 C 
ENDBRANCH  28  29
ENDBRANCH  26  28
ENDBRANCH  25  26
ENDBRANCH  22  25
ENDBRANCH  20  22
ENDBRANCH  19  20
ENDBRANCH  15  19
BRANCH  16  31
HETATM   31  O9  UNL     1      -2.616   7.764  12.783  1.00  0.00    -0.385 OA
HETATM   32  H45 UNL     1      -2.342   8.120  11.917  1.00  0.00     0.210 HD
ENDBRANCH  16  31
BRANCH  13  33
HETATM   33  O4  UNL     1       0.055   2.651  11.684  1.00  0.00    -0.391 OA
HETATM   34  H25 UNL     1       0.098   2.394  10.746  1.00  0.00     0.210 HD
ENDBRANCH  13  33
BRANCH   5  35
HETATM   35  C6  UNL     1      -5.232   7.412  14.985  1.00  0.00     0.010 C 
HETATM   36  C7  UNL     1      -5.015   8.416  13.844  1.00  0.00     0.012 C 
BRANCH  35  37
HETATM   37  C8  UNL     1      -6.479   7.810  15.800  1.00  0.00     0.183 C 
BRANCH  37  38
HETATM   38  O1  UNL     1      -7.289   8.720  15.033  1.00  0.00    -0.321 OA
BRANCH  38  39
HETATM   39  C9  UNL     1      -8.570   8.900  15.448  1.00  0.00     0.254 C 
HETATM   40  C10 UNL     1      -9.082   7.642  16.078  1.00  0.00     0.126 C 
HETATM   41  O2  UNL     1      -9.224   9.930  15.344  1.00  0.00    -0.266 OA
ENDBRANCH  38  39
ENDBRANCH  37  38
ENDBRANCH  35  37
ENDBRANCH   5  35
TORSDOF 14
ENDMDL
MODEL 5
REMARK minimizedAffinity -7.2660284
REMARK CNNscore 0.639637589
REMARK CNNaffinity 6.59682894
REMARK  14 active torsions:
REMARK  status: ('A' for Active; 'I' for Inactive)
REMARK    1  A    between atoms: C5_5  and  C6_6 
REMARK    2  A    between atoms: C6_6  and  C8_8 
REMARK    3  A    between atoms: C8_8  and  O1_9 
REMARK    4  A    between atoms: O1_9  and  C9_10 
REMARK    5  A    between atoms: C17_20  and  O4_21 
REMARK    6  A    between atoms: C19_23  and  O5_24 
REMARK    7  A    between atoms: O5_24  and  C20_25 
REMARK    8  A    between atoms: C20_25  and  C21_27 
REMARK    9  A    between atoms: C21_27  and  C22_28 
REMARK   10  A    between atoms: C21_27  and  O7_30 
REMARK   11  A    between atoms: O7_30  and  C24_31 
REMARK   12  A    between atoms: C24_31  and  C25_33 
REMARK   13  A    between atoms: C25_33  and  C26_34 
REMARK   14  A    between atoms: C28_36  and  O9_38 
ROOT
HETATM    1  C1  UNL     1      -5.469   9.074  15.236  1.00  0.00     0.015 C 
HETATM    2  C2  UNL     1      -4.204   9.435  15.524  1.00  0.00    -0.082 C 
HETATM    3  C3  UNL     1      -3.880  10.352  16.668  1.00  0.00     0.034 C 
HETATM    4  C4  UNL     1      -2.750   9.756  17.494  1.00  0.00     0.010 C 
HETATM    5  C5  UNL     1      -1.436   9.554  16.702  1.00  0.00    -0.001 C 
HETATM    6  C11 UNL     1      -1.631   9.549  15.153  1.00  0.00     0.033 C 
HETATM    7  C12 UNL     1      -0.788   8.534  14.378  1.00  0.00     0.163 C 
HETATM    8  O3  UNL     1      -1.379   7.317  14.837  1.00  0.00    -0.376 OA
HETATM    9  C13 UNL     1      -2.784   7.440  14.627  1.00  0.00     0.134 C 
HETATM   10  C14 UNL     1      -3.051   6.787  13.251  1.00  0.00     0.068 C 
HETATM   11  C15 UNL     1      -2.272   5.478  12.984  1.00  0.00    -0.058 C 
HETATM   12  C16 UNL     1      -2.983   4.358  12.749  1.00  0.00     0.017 C 
HETATM   13  C17 UNL     1      -0.712   5.482  13.026  1.00  0.00     0.149 C 
HETATM   14  C18 UNL     1      -0.020   6.619  12.237  1.00  0.00     0.072 C 
HETATM   15  C19 UNL     1       1.038   7.534  12.940  1.00  0.00     0.171 C 
HETATM   16  C28 UNL     1       0.723   8.303  14.309  1.00  0.00     0.107 C 
HETATM   17  C29 UNL     1       1.289   7.540  15.517  1.00  0.00     0.051 C 
HETATM   18  C30 UNL     1      -3.031   8.980  14.699  1.00  0.00     0.050 C 
ENDROOT
BRANCH  15  19
HETATM   19  O5  UNL     1       2.286   6.813  13.024  1.00  0.00    -0.311 OA
BRANCH  19  20
HETATM   20  C20 UNL     1       3.386   7.475  12.557  1.00  0.00     0.289 C 
HETATM   21  O6  UNL     1       3.867   8.480  13.070  1.00  0.00    -0.262 OA
BRANCH  20  22
HETATM   22  C21 UNL     1       3.933   6.789  11.303  1.00  0.00     0.231 C 
BRANCH  22  23
HETATM   23  C22 UNL     1       5.394   7.205  11.097  1.00  0.00     0.038 C 
HETATM   24  C23 UNL     1       5.518   8.488  10.284  1.00  0.00     0.008 C 
ENDBRANCH  22  23
BRANCH  22  25
HETATM   25  O7  UNL     1       3.179   7.200  10.150  1.00  0.00    -0.306 OA
BRANCH  25  26
HETATM   26  C24 UNL     1       2.630   6.170   9.450  1.00  0.00     0.259 C 
HETATM   27  O8  UNL     1       2.365   5.072   9.922  1.00  0.00    -0.265 OA
BRANCH  26  28
HETATM   28  C25 UNL     1       2.379   6.574   8.018  1.00  0.00     0.111 C 
BRANCH  28  29
HETATM   29  C26 UNL     1       1.956   8.033   7.902  1.00  0.00     0.005 C 
HETATM   30  C27 UNL     1       0.491   8.246   8.257  1.00  0.00     0.005 C 
ENDBRANCH  28  29
ENDBRANCH  26  28
ENDBRANCH  25  26
ENDBRANCH  22  25
ENDBRANCH  20  22
ENDBRANCH  19  20
ENDBRANCH  15  19
BRANCH  16  31
HETATM   31  O9  UNL     1       1.393   9.575  14.326  1.00  0.00    -0.385 OA
HETATM   32  H45 UNL     1       1.654   9.834  13.423  1.00  0.00     0.210 HD
ENDBRANCH  16  31
BRANCH  13  33
HETATM   33  O4  UNL     1      -0.231   4.243  12.477  1.00  0.00    -0.391 OA
HETATM   34  H25 UNL     1      -0.555   4.198  11.561  1.00  0.00     0.210 HD
ENDBRANCH  13  33
BRANCH   5  35
HETATM   35  C6  UNL     1      -0.307  10.538  17.154  1.00  0.00     0.010 C 
HETATM   36  C7  UNL     1      -0.291  11.863  16.379  1.00  0.00     0.012 C 
BRANCH  35  37
HETATM   37  C8  UNL     1      -0.382  10.821  18.668  1.00  0.00     0.183 C 
BRANCH  37  38
HETATM   38  O1  UNL     1       0.793  11.541  19.085  1.00  0.00    -0.321 OA
BRANCH  38  39
HETATM   39  C9  UNL     1       1.777  10.817  19.680  1.00  0.00     0.254 C 
HETATM   40  C10 UNL     1       2.025  11.335  21.062  1.00  0.00     0.126 C 
HETATM   41  O2  UNL     1       2.377   9.871  19.185  1.00  0.00    -0.266 OA
ENDBRANCH  38  39
ENDBRANCH  37  38
ENDBRANCH  35  37
ENDBRANCH   5  35
TORSDOF 14
ENDMDL
MODEL 6
REMARK minimizedAffinity -7.75085592
REMARK CNNscore 0.610194862
REMARK CNNaffinity 6.18505907
REMARK  14 active torsions:
REMARK  status: ('A' for Active; 'I' for Inactive)
REMARK    1  A    between atoms: C5_5  and  C6_6 
REMARK    2  A    between atoms: C6_6  and  C8_8 
REMARK    3  A    between atoms: C8_8  and  O1_9 
REMARK    4  A    between atoms: O1_9  and  C9_10 
REMARK    5  A    between atoms: C17_20  and  O4_21 
REMARK    6  A    between atoms: C19_23  and  O5_24 
REMARK    7  A    between atoms: O5_24  and  C20_25 
REMARK    8  A    between atoms: C20_25  and  C21_27 
REMARK    9  A    between atoms: C21_27  and  C22_28 
REMARK   10  A    between atoms: C21_27  and  O7_30 
REMARK   11  A    between atoms: O7_30  and  C24_31 
REMARK   12  A    between atoms: C24_31  and  C25_33 
REMARK   13  A    between atoms: C25_33  and  C26_34 
REMARK   14  A    between atoms: C28_36  and  O9_38 
ROOT
HETATM    1  C1  UNL     1       2.810   7.204   9.052  1.00  0.00     0.015 C 
HETATM    2  C2  UNL     1       1.928   7.497  10.026  1.00  0.00    -0.082 C 
HETATM    3  C3  UNL     1       0.463   7.202   9.887  1.00  0.00     0.034 C 
HETATM    4  C4  UNL     1      -0.036   6.496  11.138  1.00  0.00     0.010 C 
HETATM    5  C5  UNL     1       0.127   7.327  12.433  1.00  0.00    -0.001 C 
HETATM    6  C11 UNL     1       1.161   8.490  12.307  1.00  0.00     0.033 C 
HETATM    7  C12 UNL     1       2.051   8.728  13.528  1.00  0.00     0.163 C 
HETATM    8  O3  UNL     1       2.827   7.530  13.509  1.00  0.00    -0.376 OA
HETATM    9  C13 UNL     1       3.372   7.416  12.197  1.00  0.00     0.134 C 
HETATM   10  C14 UNL     1       4.777   8.057  12.279  1.00  0.00     0.068 C 
HETATM   11  C15 UNL     1       5.580   7.714  13.557  1.00  0.00    -0.058 C 
HETATM   12  C16 UNL     1       6.762   7.085  13.407  1.00  0.00     0.017 C 
HETATM   13  C17 UNL     1       4.994   8.070  14.958  1.00  0.00     0.149 C 
HETATM   14  C18 UNL     1       4.443   9.507  15.113  1.00  0.00     0.072 C 
HETATM   15  C19 UNL     1       2.990   9.739  15.649  1.00  0.00     0.171 C 
HETATM   16  C28 UNL     1       1.716   9.025  14.992  1.00  0.00     0.107 C 
HETATM   17  C29 UNL     1       1.298   7.784  15.795  1.00  0.00     0.051 C 
HETATM   18  C30 UNL     1       2.339   8.175  11.305  1.00  0.00     0.050 C 
ENDROOT
BRANCH  15  19
HETATM   19  O5  UNL     1       2.997   9.571  17.083  1.00  0.00    -0.311 OA
BRANCH  19  20
HETATM   20  C20 UNL     1       2.865  10.718  17.815  1.00  0.00     0.289 C 
HETATM   21  O6  UNL     1       3.192  11.835  17.428  1.00  0.00    -0.262 OA
BRANCH  20  22
HETATM   22  C21 UNL     1       2.255  10.413  19.185  1.00  0.00     0.231 C 
BRANCH  22  23
HETATM   23  C22 UNL     1       1.294  11.543  19.571  1.00  0.00     0.038 C 
HETATM   24  C23 UNL     1      -0.153  11.071  19.639  1.00  0.00     0.008 C 
ENDBRANCH  22  23
BRANCH  22  25
HETATM   25  O7  UNL     1       3.290  10.340  20.179  1.00  0.00    -0.306 OA
BRANCH  25  26
HETATM   26  C24 UNL     1       2.874   9.846  21.377  1.00  0.00     0.259 C 
HETATM   27  O8  UNL     1       2.289   8.782  21.526  1.00  0.00    -0.265 OA
BRANCH  26  28
HETATM   28  C25 UNL     1       3.247  10.787  22.497  1.00  0.00     0.111 C 
BRANCH  28  29
HETATM   29  C26 UNL     1       4.617  10.466  23.081  1.00  0.00     0.005 C 
HETATM   30  C27 UNL     1       5.591  11.629  22.958  1.00  0.00     0.005 C 
ENDBRANCH  28  29
ENDBRANCH  26  28
ENDBRANCH  25  26
ENDBRANCH  22  25
ENDBRANCH  20  22
ENDBRANCH  19  20
ENDBRANCH  15  19
BRANCH  16  31
HETATM   31  O9  UNL     1       0.578   9.902  15.044  1.00  0.00    -0.385 OA
HETATM   32  H45 UNL     1       0.864  10.822  15.194  1.00  0.00     0.210 HD
ENDBRANCH  16  31
BRANCH  13  33
HETATM   33  O4  UNL     1       6.030   7.914  15.945  1.00  0.00    -0.391 OA
HETATM   34  H25 UNL     1       6.745   8.527  15.699  1.00  0.00     0.210 HD
ENDBRANCH  13  33
BRANCH   5  35
HETATM   35  C6  UNL     1      -1.243   7.812  13.011  1.00  0.00     0.010 C 
HETATM   36  C7  UNL     1      -1.892   8.944  12.203  1.00  0.00     0.012 C 
BRANCH  35  37
HETATM   37  C8  UNL     1      -2.236   6.641  13.158  1.00  0.00     0.183 C 
BRANCH  37  38
HETATM   38  O1  UNL     1      -3.585   7.137  13.076  1.00  0.00    -0.321 OA
BRANCH  38  39
HETATM   39  C9  UNL     1      -4.433   6.777  14.075  1.00  0.00     0.254 C 
HETATM   40  C10 UNL     1      -5.726   6.296  13.495  1.00  0.00     0.126 C 
HETATM   41  O2  UNL     1      -4.194   6.820  15.275  1.00  0.00    -0.266 OA
ENDBRANCH  38  39
ENDBRANCH  37  38
ENDBRANCH  35  37
ENDBRANCH   5  35
TORSDOF 14
ENDMDL
MODEL 7
REMARK minimizedAffinity -7.04761314
REMARK CNNscore 0.600438118
REMARK CNNaffinity 6.29759359
REMARK  14 active torsions:
REMARK  status: ('A' for Active; 'I' for Inactive)
REMARK    1  A    between atoms: C5_5  and  C6_6 
REMARK    2  A    between atoms: C6_6  and  C8_8 
REMARK    3  A    between atoms: C8_8  and  O1_9 
REMARK    4  A    between atoms: O1_9  and  C9_10 
REMARK    5  A    between atoms: C17_20  and  O4_21 
REMARK    6  A    between atoms: C19_23  and  O5_24 
REMARK    7  A    between atoms: O5_24  and  C20_25 
REMARK    8  A    between atoms: C20_25  and  C21_27 
REMARK    9  A    between atoms: C21_27  and  C22_28 
REMARK   10  A    between atoms: C21_27  and  O7_30 
REMARK   11  A    between atoms: O7_30  and  C24_31 
REMARK   12  A    between atoms: C24_31  and  C25_33 
REMARK   13  A    between atoms: C25_33  and  C26_34 
REMARK   14  A    between atoms: C28_36  and  O9_38 
ROOT
HETATM    1  C1  UNL     1      -7.001   8.697  14.888  1.00  0.00     0.015 C 
HETATM    2  C2  UNL     1      -5.769   8.165  14.787  1.00  0.00    -0.082 C 
HETATM    3  C3  UNL     1      -5.483   6.983  13.907  1.00  0.00     0.034 C 
HETATM    4  C4  UNL     1      -4.253   7.265  13.058  1.00  0.00     0.010 C 
HETATM    5  C5  UNL     1      -2.969   7.523  13.883  1.00  0.00    -0.001 C 
HETATM    6  C11 UNL     1      -3.246   7.904  15.372  1.00  0.00     0.033 C 
HETATM    7  C12 UNL     1      -2.343   8.989  15.962  1.00  0.00     0.163 C 
HETATM    8  O3  UNL     1      -2.775  10.115  15.197  1.00  0.00    -0.376 OA
HETATM    9  C13 UNL     1      -4.193  10.174  15.320  1.00  0.00     0.134 C 
HETATM   10  C14 UNL     1      -4.464  11.149  16.489  1.00  0.00     0.068 C 
HETATM   11  C15 UNL     1      -3.564  12.408  16.515  1.00  0.00    -0.058 C 
HETATM   12  C16 UNL     1      -4.163  13.611  16.437  1.00  0.00     0.017 C 
HETATM   13  C17 UNL     1      -2.014  12.250  16.595  1.00  0.00     0.149 C 
HETATM   14  C18 UNL     1      -1.492  11.268  17.670  1.00  0.00     0.072 C 
HETATM   15  C19 UNL     1      -0.501  10.122  17.275  1.00  0.00     0.171 C 
HETATM   16  C28 UNL     1      -0.821   9.090  16.093  1.00  0.00     0.107 C 
HETATM   17  C29 UNL     1      -0.113   9.497  14.792  1.00  0.00     0.051 C 
HETATM   18  C30 UNL     1      -4.600   8.689  15.577  1.00  0.00     0.050 C 
ENDROOT
BRANCH  15  19
HETATM   19  O5  UNL     1       0.819  10.687  17.127  1.00  0.00    -0.311 OA
BRANCH  19  20
HETATM   20  C20 UNL     1       1.794  10.127  17.906  1.00  0.00     0.289 C 
HETATM   21  O6  UNL     1       2.541   9.223  17.547  1.00  0.00    -0.262 OA
BRANCH  20  22
HETATM   22  C21 UNL     1       1.819  10.784  19.288  1.00  0.00     0.231 C 
BRANCH  22  23
HETATM   23  C22 UNL     1       1.789  12.307  19.122  1.00  0.00     0.038 C 
HETATM   24  C23 UNL     1       0.937  12.986  20.187  1.00  0.00     0.008 C 
ENDBRANCH  22  23
BRANCH  22  25
HETATM   25  O7  UNL     1       3.028  10.428  19.979  1.00  0.00    -0.306 OA
BRANCH  25  26
HETATM   26  C24 UNL     1       2.824   9.891  21.213  1.00  0.00     0.259 C 
HETATM   27  O8  UNL     1       2.389   8.767  21.419  1.00  0.00    -0.265 OA
BRANCH  26  28
HETATM   28  C25 UNL     1       3.222  10.871  22.291  1.00  0.00     0.111 C 
BRANCH  28  29
HETATM   29  C26 UNL     1       4.570  10.521  22.911  1.00  0.00     0.005 C 
HETATM   30  C27 UNL     1       5.505  11.719  22.989  1.00  0.00     0.005 C 
ENDBRANCH  28  29
ENDBRANCH  26  28
ENDBRANCH  25  26
ENDBRANCH  22  25
ENDBRANCH  20  22
ENDBRANCH  19  20
ENDBRANCH  15  19
BRANCH  16  31
HETATM   31  O9  UNL     1      -0.292   7.792  16.414  1.00  0.00    -0.385 OA
HETATM   32  H45 UNL     1      -0.110   7.726  17.370  1.00  0.00     0.210 HD
ENDBRANCH  16  31
BRANCH  13  33
HETATM   33  O4  UNL     1      -1.434  13.533  16.887  1.00  0.00    -0.391 OA
HETATM   34  H25 UNL     1      -1.800  13.818  17.742  1.00  0.00     0.210 HD
ENDBRANCH  13  33
BRANCH   5  35
HETATM   35  C6  UNL     1      -1.930   6.361  13.752  1.00  0.00     0.010 C 
HETATM   36  C7  UNL     1      -2.172   5.198  14.725  1.00  0.00     0.012 C 
BRANCH  35  37
HETATM   37  C8  UNL     1      -1.864   5.827  12.307  1.00  0.00     0.183 C 
BRANCH  37  38
HETATM   38  O1  UNL     1      -0.842   4.817  12.210  1.00  0.00    -0.321 OA
BRANCH  38  39
HETATM   39  C9  UNL     1       0.212   5.087  11.396  1.00  0.00     0.254 C 
HETATM   40  C10 UNL     1       0.099   6.482  10.865  1.00  0.00     0.126 C 
HETATM   41  O2  UNL     1       1.132   4.325  11.131  1.00  0.00    -0.266 OA
ENDBRANCH  38  39
ENDBRANCH  37  38
ENDBRANCH  35  37
ENDBRANCH   5  35
TORSDOF 14
ENDMDL
MODEL 8
REMARK minimizedAffinity -7.33243704
REMARK CNNscore 0.563100457
REMARK CNNaffinity 6.20152855
REMARK  14 active torsions:
REMARK  status: ('A' for Active; 'I' for Inactive)
REMARK    1  A    between atoms: C5_5  and  C6_6 
REMARK    2  A    between atoms: C6_6  and  C8_8 
REMARK    3  A    between atoms: C8_8  and  O1_9 
REMARK    4  A    between atoms: O1_9  and  C9_10 
REMARK    5  A    between atoms: C17_20  and  O4_21 
REMARK    6  A    between atoms: C19_23  and  O5_24 
REMARK    7  A    between atoms: O5_24  and  C20_25 
REMARK    8  A    between atoms: C20_25  and  C21_27 
REMARK    9  A    between atoms: C21_27  and  C22_28 
REMARK   10  A    between atoms: C21_27  and  O7_30 
REMARK   11  A    between atoms: O7_30  and  C24_31 
REMARK   12  A    between atoms: C24_31  and  C25_33 
REMARK   13  A    between atoms: C25_33  and  C26_34 
REMARK   14  A    between atoms: C28_36  and  O9_38 
ROOT
HETATM    1  C1  UNL     1       1.350   6.858   9.299  1.00  0.00     0.015 C 
HETATM    2  C2  UNL     1       2.361   6.957  10.182  1.00  0.00    -0.082 C 
HETATM    3  C3  UNL     1       3.799   6.897   9.754  1.00  0.00     0.034 C 
HETATM    4  C4  UNL     1       4.568   8.046  10.389  1.00  0.00     0.010 C 
HETATM    5  C5  UNL     1       4.565   8.021  11.936  1.00  0.00    -0.001 C 
HETATM    6  C11 UNL     1       3.430   7.141  12.548  1.00  0.00     0.033 C 
HETATM    7  C12 UNL     1       2.753   7.700  13.800  1.00  0.00     0.163 C 
HETATM    8  O3  UNL     1       2.089   8.834  13.238  1.00  0.00    -0.376 OA
HETATM    9  C13 UNL     1       1.333   8.357  12.128  1.00  0.00     0.134 C 
HETATM   10  C14 UNL     1      -0.084   8.086  12.683  1.00  0.00     0.068 C 
HETATM   11  C15 UNL     1      -0.618   9.152  13.668  1.00  0.00    -0.058 C 
HETATM   12  C16 UNL     1      -1.750   9.804  13.338  1.00  0.00     0.017 C 
HETATM   13  C17 UNL     1       0.173   9.462  14.977  1.00  0.00     0.149 C 
HETATM   14  C18 UNL     1       0.619   8.232  15.801  1.00  0.00     0.072 C 
HETATM   15  C19 UNL     1       2.118   8.068  16.222  1.00  0.00     0.171 C 
HETATM   16  C28 UNL     1       3.313   8.133  15.157  1.00  0.00     0.107 C 
HETATM   17  C29 UNL     1       3.969   9.522  15.142  1.00  0.00     0.051 C 
HETATM   18  C30 UNL     1       2.125   7.095  11.662  1.00  0.00     0.050 C 
ENDROOT
BRANCH  15  19
HETATM   19  O5  UNL     1       2.378   8.935  17.346  1.00  0.00    -0.311 OA
BRANCH  19  20
HETATM   20  C20 UNL     1       1.956  10.228  17.208  1.00  0.00     0.289 C 
HETATM   21  O6  UNL     1       1.988  10.865  16.160  1.00  0.00    -0.262 OA
BRANCH  20  22
HETATM   22  C21 UNL     1       1.443  10.771  18.543  1.00  0.00     0.231 C 
BRANCH  22  23
HETATM   23  C22 UNL     1       0.323  11.784  18.279  1.00  0.00     0.038 C 
HETATM   24  C23 UNL     1      -0.099  12.520  19.544  1.00  0.00     0.008 C 
ENDBRANCH  22  23
BRANCH  22  25
HETATM   25  O7  UNL     1       2.504  11.442  19.243  1.00  0.00    -0.306 OA
BRANCH  25  26
HETATM   26  C24 UNL     1       3.101  10.685  20.204  1.00  0.00     0.259 C 
HETATM   27  O8  UNL     1       4.302  10.462  20.268  1.00  0.00    -0.265 OA
BRANCH  26  28
HETATM   28  C25 UNL     1       2.076  10.173  21.187  1.00  0.00     0.111 C 
BRANCH  28  29
HETATM   29  C26 UNL     1       2.725   9.495  22.388  1.00  0.00     0.005 C 
HETATM   30  C27 UNL     1       2.107   8.140  22.697  1.00  0.00     0.005 C 
ENDBRANCH  28  29
ENDBRANCH  26  28
ENDBRANCH  25  26
ENDBRANCH  22  25
ENDBRANCH  20  22
ENDBRANCH  19  20
ENDBRANCH  15  19
BRANCH  16  31
HETATM   31  O9  UNL     1       4.364   7.230  15.539  1.00  0.00    -0.385 OA
HETATM   32  H45 UNL     1       4.032   6.572  16.178  1.00  0.00     0.210 HD
ENDBRANCH  16  31
BRANCH  13  33
HETATM   33  O4  UNL     1      -0.656  10.262  15.839  1.00  0.00    -0.391 OA
HETATM   34  H25 UNL     1      -1.452   9.735  16.029  1.00  0.00     0.210 HD
ENDBRANCH  13  33
BRANCH   5  35
HETATM   35  C6  UNL     1       5.969   7.677  12.532  1.00  0.00     0.010 C 
HETATM   36  C7  UNL     1       6.807   6.741  11.650  1.00  0.00     0.012 C 
BRANCH  35  37
HETATM   37  C8  UNL     1       6.774   8.954  12.848  1.00  0.00     0.183 C 
BRANCH  37  38
HETATM   38  O1  UNL     1       7.362   8.845  14.157  1.00  0.00    -0.321 OA
BRANCH  38  39
HETATM   39  C9  UNL     1       8.662   8.452  14.215  1.00  0.00     0.254 C 
HETATM   40  C10 UNL     1       8.948   7.839  15.550  1.00  0.00     0.126 C 
HETATM   41  O2  UNL     1       9.489   8.562  13.320  1.00  0.00    -0.266 OA
ENDBRANCH  38  39
ENDBRANCH  37  38
ENDBRANCH  35  37
ENDBRANCH   5  35
TORSDOF 14
ENDMDL
MODEL 9
REMARK minimizedAffinity -8.13285923
REMARK CNNscore 0.552126706
REMARK CNNaffinity 7.09851408
REMARK  14 active torsions:
REMARK  status: ('A' for Active; 'I' for Inactive)
REMARK    1  A    between atoms: C5_5  and  C6_6 
REMARK    2  A    between atoms: C6_6  and  C8_8 
REMARK    3  A    between atoms: C8_8  and  O1_9 
REMARK    4  A    between atoms: O1_9  and  C9_10 
REMARK    5  A    between atoms: C17_20  and  O4_21 
REMARK    6  A    between atoms: C19_23  and  O5_24 
REMARK    7  A    between atoms: O5_24  and  C20_25 
REMARK    8  A    between atoms: C20_25  and  C21_27 
REMARK    9  A    between atoms: C21_27  and  C22_28 
REMARK   10  A    between atoms: C21_27  and  O7_30 
REMARK   11  A    between atoms: O7_30  and  C24_31 
REMARK   12  A    between atoms: C24_31  and  C25_33 
REMARK   13  A    between atoms: C25_33  and  C26_34 
REMARK   14  A    between atoms: C28_36  and  O9_38 
ROOT
HETATM    1  C1  UNL     1      -6.089   8.123  14.446  1.00  0.00     0.015 C 
HETATM    2  C2  UNL     1      -4.841   8.621  14.529  1.00  0.00    -0.082 C 
HETATM    3  C3  UNL     1      -4.493   9.742  15.465  1.00  0.00     0.034 C 
HETATM    4  C4  UNL     1      -3.238   9.382  16.246  1.00  0.00     0.010 C 
HETATM    5  C5  UNL     1      -1.994   9.146  15.357  1.00  0.00    -0.001 C 
HETATM    6  C11 UNL     1      -2.337   8.860  13.861  1.00  0.00     0.033 C 
HETATM    7  C12 UNL     1      -1.484   7.793  13.172  1.00  0.00     0.163 C 
HETATM    8  O3  UNL     1      -1.913   6.633  13.886  1.00  0.00    -0.376 OA
HETATM    9  C13 UNL     1      -3.337   6.613  13.816  1.00  0.00     0.134 C 
HETATM   10  C14 UNL     1      -3.675   5.716  12.604  1.00  0.00     0.068 C 
HETATM   11  C15 UNL     1      -2.809   4.441  12.468  1.00  0.00    -0.058 C 
HETATM   12  C16 UNL     1      -3.434   3.249  12.499  1.00  0.00     0.017 C 
HETATM   13  C17 UNL     1      -1.260   4.569  12.335  1.00  0.00     0.149 C 
HETATM   14  C18 UNL     1      -0.755   5.602  11.299  1.00  0.00     0.072 C 
HETATM   15  C19 UNL     1       0.278   6.700  11.722  1.00  0.00     0.171 C 
HETATM   16  C28 UNL     1       0.029   7.667  12.974  1.00  0.00     0.107 C 
HETATM   17  C29 UNL     1       0.776   7.167  14.220  1.00  0.00     0.051 C 
HETATM   18  C30 UNL     1      -3.716   8.120  13.663  1.00  0.00     0.050 C 
ENDROOT
BRANCH  15  19
HETATM   19  O5  UNL     1       1.589   6.099  11.783  1.00  0.00    -0.311 OA
BRANCH  19  20
HETATM   20  C20 UNL     1       2.217   5.921  10.582  1.00  0.00     0.289 C 
HETATM   21  O6  UNL     1       2.328   4.844  10.005  1.00  0.00    -0.262 OA
BRANCH  20  22
HETATM   22  C21 UNL     1       2.763   7.251  10.060  1.00  0.00     0.231 C 
BRANCH  22  23
HETATM   23  C22 UNL     1       3.769   7.814  11.071  1.00  0.00     0.038 C 
HETATM   24  C23 UNL     1       5.211   7.617  10.619  1.00  0.00     0.008 C 
ENDBRANCH  22  23
BRANCH  22  25
HETATM   25  O7  UNL     1       1.692   8.199   9.913  1.00  0.00    -0.306 OA
BRANCH  25  26
HETATM   26  C24 UNL     1       1.173   8.258   8.656  1.00  0.00     0.259 C 
HETATM   27  O8  UNL     1      -0.018   8.368   8.399  1.00  0.00    -0.265 OA
BRANCH  26  28
HETATM   28  C25 UNL     1       2.272   8.183   7.624  1.00  0.00     0.111 C 
BRANCH  28  29
HETATM   29  C26 UNL     1       1.942   7.199   6.508  1.00  0.00     0.005 C 
HETATM   30  C27 UNL     1       2.549   5.824   6.744  1.00  0.00     0.005 C 
ENDBRANCH  28  29
ENDBRANCH  26  28
ENDBRANCH  25  26
ENDBRANCH  22  25
ENDBRANCH  20  22
ENDBRANCH  19  20
ENDBRANCH  15  19
BRANCH  16  31
HETATM   31  O9  UNL     1       0.577   8.969  12.709  1.00  0.00    -0.385 OA
HETATM   32  H45 UNL     1       0.724   9.088  11.752  1.00  0.00     0.210 HD
ENDBRANCH  16  31
BRANCH  13  33
HETATM   33  O4  UNL     1      -0.722   3.293  11.945  1.00  0.00    -0.391 OA
HETATM   34  H25 UNL     1      -1.128   3.068  11.090  1.00  0.00     0.210 HD
ENDBRANCH  13  33
BRANCH   5  35
HETATM   35  C6  UNL     1      -0.922  10.274  15.514  1.00  0.00     0.010 C 
HETATM   36  C7  UNL     1      -1.341  11.619  14.905  1.00  0.00     0.012 C 
BRANCH  35  37
HETATM   37  C8  UNL     1      -0.527  10.471  16.992  1.00  0.00     0.183 C 
BRANCH  37  38
HETATM   38  O1  UNL     1       0.894  10.298  17.141  1.00  0.00    -0.321 OA
BRANCH  38  39
HETATM   39  C9  UNL     1       1.397  10.414  18.398  1.00  0.00     0.254 C 
HETATM   40  C10 UNL     1       0.411  11.117  19.277  1.00  0.00     0.126 C 
HETATM   41  O2  UNL     1       2.485  10.003  18.780  1.00  0.00    -0.266 OA
ENDBRANCH  38  39
ENDBRANCH  37  38
ENDBRANCH  35  37
ENDBRANCH   5  35
TORSDOF 14
ENDMDL
