MODEL 1
REMARK minimizedAffinity -9.6603508
REMARK  9 active torsions:
REMARK  status: ('A' for Active; 'I' for Inactive)
REMARK    1  A    between atoms: C2_2  and  C30_34 
REMARK    2  A    between atoms: C3_3  and  C4_4 
REMARK    3  A    between atoms: C4_4  and  C5_5 
REMARK    4  A    between atoms: C5_5  and  C6_6 
REMARK    5  A    between atoms: C6_6  and  C8_8 
REMARK    6  A    between atoms: C10_10  and  O1_12 
REMARK    7  A    between atoms: C14_15  and  O2_16 
REMARK    8  A    between atoms: C25_28  and  O4_29 
REMARK    9  A    between atoms: C30_34  and  O5_35 
ROOT
HETATM    1  C8  UNL     1       1.004   8.293  13.216  1.00  0.00     0.005 C 
HETATM    2  C9  UNL     1       0.908   9.645  13.930  1.00  0.00     0.048 C 
HETATM    3  C10 UNL     1      -0.287   9.471  14.890  1.00  0.00     0.079 C 
HETATM    4  C11 UNL     1       0.233   9.077  16.279  1.00  0.00     0.051 C 
HETATM    5  C12 UNL     1      -1.158   8.414  14.213  1.00  0.00    -0.030 C 
HETATM    6  C13 UNL     1      -2.269   7.809  14.700  1.00  0.00    -0.011 C 
HETATM    7  C14 UNL     1      -2.924   8.213  15.999  1.00  0.00     0.151 C 
HETATM    8  C15 UNL     1      -4.448   8.332  15.907  1.00  0.00     0.043 C 
HETATM    9  C16 UNL     1      -5.138   7.127  15.227  1.00  0.00     0.015 C 
HETATM   10  C17 UNL     1      -6.709   7.241  15.248  1.00  0.00     0.018 C 
HETATM   11  C18 UNL     1      -7.251   6.640  16.568  1.00  0.00     0.023 C 
HETATM   12  C19 UNL     1      -7.247   8.685  15.154  1.00  0.00     0.023 C 
HETATM   13  C20 UNL     1      -7.306   6.405  14.113  1.00  0.00     0.135 C 
HETATM   14  O3  UNL     1      -8.409   6.641  13.611  1.00  0.00    -0.297 OA
HETATM   15  C21 UNL     1      -6.531   5.190  13.688  1.00  0.00     0.080 C 
HETATM   16  C22 UNL     1      -5.134   5.546  13.202  1.00  0.00     0.020 C 
HETATM   17  C23 UNL     1      -4.497   6.834  13.815  1.00  0.00    -0.004 C 
HETATM   18  C24 UNL     1      -4.760   8.006  12.834  1.00  0.00     0.019 C 
HETATM   19  C25 UNL     1      -2.932   6.610  14.004  1.00  0.00     0.092 C 
HETATM   20  C26 UNL     1      -2.220   6.143  12.703  1.00  0.00     0.044 C 
HETATM   21  C27 UNL     1      -0.725   6.475  12.685  1.00  0.00     0.017 C 
HETATM   22  C28 UNL     1      -0.487   7.978  12.910  1.00  0.00    -0.013 C 
HETATM   23  C29 UNL     1      -1.070   8.793  11.740  1.00  0.00     0.021 C 
ENDROOT
BRANCH   1  24
HETATM   24  C6  UNL     1       2.051   8.218  12.068  1.00  0.00    -0.013 C 
HETATM   25  C7  UNL     1       3.346   8.997  12.322  1.00  0.00     0.010 C 
BRANCH  24  26
HETATM   26  C5  UNL     1       2.355   6.716  11.786  1.00  0.00     0.008 C 
BRANCH  26  27
HETATM   27  C4  UNL     1       3.491   6.424  10.795  1.00  0.00     0.028 C 
BRANCH  27  28
HETATM   28  C3  UNL     1       3.042   5.972   9.435  1.00  0.00    -0.022 C 
HETATM   29  C2  UNL     1       2.764   6.749   8.365  1.00  0.00    -0.064 C 
HETATM   30  C1  UNL     1       2.804   8.256   8.374  1.00  0.00     0.045 C 
BRANCH  29  31
HETATM   31  C30 UNL     1       2.386   6.133   7.041  1.00  0.00     0.197 C 
BRANCH  31  32
HETATM   32  O5  UNL     1       1.748   7.100   6.213  1.00  0.00    -0.397 OA
HETATM   33  H48 UNL     1       1.927   7.978   6.594  1.00  0.00     0.209 HD
ENDBRANCH  31  32
ENDBRANCH  29  31
ENDBRANCH  27  28
ENDBRANCH  26  27
ENDBRANCH  24  26
ENDBRANCH   1  24
BRANCH   3  34
HETATM   34  O1  UNL     1      -1.012  10.686  14.977  1.00  0.00    -0.386 OA
HETATM   35  H19 UNL     1      -0.385  11.389  15.207  1.00  0.00     0.211 HD
ENDBRANCH   3  34
BRANCH   7  36
HETATM   36  O2  UNL     1      -2.548   7.241  16.977  1.00  0.00    -0.391 OA
HETATM   37  H21 UNL     1      -3.155   7.335  17.728  1.00  0.00     0.210 HD
ENDBRANCH   7  36
BRANCH  19  38
HETATM   38  O4  UNL     1      -2.785   5.483  14.902  1.00  0.00    -0.384 OA
HETATM   39  H38 UNL     1      -2.069   5.710  15.531  1.00  0.00     0.211 HD
ENDBRANCH  19  38
TORSDOF 9
ENDMDL
MODEL 2
REMARK minimizedAffinity -9.62357426
REMARK  9 active torsions:
REMARK  status: ('A' for Active; 'I' for Inactive)
REMARK    1  A    between atoms: C2_2  and  C30_34 
REMARK    2  A    between atoms: C3_3  and  C4_4 
REMARK    3  A    between atoms: C4_4  and  C5_5 
REMARK    4  A    between atoms: C5_5  and  C6_6 
REMARK    5  A    between atoms: C6_6  and  C8_8 
REMARK    6  A    between atoms: C10_10  and  O1_12 
REMARK    7  A    between atoms: C14_15  and  O2_16 
REMARK    8  A    between atoms: C25_28  and  O4_29 
REMARK    9  A    between atoms: C30_34  and  O5_35 
ROOT
HETATM    1  C8  UNL     1      -2.930   7.933  15.293  1.00  0.00     0.005 C 
HETATM    2  C9  UNL     1      -1.968   7.563  16.428  1.00  0.00     0.048 C 
HETATM    3  C10 UNL     1      -0.578   7.924  15.864  1.00  0.00     0.079 C 
HETATM    4  C11 UNL     1      -0.183   9.325  16.347  1.00  0.00     0.051 C 
HETATM    5  C12 UNL     1      -0.745   7.795  14.350  1.00  0.00    -0.030 C 
HETATM    6  C13 UNL     1       0.146   8.120  13.381  1.00  0.00    -0.011 C 
HETATM    7  C14 UNL     1       1.563   8.550  13.674  1.00  0.00     0.151 C 
HETATM    8  C15 UNL     1       2.607   7.874  12.781  1.00  0.00     0.043 C 
HETATM    9  C16 UNL     1       2.264   7.899  11.274  1.00  0.00     0.015 C 
HETATM   10  C17 UNL     1       3.412   7.289  10.383  1.00  0.00     0.018 C 
HETATM   11  C18 UNL     1       4.437   8.396  10.036  1.00  0.00     0.023 C 
HETATM   12  C19 UNL     1       4.197   6.140  11.052  1.00  0.00     0.023 C 
HETATM   13  C20 UNL     1       2.834   6.800   9.053  1.00  0.00     0.135 C 
HETATM   14  O3  UNL     1       3.360   5.912   8.376  1.00  0.00    -0.297 OA
HETATM   15  C21 UNL     1       1.626   7.527   8.532  1.00  0.00     0.080 C 
HETATM   16  C22 UNL     1       0.456   7.458   9.503  1.00  0.00     0.020 C 
HETATM   17  C23 UNL     1       0.821   7.316  11.015  1.00  0.00    -0.004 C 
HETATM   18  C24 UNL     1       0.759   5.810  11.378  1.00  0.00     0.019 C 
HETATM   19  C25 UNL     1      -0.225   8.139  11.890  1.00  0.00     0.092 C 
HETATM   20  C26 UNL     1      -1.704   7.766  11.585  1.00  0.00     0.044 C 
HETATM   21  C27 UNL     1      -2.651   8.076  12.748  1.00  0.00     0.017 C 
HETATM   22  C28 UNL     1      -2.186   7.388  14.042  1.00  0.00    -0.013 C 
HETATM   23  C29 UNL     1      -2.260   5.856  13.890  1.00  0.00     0.021 C 
ENDROOT
BRANCH   1  24
HETATM   24  C6  UNL     1      -4.417   7.544  15.527  1.00  0.00    -0.013 C 
HETATM   25  C7  UNL     1      -5.432   8.649  15.217  1.00  0.00     0.010 C 
BRANCH  24  26
HETATM   26  C5  UNL     1      -4.721   6.263  14.693  1.00  0.00     0.008 C 
BRANCH  26  27
HETATM   27  C4  UNL     1      -5.817   6.387  13.627  1.00  0.00     0.028 C 
BRANCH  27  28
HETATM   28  C3  UNL     1      -6.684   5.171  13.467  1.00  0.00    -0.022 C 
HETATM   29  C2  UNL     1      -6.359   4.010  12.856  1.00  0.00    -0.064 C 
HETATM   30  C1  UNL     1      -5.048   3.754  12.156  1.00  0.00     0.045 C 
BRANCH  29  31
HETATM   31  C30 UNL     1      -7.324   2.851  12.836  1.00  0.00     0.197 C 
BRANCH  31  32
HETATM   32  O5  UNL     1      -8.621   3.284  13.230  1.00  0.00    -0.397 OA
HETATM   33  H48 UNL     1      -8.636   4.256  13.179  1.00  0.00     0.209 HD
ENDBRANCH  31  32
ENDBRANCH  29  31
ENDBRANCH  27  28
ENDBRANCH  26  27
ENDBRANCH  24  26
ENDBRANCH   1  24
BRANCH   3  34
HETATM   34  O1  UNL     1       0.379   6.977  16.309  1.00  0.00    -0.386 OA
HETATM   35  H19 UNL     1       0.316   6.924  17.275  1.00  0.00     0.211 HD
ENDBRANCH   3  34
BRANCH   7  36
HETATM   36  O2  UNL     1       1.608   9.971  13.524  1.00  0.00    -0.391 OA
HETATM   37  H21 UNL     1       2.541  10.226  13.452  1.00  0.00     0.210 HD
ENDBRANCH   7  36
BRANCH  19  38
HETATM   38  O4  UNL     1      -0.121   9.519  11.460  1.00  0.00    -0.384 OA
HETATM   39  H38 UNL     1      -0.146  10.073  12.268  1.00  0.00     0.211 HD
ENDBRANCH  19  38
TORSDOF 9
ENDMDL
MODEL 3
REMARK minimizedAffinity -9.5030098
REMARK  9 active torsions:
REMARK  status: ('A' for Active; 'I' for Inactive)
REMARK    1  A    between atoms: C2_2  and  C30_34 
REMARK    2  A    between atoms: C3_3  and  C4_4 
REMARK    3  A    between atoms: C4_4  and  C5_5 
REMARK    4  A    between atoms: C5_5  and  C6_6 
REMARK    5  A    between atoms: C6_6  and  C8_8 
REMARK    6  A    between atoms: C10_10  and  O1_12 
REMARK    7  A    between atoms: C14_15  and  O2_16 
REMARK    8  A    between atoms: C25_28  and  O4_29 
REMARK    9  A    between atoms: C30_34  and  O5_35 
ROOT
HETATM    1  C8  UNL     1       1.116   8.916  13.643  1.00  0.00     0.005 C 
HETATM    2  C9  UNL     1       0.816  10.231  14.370  1.00  0.00     0.048 C 
HETATM    3  C10 UNL     1      -0.412   9.896  15.243  1.00  0.00     0.079 C 
HETATM    4  C11 UNL     1       0.057   9.533  16.658  1.00  0.00     0.051 C 
HETATM    5  C12 UNL     1      -1.106   8.762  14.491  1.00  0.00    -0.030 C 
HETATM    6  C13 UNL     1      -2.169   8.022  14.891  1.00  0.00    -0.011 C 
HETATM    7  C14 UNL     1      -2.952   8.316  16.147  1.00  0.00     0.151 C 
HETATM    8  C15 UNL     1      -4.470   8.261  15.953  1.00  0.00     0.043 C 
HETATM    9  C16 UNL     1      -4.968   7.001  15.208  1.00  0.00     0.015 C 
HETATM   10  C17 UNL     1      -6.539   6.932  15.123  1.00  0.00     0.018 C 
HETATM   11  C18 UNL     1      -7.094   6.241  16.392  1.00  0.00     0.023 C 
HETATM   12  C19 UNL     1      -7.234   8.306  15.016  1.00  0.00     0.023 C 
HETATM   13  C20 UNL     1      -6.958   6.060  13.936  1.00  0.00     0.135 C 
HETATM   14  O3  UNL     1      -8.045   6.179  13.363  1.00  0.00    -0.297 OA
HETATM   15  C21 UNL     1      -6.020   4.953  13.546  1.00  0.00     0.080 C 
HETATM   16  C22 UNL     1      -4.644   5.480  13.163  1.00  0.00     0.020 C 
HETATM   17  C23 UNL     1      -4.204   6.817  13.839  1.00  0.00    -0.004 C 
HETATM   18  C24 UNL     1      -4.536   7.974  12.861  1.00  0.00     0.019 C 
HETATM   19  C25 UNL     1      -2.639   6.772  14.132  1.00  0.00     0.092 C 
HETATM   20  C26 UNL     1      -1.793   6.421  12.875  1.00  0.00     0.044 C 
HETATM   21  C27 UNL     1      -0.349   6.924  12.966  1.00  0.00     0.017 C 
HETATM   22  C28 UNL     1      -0.304   8.438  13.230  1.00  0.00    -0.013 C 
HETATM   23  C29 UNL     1      -0.900   9.209  12.036  1.00  0.00     0.021 C 
ENDROOT
BRANCH   1  24
HETATM   24  C6  UNL     1       2.239   8.991  12.569  1.00  0.00    -0.013 C 
HETATM   25  C7  UNL     1       3.301  10.066  12.817  1.00  0.00     0.010 C 
BRANCH  24  26
HETATM   26  C5  UNL     1       2.894   7.581  12.453  1.00  0.00     0.008 C 
BRANCH  26  27
HETATM   27  C4  UNL     1       3.993   7.425  11.394  1.00  0.00     0.028 C 
BRANCH  27  28
HETATM   28  C3  UNL     1       4.104   6.051  10.797  1.00  0.00    -0.022 C 
HETATM   29  C2  UNL     1       3.508   5.598   9.672  1.00  0.00    -0.064 C 
HETATM   30  C1  UNL     1       2.553   6.406   8.830  1.00  0.00     0.045 C 
BRANCH  29  31
HETATM   31  C30 UNL     1       3.774   4.202   9.165  1.00  0.00     0.197 C 
BRANCH  31  32
HETATM   32  O5  UNL     1       3.047   3.252   9.937  1.00  0.00    -0.397 OA
HETATM   33  H48 UNL     1       2.369   3.737  10.440  1.00  0.00     0.209 HD
ENDBRANCH  31  32
ENDBRANCH  29  31
ENDBRANCH  27  28
ENDBRANCH  26  27
ENDBRANCH  24  26
ENDBRANCH   1  24
BRANCH   3  34
HETATM   34  O1  UNL     1      -1.278  11.018  15.300  1.00  0.00    -0.386 OA
HETATM   35  H19 UNL     1      -0.754  11.783  15.584  1.00  0.00     0.211 HD
ENDBRANCH   3  34
BRANCH   7  36
HETATM   36  O2  UNL     1      -2.530   7.371  17.134  1.00  0.00    -0.391 OA
HETATM   37  H21 UNL     1      -3.193   7.376  17.843  1.00  0.00     0.210 HD
ENDBRANCH   7  36
BRANCH  19  38
HETATM   38  O4  UNL     1      -2.422   5.648  15.019  1.00  0.00    -0.384 OA
HETATM   39  H38 UNL     1      -1.781   5.940  15.699  1.00  0.00     0.211 HD
ENDBRANCH  19  38
TORSDOF 9
ENDMDL
MODEL 4
REMARK minimizedAffinity -9.41666222
REMARK  9 active torsions:
REMARK  status: ('A' for Active; 'I' for Inactive)
REMARK    1  A    between atoms: C2_2  and  C30_34 
REMARK    2  A    between atoms: C3_3  and  C4_4 
REMARK    3  A    between atoms: C4_4  and  C5_5 
REMARK    4  A    between atoms: C5_5  and  C6_6 
REMARK    5  A    between atoms: C6_6  and  C8_8 
REMARK    6  A    between atoms: C10_10  and  O1_12 
REMARK    7  A    between atoms: C14_15  and  O2_16 
REMARK    8  A    between atoms: C25_28  and  O4_29 
REMARK    9  A    between atoms: C30_34  and  O5_35 
ROOT
HETATM    1  C8  UNL     1      -5.279   4.120  13.486  1.00  0.00     0.005 C 
HETATM    2  C9  UNL     1      -5.375   3.653  12.030  1.00  0.00     0.048 C 
HETATM    3  C10 UNL     1      -3.906   3.610  11.559  1.00  0.00     0.079 C 
HETATM    4  C11 UNL     1      -3.369   2.180  11.702  1.00  0.00     0.051 C 
HETATM    5  C12 UNL     1      -3.204   4.645  12.437  1.00  0.00    -0.030 C 
HETATM    6  C13 UNL     1      -1.877   4.915  12.513  1.00  0.00    -0.011 C 
HETATM    7  C14 UNL     1      -0.856   4.294  11.590  1.00  0.00     0.151 C 
HETATM    8  C15 UNL     1       0.160   5.295  11.034  1.00  0.00     0.043 C 
HETATM    9  C16 UNL     1       0.789   6.219  12.104  1.00  0.00     0.015 C 
HETATM   10  C17 UNL     1       1.904   7.159  11.509  1.00  0.00     0.018 C 
HETATM   11  C18 UNL     1       3.265   6.423  11.531  1.00  0.00     0.023 C 
HETATM   12  C19 UNL     1       1.654   7.603  10.051  1.00  0.00     0.023 C 
HETATM   13  C20 UNL     1       2.066   8.398  12.394  1.00  0.00     0.135 C 
HETATM   14  O3  UNL     1       2.503   9.473  11.973  1.00  0.00    -0.297 OA
HETATM   15  C21 UNL     1       1.766   8.228  13.856  1.00  0.00     0.080 C 
HETATM   16  C22 UNL     1       0.333   7.776  14.095  1.00  0.00     0.020 C 
HETATM   17  C23 UNL     1      -0.328   6.941  12.952  1.00  0.00    -0.004 C 
HETATM   18  C24 UNL     1      -1.151   7.915  12.069  1.00  0.00     0.019 C 
HETATM   19  C25 UNL     1      -1.279   5.834  13.589  1.00  0.00     0.092 C 
HETATM   20  C26 UNL     1      -2.317   6.421  14.588  1.00  0.00     0.044 C 
HETATM   21  C27 UNL     1      -3.557   5.537  14.752  1.00  0.00     0.017 C 
HETATM   22  C28 UNL     1      -4.225   5.259  13.395  1.00  0.00    -0.013 C 
HETATM   23  C29 UNL     1      -4.769   6.567  12.788  1.00  0.00     0.021 C 
ENDROOT
BRANCH   1  24
HETATM   24  C6  UNL     1      -6.639   4.393  14.189  1.00  0.00    -0.013 C 
HETATM   25  C7  UNL     1      -6.641   5.582  15.156  1.00  0.00     0.010 C 
BRANCH  24  26
HETATM   26  C5  UNL     1      -7.728   4.573  13.088  1.00  0.00     0.008 C 
BRANCH  26  27
HETATM   27  C4  UNL     1      -8.216   6.007  12.840  1.00  0.00     0.028 C 
BRANCH  27  28
HETATM   28  C3  UNL     1      -9.647   6.261  13.219  1.00  0.00    -0.022 C 
HETATM   29  C2  UNL     1     -10.109   7.179  14.096  1.00  0.00    -0.064 C 
HETATM   30  C1  UNL     1      -9.232   8.094  14.913  1.00  0.00     0.045 C 
BRANCH  29  31
HETATM   31  C30 UNL     1     -11.590   7.355  14.321  1.00  0.00     0.197 C 
BRANCH  31  32
HETATM   32  O5  UNL     1     -12.191   6.106  14.647  1.00  0.00    -0.397 OA
HETATM   33  H48 UNL     1     -11.478   5.490  14.888  1.00  0.00     0.209 HD
ENDBRANCH  31  32
ENDBRANCH  29  31
ENDBRANCH  27  28
ENDBRANCH  26  27
ENDBRANCH  24  26
ENDBRANCH   1  24
BRANCH   3  34
HETATM   34  O1  UNL     1      -3.826   4.018  10.203  1.00  0.00    -0.386 OA
HETATM   35  H19 UNL     1      -4.448   3.476   9.694  1.00  0.00     0.211 HD
ENDBRANCH   3  34
BRANCH   7  36
HETATM   36  O2  UNL     1      -0.201   3.259  12.327  1.00  0.00    -0.391 OA
HETATM   37  H21 UNL     1       0.614   3.034  11.850  1.00  0.00     0.210 HD
ENDBRANCH   7  36
BRANCH  19  38
HETATM   38  O4  UNL     1      -0.436   4.998  14.418  1.00  0.00    -0.384 OA
HETATM   39  H38 UNL     1      -0.710   4.071  14.263  1.00  0.00     0.211 HD
ENDBRANCH  19  38
TORSDOF 9
ENDMDL
MODEL 5
REMARK minimizedAffinity -9.2099514
REMARK  9 active torsions:
REMARK  status: ('A' for Active; 'I' for Inactive)
REMARK    1  A    between atoms: C2_2  and  C30_34 
REMARK    2  A    between atoms: C3_3  and  C4_4 
REMARK    3  A    between atoms: C4_4  and  C5_5 
REMARK    4  A    between atoms: C5_5  and  C6_6 
REMARK    5  A    between atoms: C6_6  and  C8_8 
REMARK    6  A    between atoms: C10_10  and  O1_12 
REMARK    7  A    between atoms: C14_15  and  O2_16 
REMARK    8  A    between atoms: C25_28  and  O4_29 
REMARK    9  A    between atoms: C30_34  and  O5_35 
ROOT
HETATM    1  C8  UNL     1      -3.006   5.114  12.779  1.00  0.00     0.005 C 
HETATM    2  C9  UNL     1      -1.713   5.349  11.992  1.00  0.00     0.048 C 
HETATM    3  C10 UNL     1      -0.816   6.123  12.980  1.00  0.00     0.079 C 
HETATM    4  C11 UNL     1       0.117   5.137  13.696  1.00  0.00     0.051 C 
HETATM    5  C12 UNL     1      -1.804   6.844  13.895  1.00  0.00    -0.030 C 
HETATM    6  C13 UNL     1      -1.536   7.566  15.011  1.00  0.00    -0.011 C 
HETATM    7  C14 UNL     1      -0.134   7.897  15.462  1.00  0.00     0.151 C 
HETATM    8  C15 UNL     1       0.047   9.356  15.887  1.00  0.00     0.043 C 
HETATM    9  C16 UNL     1      -1.041   9.874  16.856  1.00  0.00     0.015 C 
HETATM   10  C17 UNL     1      -0.760  11.343  17.351  1.00  0.00     0.018 C 
HETATM   11  C18 UNL     1       0.150  11.299  18.602  1.00  0.00     0.023 C 
HETATM   12  C19 UNL     1      -0.058  12.243  16.312  1.00  0.00     0.023 C 
HETATM   13  C20 UNL     1      -2.069  12.003  17.790  1.00  0.00     0.135 C 
HETATM   14  O3  UNL     1      -2.240  13.226  17.790  1.00  0.00    -0.297 OA
HETATM   15  C21 UNL     1      -3.136  11.095  18.334  1.00  0.00     0.080 C 
HETATM   16  C22 UNL     1      -3.563  10.045  17.319  1.00  0.00     0.020 C 
HETATM   17  C23 UNL     1      -2.485   9.618  16.272  1.00  0.00    -0.004 C 
HETATM   18  C24 UNL     1      -2.716  10.452  14.986  1.00  0.00     0.019 C 
HETATM   19  C25 UNL     1      -2.639   8.064  15.959  1.00  0.00     0.092 C 
HETATM   20  C26 UNL     1      -4.082   7.666  15.539  1.00  0.00     0.044 C 
HETATM   21  C27 UNL     1      -4.130   6.382  14.704  1.00  0.00     0.017 C 
HETATM   22  C28 UNL     1      -3.228   6.492  13.463  1.00  0.00    -0.013 C 
HETATM   23  C29 UNL     1      -3.756   7.584  12.512  1.00  0.00     0.021 C 
ENDROOT
BRANCH   1  24
HETATM   24  C6  UNL     1      -4.168   4.465  11.974  1.00  0.00    -0.013 C 
HETATM   25  C7  UNL     1      -3.741   3.738  10.695  1.00  0.00     0.010 C 
BRANCH  24  26
HETATM   26  C5  UNL     1      -4.940   3.503  12.926  1.00  0.00     0.008 C 
BRANCH  26  27
HETATM   27  C4  UNL     1      -6.464   3.678  12.984  1.00  0.00     0.028 C 
BRANCH  27  28
HETATM   28  C3  UNL     1      -6.945   4.701  13.972  1.00  0.00    -0.022 C 
HETATM   29  C2  UNL     1      -7.937   5.602  13.799  1.00  0.00    -0.064 C 
HETATM   30  C1  UNL     1      -8.714   5.778  12.519  1.00  0.00     0.045 C 
BRANCH  29  31
HETATM   31  C30 UNL     1      -8.347   6.524  14.920  1.00  0.00     0.197 C 
BRANCH  31  32
HETATM   32  O5  UNL     1      -8.877   5.772  16.007  1.00  0.00    -0.397 OA
HETATM   33  H48 UNL     1      -8.624   4.842  15.873  1.00  0.00     0.209 HD
ENDBRANCH  31  32
ENDBRANCH  29  31
ENDBRANCH  27  28
ENDBRANCH  26  27
ENDBRANCH  24  26
ENDBRANCH   1  24
BRANCH   3  34
HETATM   34  O1  UNL     1      -0.046   7.083  12.276  1.00  0.00    -0.386 OA
HETATM   35  H19 UNL     1       0.416   6.624  11.558  1.00  0.00     0.211 HD
ENDBRANCH   3  34
BRANCH   7  36
HETATM   36  O2  UNL     1       0.178   7.010  16.539  1.00  0.00    -0.391 OA
HETATM   37  H21 UNL     1       0.951   7.374  17.000  1.00  0.00     0.210 HD
ENDBRANCH   7  36
BRANCH  19  38
HETATM   38  O4  UNL     1      -2.441   7.372  17.216  1.00  0.00    -0.384 OA
HETATM   39  H38 UNL     1      -1.883   6.589  17.027  1.00  0.00     0.211 HD
ENDBRANCH  19  38
TORSDOF 9
ENDMDL
MODEL 6
REMARK minimizedAffinity -9.13502216
REMARK  9 active torsions:
REMARK  status: ('A' for Active; 'I' for Inactive)
REMARK    1  A    between atoms: C2_2  and  C30_34 
REMARK    2  A    between atoms: C3_3  and  C4_4 
REMARK    3  A    between atoms: C4_4  and  C5_5 
REMARK    4  A    between atoms: C5_5  and  C6_6 
REMARK    5  A    between atoms: C6_6  and  C8_8 
REMARK    6  A    between atoms: C10_10  and  O1_12 
REMARK    7  A    between atoms: C14_15  and  O2_16 
REMARK    8  A    between atoms: C25_28  and  O4_29 
REMARK    9  A    between atoms: C30_34  and  O5_35 
ROOT
HETATM    1  C8  UNL     1      -2.451   6.167  12.916  1.00  0.00     0.005 C 
HETATM    2  C9  UNL     1      -3.176   5.502  14.089  1.00  0.00     0.048 C 
HETATM    3  C10 UNL     1      -3.434   6.665  15.070  1.00  0.00     0.079 C 
HETATM    4  C11 UNL     1      -4.851   7.209  14.850  1.00  0.00     0.051 C 
HETATM    5  C12 UNL     1      -2.315   7.662  14.767  1.00  0.00    -0.030 C 
HETATM    6  C13 UNL     1      -2.152   8.911  15.267  1.00  0.00    -0.011 C 
HETATM    7  C14 UNL     1      -3.022   9.482  16.360  1.00  0.00     0.151 C 
HETATM    8  C15 UNL     1      -2.236  10.201  17.460  1.00  0.00     0.043 C 
HETATM    9  C16 UNL     1      -1.184  11.205  16.934  1.00  0.00     0.015 C 
HETATM   10  C17 UNL     1      -0.473  11.998  18.095  1.00  0.00     0.018 C 
HETATM   11  C18 UNL     1      -1.307  13.254  18.446  1.00  0.00     0.023 C 
HETATM   12  C19 UNL     1      -0.294  11.195  19.401  1.00  0.00     0.023 C 
HETATM   13  C20 UNL     1       0.892  12.502  17.620  1.00  0.00     0.135 C 
HETATM   14  O3  UNL     1       1.826  12.742  18.391  1.00  0.00    -0.297 OA
HETATM   15  C21 UNL     1       1.029  12.803  16.154  1.00  0.00     0.080 C 
HETATM   16  C22 UNL     1       0.756  11.579  15.293  1.00  0.00     0.020 C 
HETATM   17  C23 UNL     1      -0.220  10.517  15.891  1.00  0.00    -0.004 C 
HETATM   18  C24 UNL     1       0.635   9.417  16.572  1.00  0.00     0.019 C 
HETATM   19  C25 UNL     1      -1.100   9.890  14.722  1.00  0.00     0.092 C 
HETATM   20  C26 UNL     1      -0.247   9.334  13.546  1.00  0.00     0.044 C 
HETATM   21  C27 UNL     1      -0.973   8.255  12.736  1.00  0.00     0.017 C 
HETATM   22  C28 UNL     1      -1.445   7.104  13.641  1.00  0.00    -0.013 C 
HETATM   23  C29 UNL     1      -0.234   6.370  14.249  1.00  0.00     0.021 C 
ENDROOT
BRANCH   1  24
HETATM   24  C6  UNL     1      -1.933   5.196  11.816  1.00  0.00    -0.013 C 
HETATM   25  C7  UNL     1      -0.411   5.164  11.646  1.00  0.00     0.010 C 
BRANCH  24  26
HETATM   26  C5  UNL     1      -2.486   3.772  12.126  1.00  0.00     0.008 C 
BRANCH  26  27
HETATM   27  C4  UNL     1      -3.680   3.306  11.282  1.00  0.00     0.028 C 
BRANCH  27  28
HETATM   28  C3  UNL     1      -5.020   3.464  11.941  1.00  0.00    -0.022 C 
HETATM   29  C2  UNL     1      -6.051   2.591  11.918  1.00  0.00    -0.064 C 
HETATM   30  C1  UNL     1      -6.050   1.293  11.150  1.00  0.00     0.045 C 
BRANCH  29  31
HETATM   31  C30 UNL     1      -7.316   2.868  12.690  1.00  0.00     0.197 C 
BRANCH  31  32
HETATM   32  O5  UNL     1      -8.204   1.760  12.596  1.00  0.00    -0.397 OA
HETATM   33  H48 UNL     1      -7.693   1.000  12.268  1.00  0.00     0.209 HD
ENDBRANCH  31  32
ENDBRANCH  29  31
ENDBRANCH  27  28
ENDBRANCH  26  27
ENDBRANCH  24  26
ENDBRANCH   1  24
BRANCH   3  34
HETATM   34  O1  UNL     1      -3.300   6.205  16.404  1.00  0.00    -0.386 OA
HETATM   35  H19 UNL     1      -3.872   5.430  16.509  1.00  0.00     0.211 HD
ENDBRANCH   3  34
BRANCH   7  36
HETATM   36  O2  UNL     1      -3.951  10.371  15.735  1.00  0.00    -0.391 OA
HETATM   37  H21 UNL     1      -4.331  10.930  16.430  1.00  0.00     0.210 HD
ENDBRANCH   7  36
BRANCH  19  38
HETATM   38  O4  UNL     1      -1.833  10.988  14.127  1.00  0.00    -0.384 OA
HETATM   39  H38 UNL     1      -2.746  10.671  13.968  1.00  0.00     0.211 HD
ENDBRANCH  19  38
TORSDOF 9
ENDMDL
MODEL 7
REMARK minimizedAffinity -9.09952164
REMARK  9 active torsions:
REMARK  status: ('A' for Active; 'I' for Inactive)
REMARK    1  A    between atoms: C2_2  and  C30_34 
REMARK    2  A    between atoms: C3_3  and  C4_4 
REMARK    3  A    between atoms: C4_4  and  C5_5 
REMARK    4  A    between atoms: C5_5  and  C6_6 
REMARK    5  A    between atoms: C6_6  and  C8_8 
REMARK    6  A    between atoms: C10_10  and  O1_12 
REMARK    7  A    between atoms: C14_15  and  O2_16 
REMARK    8  A    between atoms: C25_28  and  O4_29 
REMARK    9  A    between atoms: C30_34  and  O5_35 
ROOT
HETATM    1  C8  UNL     1       0.925   7.284  13.026  1.00  0.00     0.005 C 
HETATM    2  C9  UNL     1       0.974   8.748  13.476  1.00  0.00     0.048 C 
HETATM    3  C10 UNL     1      -0.192   8.863  14.480  1.00  0.00     0.079 C 
HETATM    4  C11 UNL     1       0.348   8.686  15.905  1.00  0.00     0.051 C 
HETATM    5  C12 UNL     1      -1.177   7.783  14.034  1.00  0.00    -0.030 C 
HETATM    6  C13 UNL     1      -2.315   7.383  14.652  1.00  0.00    -0.011 C 
HETATM    7  C14 UNL     1      -2.880   8.077  15.867  1.00  0.00     0.151 C 
HETATM    8  C15 UNL     1      -4.391   8.316  15.792  1.00  0.00     0.043 C 
HETATM    9  C16 UNL     1      -5.208   7.075  15.365  1.00  0.00     0.015 C 
HETATM   10  C17 UNL     1      -6.762   7.333  15.403  1.00  0.00     0.018 C 
HETATM   11  C18 UNL     1      -7.299   7.038  16.824  1.00  0.00     0.023 C 
HETATM   12  C19 UNL     1      -7.177   8.779  15.053  1.00  0.00     0.023 C 
HETATM   13  C20 UNL     1      -7.474   6.361  14.459  1.00  0.00     0.135 C 
HETATM   14  O3  UNL     1      -8.572   6.600  13.948  1.00  0.00    -0.297 OA
HETATM   15  C21 UNL     1      -6.823   5.022  14.251  1.00  0.00     0.080 C 
HETATM   16  C22 UNL     1      -5.421   5.154  13.673  1.00  0.00     0.020 C 
HETATM   17  C23 UNL     1      -4.652   6.469  14.019  1.00  0.00    -0.004 C 
HETATM   18  C24 UNL     1      -4.853   7.459  12.843  1.00  0.00     0.019 C 
HETATM   19  C25 UNL     1      -3.105   6.142  14.209  1.00  0.00     0.092 C 
HETATM   20  C26 UNL     1      -2.489   5.380  13.001  1.00  0.00     0.044 C 
HETATM   21  C27 UNL     1      -0.973   5.565  12.887  1.00  0.00     0.017 C 
HETATM   22  C28 UNL     1      -0.599   7.055  12.820  1.00  0.00    -0.013 C 
HETATM   23  C29 UNL     1      -1.158   7.691  11.532  1.00  0.00     0.021 C 
ENDROOT
BRANCH   1  24
HETATM   24  C6  UNL     1       1.914   6.903  11.888  1.00  0.00    -0.013 C 
HETATM   25  C7  UNL     1       1.540   5.645  11.098  1.00  0.00     0.010 C 
BRANCH  24  26
HETATM   26  C5  UNL     1       2.058   8.131  10.938  1.00  0.00     0.008 C 
BRANCH  26  27
HETATM   27  C4  UNL     1       3.236   8.099   9.955  1.00  0.00     0.028 C 
BRANCH  27  28
HETATM   28  C3  UNL     1       4.362   7.186  10.348  1.00  0.00    -0.022 C 
HETATM   29  C2  UNL     1       5.598   7.543  10.761  1.00  0.00    -0.064 C 
HETATM   30  C1  UNL     1       6.090   8.966  10.843  1.00  0.00     0.045 C 
BRANCH  29  31
HETATM   31  C30 UNL     1       6.602   6.500  11.185  1.00  0.00     0.197 C 
BRANCH  31  32
HETATM   32  O5  UNL     1       6.172   5.207  10.773  1.00  0.00    -0.397 OA
HETATM   33  H48 UNL     1       5.470   5.327  10.111  1.00  0.00     0.209 HD
ENDBRANCH  31  32
ENDBRANCH  29  31
ENDBRANCH  27  28
ENDBRANCH  26  27
ENDBRANCH  24  26
ENDBRANCH   1  24
BRANCH   3  34
HETATM   34  O1  UNL     1      -0.807  10.135  14.356  1.00  0.00    -0.386 OA
HETATM   35  H19 UNL     1      -0.114  10.808  14.435  1.00  0.00     0.211 HD
ENDBRANCH   3  34
BRANCH   7  36
HETATM   36  O2  UNL     1      -2.549   7.272  17.001  1.00  0.00    -0.391 OA
HETATM   37  H21 UNL     1      -3.115   7.558  17.736  1.00  0.00     0.210 HD
ENDBRANCH   7  36
BRANCH  19  38
HETATM   38  O4  UNL     1      -3.019   5.191  15.298  1.00  0.00    -0.384 OA
HETATM   39  H38 UNL     1      -2.262   5.463  15.856  1.00  0.00     0.211 HD
ENDBRANCH  19  38
TORSDOF 9
ENDMDL
MODEL 8
REMARK minimizedAffinity -9.07709122
REMARK  9 active torsions:
REMARK  status: ('A' for Active; 'I' for Inactive)
REMARK    1  A    between atoms: C2_2  and  C30_34 
REMARK    2  A    between atoms: C3_3  and  C4_4 
REMARK    3  A    between atoms: C4_4  and  C5_5 
REMARK    4  A    between atoms: C5_5  and  C6_6 
REMARK    5  A    between atoms: C6_6  and  C8_8 
REMARK    6  A    between atoms: C10_10  and  O1_12 
REMARK    7  A    between atoms: C14_15  and  O2_16 
REMARK    8  A    between atoms: C25_28  and  O4_29 
REMARK    9  A    between atoms: C30_34  and  O5_35 
ROOT
HETATM    1  C8  UNL     1      -2.079   5.425  11.688  1.00  0.00     0.005 C 
HETATM    2  C9  UNL     1      -3.063   5.617  12.846  1.00  0.00     0.048 C 
HETATM    3  C10 UNL     1      -2.635   6.961  13.473  1.00  0.00     0.079 C 
HETATM    4  C11 UNL     1      -3.506   8.087  12.900  1.00  0.00     0.051 C 
HETATM    5  C12 UNL     1      -1.148   7.073  13.137  1.00  0.00    -0.030 C 
HETATM    6  C13 UNL     1      -0.319   8.124  13.353  1.00  0.00    -0.011 C 
HETATM    7  C14 UNL     1      -0.732   9.354  14.123  1.00  0.00     0.151 C 
HETATM    8  C15 UNL     1       0.312   9.822  15.141  1.00  0.00     0.043 C 
HETATM    9  C16 UNL     1       1.749   9.911  14.578  1.00  0.00     0.015 C 
HETATM   10  C17 UNL     1       2.772  10.495  15.625  1.00  0.00     0.018 C 
HETATM   11  C18 UNL     1       2.778  12.040  15.530  1.00  0.00     0.023 C 
HETATM   12  C19 UNL     1       2.460  10.133  17.093  1.00  0.00     0.023 C 
HETATM   13  C20 UNL     1       4.190  10.033  15.280  1.00  0.00     0.135 C 
HETATM   14  O3  UNL     1       5.092   9.947  16.118  1.00  0.00    -0.297 OA
HETATM   15  C21 UNL     1       4.485   9.781  13.828  1.00  0.00     0.080 C 
HETATM   16  C22 UNL     1       3.582   8.705  13.242  1.00  0.00     0.020 C 
HETATM   17  C23 UNL     1       2.174   8.551  13.899  1.00  0.00    -0.004 C 
HETATM   18  C24 UNL     1       2.263   7.413  14.949  1.00  0.00     0.019 C 
HETATM   19  C25 UNL     1       1.104   8.186  12.778  1.00  0.00     0.092 C 
HETATM   20  C26 UNL     1       1.512   6.953  11.923  1.00  0.00     0.044 C 
HETATM   21  C27 UNL     1       0.314   6.250  11.276  1.00  0.00     0.017 C 
HETATM   22  C28 UNL     1      -0.728   5.843  12.332  1.00  0.00    -0.013 C 
HETATM   23  C29 UNL     1      -0.138   4.787  13.287  1.00  0.00     0.021 C 
ENDROOT
BRANCH   1  24
HETATM   24  C6  UNL     1      -2.182   4.062  10.946  1.00  0.00    -0.013 C 
HETATM   25  C7  UNL     1      -1.395   2.915  11.588  1.00  0.00     0.010 C 
BRANCH  24  26
HETATM   26  C5  UNL     1      -3.690   3.693  10.814  1.00  0.00     0.008 C 
BRANCH  26  27
HETATM   27  C4  UNL     1      -4.180   2.510  11.660  1.00  0.00     0.028 C 
BRANCH  27  28
HETATM   28  C3  UNL     1      -5.667   2.450  11.863  1.00  0.00    -0.022 C 
HETATM   29  C2  UNL     1      -6.427   3.299  12.588  1.00  0.00    -0.064 C 
HETATM   30  C1  UNL     1      -5.885   4.454  13.391  1.00  0.00     0.045 C 
BRANCH  29  31
HETATM   31  C30 UNL     1      -7.927   3.141  12.640  1.00  0.00     0.197 C 
BRANCH  31  32
HETATM   32  O5  UNL     1      -8.279   1.763  12.566  1.00  0.00    -0.397 OA
HETATM   33  H48 UNL     1      -7.476   1.244  12.748  1.00  0.00     0.209 HD
ENDBRANCH  31  32
ENDBRANCH  29  31
ENDBRANCH  27  28
ENDBRANCH  26  27
ENDBRANCH  24  26
ENDBRANCH   1  24
BRANCH   3  34
HETATM   34  O1  UNL     1      -2.792   6.904  14.881  1.00  0.00    -0.386 OA
HETATM   35  H19 UNL     1      -3.701   6.622  15.066  1.00  0.00     0.211 HD
ENDBRANCH   3  34
BRANCH   7  36
HETATM   36  O2  UNL     1      -1.001  10.378  13.162  1.00  0.00    -0.391 OA
HETATM   37  H21 UNL     1      -1.011  11.225  13.636  1.00  0.00     0.210 HD
ENDBRANCH   7  36
BRANCH  19  38
HETATM   38  O4  UNL     1       1.115   9.282  11.831  1.00  0.00    -0.384 OA
HETATM   39  H38 UNL     1       0.182   9.470  11.600  1.00  0.00     0.211 HD
ENDBRANCH  19  38
TORSDOF 9
ENDMDL
MODEL 9
REMARK minimizedAffinity -8.8614502
REMARK  9 active torsions:
REMARK  status: ('A' for Active; 'I' for Inactive)
REMARK    1  A    between atoms: C2_2  and  C30_34 
REMARK    2  A    between atoms: C3_3  and  C4_4 
REMARK    3  A    between atoms: C4_4  and  C5_5 
REMARK    4  A    between atoms: C5_5  and  C6_6 
REMARK    5  A    between atoms: C6_6  and  C8_8 
REMARK    6  A    between atoms: C10_10  and  O1_12 
REMARK    7  A    between atoms: C14_15  and  O2_16 
REMARK    8  A    between atoms: C25_28  and  O4_29 
REMARK    9  A    between atoms: C30_34  and  O5_35 
ROOT
HETATM    1  C8  UNL     1      -2.521   4.726  12.451  1.00  0.00     0.005 C 
HETATM    2  C9  UNL     1      -1.635   4.920  11.216  1.00  0.00     0.048 C 
HETATM    3  C10 UNL     1      -0.366   5.595  11.776  1.00  0.00     0.079 C 
HETATM    4  C11 UNL     1       0.702   4.525  12.041  1.00  0.00     0.051 C 
HETATM    5  C12 UNL     1      -0.854   6.331  13.023  1.00  0.00    -0.030 C 
HETATM    6  C13 UNL     1      -0.113   6.984  13.951  1.00  0.00    -0.011 C 
HETATM    7  C14 UNL     1       1.373   7.212  13.809  1.00  0.00     0.151 C 
HETATM    8  C15 UNL     1       1.812   8.638  14.152  1.00  0.00     0.043 C 
HETATM    9  C16 UNL     1       1.240   9.174  15.485  1.00  0.00     0.015 C 
HETATM   10  C17 UNL     1       1.800  10.600  15.852  1.00  0.00     0.018 C 
HETATM   11  C18 UNL     1       3.127  10.447  16.633  1.00  0.00     0.023 C 
HETATM   12  C19 UNL     1       2.092  11.504  14.635  1.00  0.00     0.023 C 
HETATM   13  C20 UNL     1       0.824  11.316  16.790  1.00  0.00     0.135 C 
HETATM   14  O3  UNL     1       0.757  12.545  16.880  1.00  0.00    -0.297 OA
HETATM   15  C21 UNL     1       0.001  10.448  17.699  1.00  0.00     0.080 C 
HETATM   16  C22 UNL     1      -0.869   9.471  16.921  1.00  0.00     0.020 C 
HETATM   17  C23 UNL     1      -0.331   9.029  15.523  1.00  0.00    -0.004 C 
HETATM   18  C24 UNL     1      -0.995   9.933  14.452  1.00  0.00     0.019 C 
HETATM   19  C25 UNL     1      -0.707   7.503  15.270  1.00  0.00     0.092 C 
HETATM   20  C26 UNL     1      -2.223   7.209  15.456  1.00  0.00     0.044 C 
HETATM   21  C27 UNL     1      -2.692   5.970  14.687  1.00  0.00     0.017 C 
HETATM   22  C28 UNL     1      -2.353   6.082  13.191  1.00  0.00    -0.013 C 
HETATM   23  C29 UNL     1      -3.136   7.245  12.551  1.00  0.00     0.021 C 
ENDROOT
BRANCH   1  24
HETATM   24  C6  UNL     1      -3.950   4.183  12.167  1.00  0.00    -0.013 C 
HETATM   25  C7  UNL     1      -4.023   2.686  11.850  1.00  0.00     0.010 C 
BRANCH  24  26
HETATM   26  C5  UNL     1      -4.855   4.535  13.387  1.00  0.00     0.008 C 
BRANCH  26  27
HETATM   27  C4  UNL     1      -6.312   4.060  13.315  1.00  0.00     0.028 C 
BRANCH  27  28
HETATM   28  C3  UNL     1      -7.338   5.154  13.386  1.00  0.00    -0.022 C 
HETATM   29  C2  UNL     1      -7.812   5.759  14.497  1.00  0.00    -0.064 C 
HETATM   30  C1  UNL     1      -7.422   5.383  15.904  1.00  0.00     0.045 C 
BRANCH  29  31
HETATM   31  C30 UNL     1      -8.799   6.895  14.396  1.00  0.00     0.197 C 
BRANCH  31  32
HETATM   32  O5  UNL     1     -10.113   6.434  14.692  1.00  0.00    -0.397 OA
HETATM   33  H48 UNL     1     -10.031   5.566  15.124  1.00  0.00     0.209 HD
ENDBRANCH  31  32
ENDBRANCH  29  31
ENDBRANCH  27  28
ENDBRANCH  26  27
ENDBRANCH  24  26
ENDBRANCH   1  24
BRANCH   3  34
HETATM   34  O1  UNL     1       0.127   6.539  10.840  1.00  0.00    -0.386 OA
HETATM   35  H19 UNL     1       0.230   6.087   9.989  1.00  0.00     0.211 HD
ENDBRANCH   3  34
BRANCH   7  36
HETATM   36  O2  UNL     1       2.024   6.261  14.654  1.00  0.00    -0.391 OA
HETATM   37  H21 UNL     1       2.940   6.559  14.774  1.00  0.00     0.210 HD
ENDBRANCH   7  36
BRANCH  19  38
HETATM   38  O4  UNL     1      -0.076   6.745  16.330  1.00  0.00    -0.384 OA
HETATM   39  H38 UNL     1       0.304   5.940  15.919  1.00  0.00     0.211 HD
ENDBRANCH  19  38
TORSDOF 9
ENDMDL
