MODEL 1
REMARK minimizedAffinity -7.46827269
REMARK CNNscore 0.43626067
REMARK CNNaffinity 6.28371763
REMARK  4 active torsions:
REMARK  status: ('A' for Active; 'I' for Inactive)
REMARK    1  A    between atoms: C4_4  and  O1_5 
REMARK    2  A    between atoms: C4_4  and  C5_6 
REMARK    3  A    between atoms: C5_6  and  C6_7 
REMARK    4  A    between atoms: C6_7  and  C8_9 
ROOT
HETATM    1  C8  UNL     1     -10.315  -7.016  -4.439  1.00  0.00    -0.001 C 
HETATM    2  C9  UNL     1     -11.648  -7.365  -3.723  1.00  0.00     0.007 C 
HETATM    3  C10 UNL     1     -11.276  -8.242  -2.496  1.00  0.00     0.015 C 
HETATM    4  C11 UNL     1      -9.738  -8.138  -2.388  1.00  0.00    -0.013 C 
HETATM    5  C12 UNL     1      -9.442  -6.803  -1.614  1.00  0.00     0.021 C 
HETATM    6  C13 UNL     1      -8.953  -9.215  -1.630  1.00  0.00    -0.070 C 
HETATM    7  C14 UNL     1      -9.359  -9.634  -0.417  1.00  0.00    -0.022 C 
HETATM    8  C15 UNL     1      -8.475 -10.361   0.548  1.00  0.00     0.034 C 
HETATM    9  C16 UNL     1      -6.983 -10.103   0.237  1.00  0.00     0.013 C 
HETATM   10  C17 UNL     1      -6.012 -10.637   1.350  1.00  0.00     0.018 C 
HETATM   11  C18 UNL     1      -6.137  -9.724   2.599  1.00  0.00     0.023 C 
HETATM   12  C19 UNL     1      -6.276 -12.075   1.823  1.00  0.00     0.023 C 
HETATM   13  C20 UNL     1      -4.554 -10.563   0.868  1.00  0.00     0.135 C 
HETATM   14  O2  UNL     1      -3.628 -10.254   1.620  1.00  0.00    -0.297 OA
HETATM   15  C21 UNL     1      -4.258 -10.995  -0.545  1.00  0.00     0.080 C 
HETATM   16  C22 UNL     1      -5.166 -10.261  -1.519  1.00  0.00     0.017 C 
HETATM   17  C23 UNL     1      -6.671 -10.491  -1.250  1.00  0.00    -0.031 C 
HETATM   18  C24 UNL     1      -6.997 -11.983  -1.555  1.00  0.00     0.016 C 
HETATM   19  C25 UNL     1      -7.596  -9.636  -2.233  1.00  0.00     0.024 C 
HETATM   20  C26 UNL     1      -6.940  -8.443  -2.968  1.00  0.00     0.010 C 
HETATM   21  C27 UNL     1      -7.845  -7.778  -4.041  1.00  0.00     0.011 C 
HETATM   22  C28 UNL     1      -9.346  -8.117  -3.909  1.00  0.00    -0.029 C 
HETATM   23  C29 UNL     1      -9.659  -9.478  -4.608  1.00  0.00     0.016 C 
ENDROOT
BRANCH   1  24
HETATM   24  C6  UNL     1     -10.401  -6.645  -5.951  1.00  0.00    -0.008 C 
HETATM   25  C7  UNL     1     -10.167  -7.925  -6.775  1.00  0.00     0.010 C 
BRANCH  24  26
HETATM   26  C5  UNL     1      -9.493  -5.485  -6.435  1.00  0.00     0.078 C 
BRANCH  26  27
HETATM   27  C4  UNL     1      -9.608  -4.152  -5.667  1.00  0.00     0.191 A 
HETATM   28  C3  UNL     1     -11.006  -3.849  -5.289  1.00  0.00     0.054 A 
HETATM   29  C2  UNL     1     -11.424  -2.733  -5.884  1.00  0.00     0.015 A 
HETATM   30  C1  UNL     1     -12.728  -2.042  -5.833  1.00  0.00     0.054 C 
HETATM   31  C30 UNL     1     -10.293  -2.243  -6.679  1.00  0.00     0.291 A 
HETATM   32  O3  UNL     1      -9.225  -3.065  -6.498  1.00  0.00    -0.276 OA
HETATM   33  O4  UNL     1     -10.307  -1.246  -7.378  1.00  0.00    -0.260 OA
BRANCH  27  34
HETATM   34  O1  UNL     1      -8.823  -4.193  -4.491  1.00  0.00    -0.362 OA
HETATM   35  H5  UNL     1      -9.061  -3.412  -3.965  1.00  0.00     0.213 HD
ENDBRANCH  27  34
ENDBRANCH  26  27
ENDBRANCH  24  26
ENDBRANCH   1  24
TORSDOF 4
ENDMDL
MODEL 2
REMARK minimizedAffinity -7.4570303
REMARK CNNscore 0.435143948
REMARK CNNaffinity 5.59334755
REMARK  4 active torsions:
REMARK  status: ('A' for Active; 'I' for Inactive)
REMARK    1  A    between atoms: C4_4  and  O1_5 
REMARK    2  A    between atoms: C4_4  and  C5_6 
REMARK    3  A    between atoms: C5_6  and  C6_7 
REMARK    4  A    between atoms: C6_7  and  C8_9 
ROOT
HETATM    1  C8  UNL     1      -7.897  -9.948   8.137  1.00  0.00    -0.001 C 
HETATM    2  C9  UNL     1      -9.028  -9.166   7.414  1.00  0.00     0.007 C 
HETATM    3  C10 UNL     1      -8.691  -9.200   5.898  1.00  0.00     0.015 C 
HETATM    4  C11 UNL     1      -7.543 -10.226   5.772  1.00  0.00    -0.013 C 
HETATM    5  C12 UNL     1      -8.222 -11.642   5.726  1.00  0.00     0.021 C 
HETATM    6  C13 UNL     1      -6.622 -10.192   4.546  1.00  0.00    -0.070 C 
HETATM    7  C14 UNL     1      -7.134 -10.089   3.306  1.00  0.00    -0.022 C 
HETATM    8  C15 UNL     1      -6.375 -10.440   2.064  1.00  0.00     0.034 C 
HETATM    9  C16 UNL     1      -5.204 -11.398   2.380  1.00  0.00     0.013 C 
HETATM   10  C17 UNL     1      -4.520 -11.993   1.098  1.00  0.00     0.018 C 
HETATM   11  C18 UNL     1      -5.482 -13.027   0.456  1.00  0.00     0.023 C 
HETATM   12  C19 UNL     1      -4.169 -10.974   0.003  1.00  0.00     0.023 C 
HETATM   13  C20 UNL     1      -3.229 -12.736   1.476  1.00  0.00     0.135 C 
HETATM   14  O2  UNL     1      -2.884 -13.780   0.919  1.00  0.00    -0.297 OA
HETATM   15  C21 UNL     1      -2.316 -12.089   2.486  1.00  0.00     0.080 C 
HETATM   16  C22 UNL     1      -3.094 -11.727   3.740  1.00  0.00     0.017 C 
HETATM   17  C23 UNL     1      -4.276 -10.765   3.475  1.00  0.00    -0.031 C 
HETATM   18  C24 UNL     1      -3.694  -9.389   3.037  1.00  0.00     0.016 C 
HETATM   19  C25 UNL     1      -5.125 -10.476   4.797  1.00  0.00     0.024 C 
HETATM   20  C26 UNL     1      -4.954 -11.456   5.981  1.00  0.00     0.010 C 
HETATM   21  C27 UNL     1      -5.663 -11.009   7.289  1.00  0.00     0.011 C 
HETATM   22  C28 UNL     1      -6.743  -9.923   7.089  1.00  0.00    -0.029 C 
HETATM   23  C29 UNL     1      -6.088  -8.506   7.058  1.00  0.00     0.016 C 
ENDROOT
BRANCH   1  24
HETATM   24  C6  UNL     1      -7.659  -9.617   9.642  1.00  0.00    -0.008 C 
HETATM   25  C7  UNL     1      -8.586  -8.449  10.030  1.00  0.00     0.010 C 
BRANCH  24  26
HETATM   26  C5  UNL     1      -6.195  -9.346  10.071  1.00  0.00     0.078 C 
BRANCH  26  27
HETATM   27  C4  UNL     1      -5.797  -9.791  11.493  1.00  0.00     0.191 A 
HETATM   28  C3  UNL     1      -6.095 -11.222  11.729  1.00  0.00     0.054 A 
HETATM   29  C2  UNL     1      -7.000 -11.362  12.696  1.00  0.00     0.015 A 
HETATM   30  C1  UNL     1      -7.619 -12.574  13.270  1.00  0.00     0.054 C 
HETATM   31  C30 UNL     1      -7.328 -10.007  13.152  1.00  0.00     0.291 A 
HETATM   32  O3  UNL     1      -6.576  -9.106  12.465  1.00  0.00    -0.276 OA
HETATM   33  O4  UNL     1      -8.137  -9.736  14.020  1.00  0.00    -0.260 OA
BRANCH  27  34
HETATM   34  O1  UNL     1      -4.416  -9.578  11.708  1.00  0.00    -0.362 OA
HETATM   35  H5  UNL     1      -4.186 -10.026  12.538  1.00  0.00     0.213 HD
ENDBRANCH  27  34
ENDBRANCH  26  27
ENDBRANCH  24  26
ENDBRANCH   1  24
TORSDOF 4
ENDMDL
MODEL 3
REMARK minimizedAffinity -9.1799469
REMARK CNNscore 0.413494587
REMARK CNNaffinity 6.76651764
REMARK  4 active torsions:
REMARK  status: ('A' for Active; 'I' for Inactive)
REMARK    1  A    between atoms: C4_4  and  O1_5 
REMARK    2  A    between atoms: C4_4  and  C5_6 
REMARK    3  A    between atoms: C5_6  and  C6_7 
REMARK    4  A    between atoms: C6_7  and  C8_9 
ROOT
HETATM    1  C8  UNL     1      -2.156   9.064  15.615  1.00  0.00    -0.001 C 
HETATM    2  C9  UNL     1      -1.333   8.182  16.594  1.00  0.00     0.007 C 
HETATM    3  C10 UNL     1      -0.199   7.529  15.756  1.00  0.00     0.015 C 
HETATM    4  C11 UNL     1      -0.237   8.267  14.399  1.00  0.00    -0.013 C 
HETATM    5  C12 UNL     1       0.578   9.595  14.598  1.00  0.00     0.021 C 
HETATM    6  C13 UNL     1       0.380   7.609  13.158  1.00  0.00    -0.070 C 
HETATM    7  C14 UNL     1       1.601   7.047  13.215  1.00  0.00    -0.022 C 
HETATM    8  C15 UNL     1       2.432   6.747  12.005  1.00  0.00     0.034 C 
HETATM    9  C16 UNL     1       1.992   7.609  10.801  1.00  0.00     0.013 C 
HETATM   10  C17 UNL     1       2.973   7.520   9.577  1.00  0.00     0.018 C 
HETATM   11  C18 UNL     1       4.277   8.284   9.929  1.00  0.00     0.023 C 
HETATM   12  C19 UNL     1       3.388   6.098   9.166  1.00  0.00     0.023 C 
HETATM   13  C20 UNL     1       2.355   8.201   8.346  1.00  0.00     0.135 C 
HETATM   14  O2  UNL     1       3.029   8.862   7.553  1.00  0.00    -0.297 OA
HETATM   15  C21 UNL     1       0.898   7.947   8.059  1.00  0.00     0.080 C 
HETATM   16  C22 UNL     1       0.060   8.244   9.292  1.00  0.00     0.017 C 
HETATM   17  C23 UNL     1       0.462   7.402  10.525  1.00  0.00    -0.031 C 
HETATM   18  C24 UNL     1       0.107   5.914  10.234  1.00  0.00     0.016 C 
HETATM   19  C25 UNL     1      -0.377   7.801  11.826  1.00  0.00     0.024 C 
HETATM   20  C26 UNL     1      -1.104   9.166  11.811  1.00  0.00     0.010 C 
HETATM   21  C27 UNL     1      -2.045   9.402  13.025  1.00  0.00     0.011 C 
HETATM   22  C28 UNL     1      -1.785   8.464  14.224  1.00  0.00    -0.029 C 
HETATM   23  C29 UNL     1      -2.525   7.104  14.020  1.00  0.00     0.016 C 
ENDROOT
BRANCH   1  24
HETATM   24  C6  UNL     1      -3.629   9.380  16.017  1.00  0.00    -0.008 C 
HETATM   25  C7  UNL     1      -4.526   9.133  14.789  1.00  0.00     0.010 C 
BRANCH  24  26
HETATM   26  C5  UNL     1      -3.895  10.773  16.642  1.00  0.00     0.078 C 
BRANCH  26  27
HETATM   27  C4  UNL     1      -3.331  11.014  18.057  1.00  0.00     0.191 A 
HETATM   28  C3  UNL     1      -3.992  12.154  18.732  1.00  0.00     0.054 A 
HETATM   29  C2  UNL     1      -3.117  13.127  18.978  1.00  0.00     0.015 A 
HETATM   30  C1  UNL     1      -3.298  14.450  19.610  1.00  0.00     0.054 C 
HETATM   31  C30 UNL     1      -1.821  12.652  18.482  1.00  0.00     0.291 A 
HETATM   32  O3  UNL     1      -1.962  11.392  17.990  1.00  0.00    -0.276 OA
HETATM   33  O4  UNL     1      -0.781  13.283  18.520  1.00  0.00    -0.260 OA
BRANCH  27  34
HETATM   34  O1  UNL     1      -3.499   9.860  18.857  1.00  0.00    -0.362 OA
HETATM   35  H5  UNL     1      -3.291  10.115  19.770  1.00  0.00     0.213 HD
ENDBRANCH  27  34
ENDBRANCH  26  27
ENDBRANCH  24  26
ENDBRANCH   1  24
TORSDOF 4
ENDMDL
MODEL 4
REMARK minimizedAffinity -9.28620338
REMARK CNNscore 0.38554278
REMARK CNNaffinity 6.95836878
REMARK  4 active torsions:
REMARK  status: ('A' for Active; 'I' for Inactive)
REMARK    1  A    between atoms: C4_4  and  O1_5 
REMARK    2  A    between atoms: C4_4  and  C5_6 
REMARK    3  A    between atoms: C5_6  and  C6_7 
REMARK    4  A    between atoms: C6_7  and  C8_9 
ROOT
HETATM    1  C8  UNL     1      -5.854   4.828  13.138  1.00  0.00    -0.001 C 
HETATM    2  C9  UNL     1      -6.827   3.621  13.040  1.00  0.00     0.007 C 
HETATM    3  C10 UNL     1      -8.238   4.158  13.408  1.00  0.00     0.015 C 
HETATM    4  C11 UNL     1      -8.081   5.695  13.431  1.00  0.00    -0.013 C 
HETATM    5  C12 UNL     1      -8.209   6.173  11.940  1.00  0.00     0.021 C 
HETATM    6  C13 UNL     1      -9.090   6.552  14.207  1.00  0.00    -0.070 C 
HETATM    7  C14 UNL     1     -10.412   6.339  14.079  1.00  0.00    -0.022 C 
HETATM    8  C15 UNL     1     -11.454   7.343  14.464  1.00  0.00     0.034 C 
HETATM    9  C16 UNL     1     -10.863   8.770  14.504  1.00  0.00     0.013 C 
HETATM   10  C17 UNL     1     -11.951   9.892  14.664  1.00  0.00     0.018 C 
HETATM   11  C18 UNL     1     -12.736  10.017  13.331  1.00  0.00     0.023 C 
HETATM   12  C19 UNL     1     -12.989   9.652  15.771  1.00  0.00     0.023 C 
HETATM   13  C20 UNL     1     -11.283  11.249  14.936  1.00  0.00     0.135 C 
HETATM   14  O2  UNL     1     -11.713  12.301  14.458  1.00  0.00    -0.297 OA
HETATM   15  C21 UNL     1     -10.133  11.285  15.909  1.00  0.00     0.080 C 
HETATM   16  C22 UNL     1      -9.083  10.258  15.518  1.00  0.00     0.017 C 
HETATM   17  C23 UNL     1      -9.627   8.811  15.468  1.00  0.00    -0.031 C 
HETATM   18  C24 UNL     1      -9.990   8.377  16.918  1.00  0.00     0.016 C 
HETATM   19  C25 UNL     1      -8.522   7.769  14.968  1.00  0.00     0.024 C 
HETATM   20  C26 UNL     1      -7.290   8.341  14.229  1.00  0.00     0.010 C 
HETATM   21  C27 UNL     1      -6.176   7.296  13.939  1.00  0.00     0.011 C 
HETATM   22  C28 UNL     1      -6.640   5.826  14.042  1.00  0.00    -0.029 C 
HETATM   23  C29 UNL     1      -6.592   5.344  15.527  1.00  0.00     0.016 C 
ENDROOT
BRANCH   1  24
HETATM   24  C6  UNL     1      -4.347   4.504  13.374  1.00  0.00    -0.008 C 
HETATM   25  C7  UNL     1      -3.509   5.642  12.761  1.00  0.00     0.010 C 
BRANCH  24  26
HETATM   26  C5  UNL     1      -3.852   3.115  12.897  1.00  0.00     0.078 C 
BRANCH  26  27
HETATM   27  C4  UNL     1      -3.188   3.058  11.506  1.00  0.00     0.191 A 
HETATM   28  C3  UNL     1      -2.771   1.684  11.146  1.00  0.00     0.054 A 
HETATM   29  C2  UNL     1      -1.448   1.614  11.006  1.00  0.00     0.015 A 
HETATM   30  C1  UNL     1      -0.572   0.474  10.673  1.00  0.00     0.054 C 
HETATM   31  C30 UNL     1      -0.936   2.966  11.257  1.00  0.00     0.291 A 
HETATM   32  O3  UNL     1      -1.978   3.805  11.501  1.00  0.00    -0.276 OA
HETATM   33  O4  UNL     1       0.238   3.286  11.235  1.00  0.00    -0.260 OA
BRANCH  27  34
HETATM   34  O1  UNL     1      -4.079   3.530  10.515  1.00  0.00    -0.362 OA
HETATM   35  H5  UNL     1      -3.685   3.316   9.654  1.00  0.00     0.213 HD
ENDBRANCH  27  34
ENDBRANCH  26  27
ENDBRANCH  24  26
ENDBRANCH   1  24
TORSDOF 4
ENDMDL
MODEL 5
REMARK minimizedAffinity -7.38670635
REMARK CNNscore 0.382848233
REMARK CNNaffinity 5.4411006
REMARK  4 active torsions:
REMARK  status: ('A' for Active; 'I' for Inactive)
REMARK    1  A    between atoms: C4_4  and  O1_5 
REMARK    2  A    between atoms: C4_4  and  C5_6 
REMARK    3  A    between atoms: C5_6  and  C6_7 
REMARK    4  A    between atoms: C6_7  and  C8_9 
ROOT
HETATM    1  C8  UNL     1      -5.288 -10.067   9.206  1.00  0.00    -0.001 C 
HETATM    2  C9  UNL     1      -4.392  -9.591  10.382  1.00  0.00     0.007 C 
HETATM    3  C10 UNL     1      -5.292  -9.581  11.648  1.00  0.00     0.015 C 
HETATM    4  C11 UNL     1      -6.585 -10.310  11.220  1.00  0.00    -0.013 C 
HETATM    5  C12 UNL     1      -6.288 -11.847  11.355  1.00  0.00     0.021 C 
HETATM    6  C13 UNL     1      -7.881 -10.089  12.009  1.00  0.00    -0.070 C 
HETATM    7  C14 UNL     1      -7.883 -10.140  13.353  1.00  0.00    -0.022 C 
HETATM    8  C15 UNL     1      -9.121 -10.331  14.174  1.00  0.00     0.034 C 
HETATM    9  C16 UNL     1     -10.247 -10.978  13.337  1.00  0.00     0.013 C 
HETATM   10  C17 UNL     1     -11.484 -11.426  14.196  1.00  0.00     0.018 C 
HETATM   11  C18 UNL     1     -11.086 -12.673  15.028  1.00  0.00     0.023 C 
HETATM   12  C19 UNL     1     -12.013 -10.379  15.188  1.00  0.00     0.023 C 
HETATM   13  C20 UNL     1     -12.650 -11.834  13.281  1.00  0.00     0.135 C 
HETATM   14  O2  UNL     1     -13.394 -12.780  13.547  1.00  0.00    -0.297 OA
HETATM   15  C21 UNL     1     -12.942 -10.966  12.084  1.00  0.00     0.080 C 
HETATM   16  C22 UNL     1     -11.680 -10.767  11.260  1.00  0.00     0.017 C 
HETATM   17  C23 UNL     1     -10.523 -10.118  12.055  1.00  0.00    -0.031 C 
HETATM   18  C24 UNL     1     -10.928  -8.655  12.397  1.00  0.00     0.016 C 
HETATM   19  C25 UNL     1      -9.185 -10.006  11.187  1.00  0.00     0.024 C 
HETATM   20  C26 UNL     1      -9.083 -10.889   9.922  1.00  0.00     0.010 C 
HETATM   21  C27 UNL     1      -7.844 -10.591   9.032  1.00  0.00     0.011 C 
HETATM   22  C28 UNL     1      -6.727  -9.795   9.742  1.00  0.00    -0.029 C 
HETATM   23  C29 UNL     1      -7.031  -8.265   9.687  1.00  0.00     0.016 C 
ENDROOT
BRANCH   1  24
HETATM   24  C6  UNL     1      -4.847  -9.653   7.768  1.00  0.00    -0.008 C 
HETATM   25  C7  UNL     1      -5.954  -8.771   7.160  1.00  0.00     0.010 C 
BRANCH  24  26
HETATM   26  C5  UNL     1      -4.444 -10.800   6.807  1.00  0.00     0.078 C 
BRANCH  26  27
HETATM   27  C4  UNL     1      -3.110 -10.632   6.051  1.00  0.00     0.191 A 
HETATM   28  C3  UNL     1      -3.249  -9.750   4.870  1.00  0.00     0.054 A 
HETATM   29  C2  UNL     1      -2.992 -10.420   3.749  1.00  0.00     0.015 A 
HETATM   30  C1  UNL     1      -3.014  -9.985   2.338  1.00  0.00     0.054 C 
HETATM   31  C30 UNL     1      -2.653 -11.788   4.156  1.00  0.00     0.291 A 
HETATM   32  O3  UNL     1      -2.682 -11.876   5.512  1.00  0.00    -0.276 OA
HETATM   33  O4  UNL     1      -2.375 -12.697   3.396  1.00  0.00    -0.260 OA
BRANCH  27  34
HETATM   34  O1  UNL     1      -2.125 -10.084   6.906  1.00  0.00    -0.362 OA
HETATM   35  H5  UNL     1      -1.369  -9.841   6.349  1.00  0.00     0.213 HD
ENDBRANCH  27  34
ENDBRANCH  26  27
ENDBRANCH  24  26
ENDBRANCH   1  24
TORSDOF 4
ENDMDL
MODEL 6
REMARK minimizedAffinity -8.88348198
REMARK CNNscore 0.351615816
REMARK CNNaffinity 6.94498253
REMARK  4 active torsions:
REMARK  status: ('A' for Active; 'I' for Inactive)
REMARK    1  A    between atoms: C4_4  and  O1_5 
REMARK    2  A    between atoms: C4_4  and  C5_6 
REMARK    3  A    between atoms: C5_6  and  C6_7 
REMARK    4  A    between atoms: C6_7  and  C8_9 
ROOT
HETATM    1  C8  UNL     1       1.010   8.410  14.085  1.00  0.00    -0.001 C 
HETATM    2  C9  UNL     1       0.882   9.820  14.725  1.00  0.00     0.007 C 
HETATM    3  C10 UNL     1      -0.622  10.019  15.060  1.00  0.00     0.015 C 
HETATM    4  C11 UNL     1      -1.259   8.625  14.862  1.00  0.00    -0.013 C 
HETATM    5  C12 UNL     1      -0.995   7.829  16.189  1.00  0.00     0.021 C 
HETATM    6  C13 UNL     1      -2.769   8.505  14.623  1.00  0.00    -0.070 C 
HETATM    7  C14 UNL     1      -3.641   9.179  15.395  1.00  0.00    -0.022 C 
HETATM    8  C15 UNL     1      -5.094   8.830  15.503  1.00  0.00     0.034 C 
HETATM    9  C16 UNL     1      -5.346   7.364  15.085  1.00  0.00     0.013 C 
HETATM   10  C17 UNL     1      -6.801   6.866  15.404  1.00  0.00     0.018 C 
HETATM   11  C18 UNL     1      -6.939   6.684  16.939  1.00  0.00     0.023 C 
HETATM   12  C19 UNL     1      -7.933   7.808  14.965  1.00  0.00     0.023 C 
HETATM   13  C20 UNL     1      -7.052   5.497  14.752  1.00  0.00     0.135 C 
HETATM   14  O2  UNL     1      -7.708   4.614  15.308  1.00  0.00    -0.297 OA
HETATM   15  C21 UNL     1      -6.565   5.291  13.340  1.00  0.00     0.080 C 
HETATM   16  C22 UNL     1      -5.093   5.655  13.235  1.00  0.00     0.017 C 
HETATM   17  C23 UNL     1      -4.790   7.117  13.640  1.00  0.00    -0.031 C 
HETATM   18  C24 UNL     1      -5.441   8.058  12.585  1.00  0.00     0.016 C 
HETATM   19  C25 UNL     1      -3.226   7.440  13.603  1.00  0.00     0.024 C 
HETATM   20  C26 UNL     1      -2.252   6.238  13.606  1.00  0.00     0.010 C 
HETATM   21  C27 UNL     1      -0.763   6.622  13.383  1.00  0.00     0.011 C 
HETATM   22  C28 UNL     1      -0.447   8.115  13.617  1.00  0.00    -0.029 C 
HETATM   23  C29 UNL     1      -0.768   8.946  12.334  1.00  0.00     0.016 C 
ENDROOT
BRANCH   1  24
HETATM   24  C6  UNL     1       2.244   8.162  13.165  1.00  0.00    -0.008 C 
HETATM   25  C7  UNL     1       2.723   9.522  12.625  1.00  0.00     0.010 C 
BRANCH  24  26
HETATM   26  C5  UNL     1       2.062   7.130  12.022  1.00  0.00     0.078 C 
BRANCH  26  27
HETATM   27  C4  UNL     1       3.153   7.107  10.932  1.00  0.00     0.191 A 
HETATM   28  C3  UNL     1       2.723   7.810   9.702  1.00  0.00     0.054 A 
HETATM   29  C2  UNL     1       2.665   6.966   8.673  1.00  0.00     0.015 A 
HETATM   30  C1  UNL     1       2.280   7.187   7.265  1.00  0.00     0.054 C 
HETATM   31  C30 UNL     1       3.076   5.657   9.191  1.00  0.00     0.291 A 
HETATM   32  O3  UNL     1       3.403   5.774  10.506  1.00  0.00    -0.276 OA
HETATM   33  O4  UNL     1       3.130   4.630   8.539  1.00  0.00    -0.260 OA
BRANCH  27  34
HETATM   34  O1  UNL     1       4.337   7.718  11.407  1.00  0.00    -0.362 OA
HETATM   35  H5  UNL     1       4.924   7.832  10.642  1.00  0.00     0.213 HD
ENDBRANCH  27  34
ENDBRANCH  26  27
ENDBRANCH  24  26
ENDBRANCH   1  24
TORSDOF 4
ENDMDL
MODEL 7
REMARK minimizedAffinity -7.98539782
REMARK CNNscore 0.32933265
REMARK CNNaffinity 6.31980896
REMARK  4 active torsions:
REMARK  status: ('A' for Active; 'I' for Inactive)
REMARK    1  A    between atoms: C4_4  and  O1_5 
REMARK    2  A    between atoms: C4_4  and  C5_6 
REMARK    3  A    between atoms: C5_6  and  C6_7 
REMARK    4  A    between atoms: C6_7  and  C8_9 
ROOT
HETATM    1  C8  UNL     1      -2.076   6.990  13.318  1.00  0.00    -0.001 C 
HETATM    2  C9  UNL     1      -3.472   7.400  12.774  1.00  0.00     0.007 C 
HETATM    3  C10 UNL     1      -3.916   8.646  13.588  1.00  0.00     0.015 C 
HETATM    4  C11 UNL     1      -2.656   9.076  14.371  1.00  0.00    -0.013 C 
HETATM    5  C12 UNL     1      -1.796   9.940  13.380  1.00  0.00     0.021 C 
HETATM    6  C13 UNL     1      -2.799   9.944  15.627  1.00  0.00    -0.070 C 
HETATM    7  C14 UNL     1      -3.593  11.030  15.624  1.00  0.00    -0.022 C 
HETATM    8  C15 UNL     1      -3.495  12.133  16.632  1.00  0.00     0.034 C 
HETATM    9  C16 UNL     1      -2.102  12.149  17.303  1.00  0.00     0.013 C 
HETATM   10  C17 UNL     1      -1.852  13.422  18.189  1.00  0.00     0.018 C 
HETATM   11  C18 UNL     1      -1.661  14.647  17.257  1.00  0.00     0.023 C 
HETATM   12  C19 UNL     1      -2.982  13.779  19.167  1.00  0.00     0.023 C 
HETATM   13  C20 UNL     1      -0.561  13.257  19.007  1.00  0.00     0.135 C 
HETATM   14  O2  UNL     1       0.211  14.196  19.214  1.00  0.00    -0.297 OA
HETATM   15  C21 UNL     1      -0.306  11.923  19.659  1.00  0.00     0.080 C 
HETATM   16  C22 UNL     1      -0.417  10.807  18.633  1.00  0.00     0.017 C 
HETATM   17  C23 UNL     1      -1.797  10.747  17.936  1.00  0.00    -0.031 C 
HETATM   18  C24 UNL     1      -2.859  10.330  18.995  1.00  0.00     0.016 C 
HETATM   19  C25 UNL     1      -1.850   9.623  16.802  1.00  0.00     0.024 C 
HETATM   20  C26 UNL     1      -0.501   9.083  16.272  1.00  0.00     0.010 C 
HETATM   21  C27 UNL     1      -0.631   7.868  15.313  1.00  0.00     0.011 C 
HETATM   22  C28 UNL     1      -2.044   7.672  14.720  1.00  0.00    -0.029 C 
HETATM   23  C29 UNL     1      -2.945   6.877  15.716  1.00  0.00     0.016 C 
ENDROOT
BRANCH   1  24
HETATM   24  C6  UNL     1      -1.642   5.507  13.107  1.00  0.00    -0.008 C 
HETATM   25  C7  UNL     1      -0.552   5.172  14.143  1.00  0.00     0.010 C 
BRANCH  24  26
HETATM   26  C5  UNL     1      -1.205   5.108  11.675  1.00  0.00     0.078 C 
BRANCH  26  27
HETATM   27  C4  UNL     1       0.167   5.631  11.200  1.00  0.00     0.191 A 
HETATM   28  C3  UNL     1       0.831   6.460  12.231  1.00  0.00     0.054 A 
HETATM   29  C2  UNL     1       0.991   7.710  11.799  1.00  0.00     0.015 A 
HETATM   30  C1  UNL     1       1.579   8.891  12.460  1.00  0.00     0.054 C 
HETATM   31  C30 UNL     1       0.443   7.748  10.438  1.00  0.00     0.291 A 
HETATM   32  O3  UNL     1       0.009   6.507  10.092  1.00  0.00    -0.276 OA
HETATM   33  O4  UNL     1       0.399   8.735   9.728  1.00  0.00    -0.260 OA
BRANCH  27  34
HETATM   34  O1  UNL     1       1.019   4.550  10.875  1.00  0.00    -0.362 OA
HETATM   35  H5  UNL     1       1.909   4.919  10.751  1.00  0.00     0.213 HD
ENDBRANCH  27  34
ENDBRANCH  26  27
ENDBRANCH  24  26
ENDBRANCH   1  24
TORSDOF 4
ENDMDL
MODEL 8
REMARK minimizedAffinity -7.71603489
REMARK CNNscore 0.328861535
REMARK CNNaffinity 6.87099695
REMARK  4 active torsions:
REMARK  status: ('A' for Active; 'I' for Inactive)
REMARK    1  A    between atoms: C4_4  and  O1_5 
REMARK    2  A    between atoms: C4_4  and  C5_6 
REMARK    3  A    between atoms: C5_6  and  C6_7 
REMARK    4  A    between atoms: C6_7  and  C8_9 
ROOT
HETATM    1  C8  UNL     1     -13.701   8.745  13.865  1.00  0.00    -0.001 C 
HETATM    2  C9  UNL     1     -13.791   9.324  15.304  1.00  0.00     0.007 C 
HETATM    3  C10 UNL     1     -12.395   9.114  15.953  1.00  0.00     0.015 C 
HETATM    4  C11 UNL     1     -11.478   8.681  14.788  1.00  0.00    -0.013 C 
HETATM    5  C12 UNL     1     -11.025  10.004  14.070  1.00  0.00     0.021 C 
HETATM    6  C13 UNL     1     -10.175   7.927  15.082  1.00  0.00    -0.070 C 
HETATM    7  C14 UNL     1      -9.337   8.357  16.043  1.00  0.00    -0.022 C 
HETATM    8  C15 UNL     1      -7.900   7.944  16.135  1.00  0.00     0.034 C 
HETATM    9  C16 UNL     1      -7.379   7.439  14.771  1.00  0.00     0.013 C 
HETATM   10  C17 UNL     1      -5.824   7.219  14.739  1.00  0.00     0.018 C 
HETATM   11  C18 UNL     1      -5.127   8.605  14.741  1.00  0.00     0.023 C 
HETATM   12  C19 UNL     1      -5.244   6.428  15.922  1.00  0.00     0.023 C 
HETATM   13  C20 UNL     1      -5.413   6.496  13.447  1.00  0.00     0.135 C 
HETATM   14  O2  UNL     1      -4.375   6.772  12.841  1.00  0.00    -0.297 OA
HETATM   15  C21 UNL     1      -6.264   5.341  12.985  1.00  0.00     0.080 C 
HETATM   16  C22 UNL     1      -7.722   5.764  12.903  1.00  0.00     0.017 C 
HETATM   17  C23 UNL     1      -8.291   6.275  14.248  1.00  0.00    -0.031 C 
HETATM   18  C24 UNL     1      -8.349   5.075  15.238  1.00  0.00     0.016 C 
HETATM   19  C25 UNL     1      -9.796   6.794  14.106  1.00  0.00     0.024 C 
HETATM   20  C26 UNL     1     -10.305   7.117  12.682  1.00  0.00     0.010 C 
HETATM   21  C27 UNL     1     -11.824   7.435  12.602  1.00  0.00     0.011 C 
HETATM   22  C28 UNL     1     -12.472   7.791  13.959  1.00  0.00    -0.029 C 
HETATM   23  C29 UNL     1     -12.868   6.491  14.729  1.00  0.00     0.016 C 
ENDROOT
BRANCH   1  24
HETATM   24  C6  UNL     1     -15.040   8.310  13.194  1.00  0.00    -0.008 C 
HETATM   25  C7  UNL     1     -15.112   6.772  13.215  1.00  0.00     0.010 C 
BRANCH  24  26
HETATM   26  C5  UNL     1     -15.322   8.872  11.777  1.00  0.00     0.078 C 
BRANCH  26  27
HETATM   27  C4  UNL     1     -16.567   9.770  11.625  1.00  0.00     0.191 A 
HETATM   28  C3  UNL     1     -17.677   9.333  12.502  1.00  0.00     0.054 A 
HETATM   29  C2  UNL     1     -18.728   8.953  11.778  1.00  0.00     0.015 A 
HETATM   30  C1  UNL     1     -20.046   8.433  12.191  1.00  0.00     0.054 C 
HETATM   31  C30 UNL     1     -18.350   9.143  10.373  1.00  0.00     0.291 A 
HETATM   32  O3  UNL     1     -17.097   9.668  10.310  1.00  0.00    -0.276 OA
HETATM   33  O4  UNL     1     -19.056   8.885   9.416  1.00  0.00    -0.260 OA
BRANCH  27  34
HETATM   34  O1  UNL     1     -16.247  11.111  11.940  1.00  0.00    -0.362 OA
HETATM   35  H5  UNL     1     -17.086  11.597  11.996  1.00  0.00     0.213 HD
ENDBRANCH  27  34
ENDBRANCH  26  27
ENDBRANCH  24  26
ENDBRANCH   1  24
TORSDOF 4
ENDMDL
MODEL 9
REMARK minimizedAffinity -7.52920341
REMARK CNNscore 0.302477628
REMARK CNNaffinity 6.83631372
REMARK  4 active torsions:
REMARK  status: ('A' for Active; 'I' for Inactive)
REMARK    1  A    between atoms: C4_4  and  O1_5 
REMARK    2  A    between atoms: C4_4  and  C5_6 
REMARK    3  A    between atoms: C5_6  and  C6_7 
REMARK    4  A    between atoms: C6_7  and  C8_9 
ROOT
HETATM    1  C8  UNL     1     -13.533   8.616  13.685  1.00  0.00    -0.001 C 
HETATM    2  C9  UNL     1     -13.664   9.179  15.127  1.00  0.00     0.007 C 
HETATM    3  C10 UNL     1     -12.285   8.970  15.812  1.00  0.00     0.015 C 
HETATM    4  C11 UNL     1     -11.335   8.555  14.666  1.00  0.00    -0.013 C 
HETATM    5  C12 UNL     1     -10.870   9.887  13.976  1.00  0.00     0.021 C 
HETATM    6  C13 UNL     1     -10.036   7.805  14.988  1.00  0.00    -0.070 C 
HETATM    7  C14 UNL     1      -9.226   8.228  15.975  1.00  0.00    -0.022 C 
HETATM    8  C15 UNL     1      -7.790   7.822  16.102  1.00  0.00     0.034 C 
HETATM    9  C16 UNL     1      -7.230   7.335  14.746  1.00  0.00     0.013 C 
HETATM   10  C17 UNL     1      -5.673   7.124  14.754  1.00  0.00     0.018 C 
HETATM   11  C18 UNL     1      -4.984   8.513  14.790  1.00  0.00     0.023 C 
HETATM   12  C19 UNL     1      -5.121   6.323  15.944  1.00  0.00     0.023 C 
HETATM   13  C20 UNL     1      -5.223   6.417  13.466  1.00  0.00     0.135 C 
HETATM   14  O2  UNL     1      -4.171   6.706  12.891  1.00  0.00    -0.297 OA
HETATM   15  C21 UNL     1      -6.055   5.263  12.969  1.00  0.00     0.080 C 
HETATM   16  C22 UNL     1      -7.512   5.679  12.852  1.00  0.00     0.017 C 
HETATM   17  C23 UNL     1      -8.120   6.172  14.186  1.00  0.00    -0.031 C 
HETATM   18  C24 UNL     1      -8.199   4.961  15.161  1.00  0.00     0.016 C 
HETATM   19  C25 UNL     1      -9.624   6.684  14.010  1.00  0.00     0.024 C 
HETATM   20  C26 UNL     1     -10.097   7.020  12.576  1.00  0.00     0.010 C 
HETATM   21  C27 UNL     1     -11.614   7.331  12.459  1.00  0.00     0.011 C 
HETATM   22  C28 UNL     1     -12.300   7.668  13.801  1.00  0.00    -0.029 C 
HETATM   23  C29 UNL     1     -12.710   6.358  14.546  1.00  0.00     0.016 C 
ENDROOT
BRANCH   1  24
HETATM   24  C6  UNL     1     -14.851   8.182  12.973  1.00  0.00    -0.008 C 
HETATM   25  C7  UNL     1     -15.360   9.371  12.138  1.00  0.00     0.010 C 
BRANCH  24  26
HETATM   26  C5  UNL     1     -15.969   7.602  13.876  1.00  0.00     0.078 C 
BRANCH  26  27
HETATM   27  C4  UNL     1     -16.656   6.312  13.381  1.00  0.00     0.191 A 
HETATM   28  C3  UNL     1     -18.089   6.269  13.753  1.00  0.00     0.054 A 
HETATM   29  C2  UNL     1     -18.332   5.249  14.574  1.00  0.00     0.015 A 
HETATM   30  C1  UNL     1     -19.584   4.808  15.219  1.00  0.00     0.054 C 
HETATM   31  C30 UNL     1     -17.051   4.560  14.764  1.00  0.00     0.291 A 
HETATM   32  O3  UNL     1     -16.094   5.172  14.018  1.00  0.00    -0.276 OA
HETATM   33  O4  UNL     1     -16.879   3.582  15.469  1.00  0.00    -0.260 OA
BRANCH  27  34
HETATM   34  O1  UNL     1     -16.555   6.209  11.974  1.00  0.00    -0.362 OA
HETATM   35  H5  UNL     1     -17.141   5.485  11.700  1.00  0.00     0.213 HD
ENDBRANCH  27  34
ENDBRANCH  26  27
ENDBRANCH  24  26
ENDBRANCH   1  24
TORSDOF 4
ENDMDL
