MODEL 1
REMARK minimizedAffinity -7.40620613
REMARK CNNscore 0.497098148
REMARK CNNaffinity 7.10773516
REMARK  12 active torsions:
REMARK  status: ('A' for Active; 'I' for Inactive)
REMARK    1  A    between atoms: O1_2  and  C2_3 
REMARK    2  A    between atoms: C3_5  and  C4_6 
REMARK    3  A    between atoms: C4_6  and  O3_7 
REMARK    4  A    between atoms: C4_6  and  C5_8 
REMARK    5  A    between atoms: C5_8  and  O4_10 
REMARK    6  A    between atoms: C5_8  and  C7_11 
REMARK    7  A    between atoms: C7_11  and  O5_12 
REMARK    8  A    between atoms: C9_14  and  C10_15 
REMARK    9  A    between atoms: C23_28  and  O6_29 
REMARK   10  A    between atoms: O6_29  and  C24_30 
REMARK   11  A    between atoms: C24_30  and  C25_32 
REMARK   12  A    between atoms: C34_41  and  O8_42 
ROOT
HETATM    1  C10 UNL     1      -6.296  45.307 -18.702  1.00  0.00     0.004 C 
HETATM    2  C11 UNL     1      -7.015  46.292 -17.750  1.00  0.00     0.007 C 
HETATM    3  C12 UNL     1      -6.302  47.641 -17.952  1.00  0.00     0.011 C 
HETATM    4  C13 UNL     1      -5.760  47.607 -19.377  1.00  0.00    -0.021 A 
HETATM    5  C14 UNL     1      -6.771  47.226 -20.443  1.00  0.00     0.022 A 
HETATM    6  C15 UNL     1      -5.830  46.181 -19.869  1.00  0.00    -0.027 A 
HETATM    7  C16 UNL     1      -4.796  45.612 -20.812  1.00  0.00     0.011 C 
HETATM    8  C17 UNL     1      -3.549  46.482 -21.004  1.00  0.00     0.007 C 
HETATM    9  C18 UNL     1      -3.885  47.987 -21.091  1.00  0.00     0.005 C 
HETATM   10  C19 UNL     1      -2.745  48.896 -21.730  1.00  0.00    -0.035 C 
HETATM   11  C20 UNL     1      -1.387  48.728 -21.008  1.00  0.00     0.016 C 
HETATM   12  C21 UNL     1      -2.541  48.439 -23.220  1.00  0.00     0.012 C 
HETATM   13  C22 UNL     1      -2.223  49.561 -24.214  1.00  0.00     0.034 C 
HETATM   14  C23 UNL     1      -1.462  50.723 -23.586  1.00  0.00     0.140 C 
HETATM   15  C29 UNL     1      -2.292  51.420 -22.460  1.00  0.00    -0.016 C 
HETATM   16  C30 UNL     1      -1.306  52.123 -21.501  1.00  0.00     0.018 C 
HETATM   17  C31 UNL     1      -3.181  52.544 -23.063  1.00  0.00     0.018 C 
HETATM   18  C32 UNL     1      -3.244  50.384 -21.740  1.00  0.00     0.007 C 
HETATM   19  C33 UNL     1      -3.743  50.842 -20.348  1.00  0.00     0.038 C 
HETATM   20  C34 UNL     1      -4.898  49.971 -19.832  1.00  0.00     0.128 C 
HETATM   21  C35 UNL     1      -4.502  48.471 -19.720  1.00  0.00    -0.005 C 
HETATM   22  C36 UNL     1      -3.491  48.317 -18.547  1.00  0.00     0.019 C 
ENDROOT
BRANCH   1  23
HETATM   23  C9  UNL     1      -7.077  44.067 -19.162  1.00  0.00     0.048 C 
HETATM   24  C2  UNL     1      -8.591  44.090 -18.957  1.00  0.00     0.264 C 
HETATM   25  O2  UNL     1      -9.094  42.997 -19.740  1.00  0.00    -0.353 OA
HETATM   26  C3  UNL     1      -8.113  42.651 -20.742  1.00  0.00     0.157 C 
HETATM   27  C8  UNL     1      -7.000  43.694 -20.631  1.00  0.00     0.044 C 
BRANCH  24  28
HETATM   28  O1  UNL     1      -9.152  45.321 -19.393  1.00  0.00    -0.366 OA
HETATM   29  C1  UNL     1     -10.571  45.296 -19.385  1.00  0.00     0.204 C 
ENDBRANCH  24  28
BRANCH  26  30
HETATM   30  C4  UNL     1      -8.718  42.567 -22.162  1.00  0.00     0.183 C 
BRANCH  30  31
HETATM   31  O3  UNL     1     -10.081  43.017 -22.143  1.00  0.00    -0.390 OA
HETATM   32  H7  UNL     1     -10.249  43.477 -22.982  1.00  0.00     0.210 HD
ENDBRANCH  30  31
BRANCH  30  33
HETATM   33  C5  UNL     1      -8.615  41.168 -22.828  1.00  0.00     0.103 C 
HETATM   34  C6  UNL     1      -7.498  40.350 -22.157  1.00  0.00     0.051 C 
BRANCH  33  35
HETATM   35  O4  UNL     1      -9.839  40.444 -22.594  1.00  0.00    -0.385 OA
HETATM   36  H11 UNL     1      -9.797  39.682 -23.208  1.00  0.00     0.210 HD
ENDBRANCH  33  35
BRANCH  33  37
HETATM   37  C7  UNL     1      -8.380  41.229 -24.351  1.00  0.00     0.204 C 
BRANCH  37  38
HETATM   38  O5  UNL     1      -7.915  39.949 -24.809  1.00  0.00    -0.398 OA
HETATM   39  H14 UNL     1      -7.738  40.053 -25.762  1.00  0.00     0.209 HD
ENDBRANCH  37  38
ENDBRANCH  33  37
ENDBRANCH  30  33
ENDBRANCH  26  30
ENDBRANCH   1  23
BRANCH  20  40
HETATM   40  O8  UNL     1      -6.001  50.142 -20.729  1.00  0.00    -0.395 OA
HETATM   41  H55 UNL     1      -6.299  51.065 -20.653  1.00  0.00     0.210 HD
ENDBRANCH  20  40
BRANCH  14  42
HETATM   42  O6  UNL     1      -1.149  51.663 -24.636  1.00  0.00    -0.312 OA
BRANCH  42  43
HETATM   43  C24 UNL     1       0.142  52.035 -24.781  1.00  0.00     0.283 C 
HETATM   44  O7  UNL     1       0.800  52.712 -24.006  1.00  0.00    -0.260 OA
BRANCH  43  45
HETATM   45  C25 UNL     1       0.680  51.602 -26.090  1.00  0.00     0.084 C 
HETATM   46  C26 UNL     1       0.587  52.223 -27.282  1.00  0.00    -0.082 C 
HETATM   47  C27 UNL     1      -0.170  53.497 -27.544  1.00  0.00     0.043 C 
HETATM   48  C28 UNL     1       1.247  51.630 -28.498  1.00  0.00     0.043 C 
ENDBRANCH  43  45
ENDBRANCH  42  43
ENDBRANCH  14  42
TORSDOF 12
ENDMDL
MODEL 2
REMARK minimizedAffinity -7.72295809
REMARK CNNscore 0.494529158
REMARK CNNaffinity 6.85260725
REMARK  12 active torsions:
REMARK  status: ('A' for Active; 'I' for Inactive)
REMARK    1  A    between atoms: O1_2  and  C2_3 
REMARK    2  A    between atoms: C3_5  and  C4_6 
REMARK    3  A    between atoms: C4_6  and  O3_7 
REMARK    4  A    between atoms: C4_6  and  C5_8 
REMARK    5  A    between atoms: C5_8  and  O4_10 
REMARK    6  A    between atoms: C5_8  and  C7_11 
REMARK    7  A    between atoms: C7_11  and  O5_12 
REMARK    8  A    between atoms: C9_14  and  C10_15 
REMARK    9  A    between atoms: C23_28  and  O6_29 
REMARK   10  A    between atoms: O6_29  and  C24_30 
REMARK   11  A    between atoms: C24_30  and  C25_32 
REMARK   12  A    between atoms: C34_41  and  O8_42 
ROOT
HETATM    1  C10 UNL     1      -7.126  46.199 -23.002  1.00  0.00     0.004 C 
HETATM    2  C11 UNL     1      -7.759  45.354 -21.871  1.00  0.00     0.007 C 
HETATM    3  C12 UNL     1      -6.841  45.559 -20.652  1.00  0.00     0.011 C 
HETATM    4  C13 UNL     1      -6.208  46.933 -20.846  1.00  0.00    -0.021 A 
HETATM    5  C14 UNL     1      -7.184  48.059 -21.137  1.00  0.00     0.022 A 
HETATM    6  C15 UNL     1      -6.453  47.364 -22.272  1.00  0.00    -0.027 A 
HETATM    7  C16 UNL     1      -5.448  48.193 -23.037  1.00  0.00     0.011 C 
HETATM    8  C17 UNL     1      -4.076  48.325 -22.369  1.00  0.00     0.007 C 
HETATM    9  C18 UNL     1      -4.178  48.506 -20.838  1.00  0.00     0.005 C 
HETATM   10  C19 UNL     1      -2.872  49.093 -20.142  1.00  0.00    -0.035 C 
HETATM   11  C20 UNL     1      -1.610  48.257 -20.463  1.00  0.00     0.016 C 
HETATM   12  C21 UNL     1      -2.630  50.539 -20.707  1.00  0.00     0.012 C 
HETATM   13  C22 UNL     1      -2.077  51.555 -19.701  1.00  0.00     0.034 C 
HETATM   14  C23 UNL     1      -1.200  50.921 -18.628  1.00  0.00     0.140 C 
HETATM   15  C29 UNL     1      -1.997  49.898 -17.755  1.00  0.00    -0.016 C 
HETATM   16  C30 UNL     1      -0.991  48.896 -17.148  1.00  0.00     0.018 C 
HETATM   17  C31 UNL     1      -2.664  50.622 -16.550  1.00  0.00     0.018 C 
HETATM   18  C32 UNL     1      -3.143  49.211 -18.600  1.00  0.00     0.007 C 
HETATM   19  C33 UNL     1      -3.668  47.886 -17.996  1.00  0.00     0.038 C 
HETATM   20  C34 UNL     1      -4.974  47.425 -18.660  1.00  0.00     0.128 C 
HETATM   21  C35 UNL     1      -4.814  47.213 -20.193  1.00  0.00    -0.005 C 
HETATM   22  C36 UNL     1      -3.926  45.957 -20.425  1.00  0.00     0.019 C 
ENDROOT
BRANCH   1  23
HETATM   23  C9  UNL     1      -8.047  46.663 -24.140  1.00  0.00     0.048 C 
HETATM   24  C2  UNL     1      -8.027  45.836 -25.426  1.00  0.00     0.264 C 
HETATM   25  O2  UNL     1      -9.171  46.274 -26.173  1.00  0.00    -0.353 OA
HETATM   26  C3  UNL     1     -10.108  46.899 -25.270  1.00  0.00     0.157 C 
HETATM   27  C8  UNL     1      -9.538  46.709 -23.863  1.00  0.00     0.044 C 
BRANCH  24  28
HETATM   28  O1  UNL     1      -8.111  44.445 -25.145  1.00  0.00    -0.366 OA
HETATM   29  C1  UNL     1      -8.262  43.669 -26.324  1.00  0.00     0.204 C 
ENDBRANCH  24  28
BRANCH  26  30
HETATM   30  C4  UNL     1     -11.541  46.341 -25.418  1.00  0.00     0.183 C 
BRANCH  30  31
HETATM   31  O3  UNL     1     -11.494  44.937 -25.713  1.00  0.00    -0.390 OA
HETATM   32  H7  UNL     1     -12.252  44.519 -25.271  1.00  0.00     0.210 HD
ENDBRANCH  30  31
BRANCH  30  33
HETATM   33  C5  UNL     1     -12.422  47.086 -26.457  1.00  0.00     0.103 C 
HETATM   34  C6  UNL     1     -12.758  46.145 -27.628  1.00  0.00     0.051 C 
BRANCH  33  35
HETATM   35  O4  UNL     1     -13.681  47.431 -25.846  1.00  0.00    -0.385 OA
HETATM   36  H11 UNL     1     -14.089  48.072 -26.465  1.00  0.00     0.210 HD
ENDBRANCH  33  35
BRANCH  33  37
HETATM   37  C7  UNL     1     -11.779  48.382 -26.991  1.00  0.00     0.204 C 
BRANCH  37  38
HETATM   38  O5  UNL     1     -11.375  48.181 -28.356  1.00  0.00    -0.398 OA
HETATM   39  H14 UNL     1     -10.936  49.007 -28.629  1.00  0.00     0.209 HD
ENDBRANCH  37  38
ENDBRANCH  33  37
ENDBRANCH  30  33
ENDBRANCH  26  30
ENDBRANCH   1  23
BRANCH  20  40
HETATM   40  O8  UNL     1      -5.971  48.415 -18.384  1.00  0.00    -0.395 OA
HETATM   41  H55 UNL     1      -6.134  48.406 -17.424  1.00  0.00     0.210 HD
ENDBRANCH  20  40
BRANCH  14  42
HETATM   42  O6  UNL     1      -0.676  51.985 -17.804  1.00  0.00    -0.312 OA
BRANCH  42  43
HETATM   43  C24 UNL     1       0.663  52.173 -17.799  1.00  0.00     0.283 C 
HETATM   44  O7  UNL     1       1.336  52.654 -18.697  1.00  0.00    -0.260 OA
BRANCH  43  45
HETATM   45  C25 UNL     1       1.277  51.616 -16.574  1.00  0.00     0.084 C 
HETATM   46  C26 UNL     1       2.424  51.983 -15.969  1.00  0.00    -0.082 C 
HETATM   47  C27 UNL     1       3.381  53.027 -16.477  1.00  0.00     0.043 C 
HETATM   48  C28 UNL     1       2.855  51.311 -14.693  1.00  0.00     0.043 C 
ENDBRANCH  43  45
ENDBRANCH  42  43
ENDBRANCH  14  42
TORSDOF 12
ENDMDL
MODEL 3
REMARK minimizedAffinity -9.40158176
REMARK CNNscore 0.485375732
REMARK CNNaffinity 6.7494607
REMARK  12 active torsions:
REMARK  status: ('A' for Active; 'I' for Inactive)
REMARK    1  A    between atoms: O1_2  and  C2_3 
REMARK    2  A    between atoms: C3_5  and  C4_6 
REMARK    3  A    between atoms: C4_6  and  O3_7 
REMARK    4  A    between atoms: C4_6  and  C5_8 
REMARK    5  A    between atoms: C5_8  and  O4_10 
REMARK    6  A    between atoms: C5_8  and  C7_11 
REMARK    7  A    between atoms: C7_11  and  O5_12 
REMARK    8  A    between atoms: C9_14  and  C10_15 
REMARK    9  A    between atoms: C23_28  and  O6_29 
REMARK   10  A    between atoms: O6_29  and  C24_30 
REMARK   11  A    between atoms: C24_30  and  C25_32 
REMARK   12  A    between atoms: C34_41  and  O8_42 
ROOT
HETATM    1  C10 UNL     1      -3.080  49.786 -22.401  1.00  0.00     0.004 C 
HETATM    2  C11 UNL     1      -2.257  48.484 -22.543  1.00  0.00     0.007 C 
HETATM    3  C12 UNL     1      -2.992  47.446 -21.676  1.00  0.00     0.011 C 
HETATM    4  C13 UNL     1      -4.451  47.889 -21.658  1.00  0.00    -0.021 A 
HETATM    5  C14 UNL     1      -5.059  48.162 -23.022  1.00  0.00     0.022 A 
HETATM    6  C15 UNL     1      -4.516  49.304 -22.182  1.00  0.00    -0.027 A 
HETATM    7  C16 UNL     1      -5.526  50.300 -21.661  1.00  0.00     0.011 C 
HETATM    8  C17 UNL     1      -6.275  49.860 -20.398  1.00  0.00     0.007 C 
HETATM    9  C18 UNL     1      -6.654  48.363 -20.425  1.00  0.00     0.005 C 
HETATM   10  C19 UNL     1      -7.797  47.939 -19.402  1.00  0.00    -0.035 C 
HETATM   11  C20 UNL     1      -7.460  48.343 -17.947  1.00  0.00     0.016 C 
HETATM   12  C21 UNL     1      -9.113  48.698 -19.804  1.00  0.00     0.012 C 
HETATM   13  C22 UNL     1     -10.412  47.909 -19.611  1.00  0.00     0.034 C 
HETATM   14  C23 UNL     1     -10.344  46.910 -18.462  1.00  0.00     0.140 C 
HETATM   15  C29 UNL     1      -9.254  45.817 -18.706  1.00  0.00    -0.016 C 
HETATM   16  C30 UNL     1      -8.822  45.252 -17.335  1.00  0.00     0.018 C 
HETATM   17  C31 UNL     1      -9.859  44.619 -19.494  1.00  0.00     0.018 C 
HETATM   18  C32 UNL     1      -8.055  46.399 -19.557  1.00  0.00     0.007 C 
HETATM   19  C33 UNL     1      -6.749  45.574 -19.459  1.00  0.00     0.038 C 
HETATM   20  C34 UNL     1      -5.726  45.981 -20.529  1.00  0.00     0.128 C 
HETATM   21  C35 UNL     1      -5.341  47.485 -20.437  1.00  0.00    -0.005 C 
HETATM   22  C36 UNL     1      -4.495  47.698 -19.149  1.00  0.00     0.019 C 
ENDROOT
BRANCH   1  23
HETATM   23  C9  UNL     1      -2.967  50.823 -23.529  1.00  0.00     0.048 C 
HETATM   24  C2  UNL     1      -2.716  52.272 -23.113  1.00  0.00     0.264 C 
HETATM   25  O2  UNL     1      -2.340  52.951 -24.320  1.00  0.00    -0.353 OA
HETATM   26  C3  UNL     1      -1.880  51.976 -25.280  1.00  0.00     0.157 C 
HETATM   27  C8  UNL     1      -1.862  50.632 -24.551  1.00  0.00     0.044 C 
BRANCH  24  28
HETATM   28  O1  UNL     1      -1.680  52.358 -22.143  1.00  0.00    -0.366 OA
HETATM   29  C1  UNL     1      -0.400  52.115 -22.704  1.00  0.00     0.204 C 
ENDBRANCH  24  28
BRANCH  26  30
HETATM   30  C4  UNL     1      -0.511  52.345 -25.894  1.00  0.00     0.183 C 
BRANCH  30  31
HETATM   31  O3  UNL     1      -0.070  53.614 -25.386  1.00  0.00    -0.390 OA
HETATM   32  H7  UNL     1       0.896  53.574 -25.297  1.00  0.00     0.210 HD
ENDBRANCH  30  31
BRANCH  30  33
HETATM   33  C5  UNL     1      -0.473  52.338 -27.446  1.00  0.00     0.103 C 
HETATM   34  C6  UNL     1       0.800  51.625 -27.935  1.00  0.00     0.051 C 
BRANCH  33  35
HETATM   35  O4  UNL     1      -1.582  51.562 -27.941  1.00  0.00    -0.385 OA
HETATM   36  H11 UNL     1      -1.627  51.775 -28.896  1.00  0.00     0.210 HD
ENDBRANCH  33  35
BRANCH  33  37
HETATM   37  C7  UNL     1      -0.560  53.746 -28.070  1.00  0.00     0.204 C 
BRANCH  37  38
HETATM   38  O5  UNL     1      -1.938  54.068 -28.319  1.00  0.00    -0.398 OA
HETATM   39  H14 UNL     1      -1.935  54.941 -28.753  1.00  0.00     0.209 HD
ENDBRANCH  37  38
ENDBRANCH  33  37
ENDBRANCH  30  33
ENDBRANCH  26  30
ENDBRANCH   1  23
BRANCH  20  40
HETATM   40  O8  UNL     1      -6.296  45.677 -21.807  1.00  0.00    -0.395 OA
HETATM   41  H55 UNL     1      -6.383  44.710 -21.866  1.00  0.00     0.210 HD
ENDBRANCH  20  40
BRANCH  14  42
HETATM   42  O6  UNL     1     -11.647  46.301 -18.329  1.00  0.00    -0.312 OA
BRANCH  42  43
HETATM   43  C24 UNL     1     -12.627  47.036 -17.759  1.00  0.00     0.283 C 
HETATM   44  O7  UNL     1     -12.528  47.745 -16.769  1.00  0.00    -0.260 OA
BRANCH  43  45
HETATM   45  C25 UNL     1     -13.926  46.807 -18.430  1.00  0.00     0.084 C 
HETATM   46  C26 UNL     1     -14.964  47.658 -18.560  1.00  0.00    -0.082 C 
HETATM   47  C27 UNL     1     -15.038  49.038 -17.968  1.00  0.00     0.043 C 
HETATM   48  C28 UNL     1     -16.192  47.240 -19.324  1.00  0.00     0.043 C 
ENDBRANCH  43  45
ENDBRANCH  42  43
ENDBRANCH  14  42
TORSDOF 12
ENDMDL
MODEL 4
REMARK minimizedAffinity -7.33822155
REMARK CNNscore 0.477702081
REMARK CNNaffinity 6.80733728
REMARK  12 active torsions:
REMARK  status: ('A' for Active; 'I' for Inactive)
REMARK    1  A    between atoms: O1_2  and  C2_3 
REMARK    2  A    between atoms: C3_5  and  C4_6 
REMARK    3  A    between atoms: C4_6  and  O3_7 
REMARK    4  A    between atoms: C4_6  and  C5_8 
REMARK    5  A    between atoms: C5_8  and  O4_10 
REMARK    6  A    between atoms: C5_8  and  C7_11 
REMARK    7  A    between atoms: C7_11  and  O5_12 
REMARK    8  A    between atoms: C9_14  and  C10_15 
REMARK    9  A    between atoms: C23_28  and  O6_29 
REMARK   10  A    between atoms: O6_29  and  C24_30 
REMARK   11  A    between atoms: C24_30  and  C25_32 
REMARK   12  A    between atoms: C34_41  and  O8_42 
ROOT
HETATM    1  C10 UNL     1      -4.115  48.563 -23.825  1.00  0.00     0.004 C 
HETATM    2  C11 UNL     1      -5.415  49.401 -23.836  1.00  0.00     0.007 C 
HETATM    3  C12 UNL     1      -6.256  48.858 -22.667  1.00  0.00     0.011 C 
HETATM    4  C13 UNL     1      -5.249  48.310 -21.661  1.00  0.00    -0.021 A 
HETATM    5  C14 UNL     1      -4.129  49.262 -21.284  1.00  0.00     0.022 A 
HETATM    6  C15 UNL     1      -3.910  48.203 -22.351  1.00  0.00    -0.027 A 
HETATM    7  C16 UNL     1      -2.929  47.103 -22.020  1.00  0.00     0.011 C 
HETATM    8  C17 UNL     1      -3.495  45.971 -21.155  1.00  0.00     0.007 C 
HETATM    9  C18 UNL     1      -4.434  46.489 -20.043  1.00  0.00     0.005 C 
HETATM   10  C19 UNL     1      -4.694  45.466 -18.851  1.00  0.00    -0.035 C 
HETATM   11  C20 UNL     1      -5.220  44.101 -19.354  1.00  0.00     0.016 C 
HETATM   12  C21 UNL     1      -3.321  45.201 -18.133  1.00  0.00     0.012 C 
HETATM   13  C22 UNL     1      -3.399  45.020 -16.613  1.00  0.00     0.034 C 
HETATM   14  C23 UNL     1      -4.715  44.409 -16.147  1.00  0.00     0.140 C 
HETATM   15  C29 UNL     1      -5.935  45.323 -16.495  1.00  0.00    -0.016 C 
HETATM   16  C30 UNL     1      -7.197  44.435 -16.568  1.00  0.00     0.018 C 
HETATM   17  C31 UNL     1      -6.191  46.341 -15.348  1.00  0.00     0.018 C 
HETATM   18  C32 UNL     1      -5.662  46.144 -17.819  1.00  0.00     0.007 C 
HETATM   19  C33 UNL     1      -6.939  46.701 -18.493  1.00  0.00     0.038 C 
HETATM   20  C34 UNL     1      -6.615  47.743 -19.574  1.00  0.00     0.128 C 
HETATM   21  C35 UNL     1      -5.703  47.166 -20.695  1.00  0.00    -0.005 C 
HETATM   22  C36 UNL     1      -6.534  46.149 -21.529  1.00  0.00     0.019 C 
ENDROOT
BRANCH   1  23
HETATM   23  C9  UNL     1      -2.865  49.184 -24.464  1.00  0.00     0.048 C 
HETATM   24  C2  UNL     1      -2.684  48.980 -25.968  1.00  0.00     0.264 C 
HETATM   25  O2  UNL     1      -1.653  49.901 -26.353  1.00  0.00    -0.353 OA
HETATM   26  C3  UNL     1      -1.559  50.940 -25.354  1.00  0.00     0.157 C 
HETATM   27  C8  UNL     1      -2.700  50.689 -24.367  1.00  0.00     0.044 C 
BRANCH  24  28
HETATM   28  O1  UNL     1      -3.889  49.248 -26.674  1.00  0.00    -0.366 OA
HETATM   29  C1  UNL     1      -4.109  48.326 -27.729  1.00  0.00     0.204 C 
ENDBRANCH  24  28
BRANCH  26  30
HETATM   30  C4  UNL     1      -1.594  52.358 -25.966  1.00  0.00     0.183 C 
BRANCH  30  31
HETATM   31  O3  UNL     1      -2.936  52.696 -26.349  1.00  0.00    -0.390 OA
HETATM   32  H7  UNL     1      -3.056  53.646 -26.187  1.00  0.00     0.210 HD
ENDBRANCH  30  31
BRANCH  30  33
HETATM   33  C5  UNL     1      -0.618  52.576 -27.154  1.00  0.00     0.103 C 
HETATM   34  C6  UNL     1       0.810  52.181 -26.737  1.00  0.00     0.051 C 
BRANCH  33  35
HETATM   35  O4  UNL     1      -0.981  51.689 -28.230  1.00  0.00    -0.385 OA
HETATM   36  H11 UNL     1      -0.482  52.023 -29.005  1.00  0.00     0.210 HD
ENDBRANCH  33  35
BRANCH  33  37
HETATM   37  C7  UNL     1      -0.627  54.018 -27.700  1.00  0.00     0.204 C 
BRANCH  37  38
HETATM   38  O5  UNL     1      -1.843  54.239 -28.432  1.00  0.00    -0.398 OA
HETATM   39  H14 UNL     1      -1.779  55.142 -28.792  1.00  0.00     0.209 HD
ENDBRANCH  37  38
ENDBRANCH  33  37
ENDBRANCH  30  33
ENDBRANCH  26  30
ENDBRANCH   1  23
BRANCH  20  40
HETATM   40  O8  UNL     1      -5.986  48.854 -18.927  1.00  0.00    -0.395 OA
HETATM   41  H55 UNL     1      -6.647  49.264 -18.342  1.00  0.00     0.210 HD
ENDBRANCH  20  40
BRANCH  14  42
HETATM   42  O6  UNL     1      -4.627  44.209 -14.720  1.00  0.00    -0.312 OA
BRANCH  42  43
HETATM   43  C24 UNL     1      -3.838  43.207 -14.274  1.00  0.00     0.283 C 
HETATM   44  O7  UNL     1      -2.799  43.320 -13.641  1.00  0.00    -0.260 OA
BRANCH  43  45
HETATM   45  C25 UNL     1      -4.329  41.892 -14.741  1.00  0.00     0.084 C 
HETATM   46  C26 UNL     1      -3.771  41.062 -15.646  1.00  0.00    -0.082 C 
HETATM   47  C27 UNL     1      -2.527  41.348 -16.440  1.00  0.00     0.043 C 
HETATM   48  C28 UNL     1      -4.415  39.735 -15.952  1.00  0.00     0.043 C 
ENDBRANCH  43  45
ENDBRANCH  42  43
ENDBRANCH  14  42
TORSDOF 12
ENDMDL
MODEL 5
REMARK minimizedAffinity -8.03284168
REMARK CNNscore 0.465480089
REMARK CNNaffinity 7.33165693
REMARK  12 active torsions:
REMARK  status: ('A' for Active; 'I' for Inactive)
REMARK    1  A    between atoms: O1_2  and  C2_3 
REMARK    2  A    between atoms: C3_5  and  C4_6 
REMARK    3  A    between atoms: C4_6  and  O3_7 
REMARK    4  A    between atoms: C4_6  and  C5_8 
REMARK    5  A    between atoms: C5_8  and  O4_10 
REMARK    6  A    between atoms: C5_8  and  C7_11 
REMARK    7  A    between atoms: C7_11  and  O5_12 
REMARK    8  A    between atoms: C9_14  and  C10_15 
REMARK    9  A    between atoms: C23_28  and  O6_29 
REMARK   10  A    between atoms: O6_29  and  C24_30 
REMARK   11  A    between atoms: C24_30  and  C25_32 
REMARK   12  A    between atoms: C34_41  and  O8_42 
ROOT
HETATM    1  C10 UNL     1      -0.979  50.250 -19.795  1.00  0.00     0.004 C 
HETATM    2  C11 UNL     1      -1.867  48.984 -19.777  1.00  0.00     0.007 C 
HETATM    3  C12 UNL     1      -1.837  48.491 -18.318  1.00  0.00     0.011 C 
HETATM    4  C13 UNL     1      -1.590  49.736 -17.473  1.00  0.00    -0.021 A 
HETATM    5  C14 UNL     1      -2.517  50.904 -17.758  1.00  0.00     0.022 A 
HETATM    6  C15 UNL     1      -1.138  50.844 -18.393  1.00  0.00    -0.027 A 
HETATM    7  C16 UNL     1      -0.144  51.891 -17.950  1.00  0.00     0.011 C 
HETATM    8  C17 UNL     1       0.565  51.590 -16.625  1.00  0.00     0.007 C 
HETATM    9  C18 UNL     1      -0.383  50.974 -15.574  1.00  0.00     0.005 C 
HETATM   10  C19 UNL     1       0.136  51.053 -14.071  1.00  0.00    -0.035 C 
HETATM   11  C20 UNL     1       1.541  50.430 -13.902  1.00  0.00     0.016 C 
HETATM   12  C21 UNL     1       0.248  52.571 -13.677  1.00  0.00     0.012 C 
HETATM   13  C22 UNL     1      -0.116  52.902 -12.226  1.00  0.00     0.034 C 
HETATM   14  C23 UNL     1       0.181  51.765 -11.256  1.00  0.00     0.140 C 
HETATM   15  C29 UNL     1      -0.653  50.485 -11.587  1.00  0.00    -0.016 C 
HETATM   16  C30 UNL     1       0.096  49.260 -11.017  1.00  0.00     0.018 C 
HETATM   17  C31 UNL     1      -2.024  50.531 -10.855  1.00  0.00     0.018 C 
HETATM   18  C32 UNL     1      -0.937  50.386 -13.140  1.00  0.00     0.007 C 
HETATM   19  C33 UNL     1      -1.330  48.969 -13.623  1.00  0.00     0.038 C 
HETATM   20  C34 UNL     1      -1.900  48.981 -15.049  1.00  0.00     0.128 C 
HETATM   21  C35 UNL     1      -0.896  49.569 -16.081  1.00  0.00    -0.005 C 
HETATM   22  C36 UNL     1       0.274  48.559 -16.258  1.00  0.00     0.019 C 
ENDROOT
BRANCH   1  23
HETATM   23  C9  UNL     1      -1.232  51.278 -20.908  1.00  0.00     0.048 C 
HETATM   24  C2  UNL     1      -0.307  52.493 -20.950  1.00  0.00     0.264 C 
HETATM   25  O2  UNL     1      -0.540  53.101 -22.229  1.00  0.00    -0.353 OA
HETATM   26  C3  UNL     1      -1.126  52.121 -23.112  1.00  0.00     0.157 C 
HETATM   27  C8  UNL     1      -1.126  50.798 -22.344  1.00  0.00     0.044 C 
BRANCH  24  28
HETATM   28  O1  UNL     1       1.055  52.109 -20.817  1.00  0.00    -0.366 OA
HETATM   29  C1  UNL     1       1.938  53.212 -20.942  1.00  0.00     0.204 C 
ENDBRANCH  24  28
BRANCH  26  30
HETATM   30  C4  UNL     1      -0.392  52.028 -24.468  1.00  0.00     0.183 C 
BRANCH  30  31
HETATM   31  O3  UNL     1       0.488  53.151 -24.629  1.00  0.00    -0.390 OA
HETATM   32  H7  UNL     1       1.276  52.840 -25.106  1.00  0.00     0.210 HD
ENDBRANCH  30  31
BRANCH  30  33
HETATM   33  C5  UNL     1      -1.325  51.888 -25.702  1.00  0.00     0.103 C 
HETATM   34  C6  UNL     1      -1.388  50.415 -26.144  1.00  0.00     0.051 C 
BRANCH  33  35
HETATM   35  O4  UNL     1      -2.666  52.251 -25.322  1.00  0.00    -0.385 OA
HETATM   36  H11 UNL     1      -3.145  52.351 -26.171  1.00  0.00     0.210 HD
ENDBRANCH  33  35
BRANCH  33  37
HETATM   37  C7  UNL     1      -0.908  52.776 -26.892  1.00  0.00     0.204 C 
BRANCH  37  38
HETATM   38  O5  UNL     1      -1.265  52.120 -28.119  1.00  0.00    -0.398 OA
HETATM   39  H14 UNL     1      -0.940  52.696 -28.835  1.00  0.00     0.209 HD
ENDBRANCH  37  38
ENDBRANCH  33  37
ENDBRANCH  30  33
ENDBRANCH  26  30
ENDBRANCH   1  23
BRANCH  20  40
HETATM   40  O8  UNL     1      -3.110  49.745 -15.022  1.00  0.00    -0.395 OA
HETATM   41  H55 UNL     1      -3.752  49.258 -14.476  1.00  0.00     0.210 HD
ENDBRANCH  20  40
BRANCH  14  42
HETATM   42  O6  UNL     1      -0.121  52.232  -9.923  1.00  0.00    -0.312 OA
BRANCH  42  43
HETATM   43  C24 UNL     1       0.918  52.505  -9.104  1.00  0.00     0.283 C 
HETATM   44  O7  UNL     1       1.381  51.776  -8.241  1.00  0.00    -0.260 OA
BRANCH  43  45
HETATM   45  C25 UNL     1       1.402  53.890  -9.299  1.00  0.00     0.084 C 
HETATM   46  C26 UNL     1       2.425  54.321 -10.064  1.00  0.00    -0.082 C 
HETATM   47  C27 UNL     1       3.357  53.439 -10.850  1.00  0.00     0.043 C 
HETATM   48  C28 UNL     1       2.731  55.792 -10.160  1.00  0.00     0.043 C 
ENDBRANCH  43  45
ENDBRANCH  42  43
ENDBRANCH  14  42
TORSDOF 12
ENDMDL
MODEL 6
REMARK minimizedAffinity -9.47107601
REMARK CNNscore 0.43857038
REMARK CNNaffinity 7.06849241
REMARK  12 active torsions:
REMARK  status: ('A' for Active; 'I' for Inactive)
REMARK    1  A    between atoms: O1_2  and  C2_3 
REMARK    2  A    between atoms: C3_5  and  C4_6 
REMARK    3  A    between atoms: C4_6  and  O3_7 
REMARK    4  A    between atoms: C4_6  and  C5_8 
REMARK    5  A    between atoms: C5_8  and  O4_10 
REMARK    6  A    between atoms: C5_8  and  C7_11 
REMARK    7  A    between atoms: C7_11  and  O5_12 
REMARK    8  A    between atoms: C9_14  and  C10_15 
REMARK    9  A    between atoms: C23_28  and  O6_29 
REMARK   10  A    between atoms: O6_29  and  C24_30 
REMARK   11  A    between atoms: C24_30  and  C25_32 
REMARK   12  A    between atoms: C34_41  and  O8_42 
ROOT
HETATM    1  C10 UNL     1      -7.151  47.524 -23.580  1.00  0.00     0.004 C 
HETATM    2  C11 UNL     1      -8.067  47.717 -22.349  1.00  0.00     0.007 C 
HETATM    3  C12 UNL     1      -7.134  48.196 -21.223  1.00  0.00     0.011 C 
HETATM    4  C13 UNL     1      -5.983  48.910 -21.923  1.00  0.00    -0.021 A 
HETATM    5  C14 UNL     1      -6.397  49.965 -22.934  1.00  0.00     0.022 A 
HETATM    6  C15 UNL     1      -6.040  48.561 -23.391  1.00  0.00    -0.027 A 
HETATM    7  C16 UNL     1      -4.788  48.419 -24.225  1.00  0.00     0.011 C 
HETATM    8  C17 UNL     1      -3.481  48.382 -23.427  1.00  0.00     0.007 C 
HETATM    9  C18 UNL     1      -3.479  49.380 -22.248  1.00  0.00     0.005 C 
HETATM   10  C19 UNL     1      -2.039  49.730 -21.665  1.00  0.00    -0.035 C 
HETATM   11  C20 UNL     1      -1.251  48.465 -21.249  1.00  0.00     0.016 C 
HETATM   12  C21 UNL     1      -1.217  50.441 -22.799  1.00  0.00     0.012 C 
HETATM   13  C22 UNL     1      -0.276  51.556 -22.330  1.00  0.00     0.034 C 
HETATM   14  C23 UNL     1       0.265  51.333 -20.923  1.00  0.00     0.140 C 
HETATM   15  C29 UNL     1      -0.879  51.311 -19.857  1.00  0.00    -0.016 C 
HETATM   16  C30 UNL     1      -0.382  50.510 -18.634  1.00  0.00     0.018 C 
HETATM   17  C31 UNL     1      -1.165  52.751 -19.343  1.00  0.00     0.018 C 
HETATM   18  C32 UNL     1      -2.217  50.746 -20.482  1.00  0.00     0.007 C 
HETATM   19  C33 UNL     1      -3.246  50.252 -19.435  1.00  0.00     0.038 C 
HETATM   20  C34 UNL     1      -4.631  50.015 -20.054  1.00  0.00     0.128 C 
HETATM   21  C35 UNL     1      -4.594  48.971 -21.207  1.00  0.00    -0.005 C 
HETATM   22  C36 UNL     1      -4.320  47.569 -20.591  1.00  0.00     0.019 C 
ENDROOT
BRANCH   1  23
HETATM   23  C9  UNL     1      -7.803  47.598 -24.969  1.00  0.00     0.048 C 
HETATM   24  C2  UNL     1      -8.326  46.288 -25.557  1.00  0.00     0.264 C 
HETATM   25  O2  UNL     1      -9.148  46.676 -26.668  1.00  0.00    -0.353 OA
HETATM   26  C3  UNL     1      -9.545  48.053 -26.497  1.00  0.00     0.157 C 
HETATM   27  C8  UNL     1      -9.027  48.481 -25.123  1.00  0.00     0.044 C 
BRANCH  24  28
HETATM   28  O1  UNL     1      -9.085  45.560 -24.600  1.00  0.00    -0.366 OA
HETATM   29  C1  UNL     1      -9.970  44.635 -25.211  1.00  0.00     0.204 C 
ENDBRANCH  24  28
BRANCH  26  30
HETATM   30  C4  UNL     1     -11.068  48.258 -26.656  1.00  0.00     0.183 C 
BRANCH  30  31
HETATM   31  O3  UNL     1     -11.764  47.636 -25.565  1.00  0.00    -0.390 OA
HETATM   32  H7  UNL     1     -12.534  48.190 -25.356  1.00  0.00     0.210 HD
ENDBRANCH  30  31
BRANCH  30  33
HETATM   33  C5  UNL     1     -11.648  47.779 -28.015  1.00  0.00     0.103 C 
HETATM   34  C6  UNL     1     -12.473  46.496 -27.808  1.00  0.00     0.051 C 
BRANCH  33  35
HETATM   35  O4  UNL     1     -12.567  48.772 -28.511  1.00  0.00    -0.385 OA
HETATM   36  H11 UNL     1     -12.723  48.520 -29.444  1.00  0.00     0.210 HD
ENDBRANCH  33  35
BRANCH  33  37
HETATM   37  C7  UNL     1     -10.571  47.544 -29.094  1.00  0.00     0.204 C 
BRANCH  37  38
HETATM   38  O5  UNL     1     -10.438  48.729 -29.894  1.00  0.00    -0.398 OA
HETATM   39  H14 UNL     1      -9.785  48.514 -30.585  1.00  0.00     0.209 HD
ENDBRANCH  37  38
ENDBRANCH  33  37
ENDBRANCH  30  33
ENDBRANCH  26  30
ENDBRANCH   1  23
BRANCH  20  40
HETATM   40  O8  UNL     1      -5.115  51.278 -20.524  1.00  0.00    -0.395 OA
HETATM   41  H55 UNL     1      -5.256  51.845 -19.746  1.00  0.00     0.210 HD
ENDBRANCH  20  40
BRANCH  14  42
HETATM   42  O6  UNL     1       1.198  52.397 -20.637  1.00  0.00    -0.312 OA
BRANCH  42  43
HETATM   43  C24 UNL     1       1.233  53.446 -21.488  1.00  0.00     0.283 C 
HETATM   44  O7  UNL     1       1.340  54.626 -21.191  1.00  0.00    -0.260 OA
BRANCH  43  45
HETATM   45  C25 UNL     1       1.017  53.008 -22.885  1.00  0.00     0.084 C 
HETATM   46  C26 UNL     1       0.877  53.768 -23.990  1.00  0.00    -0.082 C 
HETATM   47  C27 UNL     1       0.843  55.271 -24.014  1.00  0.00     0.043 C 
HETATM   48  C28 UNL     1       0.706  53.119 -25.337  1.00  0.00     0.043 C 
ENDBRANCH  43  45
ENDBRANCH  42  43
ENDBRANCH  14  42
TORSDOF 12
ENDMDL
MODEL 7
REMARK minimizedAffinity -7.94523048
REMARK CNNscore 0.432707697
REMARK CNNaffinity 6.89597702
REMARK  12 active torsions:
REMARK  status: ('A' for Active; 'I' for Inactive)
REMARK    1  A    between atoms: O1_2  and  C2_3 
REMARK    2  A    between atoms: C3_5  and  C4_6 
REMARK    3  A    between atoms: C4_6  and  O3_7 
REMARK    4  A    between atoms: C4_6  and  C5_8 
REMARK    5  A    between atoms: C5_8  and  O4_10 
REMARK    6  A    between atoms: C5_8  and  C7_11 
REMARK    7  A    between atoms: C7_11  and  O5_12 
REMARK    8  A    between atoms: C9_14  and  C10_15 
REMARK    9  A    between atoms: C23_28  and  O6_29 
REMARK   10  A    between atoms: O6_29  and  C24_30 
REMARK   11  A    between atoms: C24_30  and  C25_32 
REMARK   12  A    between atoms: C34_41  and  O8_42 
ROOT
HETATM    1  C10 UNL     1      -5.303  45.857 -18.364  1.00  0.00     0.004 C 
HETATM    2  C11 UNL     1      -5.898  46.909 -17.400  1.00  0.00     0.007 C 
HETATM    3  C12 UNL     1      -5.513  48.273 -18.002  1.00  0.00     0.011 C 
HETATM    4  C13 UNL     1      -5.378  48.032 -19.502  1.00  0.00    -0.021 A 
HETATM    5  C14 UNL     1      -6.557  47.331 -20.152  1.00  0.00     0.022 A 
HETATM    6  C15 UNL     1      -5.329  46.541 -19.733  1.00  0.00    -0.027 A 
HETATM    7  C16 UNL     1      -4.504  45.935 -20.845  1.00  0.00     0.011 C 
HETATM    8  C17 UNL     1      -3.527  46.899 -21.525  1.00  0.00     0.007 C 
HETATM    9  C18 UNL     1      -4.131  48.306 -21.730  1.00  0.00     0.005 C 
HETATM   10  C19 UNL     1      -3.382  49.209 -22.806  1.00  0.00    -0.035 C 
HETATM   11  C20 UNL     1      -1.872  49.353 -22.503  1.00  0.00     0.016 C 
HETATM   12  C21 UNL     1      -3.511  48.504 -24.205  1.00  0.00     0.012 C 
HETATM   13  C22 UNL     1      -3.674  49.444 -25.404  1.00  0.00     0.034 C 
HETATM   14  C23 UNL     1      -2.986  50.790 -25.209  1.00  0.00     0.140 C 
HETATM   15  C29 UNL     1      -3.589  51.583 -24.004  1.00  0.00    -0.016 C 
HETATM   16  C30 UNL     1      -2.520  52.574 -23.496  1.00  0.00     0.018 C 
HETATM   17  C31 UNL     1      -4.791  52.450 -24.478  1.00  0.00     0.018 C 
HETATM   18  C32 UNL     1      -4.117  50.594 -22.889  1.00  0.00     0.007 C 
HETATM   19  C33 UNL     1      -4.294  51.246 -21.496  1.00  0.00     0.038 C 
HETATM   20  C34 UNL     1      -5.097  50.354 -20.538  1.00  0.00     0.128 C 
HETATM   21  C35 UNL     1      -4.430  48.964 -20.326  1.00  0.00    -0.005 C 
HETATM   22  C36 UNL     1      -3.130  49.165 -19.496  1.00  0.00     0.019 C 
ENDROOT
BRANCH   1  23
HETATM   23  C9  UNL     1      -5.950  44.465 -18.383  1.00  0.00     0.048 C 
HETATM   24  C2  UNL     1      -7.347  44.344 -17.774  1.00  0.00     0.264 C 
HETATM   25  O2  UNL     1      -7.835  43.063 -18.199  1.00  0.00    -0.353 OA
HETATM   26  C3  UNL     1      -7.091  42.644 -19.363  1.00  0.00     0.157 C 
HETATM   27  C8  UNL     1      -6.179  43.814 -19.735  1.00  0.00     0.044 C 
BRANCH  24  28
HETATM   28  O1  UNL     1      -8.200  45.385 -18.232  1.00  0.00    -0.366 OA
HETATM   29  C1  UNL     1      -9.368  45.508 -17.436  1.00  0.00     0.204 C 
ENDBRANCH  24  28
BRANCH  26  30
HETATM   30  C4  UNL     1      -8.006  42.202 -20.527  1.00  0.00     0.183 C 
BRANCH  30  31
HETATM   31  O3  UNL     1      -8.247  40.789 -20.454  1.00  0.00    -0.390 OA
HETATM   32  H7  UNL     1      -9.158  40.631 -20.756  1.00  0.00     0.210 HD
ENDBRANCH  30  31
BRANCH  30  33
HETATM   33  C5  UNL     1      -7.493  42.594 -21.940  1.00  0.00     0.103 C 
HETATM   34  C6  UNL     1      -7.779  44.083 -22.205  1.00  0.00     0.051 C 
BRANCH  33  35
HETATM   35  O4  UNL     1      -6.061  42.448 -21.978  1.00  0.00    -0.385 OA
HETATM   36  H11 UNL     1      -5.832  42.495 -22.930  1.00  0.00     0.210 HD
ENDBRANCH  33  35
BRANCH  33  37
HETATM   37  C7  UNL     1      -8.092  41.734 -23.071  1.00  0.00     0.204 C 
BRANCH  37  38
HETATM   38  O5  UNL     1      -7.439  42.060 -24.309  1.00  0.00    -0.398 OA
HETATM   39  H14 UNL     1      -7.883  41.527 -24.994  1.00  0.00     0.209 HD
ENDBRANCH  37  38
ENDBRANCH  33  37
ENDBRANCH  30  33
ENDBRANCH  26  30
ENDBRANCH   1  23
BRANCH  20  40
HETATM   40  O8  UNL     1      -6.413  50.210 -21.084  1.00  0.00    -0.395 OA
HETATM   41  H55 UNL     1      -6.836  51.086 -21.061  1.00  0.00     0.210 HD
ENDBRANCH  20  40
BRANCH  14  42
HETATM   42  O6  UNL     1      -3.137  51.543 -26.433  1.00  0.00    -0.312 OA
BRANCH  42  43
HETATM   43  C24 UNL     1      -2.500  51.084 -27.533  1.00  0.00     0.283 C 
HETATM   44  O7  UNL     1      -3.017  50.619 -28.537  1.00  0.00    -0.260 OA
BRANCH  43  45
HETATM   45  C25 UNL     1      -1.032  51.110 -27.351  1.00  0.00     0.084 C 
HETATM   46  C26 UNL     1      -0.191  52.157 -27.470  1.00  0.00    -0.082 C 
HETATM   47  C27 UNL     1      -0.583  53.546 -27.894  1.00  0.00     0.043 C 
HETATM   48  C28 UNL     1       1.279  51.980 -27.198  1.00  0.00     0.043 C 
ENDBRANCH  43  45
ENDBRANCH  42  43
ENDBRANCH  14  42
TORSDOF 12
ENDMDL
MODEL 8
REMARK minimizedAffinity -9.39222908
REMARK CNNscore 0.413112611
REMARK CNNaffinity 6.87776709
REMARK  12 active torsions:
REMARK  status: ('A' for Active; 'I' for Inactive)
REMARK    1  A    between atoms: O1_2  and  C2_3 
REMARK    2  A    between atoms: C3_5  and  C4_6 
REMARK    3  A    between atoms: C4_6  and  O3_7 
REMARK    4  A    between atoms: C4_6  and  C5_8 
REMARK    5  A    between atoms: C5_8  and  O4_10 
REMARK    6  A    between atoms: C5_8  and  C7_11 
REMARK    7  A    between atoms: C7_11  and  O5_12 
REMARK    8  A    between atoms: C9_14  and  C10_15 
REMARK    9  A    between atoms: C23_28  and  O6_29 
REMARK   10  A    between atoms: O6_29  and  C24_30 
REMARK   11  A    between atoms: C24_30  and  C25_32 
REMARK   12  A    between atoms: C34_41  and  O8_42 
ROOT
HETATM    1  C10 UNL     1      -7.521  47.412 -24.025  1.00  0.00     0.004 C 
HETATM    2  C11 UNL     1      -8.424  47.404 -22.769  1.00  0.00     0.007 C 
HETATM    3  C12 UNL     1      -7.487  47.745 -21.596  1.00  0.00     0.011 C 
HETATM    4  C13 UNL     1      -6.365  48.582 -22.201  1.00  0.00    -0.021 A 
HETATM    5  C14 UNL     1      -6.820  49.757 -23.048  1.00  0.00     0.022 A 
HETATM    6  C15 UNL     1      -6.435  48.441 -23.703  1.00  0.00    -0.027 A 
HETATM    7  C16 UNL     1      -5.192  48.452 -24.562  1.00  0.00     0.011 C 
HETATM    8  C17 UNL     1      -3.872  48.339 -23.792  1.00  0.00     0.007 C 
HETATM    9  C18 UNL     1      -3.879  49.160 -22.484  1.00  0.00     0.005 C 
HETATM   10  C19 UNL     1      -2.440  49.463 -21.872  1.00  0.00    -0.035 C 
HETATM   11  C20 UNL     1      -1.614  48.174 -21.649  1.00  0.00     0.016 C 
HETATM   12  C21 UNL     1      -1.652  50.349 -22.904  1.00  0.00     0.012 C 
HETATM   13  C22 UNL     1      -0.734  51.412 -22.292  1.00  0.00     0.034 C 
HETATM   14  C23 UNL     1      -0.167  51.008 -20.936  1.00  0.00     0.140 C 
HETATM   15  C29 UNL     1      -1.294  50.804 -19.872  1.00  0.00    -0.016 C 
HETATM   16  C30 UNL     1      -0.759  49.852 -18.780  1.00  0.00     0.018 C 
HETATM   17  C31 UNL     1      -1.608  52.149 -19.156  1.00  0.00     0.018 C 
HETATM   18  C32 UNL     1      -2.627  50.297 -20.556  1.00  0.00     0.007 C 
HETATM   19  C33 UNL     1      -3.626  49.632 -19.579  1.00  0.00     0.038 C 
HETATM   20  C34 UNL     1      -5.015  49.448 -20.209  1.00  0.00     0.128 C 
HETATM   21  C35 UNL     1      -4.967  48.579 -21.498  1.00  0.00    -0.005 C 
HETATM   22  C36 UNL     1      -4.650  47.111 -21.091  1.00  0.00     0.019 C 
ENDROOT
BRANCH   1  23
HETATM   23  C9  UNL     1      -8.195  47.664 -25.382  1.00  0.00     0.048 C 
HETATM   24  C2  UNL     1      -7.783  46.753 -26.538  1.00  0.00     0.264 C 
HETATM   25  O2  UNL     1      -8.762  46.978 -27.563  1.00  0.00    -0.353 OA
HETATM   26  C3  UNL     1      -9.947  47.540 -26.961  1.00  0.00     0.157 C 
HETATM   27  C8  UNL     1      -9.706  47.534 -25.450  1.00  0.00     0.044 C 
BRANCH  24  28
HETATM   28  O1  UNL     1      -7.774  45.388 -26.141  1.00  0.00    -0.366 OA
HETATM   29  C1  UNL     1      -7.968  44.510 -27.238  1.00  0.00     0.204 C 
ENDBRANCH  24  28
BRANCH  26  30
HETATM   30  C4  UNL     1     -11.235  46.788 -27.367  1.00  0.00     0.183 C 
BRANCH  30  31
HETATM   31  O3  UNL     1     -10.928  45.779 -28.340  1.00  0.00    -0.390 OA
HETATM   32  H7  UNL     1     -11.513  45.021 -28.171  1.00  0.00     0.210 HD
ENDBRANCH  30  31
BRANCH  30  33
HETATM   33  C5  UNL     1     -12.386  47.700 -27.872  1.00  0.00     0.103 C 
HETATM   34  C6  UNL     1     -13.745  47.068 -27.522  1.00  0.00     0.051 C 
BRANCH  33  35
HETATM   35  O4  UNL     1     -12.335  48.956 -27.170  1.00  0.00    -0.385 OA
HETATM   36  H11 UNL     1     -12.930  49.547 -27.676  1.00  0.00     0.210 HD
ENDBRANCH  33  35
BRANCH  33  37
HETATM   37  C7  UNL     1     -12.317  47.995 -29.384  1.00  0.00     0.204 C 
BRANCH  37  38
HETATM   38  O5  UNL     1     -12.795  46.851 -30.111  1.00  0.00    -0.398 OA
HETATM   39  H14 UNL     1     -12.688  47.069 -31.055  1.00  0.00     0.209 HD
ENDBRANCH  37  38
ENDBRANCH  33  37
ENDBRANCH  30  33
ENDBRANCH  26  30
ENDBRANCH   1  23
BRANCH  20  40
HETATM   40  O8  UNL     1      -5.537  50.751 -20.490  1.00  0.00    -0.395 OA
HETATM   41  H55 UNL     1      -5.681  51.198 -19.639  1.00  0.00     0.210 HD
ENDBRANCH  20  40
BRANCH  14  42
HETATM   42  O6  UNL     1       0.744  52.046 -20.513  1.00  0.00    -0.312 OA
BRANCH  42  43
HETATM   43  C24 UNL     1       0.438  52.725 -19.385  1.00  0.00     0.283 C 
HETATM   44  O7  UNL     1      -0.601  53.322 -19.150  1.00  0.00    -0.260 OA
BRANCH  43  45
HETATM   45  C25 UNL     1       1.588  52.763 -18.455  1.00  0.00     0.084 C 
HETATM   46  C26 UNL     1       1.652  52.321 -17.183  1.00  0.00    -0.082 C 
HETATM   47  C27 UNL     1       0.504  51.742 -16.403  1.00  0.00     0.043 C 
HETATM   48  C28 UNL     1       2.943  52.414 -16.414  1.00  0.00     0.043 C 
ENDBRANCH  43  45
ENDBRANCH  42  43
ENDBRANCH  14  42
TORSDOF 12
ENDMDL
MODEL 9
REMARK minimizedAffinity -7.31694174
REMARK CNNscore 0.373103023
REMARK CNNaffinity 5.55595541
REMARK  12 active torsions:
REMARK  status: ('A' for Active; 'I' for Inactive)
REMARK    1  A    between atoms: O1_2  and  C2_3 
REMARK    2  A    between atoms: C3_5  and  C4_6 
REMARK    3  A    between atoms: C4_6  and  O3_7 
REMARK    4  A    between atoms: C4_6  and  C5_8 
REMARK    5  A    between atoms: C5_8  and  O4_10 
REMARK    6  A    between atoms: C5_8  and  C7_11 
REMARK    7  A    between atoms: C7_11  and  O5_12 
REMARK    8  A    between atoms: C9_14  and  C10_15 
REMARK    9  A    between atoms: C23_28  and  O6_29 
REMARK   10  A    between atoms: O6_29  and  C24_30 
REMARK   11  A    between atoms: C24_30  and  C25_32 
REMARK   12  A    between atoms: C34_41  and  O8_42 
ROOT
HETATM    1  C10 UNL     1      -8.107  45.674 -22.485  1.00  0.00     0.004 C 
HETATM    2  C11 UNL     1      -7.600  44.562 -23.433  1.00  0.00     0.007 C 
HETATM    3  C12 UNL     1      -8.872  43.916 -24.012  1.00  0.00     0.011 C 
HETATM    4  C13 UNL     1      -9.933  45.010 -23.986  1.00  0.00    -0.021 A 
HETATM    5  C14 UNL     1      -9.517  46.328 -24.612  1.00  0.00     0.022 A 
HETATM    6  C15 UNL     1      -9.428  46.130 -23.109  1.00  0.00    -0.027 A 
HETATM    7  C16 UNL     1     -10.363  46.961 -22.261  1.00  0.00     0.011 C 
HETATM    8  C17 UNL     1     -11.790  46.415 -22.148  1.00  0.00     0.007 C 
HETATM    9  C18 UNL     1     -12.311  45.839 -23.482  1.00  0.00     0.005 C 
HETATM   10  C19 UNL     1     -13.892  45.676 -23.573  1.00  0.00    -0.035 C 
HETATM   11  C20 UNL     1     -14.463  44.832 -22.408  1.00  0.00     0.016 C 
HETATM   12  C21 UNL     1     -14.533  47.107 -23.470  1.00  0.00     0.012 C 
HETATM   13  C22 UNL     1     -15.783  47.331 -24.328  1.00  0.00     0.034 C 
HETATM   14  C23 UNL     1     -16.603  46.063 -24.538  1.00  0.00     0.140 C 
HETATM   15  C29 UNL     1     -15.793  44.968 -25.304  1.00  0.00    -0.016 C 
HETATM   16  C30 UNL     1     -16.397  43.590 -24.956  1.00  0.00     0.018 C 
HETATM   17  C31 UNL     1     -15.971  45.141 -26.840  1.00  0.00     0.018 C 
HETATM   18  C32 UNL     1     -14.249  45.081 -24.981  1.00  0.00     0.007 C 
HETATM   19  C33 UNL     1     -13.440  43.800 -25.297  1.00  0.00     0.038 C 
HETATM   20  C34 UNL     1     -11.925  44.053 -25.273  1.00  0.00     0.128 C 
HETATM   21  C35 UNL     1     -11.438  44.590 -23.897  1.00  0.00    -0.005 C 
HETATM   22  C36 UNL     1     -11.544  43.441 -22.855  1.00  0.00     0.019 C 
ENDROOT
BRANCH   1  23
HETATM   23  C9  UNL     1      -7.154  46.843 -22.189  1.00  0.00     0.048 C 
HETATM   24  C2  UNL     1      -6.042  46.587 -21.173  1.00  0.00     0.264 C 
HETATM   25  O2  UNL     1      -5.135  47.689 -21.321  1.00  0.00    -0.353 OA
HETATM   26  C3  UNL     1      -5.337  48.288 -22.619  1.00  0.00     0.157 C 
HETATM   27  C8  UNL     1      -6.349  47.403 -23.347  1.00  0.00     0.044 C 
BRANCH  24  28
HETATM   28  O1  UNL     1      -5.382  45.354 -21.430  1.00  0.00    -0.366 OA
HETATM   29  C1  UNL     1      -4.787  44.812 -20.262  1.00  0.00     0.204 C 
ENDBRANCH  24  28
BRANCH  26  30
HETATM   30  C4  UNL     1      -4.018  48.464 -23.405  1.00  0.00     0.183 C 
BRANCH  30  31
HETATM   31  O3  UNL     1      -2.896  48.334 -22.519  1.00  0.00    -0.390 OA
HETATM   32  H7  UNL     1      -2.182  47.898 -23.013  1.00  0.00     0.210 HD
ENDBRANCH  30  31
BRANCH  30  33
HETATM   33  C5  UNL     1      -3.919  49.784 -24.217  1.00  0.00     0.103 C 
HETATM   34  C6  UNL     1      -2.446  50.088 -24.542  1.00  0.00     0.051 C 
BRANCH  33  35
HETATM   35  O4  UNL     1      -4.582  49.609 -25.484  1.00  0.00    -0.385 OA
HETATM   36  H11 UNL     1      -4.673  50.516 -25.844  1.00  0.00     0.210 HD
ENDBRANCH  33  35
BRANCH  33  37
HETATM   37  C7  UNL     1      -4.561  50.993 -23.506  1.00  0.00     0.204 C 
BRANCH  37  38
HETATM   38  O5  UNL     1      -5.656  51.480 -24.298  1.00  0.00    -0.398 OA
HETATM   39  H14 UNL     1      -5.995  52.267 -23.831  1.00  0.00     0.209 HD
ENDBRANCH  37  38
ENDBRANCH  33  37
ENDBRANCH  30  33
ENDBRANCH  26  30
ENDBRANCH   1  23
BRANCH  20  40
HETATM   40  O8  UNL     1     -11.627  44.984 -26.320  1.00  0.00    -0.395 OA
HETATM   41  H55 UNL     1     -11.817  44.543 -27.166  1.00  0.00     0.210 HD
ENDBRANCH  20  40
BRANCH  14  42
HETATM   42  O6  UNL     1     -17.788  46.424 -25.280  1.00  0.00    -0.312 OA
BRANCH  42  43
HETATM   43  C24 UNL     1     -18.947  46.536 -24.594  1.00  0.00     0.283 C 
HETATM   44  O7  UNL     1     -20.013  46.952 -25.021  1.00  0.00    -0.260 OA
BRANCH  43  45
HETATM   45  C25 UNL     1     -18.762  46.180 -23.170  1.00  0.00     0.084 C 
HETATM   46  C26 UNL     1     -19.299  45.149 -22.486  1.00  0.00    -0.082 C 
HETATM   47  C27 UNL     1     -20.285  44.157 -23.039  1.00  0.00     0.043 C 
HETATM   48  C28 UNL     1     -18.946  44.936 -21.038  1.00  0.00     0.043 C 
ENDBRANCH  43  45
ENDBRANCH  42  43
ENDBRANCH  14  42
TORSDOF 12
ENDMDL
