MODEL 1
REMARK minimizedAffinity -9.32831478
REMARK CNNscore 0.598855197
REMARK CNNaffinity 7.65920591
REMARK  12 active torsions:
REMARK  status: ('A' for Active; 'I' for Inactive)
REMARK    1  A    between atoms: C2_2  and  C3_3 
REMARK    2  A    between atoms: C2_2  and  C9_10 
REMARK    3  A    between atoms: C3_3  and  C4_4 
REMARK    4  A    between atoms: C5_5  and  C6_6 
REMARK    5  A    between atoms: C6_6  and  O1_9 
REMARK    6  A    between atoms: C27_29  and  O3_30 
REMARK    7  A    between atoms: O3_30  and  C28_31 
REMARK    8  A    between atoms: C29_33  and  C30_34 
REMARK    9  A    between atoms: C30_34  and  O5_35 
REMARK   10  A    between atoms: C31_36  and  O6_37 
REMARK   11  A    between atoms: C32_38  and  O7_39 
REMARK   12  A    between atoms: C33_40  and  O8_41 
ROOT
HETATM    1  C9  UNL     1      -0.705  51.128 -20.289  1.00  0.00    -0.002 C 
HETATM    2  C10 UNL     1      -1.603  52.079 -19.450  1.00  0.00     0.006 C 
HETATM    3  C11 UNL     1      -2.969  51.356 -19.271  1.00  0.00     0.011 C 
HETATM    4  C12 UNL     1      -2.715  49.906 -19.727  1.00  0.00    -0.029 C 
HETATM    5  C13 UNL     1      -2.041  49.194 -18.488  1.00  0.00     0.016 C 
HETATM    6  C14 UNL     1      -3.934  48.994 -20.106  1.00  0.00     0.028 C 
HETATM    7  C15 UNL     1      -5.339  49.539 -20.196  1.00  0.00    -0.021 C 
HETATM    8  C16 UNL     1      -6.312  48.733 -20.667  1.00  0.00     0.008 C 
HETATM    9  C17 UNL     1      -5.983  47.381 -21.312  1.00  0.00     0.092 C 
HETATM   10  O2  UNL     1      -5.437  46.518 -20.276  1.00  0.00    -0.374 OA
HETATM   11  C18 UNL     1      -3.988  46.521 -20.420  1.00  0.00     0.179 C 
HETATM   12  C19 UNL     1      -3.655  47.842 -21.178  1.00  0.00    -0.004 C 
HETATM   13  C20 UNL     1      -2.258  47.815 -21.850  1.00  0.00     0.014 C 
HETATM   14  C21 UNL     1      -1.175  48.791 -21.363  1.00  0.00     0.011 C 
HETATM   15  C22 UNL     1      -1.736  50.146 -20.923  1.00  0.00    -0.032 C 
HETATM   16  C23 UNL     1      -2.425  50.830 -22.116  1.00  0.00     0.016 C 
HETATM   17  C24 UNL     1      -4.793  47.632 -22.235  1.00  0.00     0.036 C 
HETATM   18  C25 UNL     1      -5.113  48.627 -23.349  1.00  0.00     0.011 C 
HETATM   19  C26 UNL     1      -6.591  48.625 -23.756  1.00  0.00     0.033 C 
HETATM   20  C27 UNL     1      -7.346  47.309 -23.523  1.00  0.00     0.136 C 
HETATM   21  C34 UNL     1      -7.150  46.681 -22.087  1.00  0.00     0.014 C 
HETATM   22  C35 UNL     1      -8.450  46.695 -21.239  1.00  0.00     0.021 C 
HETATM   23  C36 UNL     1      -6.832  45.169 -22.297  1.00  0.00     0.021 C 
ENDROOT
BRANCH  20  24
HETATM   24  O3  UNL     1      -8.753  47.489 -23.753  1.00  0.00    -0.352 OA
BRANCH  24  25
HETATM   25  C28 UNL     1      -9.420  46.408 -24.408  1.00  0.00     0.292 C 
HETATM   26  O4  UNL     1      -8.562  45.749 -25.345  1.00  0.00    -0.348 OA
HETATM   27  C29 UNL     1      -8.425  46.350 -26.642  1.00  0.00     0.179 C 
HETATM   28  C31 UNL     1      -9.798  46.458 -27.338  1.00  0.00     0.180 C 
HETATM   29  C32 UNL     1     -10.962  46.243 -26.371  1.00  0.00     0.183 C 
HETATM   30  C33 UNL     1     -10.705  46.963 -25.061  1.00  0.00     0.204 C 
BRANCH  27  31
HETATM   31  C30 UNL     1      -7.682  47.703 -26.616  1.00  0.00     0.198 C 
BRANCH  31  32
HETATM   32  O5  UNL     1      -7.932  48.419 -27.824  1.00  0.00    -0.398 OA
HETATM   33  H46 UNL     1      -7.133  48.938 -28.023  1.00  0.00     0.209 HD
ENDBRANCH  31  32
ENDBRANCH  27  31
BRANCH  28  34
HETATM   34  O6  UNL     1      -9.936  45.471 -28.380  1.00  0.00    -0.390 OA
HETATM   35  H48 UNL     1      -9.669  44.609 -28.010  1.00  0.00     0.210 HD
ENDBRANCH  28  34
BRANCH  29  36
HETATM   36  O7  UNL     1     -12.170  46.743 -26.966  1.00  0.00    -0.390 OA
HETATM   37  H50 UNL     1     -12.215  46.330 -27.850  1.00  0.00     0.210 HD
ENDBRANCH  29  36
BRANCH  30  38
HETATM   38  O8  UNL     1     -11.845  46.786 -24.204  1.00  0.00    -0.388 OA
HETATM   39  H52 UNL     1     -12.615  47.046 -24.752  1.00  0.00     0.210 HD
ENDBRANCH  30  38
ENDBRANCH  24  25
ENDBRANCH  20  24
BRANCH   1  40
HETATM   40  C2  UNL     1       0.409  51.797 -21.151  1.00  0.00    -0.010 C 
HETATM   41  C1  UNL     1       1.296  52.646 -20.212  1.00  0.00     0.010 C 
BRANCH  40  42
HETATM   42  C3  UNL     1      -0.038  52.667 -22.352  1.00  0.00     0.031 C 
BRANCH  42  43
HETATM   43  C4  UNL     1       0.166  52.045 -23.714  1.00  0.00    -0.027 C 
HETATM   44  C5  UNL     1       0.456  52.734 -24.831  1.00  0.00     0.006 C 
BRANCH  44  45
HETATM   45  C6  UNL     1       0.658  52.190 -26.222  1.00  0.00     0.068 C 
HETATM   46  C7  UNL     1       2.084  51.719 -26.527  1.00  0.00     0.050 C 
HETATM   47  C8  UNL     1      -0.344  51.058 -26.469  1.00  0.00     0.050 C 
BRANCH  45  48
HETATM   48  O1  UNL     1       0.345  53.262 -27.113  1.00  0.00    -0.387 OA
HETATM   49  H15 UNL     1       0.513  52.950 -28.020  1.00  0.00     0.211 HD
ENDBRANCH  45  48
ENDBRANCH  44  45
ENDBRANCH  42  43
ENDBRANCH  40  42
ENDBRANCH   1  40
TORSDOF 12
ENDMDL
MODEL 2
REMARK minimizedAffinity -8.23435116
REMARK CNNscore 0.553320467
REMARK CNNaffinity 7.17321587
REMARK  12 active torsions:
REMARK  status: ('A' for Active; 'I' for Inactive)
REMARK    1  A    between atoms: C2_2  and  C3_3 
REMARK    2  A    between atoms: C2_2  and  C9_10 
REMARK    3  A    between atoms: C3_3  and  C4_4 
REMARK    4  A    between atoms: C5_5  and  C6_6 
REMARK    5  A    between atoms: C6_6  and  O1_9 
REMARK    6  A    between atoms: C27_29  and  O3_30 
REMARK    7  A    between atoms: O3_30  and  C28_31 
REMARK    8  A    between atoms: C29_33  and  C30_34 
REMARK    9  A    between atoms: C30_34  and  O5_35 
REMARK   10  A    between atoms: C31_36  and  O6_37 
REMARK   11  A    between atoms: C32_38  and  O7_39 
REMARK   12  A    between atoms: C33_40  and  O8_41 
ROOT
HETATM    1  C9  UNL     1      -6.155  45.149 -18.690  1.00  0.00    -0.002 C 
HETATM    2  C10 UNL     1      -4.942  44.177 -18.697  1.00  0.00     0.006 C 
HETATM    3  C11 UNL     1      -3.683  45.040 -18.996  1.00  0.00     0.011 C 
HETATM    4  C12 UNL     1      -4.154  46.499 -18.837  1.00  0.00    -0.029 C 
HETATM    5  C13 UNL     1      -4.122  46.778 -17.283  1.00  0.00     0.016 C 
HETATM    6  C14 UNL     1      -3.305  47.654 -19.475  1.00  0.00     0.028 C 
HETATM    7  C15 UNL     1      -2.130  47.374 -20.379  1.00  0.00    -0.021 C 
HETATM    8  C16 UNL     1      -1.539  48.412 -21.006  1.00  0.00     0.008 C 
HETATM    9  C17 UNL     1      -2.168  49.810 -20.996  1.00  0.00     0.092 C 
HETATM   10  O2  UNL     1      -2.130  50.303 -19.628  1.00  0.00    -0.374 OA
HETATM   11  C18 UNL     1      -3.454  50.108 -19.053  1.00  0.00     0.179 C 
HETATM   12  C19 UNL     1      -4.104  48.972 -19.901  1.00  0.00    -0.004 C 
HETATM   13  C20 UNL     1      -5.650  48.940 -19.781  1.00  0.00     0.014 C 
HETATM   14  C21 UNL     1      -6.325  47.719 -19.138  1.00  0.00     0.011 C 
HETATM   15  C22 UNL     1      -5.598  46.404 -19.429  1.00  0.00    -0.032 C 
HETATM   16  C23 UNL     1      -5.595  46.142 -20.945  1.00  0.00     0.016 C 
HETATM   17  C24 UNL     1      -3.657  49.606 -21.263  1.00  0.00     0.036 C 
HETATM   18  C25 UNL     1      -3.928  48.969 -22.626  1.00  0.00     0.011 C 
HETATM   19  C26 UNL     1      -2.856  49.301 -23.671  1.00  0.00     0.033 C 
HETATM   20  C27 UNL     1      -2.106  50.624 -23.464  1.00  0.00     0.136 C 
HETATM   21  C34 UNL     1      -1.561  50.849 -21.998  1.00  0.00     0.014 C 
HETATM   22  C35 UNL     1      -0.010  50.836 -21.921  1.00  0.00     0.021 C 
HETATM   23  C36 UNL     1      -1.964  52.299 -21.587  1.00  0.00     0.021 C 
ENDROOT
BRANCH  20  24
HETATM   24  O3  UNL     1      -1.005  50.727 -24.379  1.00  0.00    -0.352 OA
BRANCH  24  25
HETATM   25  C28 UNL     1      -1.346  50.716 -25.767  1.00  0.00     0.292 C 
HETATM   26  O4  UNL     1      -0.227  50.353 -26.583  1.00  0.00    -0.348 OA
HETATM   27  C29 UNL     1       0.714  51.390 -26.901  1.00  0.00     0.179 C 
HETATM   28  C31 UNL     1       0.016  52.549 -27.643  1.00  0.00     0.180 C 
HETATM   29  C32 UNL     1      -1.507  52.476 -27.538  1.00  0.00     0.183 C 
HETATM   30  C33 UNL     1      -1.926  52.101 -26.130  1.00  0.00     0.204 C 
BRANCH  27  31
HETATM   31  C30 UNL     1       1.516  51.886 -25.679  1.00  0.00     0.198 C 
BRANCH  31  32
HETATM   32  O5  UNL     1       1.019  53.153 -25.251  1.00  0.00    -0.398 OA
HETATM   33  H46 UNL     1       1.773  53.654 -24.894  1.00  0.00     0.209 HD
ENDBRANCH  31  32
ENDBRANCH  27  31
BRANCH  28  34
HETATM   34  O6  UNL     1       0.337  52.540 -29.049  1.00  0.00    -0.390 OA
HETATM   35  H48 UNL     1       0.205  51.631 -29.377  1.00  0.00     0.210 HD
ENDBRANCH  28  34
BRANCH  29  36
HETATM   36  O7  UNL     1      -2.067  53.753 -27.883  1.00  0.00    -0.390 OA
HETATM   37  H50 UNL     1      -1.668  53.988 -28.743  1.00  0.00     0.210 HD
ENDBRANCH  29  36
BRANCH  30  38
HETATM   38  O8  UNL     1      -3.362  52.101 -26.058  1.00  0.00    -0.388 OA
HETATM   39  H52 UNL     1      -3.632  52.969 -26.424  1.00  0.00     0.210 HD
ENDBRANCH  30  38
ENDBRANCH  24  25
ENDBRANCH  20  24
BRANCH   1  40
HETATM   40  C2  UNL     1      -7.542  44.540 -19.063  1.00  0.00    -0.010 C 
HETATM   41  C1  UNL     1      -7.298  43.318 -19.977  1.00  0.00     0.010 C 
BRANCH  40  42
HETATM   42  C3  UNL     1      -8.580  45.476 -19.729  1.00  0.00     0.031 C 
BRANCH  42  43
HETATM   43  C4  UNL     1      -9.670  45.988 -18.815  1.00  0.00    -0.027 C 
HETATM   44  C5  UNL     1      -9.516  46.220 -17.500  1.00  0.00     0.006 C 
BRANCH  44  45
HETATM   45  C6  UNL     1     -10.555  46.713 -16.525  1.00  0.00     0.068 C 
HETATM   46  C7  UNL     1     -11.940  46.959 -17.132  1.00  0.00     0.050 C 
HETATM   47  C8  UNL     1     -10.650  45.732 -15.353  1.00  0.00     0.050 C 
BRANCH  45  48
HETATM   48  O1  UNL     1     -10.064  47.958 -16.023  1.00  0.00    -0.387 OA
HETATM   49  H15 UNL     1     -10.740  48.321 -15.425  1.00  0.00     0.211 HD
ENDBRANCH  45  48
ENDBRANCH  44  45
ENDBRANCH  42  43
ENDBRANCH  40  42
ENDBRANCH   1  40
TORSDOF 12
ENDMDL
MODEL 3
REMARK minimizedAffinity -8.770895
REMARK CNNscore 0.550995111
REMARK CNNaffinity 7.26734781
REMARK  12 active torsions:
REMARK  status: ('A' for Active; 'I' for Inactive)
REMARK    1  A    between atoms: C2_2  and  C3_3 
REMARK    2  A    between atoms: C2_2  and  C9_10 
REMARK    3  A    between atoms: C3_3  and  C4_4 
REMARK    4  A    between atoms: C5_5  and  C6_6 
REMARK    5  A    between atoms: C6_6  and  O1_9 
REMARK    6  A    between atoms: C27_29  and  O3_30 
REMARK    7  A    between atoms: O3_30  and  C28_31 
REMARK    8  A    between atoms: C29_33  and  C30_34 
REMARK    9  A    between atoms: C30_34  and  O5_35 
REMARK   10  A    between atoms: C31_36  and  O6_37 
REMARK   11  A    between atoms: C32_38  and  O7_39 
REMARK   12  A    between atoms: C33_40  and  O8_41 
ROOT
HETATM    1  C9  UNL     1      -0.395  50.969 -19.646  1.00  0.00    -0.002 C 
HETATM    2  C10 UNL     1      -0.204  49.945 -18.493  1.00  0.00     0.006 C 
HETATM    3  C11 UNL     1      -1.260  48.825 -18.714  1.00  0.00     0.011 C 
HETATM    4  C12 UNL     1      -1.803  49.065 -20.136  1.00  0.00    -0.029 C 
HETATM    5  C13 UNL     1      -0.737  48.414 -21.103  1.00  0.00     0.016 C 
HETATM    6  C14 UNL     1      -3.174  48.426 -20.554  1.00  0.00     0.028 C 
HETATM    7  C15 UNL     1      -4.059  47.718 -19.558  1.00  0.00    -0.021 C 
HETATM    8  C16 UNL     1      -5.286  47.322 -19.955  1.00  0.00     0.008 C 
HETATM    9  C17 UNL     1      -5.870  47.770 -21.300  1.00  0.00     0.092 C 
HETATM   10  O2  UNL     1      -5.069  47.166 -22.353  1.00  0.00    -0.374 OA
HETATM   11  C18 UNL     1      -4.143  48.179 -22.838  1.00  0.00     0.179 C 
HETATM   12  C19 UNL     1      -4.011  49.205 -21.671  1.00  0.00    -0.004 C 
HETATM   13  C20 UNL     1      -3.472  50.582 -22.137  1.00  0.00     0.014 C 
HETATM   14  C21 UNL     1      -2.109  51.065 -21.618  1.00  0.00     0.011 C 
HETATM   15  C22 UNL     1      -1.819  50.628 -20.180  1.00  0.00    -0.032 C 
HETATM   16  C23 UNL     1      -2.875  51.230 -19.237  1.00  0.00     0.016 C 
HETATM   17  C24 UNL     1      -5.557  49.259 -21.421  1.00  0.00     0.036 C 
HETATM   18  C25 UNL     1      -6.211  50.088 -20.316  1.00  0.00     0.011 C 
HETATM   19  C26 UNL     1      -7.514  49.475 -19.791  1.00  0.00     0.033 C 
HETATM   20  C27 UNL     1      -8.281  48.587 -20.780  1.00  0.00     0.136 C 
HETATM   21  C34 UNL     1      -7.397  47.503 -21.515  1.00  0.00     0.014 C 
HETATM   22  C35 UNL     1      -7.758  46.050 -21.104  1.00  0.00     0.021 C 
HETATM   23  C36 UNL     1      -7.756  47.585 -23.031  1.00  0.00     0.021 C 
ENDROOT
BRANCH  20  24
HETATM   24  O3  UNL     1      -9.366  47.917 -20.118  1.00  0.00    -0.352 OA
BRANCH  24  25
HETATM   25  C28 UNL     1      -9.020  47.187 -18.939  1.00  0.00     0.292 C 
HETATM   26  O4  UNL     1      -9.663  45.909 -18.901  1.00  0.00    -0.348 OA
HETATM   27  C29 UNL     1     -11.019  45.873 -18.433  1.00  0.00     0.179 C 
HETATM   28  C31 UNL     1     -11.113  46.428 -16.996  1.00  0.00     0.180 C 
HETATM   29  C32 UNL     1      -9.853  47.186 -16.580  1.00  0.00     0.183 C 
HETATM   30  C33 UNL     1      -9.360  48.064 -17.714  1.00  0.00     0.204 C 
BRANCH  27  31
HETATM   31  C30 UNL     1     -12.016  46.565 -19.386  1.00  0.00     0.198 C 
BRANCH  31  32
HETATM   32  O5  UNL     1     -12.723  47.591 -18.691  1.00  0.00    -0.398 OA
HETATM   33  H46 UNL     1     -13.616  47.640 -19.076  1.00  0.00     0.209 HD
ENDBRANCH  31  32
ENDBRANCH  27  31
BRANCH  28  34
HETATM   34  O6  UNL     1     -11.298  45.369 -16.036  1.00  0.00    -0.390 OA
HETATM   35  H48 UNL     1     -10.636  44.678 -16.225  1.00  0.00     0.210 HD
ENDBRANCH  28  34
BRANCH  29  36
HETATM   36  O7  UNL     1     -10.146  47.999 -15.433  1.00  0.00    -0.390 OA
HETATM   37  H50 UNL     1     -10.565  47.397 -14.787  1.00  0.00     0.210 HD
ENDBRANCH  29  36
BRANCH  30  38
HETATM   38  O8  UNL     1      -8.211  48.802 -17.263  1.00  0.00    -0.388 OA
HETATM   39  H52 UNL     1      -8.493  49.217 -16.421  1.00  0.00     0.210 HD
ENDBRANCH  30  38
ENDBRANCH  24  25
ENDBRANCH  20  24
BRANCH   1  40
HETATM   40  C2  UNL     1       0.027  52.441 -19.351  1.00  0.00    -0.010 C 
HETATM   41  C1  UNL     1       0.300  53.141 -20.702  1.00  0.00     0.010 C 
BRANCH  40  42
HETATM   42  C3  UNL     1       1.235  52.665 -18.408  1.00  0.00     0.031 C 
BRANCH  42  43
HETATM   43  C4  UNL     1       0.942  52.515 -16.933  1.00  0.00    -0.027 C 
HETATM   44  C5  UNL     1       1.764  51.923 -16.049  1.00  0.00     0.006 C 
BRANCH  44  45
HETATM   45  C6  UNL     1       1.537  51.722 -14.573  1.00  0.00     0.068 C 
HETATM   46  C7  UNL     1       0.747  50.460 -14.210  1.00  0.00     0.050 C 
HETATM   47  C8  UNL     1       2.887  51.735 -13.850  1.00  0.00     0.050 C 
BRANCH  45  48
HETATM   48  O1  UNL     1       0.786  52.856 -14.133  1.00  0.00    -0.387 OA
HETATM   49  H15 UNL     1       0.585  52.727 -13.189  1.00  0.00     0.211 HD
ENDBRANCH  45  48
ENDBRANCH  44  45
ENDBRANCH  42  43
ENDBRANCH  40  42
ENDBRANCH   1  40
TORSDOF 12
ENDMDL
MODEL 4
REMARK minimizedAffinity -8.01592541
REMARK CNNscore 0.520000935
REMARK CNNaffinity 7.2615037
REMARK  12 active torsions:
REMARK  status: ('A' for Active; 'I' for Inactive)
REMARK    1  A    between atoms: C2_2  and  C3_3 
REMARK    2  A    between atoms: C2_2  and  C9_10 
REMARK    3  A    between atoms: C3_3  and  C4_4 
REMARK    4  A    between atoms: C5_5  and  C6_6 
REMARK    5  A    between atoms: C6_6  and  O1_9 
REMARK    6  A    between atoms: C27_29  and  O3_30 
REMARK    7  A    between atoms: O3_30  and  C28_31 
REMARK    8  A    between atoms: C29_33  and  C30_34 
REMARK    9  A    between atoms: C30_34  and  O5_35 
REMARK   10  A    between atoms: C31_36  and  O6_37 
REMARK   11  A    between atoms: C32_38  and  O7_39 
REMARK   12  A    between atoms: C33_40  and  O8_41 
ROOT
HETATM    1  C9  UNL     1      -1.613  50.277 -21.716  1.00  0.00    -0.002 C 
HETATM    2  C10 UNL     1      -0.658  49.722 -20.624  1.00  0.00     0.006 C 
HETATM    3  C11 UNL     1      -1.366  48.485 -20.001  1.00  0.00     0.011 C 
HETATM    4  C12 UNL     1      -2.539  48.178 -20.951  1.00  0.00    -0.029 C 
HETATM    5  C13 UNL     1      -1.903  47.362 -22.145  1.00  0.00     0.016 C 
HETATM    6  C14 UNL     1      -3.730  47.292 -20.442  1.00  0.00     0.028 C 
HETATM    7  C15 UNL     1      -3.845  46.865 -19.000  1.00  0.00    -0.021 C 
HETATM    8  C16 UNL     1      -4.966  46.229 -18.605  1.00  0.00     0.008 C 
HETATM    9  C17 UNL     1      -6.194  46.138 -19.519  1.00  0.00     0.092 C 
HETATM   10  O2  UNL     1      -5.836  45.308 -20.659  1.00  0.00    -0.374 OA
HETATM   11  C18 UNL     1      -5.532  46.196 -21.773  1.00  0.00     0.179 C 
HETATM   12  C19 UNL     1      -5.155  47.560 -21.117  1.00  0.00    -0.004 C 
HETATM   13  C20 UNL     1      -5.267  48.753 -22.100  1.00  0.00     0.014 C 
HETATM   14  C21 UNL     1      -3.996  49.526 -22.486  1.00  0.00     0.011 C 
HETATM   15  C22 UNL     1      -2.980  49.626 -21.346  1.00  0.00    -0.032 C 
HETATM   16  C23 UNL     1      -3.604  50.390 -20.166  1.00  0.00     0.016 C 
HETATM   17  C24 UNL     1      -6.371  47.527 -20.129  1.00  0.00     0.036 C 
HETATM   18  C25 UNL     1      -6.639  48.601 -19.075  1.00  0.00     0.011 C 
HETATM   19  C26 UNL     1      -7.348  48.060 -17.828  1.00  0.00     0.033 C 
HETATM   20  C27 UNL     1      -8.221  46.816 -18.042  1.00  0.00     0.136 C 
HETATM   21  C34 UNL     1      -7.522  45.652 -18.850  1.00  0.00     0.014 C 
HETATM   22  C35 UNL     1      -7.264  44.388 -17.985  1.00  0.00     0.021 C 
HETATM   23  C36 UNL     1      -8.540  45.185 -19.936  1.00  0.00     0.021 C 
ENDROOT
BRANCH  20  24
HETATM   24  O3  UNL     1      -8.668  46.292 -16.781  1.00  0.00    -0.352 OA
BRANCH  24  25
HETATM   25  C28 UNL     1      -7.693  45.567 -16.029  1.00  0.00     0.292 C 
HETATM   26  O4  UNL     1      -8.291  44.508 -15.273  1.00  0.00    -0.348 OA
HETATM   27  C29 UNL     1      -8.889  44.858 -14.016  1.00  0.00     0.179 C 
HETATM   28  C31 UNL     1      -7.846  45.501 -13.079  1.00  0.00     0.180 C 
HETATM   29  C32 UNL     1      -6.577  45.922 -13.819  1.00  0.00     0.183 C 
HETATM   30  C33 UNL     1      -6.924  46.572 -15.144  1.00  0.00     0.204 C 
BRANCH  27  31
HETATM   31  C30 UNL     1     -10.153  45.732 -14.161  1.00  0.00     0.198 C 
BRANCH  31  32
HETATM   32  O5  UNL     1      -9.840  47.094 -13.870  1.00  0.00    -0.398 OA
HETATM   33  H46 UNL     1     -10.631  47.493 -13.467  1.00  0.00     0.209 HD
ENDBRANCH  31  32
ENDBRANCH  27  31
BRANCH  28  34
HETATM   34  O6  UNL     1      -7.438  44.586 -12.042  1.00  0.00    -0.390 OA
HETATM   35  H48 UNL     1      -7.220  43.735 -12.466  1.00  0.00     0.210 HD
ENDBRANCH  28  34
BRANCH  29  36
HETATM   36  O7  UNL     1      -5.840  46.850 -13.006  1.00  0.00    -0.390 OA
HETATM   37  H50 UNL     1      -5.752  46.418 -12.134  1.00  0.00     0.210 HD
ENDBRANCH  29  36
BRANCH  30  38
HETATM   38  O8  UNL     1      -5.710  47.005 -15.780  1.00  0.00    -0.388 OA
HETATM   39  H52 UNL     1      -5.241  47.529 -15.097  1.00  0.00     0.210 HD
ENDBRANCH  30  38
ENDBRANCH  24  25
ENDBRANCH  20  24
BRANCH   1  40
HETATM   40  C2  UNL     1      -1.502  51.800 -22.035  1.00  0.00    -0.010 C 
HETATM   41  C1  UNL     1      -2.484  52.121 -23.184  1.00  0.00     0.010 C 
BRANCH  40  42
HETATM   42  C3  UNL     1      -0.102  52.357 -22.390  1.00  0.00     0.031 C 
BRANCH  42  43
HETATM   43  C4  UNL     1       0.141  52.612 -23.860  1.00  0.00    -0.027 C 
HETATM   44  C5  UNL     1       0.777  51.763 -24.685  1.00  0.00     0.006 C 
BRANCH  44  45
HETATM   45  C6  UNL     1       1.070  51.951 -26.152  1.00  0.00     0.068 C 
HETATM   46  C7  UNL     1       2.477  51.526 -26.586  1.00  0.00     0.050 C 
HETATM   47  C8  UNL     1       0.010  51.214 -26.975  1.00  0.00     0.050 C 
BRANCH  45  48
HETATM   48  O1  UNL     1       0.933  53.351 -26.404  1.00  0.00    -0.387 OA
HETATM   49  H15 UNL     1       1.164  53.506 -27.336  1.00  0.00     0.211 HD
ENDBRANCH  45  48
ENDBRANCH  44  45
ENDBRANCH  42  43
ENDBRANCH  40  42
ENDBRANCH   1  40
TORSDOF 12
ENDMDL
MODEL 5
REMARK minimizedAffinity -10.2319841
REMARK CNNscore 0.510755122
REMARK CNNaffinity 7.44225264
REMARK  12 active torsions:
REMARK  status: ('A' for Active; 'I' for Inactive)
REMARK    1  A    between atoms: C2_2  and  C3_3 
REMARK    2  A    between atoms: C2_2  and  C9_10 
REMARK    3  A    between atoms: C3_3  and  C4_4 
REMARK    4  A    between atoms: C5_5  and  C6_6 
REMARK    5  A    between atoms: C6_6  and  O1_9 
REMARK    6  A    between atoms: C27_29  and  O3_30 
REMARK    7  A    between atoms: O3_30  and  C28_31 
REMARK    8  A    between atoms: C29_33  and  C30_34 
REMARK    9  A    between atoms: C30_34  and  O5_35 
REMARK   10  A    between atoms: C31_36  and  O6_37 
REMARK   11  A    between atoms: C32_38  and  O7_39 
REMARK   12  A    between atoms: C33_40  and  O8_41 
ROOT
HETATM    1  C9  UNL     1      -0.341  51.279 -20.365  1.00  0.00    -0.002 C 
HETATM    2  C10 UNL     1      -1.181  52.210 -19.447  1.00  0.00     0.006 C 
HETATM    3  C11 UNL     1      -2.492  51.442 -19.116  1.00  0.00     0.011 C 
HETATM    4  C12 UNL     1      -2.233  49.995 -19.578  1.00  0.00    -0.029 C 
HETATM    5  C13 UNL     1      -1.405  49.327 -18.410  1.00  0.00     0.016 C 
HETATM    6  C14 UNL     1      -3.450  49.033 -19.815  1.00  0.00     0.028 C 
HETATM    7  C15 UNL     1      -4.875  49.525 -19.762  1.00  0.00    -0.021 C 
HETATM    8  C16 UNL     1      -5.862  48.677 -20.118  1.00  0.00     0.008 C 
HETATM    9  C17 UNL     1      -5.552  47.328 -20.778  1.00  0.00     0.092 C 
HETATM   10  O2  UNL     1      -4.868  46.502 -19.795  1.00  0.00    -0.374 OA
HETATM   11  C18 UNL     1      -3.443  46.555 -20.091  1.00  0.00     0.179 C 
HETATM   12  C19 UNL     1      -3.242  47.875 -20.897  1.00  0.00    -0.004 C 
HETATM   13  C20 UNL     1      -1.923  47.888 -21.713  1.00  0.00     0.014 C 
HETATM   14  C21 UNL     1      -0.833  48.910 -21.355  1.00  0.00     0.011 C 
HETATM   15  C22 UNL     1      -1.395  50.250 -20.874  1.00  0.00    -0.032 C 
HETATM   16  C23 UNL     1      -2.231  50.890 -21.995  1.00  0.00     0.016 C 
HETATM   17  C24 UNL     1      -4.476  47.606 -21.824  1.00  0.00     0.036 C 
HETATM   18  C25 UNL     1      -4.949  48.572 -22.910  1.00  0.00     0.011 C 
HETATM   19  C26 UNL     1      -6.461  48.509 -23.158  1.00  0.00     0.033 C 
HETATM   20  C27 UNL     1      -7.137  47.171 -22.831  1.00  0.00     0.136 C 
HETATM   21  C34 UNL     1      -6.767  46.574 -21.416  1.00  0.00     0.014 C 
HETATM   22  C35 UNL     1      -7.970  46.554 -20.435  1.00  0.00     0.021 C 
HETATM   23  C36 UNL     1      -6.416  45.070 -21.641  1.00  0.00     0.021 C 
ENDROOT
BRANCH  20  24
HETATM   24  O3  UNL     1      -8.566  47.296 -22.912  1.00  0.00    -0.352 OA
BRANCH  24  25
HETATM   25  C28 UNL     1      -9.216  46.422 -23.837  1.00  0.00     0.292 C 
HETATM   26  O4  UNL     1      -8.765  46.641 -25.177  1.00  0.00    -0.348 OA
HETATM   27  C29 UNL     1      -9.367  47.726 -25.900  1.00  0.00     0.179 C 
HETATM   28  C31 UNL     1     -10.894  47.532 -26.000  1.00  0.00     0.180 C 
HETATM   29  C32 UNL     1     -11.412  46.468 -25.034  1.00  0.00     0.183 C 
HETATM   30  C33 UNL     1     -10.741  46.606 -23.681  1.00  0.00     0.204 C 
BRANCH  27  31
HETATM   31  C30 UNL     1      -8.996  49.116 -25.339  1.00  0.00     0.198 C 
BRANCH  31  32
HETATM   32  O5  UNL     1      -9.750  50.127 -26.006  1.00  0.00    -0.398 OA
HETATM   33  H46 UNL     1      -9.192  50.924 -26.048  1.00  0.00     0.209 HD
ENDBRANCH  31  32
ENDBRANCH  27  31
BRANCH  28  34
HETATM   34  O6  UNL     1     -11.283  47.116 -27.325  1.00  0.00    -0.390 OA
HETATM   35  H48 UNL     1     -10.702  46.377 -27.587  1.00  0.00     0.210 HD
ENDBRANCH  28  34
BRANCH  29  36
HETATM   36  O7  UNL     1     -12.833  46.615 -24.884  1.00  0.00    -0.390 OA
HETATM   37  H50 UNL     1     -13.189  46.635 -25.794  1.00  0.00     0.210 HD
ENDBRANCH  29  36
BRANCH  30  38
HETATM   38  O8  UNL     1     -11.297  45.627 -22.786  1.00  0.00    -0.388 OA
HETATM   39  H52 UNL     1     -12.268  45.746 -22.855  1.00  0.00     0.210 HD
ENDBRANCH  30  38
ENDBRANCH  24  25
ENDBRANCH  20  24
BRANCH   1  40
HETATM   40  C2  UNL     1       0.650  51.975 -21.348  1.00  0.00    -0.010 C 
HETATM   41  C1  UNL     1       1.513  52.966 -20.536  1.00  0.00     0.010 C 
BRANCH  40  42
HETATM   42  C3  UNL     1       0.049  52.707 -22.573  1.00  0.00     0.031 C 
BRANCH  42  43
HETATM   43  C4  UNL     1       0.243  52.014 -23.902  1.00  0.00    -0.027 C 
HETATM   44  C5  UNL     1       0.844  52.568 -24.970  1.00  0.00     0.006 C 
BRANCH  44  45
HETATM   45  C6  UNL     1       1.060  51.949 -26.327  1.00  0.00     0.068 C 
HETATM   46  C7  UNL     1       2.506  51.538 -26.623  1.00  0.00     0.050 C 
HETATM   47  C8  UNL     1       0.120  50.752 -26.490  1.00  0.00     0.050 C 
BRANCH  45  48
HETATM   48  O1  UNL     1       0.680  52.945 -27.278  1.00  0.00    -0.387 OA
HETATM   49  H15 UNL     1       0.855  52.586 -28.166  1.00  0.00     0.211 HD
ENDBRANCH  45  48
ENDBRANCH  44  45
ENDBRANCH  42  43
ENDBRANCH  40  42
ENDBRANCH   1  40
TORSDOF 12
ENDMDL
MODEL 6
REMARK minimizedAffinity -8.38213253
REMARK CNNscore 0.445375532
REMARK CNNaffinity 6.33305788
REMARK  12 active torsions:
REMARK  status: ('A' for Active; 'I' for Inactive)
REMARK    1  A    between atoms: C2_2  and  C3_3 
REMARK    2  A    between atoms: C2_2  and  C9_10 
REMARK    3  A    between atoms: C3_3  and  C4_4 
REMARK    4  A    between atoms: C5_5  and  C6_6 
REMARK    5  A    between atoms: C6_6  and  O1_9 
REMARK    6  A    between atoms: C27_29  and  O3_30 
REMARK    7  A    between atoms: O3_30  and  C28_31 
REMARK    8  A    between atoms: C29_33  and  C30_34 
REMARK    9  A    between atoms: C30_34  and  O5_35 
REMARK   10  A    between atoms: C31_36  and  O6_37 
REMARK   11  A    between atoms: C32_38  and  O7_39 
REMARK   12  A    between atoms: C33_40  and  O8_41 
ROOT
HETATM    1  C9  UNL     1      -8.115  46.986 -31.489  1.00  0.00    -0.002 C 
HETATM    2  C10 UNL     1      -8.543  48.474 -31.615  1.00  0.00     0.006 C 
HETATM    3  C11 UNL     1      -9.534  48.751 -30.449  1.00  0.00     0.011 C 
HETATM    4  C12 UNL     1      -9.402  47.531 -29.516  1.00  0.00    -0.029 C 
HETATM    5  C13 UNL     1      -8.114  47.811 -28.646  1.00  0.00     0.016 C 
HETATM    6  C14 UNL     1     -10.538  47.231 -28.477  1.00  0.00     0.028 C 
HETATM    7  C15 UNL     1     -11.835  48.003 -28.468  1.00  0.00    -0.021 C 
HETATM    8  C16 UNL     1     -12.821  47.596 -27.643  1.00  0.00     0.008 C 
HETATM    9  C17 UNL     1     -12.734  46.259 -26.899  1.00  0.00     0.092 C 
HETATM   10  O2  UNL     1     -11.644  46.355 -25.941  1.00  0.00    -0.374 OA
HETATM   11  C18 UNL     1     -10.487  45.686 -26.520  1.00  0.00     0.179 C 
HETATM   12  C19 UNL     1     -10.736  45.700 -28.059  1.00  0.00    -0.004 C 
HETATM   13  C20 UNL     1      -9.894  44.640 -28.815  1.00  0.00     0.014 C 
HETATM   14  C21 UNL     1      -8.825  45.108 -29.815  1.00  0.00     0.011 C 
HETATM   15  C22 UNL     1      -9.215  46.385 -30.564  1.00  0.00    -0.032 C 
HETATM   16  C23 UNL     1     -10.489  46.129 -31.387  1.00  0.00     0.016 C 
HETATM   17  C24 UNL     1     -12.227  45.240 -27.917  1.00  0.00     0.036 C 
HETATM   18  C25 UNL     1     -13.180  45.068 -29.099  1.00  0.00     0.011 C 
HETATM   19  C26 UNL     1     -14.645  45.338 -28.739  1.00  0.00     0.033 C 
HETATM   20  C27 UNL     1     -15.028  45.097 -27.273  1.00  0.00     0.136 C 
HETATM   21  C34 UNL     1     -14.052  45.757 -26.220  1.00  0.00     0.014 C 
HETATM   22  C35 UNL     1     -14.719  46.904 -25.414  1.00  0.00     0.021 C 
HETATM   23  C36 UNL     1     -13.733  44.661 -25.156  1.00  0.00     0.021 C 
ENDROOT
BRANCH  20  24
HETATM   24  O3  UNL     1     -16.360  45.570 -27.017  1.00  0.00    -0.352 OA
BRANCH  24  25
HETATM   25  C28 UNL     1     -17.385  44.574 -27.017  1.00  0.00     0.292 C 
HETATM   26  O4  UNL     1     -18.681  45.151 -26.828  1.00  0.00    -0.348 OA
HETATM   27  C29 UNL     1     -19.076  45.445 -25.480  1.00  0.00     0.179 C 
HETATM   28  C31 UNL     1     -19.059  44.167 -24.617  1.00  0.00     0.180 C 
HETATM   29  C32 UNL     1     -18.308  43.019 -25.289  1.00  0.00     0.183 C 
HETATM   30  C33 UNL     1     -17.035  43.524 -25.941  1.00  0.00     0.204 C 
BRANCH  27  31
HETATM   31  C30 UNL     1     -18.259  46.587 -24.838  1.00  0.00     0.198 C 
BRANCH  31  32
HETATM   32  O5  UNL     1     -19.077  47.746 -24.685  1.00  0.00    -0.398 OA
HETATM   33  H46 UNL     1     -18.501  48.524 -24.791  1.00  0.00     0.209 HD
ENDBRANCH  31  32
ENDBRANCH  27  31
BRANCH  28  34
HETATM   34  O6  UNL     1     -20.395  43.693 -24.356  1.00  0.00    -0.390 OA
HETATM   35  H48 UNL     1     -20.875  43.674 -25.205  1.00  0.00     0.210 HD
ENDBRANCH  28  34
BRANCH  29  36
HETATM   36  O7  UNL     1     -17.983  42.024 -24.305  1.00  0.00    -0.390 OA
HETATM   37  H50 UNL     1     -18.823  41.828 -23.846  1.00  0.00     0.210 HD
ENDBRANCH  29  36
BRANCH  30  38
HETATM   38  O8  UNL     1     -16.330  42.407 -26.509  1.00  0.00    -0.388 OA
HETATM   39  H52 UNL     1     -16.271  41.751 -25.783  1.00  0.00     0.210 HD
ENDBRANCH  30  38
ENDBRANCH  24  25
ENDBRANCH  20  24
BRANCH   1  40
HETATM   40  C2  UNL     1      -7.684  46.268 -32.806  1.00  0.00    -0.010 C 
HETATM   41  C1  UNL     1      -6.302  46.820 -33.222  1.00  0.00     0.010 C 
BRANCH  40  42
HETATM   42  C3  UNL     1      -8.650  46.348 -34.014  1.00  0.00     0.031 C 
BRANCH  42  43
HETATM   43  C4  UNL     1      -8.150  47.155 -35.190  1.00  0.00    -0.027 C 
HETATM   44  C5  UNL     1      -8.677  47.108 -36.426  1.00  0.00     0.006 C 
BRANCH  44  45
HETATM   45  C6  UNL     1      -8.227  47.867 -37.648  1.00  0.00     0.068 C 
HETATM   46  C7  UNL     1      -9.159  49.004 -38.079  1.00  0.00     0.050 C 
HETATM   47  C8  UNL     1      -6.809  48.396 -37.417  1.00  0.00     0.050 C 
BRANCH  45  48
HETATM   48  O1  UNL     1      -8.176  46.910 -38.708  1.00  0.00    -0.387 OA
HETATM   49  H15 UNL     1      -7.932  47.385 -39.522  1.00  0.00     0.211 HD
ENDBRANCH  45  48
ENDBRANCH  44  45
ENDBRANCH  42  43
ENDBRANCH  40  42
ENDBRANCH   1  40
TORSDOF 12
ENDMDL
MODEL 7
REMARK minimizedAffinity -8.4990387
REMARK CNNscore 0.442241609
REMARK CNNaffinity 6.89245939
REMARK  12 active torsions:
REMARK  status: ('A' for Active; 'I' for Inactive)
REMARK    1  A    between atoms: C2_2  and  C3_3 
REMARK    2  A    between atoms: C2_2  and  C9_10 
REMARK    3  A    between atoms: C3_3  and  C4_4 
REMARK    4  A    between atoms: C5_5  and  C6_6 
REMARK    5  A    between atoms: C6_6  and  O1_9 
REMARK    6  A    between atoms: C27_29  and  O3_30 
REMARK    7  A    between atoms: O3_30  and  C28_31 
REMARK    8  A    between atoms: C29_33  and  C30_34 
REMARK    9  A    between atoms: C30_34  and  O5_35 
REMARK   10  A    between atoms: C31_36  and  O6_37 
REMARK   11  A    between atoms: C32_38  and  O7_39 
REMARK   12  A    between atoms: C33_40  and  O8_41 
ROOT
HETATM    1  C9  UNL     1      -5.840  44.916 -18.495  1.00  0.00    -0.002 C 
HETATM    2  C10 UNL     1      -4.463  44.729 -17.799  1.00  0.00     0.006 C 
HETATM    3  C11 UNL     1      -3.626  45.998 -18.123  1.00  0.00     0.011 C 
HETATM    4  C12 UNL     1      -4.636  47.001 -18.713  1.00  0.00    -0.029 C 
HETATM    5  C13 UNL     1      -5.356  47.649 -17.466  1.00  0.00     0.016 C 
HETATM    6  C14 UNL     1      -4.110  48.216 -19.556  1.00  0.00     0.028 C 
HETATM    7  C15 UNL     1      -2.659  48.347 -19.945  1.00  0.00    -0.021 C 
HETATM    8  C16 UNL     1      -2.306  49.338 -20.790  1.00  0.00     0.008 C 
HETATM    9  C17 UNL     1      -3.363  50.172 -21.524  1.00  0.00     0.092 C 
HETATM   10  O2  UNL     1      -4.082  50.951 -20.527  1.00  0.00    -0.374 OA
HETATM   11  C18 UNL     1      -5.341  50.268 -20.260  1.00  0.00     0.179 C 
HETATM   12  C19 UNL     1      -5.099  48.786 -20.677  1.00  0.00    -0.004 C 
HETATM   13  C20 UNL     1      -6.416  48.008 -20.929  1.00  0.00     0.014 C 
HETATM   14  C21 UNL     1      -6.774  46.828 -20.013  1.00  0.00     0.011 C 
HETATM   15  C22 UNL     1      -5.553  46.038 -19.537  1.00  0.00    -0.032 C 
HETATM   16  C23 UNL     1      -4.827  45.433 -20.750  1.00  0.00     0.016 C 
HETATM   17  C24 UNL     1      -4.409  49.181 -22.027  1.00  0.00     0.036 C 
HETATM   18  C25 UNL     1      -3.830  48.167 -23.014  1.00  0.00     0.011 C 
HETATM   19  C26 UNL     1      -2.639  48.712 -23.811  1.00  0.00     0.033 C 
HETATM   20  C27 UNL     1      -2.606  50.234 -24.009  1.00  0.00     0.136 C 
HETATM   21  C34 UNL     1      -2.844  51.075 -22.692  1.00  0.00     0.014 C 
HETATM   22  C35 UNL     1      -1.586  51.869 -22.248  1.00  0.00     0.021 C 
HETATM   23  C36 UNL     1      -3.898  52.170 -23.043  1.00  0.00     0.021 C 
ENDROOT
BRANCH  20  24
HETATM   24  O3  UNL     1      -1.356  50.639 -24.589  1.00  0.00    -0.352 OA
BRANCH  24  25
HETATM   25  C28 UNL     1      -1.325  50.707 -26.016  1.00  0.00     0.292 C 
HETATM   26  O4  UNL     1       0.009  50.591 -26.520  1.00  0.00    -0.348 OA
HETATM   27  C29 UNL     1       0.814  51.780 -26.523  1.00  0.00     0.179 C 
HETATM   28  C31 UNL     1       0.146  52.886 -27.364  1.00  0.00     0.180 C 
HETATM   29  C32 UNL     1      -1.319  52.580 -27.674  1.00  0.00     0.183 C 
HETATM   30  C33 UNL     1      -2.016  52.019 -26.449  1.00  0.00     0.204 C 
BRANCH  27  31
HETATM   31  C30 UNL     1       1.183  52.273 -25.107  1.00  0.00     0.198 C 
BRANCH  31  32
HETATM   32  O5  UNL     1       0.939  53.675 -25.001  1.00  0.00    -0.398 OA
HETATM   33  H46 UNL     1       1.603  54.039 -24.389  1.00  0.00     0.209 HD
ENDBRANCH  31  32
ENDBRANCH  27  31
BRANCH  28  34
HETATM   34  O6  UNL     1       0.812  53.055 -28.632  1.00  0.00    -0.390 OA
HETATM   35  H48 UNL     1       0.922  52.171 -29.030  1.00  0.00     0.210 HD
ENDBRANCH  28  34
BRANCH  29  36
HETATM   36  O7  UNL     1      -1.977  53.787 -28.091  1.00  0.00    -0.390 OA
HETATM   37  H50 UNL     1      -1.417  54.157 -28.801  1.00  0.00     0.210 HD
ENDBRANCH  29  36
BRANCH  30  38
HETATM   38  O8  UNL     1      -3.401  51.800 -26.764  1.00  0.00    -0.388 OA
HETATM   39  H52 UNL     1      -3.710  52.649 -27.145  1.00  0.00     0.210 HD
ENDBRANCH  30  38
ENDBRANCH  24  25
ENDBRANCH  20  24
BRANCH   1  40
HETATM   40  C2  UNL     1      -6.604  43.616 -18.895  1.00  0.00    -0.010 C 
HETATM   41  C1  UNL     1      -7.079  42.921 -17.599  1.00  0.00     0.010 C 
BRANCH  40  42
HETATM   42  C3  UNL     1      -5.854  42.588 -19.779  1.00  0.00     0.031 C 
BRANCH  42  43
HETATM   43  C4  UNL     1      -5.007  41.585 -19.030  1.00  0.00    -0.027 C 
HETATM   44  C5  UNL     1      -3.702  41.747 -18.752  1.00  0.00     0.006 C 
BRANCH  44  45
HETATM   45  C6  UNL     1      -2.790  40.790 -18.027  1.00  0.00     0.068 C 
HETATM   46  C7  UNL     1      -2.595  41.093 -16.538  1.00  0.00     0.050 C 
HETATM   47  C8  UNL     1      -3.305  39.361 -18.220  1.00  0.00     0.050 C 
BRANCH  45  48
HETATM   48  O1  UNL     1      -1.518  40.894 -18.671  1.00  0.00    -0.387 OA
HETATM   49  H15 UNL     1      -0.897  40.319 -18.190  1.00  0.00     0.211 HD
ENDBRANCH  45  48
ENDBRANCH  44  45
ENDBRANCH  42  43
ENDBRANCH  40  42
ENDBRANCH   1  40
TORSDOF 12
ENDMDL
MODEL 8
REMARK minimizedAffinity -10.2604856
REMARK CNNscore 0.364296317
REMARK CNNaffinity 7.23444319
REMARK  12 active torsions:
REMARK  status: ('A' for Active; 'I' for Inactive)
REMARK    1  A    between atoms: C2_2  and  C3_3 
REMARK    2  A    between atoms: C2_2  and  C9_10 
REMARK    3  A    between atoms: C3_3  and  C4_4 
REMARK    4  A    between atoms: C5_5  and  C6_6 
REMARK    5  A    between atoms: C6_6  and  O1_9 
REMARK    6  A    between atoms: C27_29  and  O3_30 
REMARK    7  A    between atoms: O3_30  and  C28_31 
REMARK    8  A    between atoms: C29_33  and  C30_34 
REMARK    9  A    between atoms: C30_34  and  O5_35 
REMARK   10  A    between atoms: C31_36  and  O6_37 
REMARK   11  A    between atoms: C32_38  and  O7_39 
REMARK   12  A    between atoms: C33_40  and  O8_41 
ROOT
HETATM    1  C9  UNL     1      -1.255  50.870 -20.439  1.00  0.00    -0.002 C 
HETATM    2  C10 UNL     1      -2.143  51.763 -19.528  1.00  0.00     0.006 C 
HETATM    3  C11 UNL     1      -3.555  51.113 -19.510  1.00  0.00     0.011 C 
HETATM    4  C12 UNL     1      -3.361  49.719 -20.137  1.00  0.00    -0.029 C 
HETATM    5  C13 UNL     1      -2.799  48.814 -18.971  1.00  0.00     0.016 C 
HETATM    6  C14 UNL     1      -4.607  48.943 -20.690  1.00  0.00     0.028 C 
HETATM    7  C15 UNL     1      -5.970  49.584 -20.776  1.00  0.00    -0.021 C 
HETATM    8  C16 UNL     1      -6.961  48.909 -21.395  1.00  0.00     0.008 C 
HETATM    9  C17 UNL     1      -6.675  47.632 -22.193  1.00  0.00     0.092 C 
HETATM   10  O2  UNL     1      -6.239  46.610 -21.253  1.00  0.00    -0.374 OA
HETATM   11  C18 UNL     1      -4.786  46.538 -21.325  1.00  0.00     0.179 C 
HETATM   12  C19 UNL     1      -4.335  47.920 -21.889  1.00  0.00    -0.004 C 
HETATM   13  C20 UNL     1      -2.906  47.889 -22.490  1.00  0.00     0.014 C 
HETATM   14  C21 UNL     1      -1.798  48.724 -21.828  1.00  0.00     0.011 C 
HETATM   15  C22 UNL     1      -2.304  50.044 -21.243  1.00  0.00    -0.032 C 
HETATM   16  C23 UNL     1      -2.884  50.917 -22.369  1.00  0.00     0.016 C 
HETATM   17  C24 UNL     1      -5.422  47.919 -23.017  1.00  0.00     0.036 C 
HETATM   18  C25 UNL     1      -5.621  49.067 -24.007  1.00  0.00     0.011 C 
HETATM   19  C26 UNL     1      -7.071  49.211 -24.481  1.00  0.00     0.033 C 
HETATM   20  C27 UNL     1      -7.913  47.928 -24.458  1.00  0.00     0.136 C 
HETATM   21  C34 UNL     1      -7.834  47.112 -23.107  1.00  0.00     0.014 C 
HETATM   22  C35 UNL     1      -9.178  47.102 -22.329  1.00  0.00     0.021 C 
HETATM   23  C36 UNL     1      -7.593  45.621 -23.497  1.00  0.00     0.021 C 
ENDROOT
BRANCH  20  24
HETATM   24  O3  UNL     1      -9.292  48.226 -24.730  1.00  0.00    -0.352 OA
BRANCH  24  25
HETATM   25  C28 UNL     1      -9.569  48.770 -26.022  1.00  0.00     0.292 C 
HETATM   26  O4  UNL     1     -10.963  49.043 -26.192  1.00  0.00    -0.348 OA
HETATM   27  C29 UNL     1     -11.806  47.941 -26.561  1.00  0.00     0.179 C 
HETATM   28  C31 UNL     1     -11.337  47.321 -27.894  1.00  0.00     0.180 C 
HETATM   29  C32 UNL     1      -9.935  47.780 -28.290  1.00  0.00     0.183 C 
HETATM   30  C33 UNL     1      -9.017  47.792 -27.083  1.00  0.00     0.204 C 
BRANCH  27  31
HETATM   31  C30 UNL     1     -11.949  46.880 -25.449  1.00  0.00     0.198 C 
BRANCH  31  32
HETATM   32  O5  UNL     1     -12.989  47.257 -24.547  1.00  0.00    -0.398 OA
HETATM   33  H46 UNL     1     -12.739  46.932 -23.664  1.00  0.00     0.209 HD
ENDBRANCH  31  32
ENDBRANCH  27  31
BRANCH  28  34
HETATM   34  O6  UNL     1     -12.215  47.684 -28.978  1.00  0.00    -0.390 OA
HETATM   35  H48 UNL     1     -12.354  48.649 -28.937  1.00  0.00     0.210 HD
ENDBRANCH  28  34
BRANCH  29  36
HETATM   36  O7  UNL     1      -9.408  46.889 -29.286  1.00  0.00    -0.390 OA
HETATM   37  H50 UNL     1     -10.096  46.836 -29.978  1.00  0.00     0.210 HD
ENDBRANCH  29  36
BRANCH  30  38
HETATM   38  O8  UNL     1      -7.697  48.171 -27.508  1.00  0.00    -0.388 OA
HETATM   39  H52 UNL     1      -7.494  47.576 -28.260  1.00  0.00     0.210 HD
ENDBRANCH  30  38
ENDBRANCH  24  25
ENDBRANCH  20  24
BRANCH   1  40
HETATM   40  C2  UNL     1      -0.057  51.570 -21.151  1.00  0.00    -0.010 C 
HETATM   41  C1  UNL     1       0.707  52.402 -20.097  1.00  0.00     0.010 C 
BRANCH  40  42
HETATM   42  C3  UNL     1      -0.375  52.465 -22.374  1.00  0.00     0.031 C 
BRANCH  42  43
HETATM   43  C4  UNL     1      -0.050  51.861 -23.721  1.00  0.00    -0.027 C 
HETATM   44  C5  UNL     1       0.623  52.493 -24.698  1.00  0.00     0.006 C 
BRANCH  44  45
HETATM   45  C6  UNL     1       0.971  51.965 -26.067  1.00  0.00     0.068 C 
HETATM   46  C7  UNL     1       2.386  51.391 -26.194  1.00  0.00     0.050 C 
HETATM   47  C8  UNL     1      -0.070  50.921 -26.482  1.00  0.00     0.050 C 
BRANCH  45  48
HETATM   48  O1  UNL     1       0.862  53.078 -26.956  1.00  0.00    -0.387 OA
HETATM   49  H15 UNL     1       1.128  52.774 -27.842  1.00  0.00     0.211 HD
ENDBRANCH  45  48
ENDBRANCH  44  45
ENDBRANCH  42  43
ENDBRANCH  40  42
ENDBRANCH   1  40
TORSDOF 12
ENDMDL
MODEL 9
REMARK minimizedAffinity -8.29404354
REMARK CNNscore 0.343563169
REMARK CNNaffinity 6.8979969
REMARK  12 active torsions:
REMARK  status: ('A' for Active; 'I' for Inactive)
REMARK    1  A    between atoms: C2_2  and  C3_3 
REMARK    2  A    between atoms: C2_2  and  C9_10 
REMARK    3  A    between atoms: C3_3  and  C4_4 
REMARK    4  A    between atoms: C5_5  and  C6_6 
REMARK    5  A    between atoms: C6_6  and  O1_9 
REMARK    6  A    between atoms: C27_29  and  O3_30 
REMARK    7  A    between atoms: O3_30  and  C28_31 
REMARK    8  A    between atoms: C29_33  and  C30_34 
REMARK    9  A    between atoms: C30_34  and  O5_35 
REMARK   10  A    between atoms: C31_36  and  O6_37 
REMARK   11  A    between atoms: C32_38  and  O7_39 
REMARK   12  A    between atoms: C33_40  and  O8_41 
ROOT
HETATM    1  C9  UNL     1      -0.744  52.417 -21.643  1.00  0.00    -0.002 C 
HETATM    2  C10 UNL     1      -0.297  51.780 -22.987  1.00  0.00     0.006 C 
HETATM    3  C11 UNL     1      -1.326  50.661 -23.313  1.00  0.00     0.011 C 
HETATM    4  C12 UNL     1      -2.492  50.894 -22.332  1.00  0.00    -0.029 C 
HETATM    5  C13 UNL     1      -3.357  52.044 -22.983  1.00  0.00     0.016 C 
HETATM    6  C14 UNL     1      -3.506  49.731 -22.051  1.00  0.00     0.028 C 
HETATM    7  C15 UNL     1      -3.286  48.336 -22.584  1.00  0.00    -0.021 C 
HETATM    8  C16 UNL     1      -4.121  47.356 -22.184  1.00  0.00     0.008 C 
HETATM    9  C17 UNL     1      -5.124  47.580 -21.046  1.00  0.00     0.092 C 
HETATM   10  O2  UNL     1      -6.102  48.555 -21.504  1.00  0.00    -0.374 OA
HETATM   11  C18 UNL     1      -5.735  49.845 -20.938  1.00  0.00     0.179 C 
HETATM   12  C19 UNL     1      -4.213  49.733 -20.617  1.00  0.00    -0.004 C 
HETATM   13  C20 UNL     1      -3.735  50.789 -19.587  1.00  0.00     0.014 C 
HETATM   14  C21 UNL     1      -2.722  51.857 -20.027  1.00  0.00     0.011 C 
HETATM   15  C22 UNL     1      -1.710  51.345 -21.054  1.00  0.00    -0.032 C 
HETATM   16  C23 UNL     1      -0.886  50.201 -20.439  1.00  0.00     0.016 C 
HETATM   17  C24 UNL     1      -4.362  48.323 -19.951  1.00  0.00     0.036 C 
HETATM   18  C25 UNL     1      -3.189  47.514 -19.400  1.00  0.00     0.011 C 
HETATM   19  C26 UNL     1      -3.405  45.999 -19.486  1.00  0.00     0.033 C 
HETATM   20  C27 UNL     1      -4.866  45.530 -19.470  1.00  0.00     0.136 C 
HETATM   21  C34 UNL     1      -5.817  46.299 -20.471  1.00  0.00     0.014 C 
HETATM   22  C35 UNL     1      -6.335  45.397 -21.624  1.00  0.00     0.021 C 
HETATM   23  C36 UNL     1      -7.096  46.687 -19.667  1.00  0.00     0.021 C 
ENDROOT
BRANCH  20  24
HETATM   24  O3  UNL     1      -4.947  44.125 -19.754  1.00  0.00    -0.352 OA
BRANCH  24  25
HETATM   25  C28 UNL     1      -5.797  43.363 -18.894  1.00  0.00     0.292 C 
HETATM   26  O4  UNL     1      -5.219  43.192 -17.596  1.00  0.00    -0.348 OA
HETATM   27  C29 UNL     1      -4.253  42.141 -17.444  1.00  0.00     0.179 C 
HETATM   28  C31 UNL     1      -4.874  40.776 -17.807  1.00  0.00     0.180 C 
HETATM   29  C32 UNL     1      -6.198  40.917 -18.556  1.00  0.00     0.183 C 
HETATM   30  C33 UNL     1      -6.108  42.021 -19.592  1.00  0.00     0.204 C 
BRANCH  27  31
HETATM   31  C30 UNL     1      -2.939  42.401 -18.211  1.00  0.00     0.198 C 
BRANCH  31  32
HETATM   32  O5  UNL     1      -2.840  41.512 -19.323  1.00  0.00    -0.398 OA
HETATM   33  H46 UNL     1      -1.895  41.316 -19.453  1.00  0.00     0.209 HD
ENDBRANCH  31  32
ENDBRANCH  27  31
BRANCH  28  34
HETATM   34  O6  UNL     1      -5.146  39.994 -16.626  1.00  0.00    -0.390 OA
HETATM   35  H48 UNL     1      -5.618  40.566 -15.993  1.00  0.00     0.210 HD
ENDBRANCH  28  34
BRANCH  29  36
HETATM   36  O7  UNL     1      -6.511  39.673 -19.203  1.00  0.00    -0.390 OA
HETATM   37  H50 UNL     1      -6.438  38.992 -18.507  1.00  0.00     0.210 HD
ENDBRANCH  29  36
BRANCH  30  38
HETATM   38  O8  UNL     1      -7.350  42.082 -20.313  1.00  0.00    -0.388 OA
HETATM   39  H52 UNL     1      -7.517  41.161 -20.606  1.00  0.00     0.210 HD
ENDBRANCH  30  38
ENDBRANCH  24  25
ENDBRANCH  20  24
BRANCH   1  40
HETATM   40  C2  UNL     1       0.374  53.065 -20.769  1.00  0.00    -0.010 C 
HETATM   41  C1  UNL     1       1.648  52.201 -20.904  1.00  0.00     0.010 C 
BRANCH  40  42
HETATM   42  C3  UNL     1       0.069  53.293 -19.268  1.00  0.00     0.031 C 
BRANCH  42  43
HETATM   43  C4  UNL     1       1.071  52.698 -18.306  1.00  0.00    -0.027 C 
HETATM   44  C5  UNL     1       0.862  52.545 -16.986  1.00  0.00     0.006 C 
BRANCH  44  45
HETATM   45  C6  UNL     1       1.814  51.977 -15.964  1.00  0.00     0.068 C 
HETATM   46  C7  UNL     1       1.628  50.485 -15.673  1.00  0.00     0.050 C 
HETATM   47  C8  UNL     1       3.253  52.262 -16.404  1.00  0.00     0.050 C 
BRANCH  45  48
HETATM   48  O1  UNL     1       1.569  52.699 -14.755  1.00  0.00    -0.387 OA
HETATM   49  H15 UNL     1       2.139  52.318 -14.064  1.00  0.00     0.211 HD
ENDBRANCH  45  48
ENDBRANCH  44  45
ENDBRANCH  42  43
ENDBRANCH  40  42
ENDBRANCH   1  40
TORSDOF 12
ENDMDL
