MODEL 1
REMARK minimizedAffinity -8.00209427
REMARK  5 active torsions:
REMARK  status: ('A' for Active; 'I' for Inactive)
REMARK    1  A    between atoms: O1_2  and  C2_3 
REMARK    2  A    between atoms: C6_11  and  N3_12 
REMARK    3  A    between atoms: C9_15  and  O2_16 
REMARK    4  A    between atoms: O2_16  and  C10_17 
REMARK    5  A    between atoms: C21_32  and  O3_33 
ROOT
HETATM    1  N3  UNL     1      11.746  35.057  21.750  1.00  0.00    -0.266 NA
HETATM    2  C7  UNL     1      12.076  33.823  20.985  1.00  0.00     0.099 C 
HETATM    3  C8  UNL     1      12.207  34.268  19.527  1.00  0.00     0.048 C 
HETATM    4  C9  UNL     1      12.737  35.698  19.677  1.00  0.00     0.145 C 
HETATM    5  C18 UNL     1      11.857  36.215  20.820  1.00  0.00     0.129 C 
ENDROOT
BRANCH   1   6
HETATM    6  C6  UNL     1      10.457  34.961  22.326  1.00  0.00     0.096 A 
HETATM    7  N2  UNL     1      10.350  34.864  23.664  1.00  0.00    -0.342 N 
HETATM    8  C5  UNL     1       9.106  34.794  24.156  1.00  0.00     0.182 A 
ATOM      9  H2  UNL     1      11.171  34.846  24.270  1.00  0.00     0.167 HD
HETATM   10  N1  UNL     1       7.967  34.821  23.451  1.00  0.00    -0.351 N 
HETATM   11  C4  UNL     1       8.090  34.928  22.123  1.00  0.00     0.049 A 
ATOM     12  H1  UNL     1       7.054  34.764  23.903  1.00  0.00     0.166 HD
HETATM   13  C3  UNL     1       6.936  34.972  21.350  1.00  0.00     0.070 A 
HETATM   14  C19 UNL     1       9.331  35.001  21.482  1.00  0.00     0.032 A 
HETATM   15  C2  UNL     1       6.981  35.080  19.954  1.00  0.00     0.103 A 
HETATM   16  C21 UNL     1       8.225  35.138  19.306  1.00  0.00     0.102 A 
HETATM   17  C20 UNL     1       9.391  35.109  20.071  1.00  0.00     0.056 A 
BRANCH  15  18
HETATM   18  O1  UNL     1       5.874  35.121  19.143  1.00  0.00    -0.353 OA
HETATM   19  C1  UNL     1       5.272  33.886  18.785  1.00  0.00     0.210 C 
ENDBRANCH  15  18
BRANCH  16  20
HETATM   20  O3  UNL     1       8.206  35.263  17.939  1.00  0.00    -0.353 OA
HETATM   21  C22 UNL     1       9.291  35.983  17.355  1.00  0.00     0.210 C 
ENDBRANCH  16  20
ENDBRANCH   1   6
BRANCH   4  22
HETATM   22  O2  UNL     1      12.543  36.464  18.486  1.00  0.00    -0.328 OA
BRANCH  22  23
HETATM   23  C10 UNL     1      13.480  36.152  17.522  1.00  0.00     0.159 A 
HETATM   24  C11 UNL     1      13.182  36.432  16.200  1.00  0.00     0.144 A 
HETATM   25  N4  UNL     1      14.053  36.208  15.189  1.00  0.00    -0.360 N 
HETATM   26  C12 UNL     1      15.227  35.660  15.544  1.00  0.00     0.059 A 
ATOM     27  H4  UNL     1      13.834  36.441  14.221  1.00  0.00     0.165 HD
HETATM   28  C13 UNL     1      16.190  35.423  14.568  1.00  0.00     0.032 A 
HETATM   29  C17 UNL     1      15.508  35.312  16.896  1.00  0.00     0.061 A 
HETATM   30  C14 UNL     1      17.414  34.828  14.888  1.00  0.00     0.002 A 
HETATM   31  C15 UNL     1      17.681  34.451  16.208  1.00  0.00     0.002 A 
HETATM   32  C16 UNL     1      16.731  34.702  17.201  1.00  0.00     0.032 A 
HETATM   33  N5  UNL     1      14.629  35.560  17.888  1.00  0.00    -0.334 N 
ATOM     34  H5  UNL     1      14.824  35.312  18.858  1.00  0.00     0.168 HD
ENDBRANCH  22  23
ENDBRANCH   4  22
TORSDOF 5
ENDMDL
MODEL 2
REMARK minimizedAffinity -7.87634802
REMARK  5 active torsions:
REMARK  status: ('A' for Active; 'I' for Inactive)
REMARK    1  A    between atoms: O1_2  and  C2_3 
REMARK    2  A    between atoms: C6_11  and  N3_12 
REMARK    3  A    between atoms: C9_15  and  O2_16 
REMARK    4  A    between atoms: O2_16  and  C10_17 
REMARK    5  A    between atoms: C21_32  and  O3_33 
ROOT
HETATM    1  N3  UNL     1      15.780  36.600  16.691  1.00  0.00    -0.266 NA
HETATM    2  C7  UNL     1      14.693  37.570  16.997  1.00  0.00     0.099 C 
HETATM    3  C8  UNL     1      13.426  36.728  17.157  1.00  0.00     0.048 C 
HETATM    4  C9  UNL     1      13.983  35.418  17.723  1.00  0.00     0.145 C 
HETATM    5  C18 UNL     1      15.224  35.227  16.844  1.00  0.00     0.129 C 
ENDROOT
BRANCH   1   6
HETATM    6  C6  UNL     1      16.299  36.821  15.393  1.00  0.00     0.096 A 
HETATM    7  N2  UNL     1      16.562  35.757  14.611  1.00  0.00    -0.342 N 
HETATM    8  C5  UNL     1      17.035  36.025  13.386  1.00  0.00     0.182 A 
ATOM      9  H2  UNL     1      16.410  34.801  14.933  1.00  0.00     0.167 HD
HETATM   10  N1  UNL     1      17.259  37.239  12.865  1.00  0.00    -0.351 N 
HETATM   11  C4  UNL     1      16.982  38.285  13.652  1.00  0.00     0.049 A 
ATOM     12  H1  UNL     1      17.620  37.359  11.919  1.00  0.00     0.166 HD
HETATM   13  C3  UNL     1      17.187  39.565  13.151  1.00  0.00     0.070 A 
HETATM   14  C19 UNL     1      16.492  38.143  14.954  1.00  0.00     0.032 A 
HETATM   15  C2  UNL     1      16.924  40.711  13.912  1.00  0.00     0.103 A 
HETATM   16  C21 UNL     1      16.447  40.573  15.226  1.00  0.00     0.102 A 
HETATM   17  C20 UNL     1      16.224  39.294  15.736  1.00  0.00     0.056 A 
BRANCH  15  18
HETATM   18  O1  UNL     1      17.114  41.997  13.471  1.00  0.00    -0.353 OA
HETATM   19  C1  UNL     1      18.450  42.450  13.313  1.00  0.00     0.210 C 
ENDBRANCH  15  18
BRANCH  16  20
HETATM   20  O3  UNL     1      16.189  41.731  15.915  1.00  0.00    -0.353 OA
HETATM   21  C22 UNL     1      15.498  41.587  17.156  1.00  0.00     0.210 C 
ENDBRANCH  16  20
ENDBRANCH   1   6
BRANCH   4  22
HETATM   22  O2  UNL     1      13.064  34.336  17.563  1.00  0.00    -0.328 OA
BRANCH  22  23
HETATM   23  C10 UNL     1      11.893  34.555  18.262  1.00  0.00     0.159 A 
HETATM   24  C11 UNL     1      11.764  33.991  19.519  1.00  0.00     0.144 A 
HETATM   25  N4  UNL     1      10.677  34.188  20.301  1.00  0.00    -0.360 N 
HETATM   26  C12 UNL     1       9.704  34.943  19.766  1.00  0.00     0.059 A 
ATOM     27  H4  UNL     1      10.601  33.789  21.237  1.00  0.00     0.165 HD
HETATM   28  C13 UNL     1       8.564  35.215  20.514  1.00  0.00     0.032 A 
HETATM   29  C17 UNL     1       9.810  35.468  18.446  1.00  0.00     0.061 A 
HETATM   30  C14 UNL     1       7.514  35.973  19.986  1.00  0.00     0.002 A 
HETATM   31  C15 UNL     1       7.597  36.461  18.677  1.00  0.00     0.002 A 
HETATM   32  C16 UNL     1       8.745  36.211  17.922  1.00  0.00     0.032 A 
HETATM   33  N5  UNL     1      10.911  35.271  17.692  1.00  0.00    -0.334 N 
ATOM     34  H5  UNL     1      10.992  35.644  16.747  1.00  0.00     0.168 HD
ENDBRANCH  22  23
ENDBRANCH   4  22
TORSDOF 5
ENDMDL
MODEL 3
REMARK minimizedAffinity -7.78518295
REMARK  5 active torsions:
REMARK  status: ('A' for Active; 'I' for Inactive)
REMARK    1  A    between atoms: O1_2  and  C2_3 
REMARK    2  A    between atoms: C6_11  and  N3_12 
REMARK    3  A    between atoms: C9_15  and  O2_16 
REMARK    4  A    between atoms: O2_16  and  C10_17 
REMARK    5  A    between atoms: C21_32  and  O3_33 
ROOT
HETATM    1  N3  UNL     1      13.936  34.143  18.740  1.00  0.00    -0.266 NA
HETATM    2  C7  UNL     1      15.050  34.599  19.616  1.00  0.00     0.099 C 
HETATM    3  C8  UNL     1      14.386  35.070  20.911  1.00  0.00     0.048 C 
HETATM    4  C9  UNL     1      13.166  34.147  20.997  1.00  0.00     0.145 C 
HETATM    5  C18 UNL     1      12.683  34.169  19.543  1.00  0.00     0.129 C 
ENDROOT
BRANCH   1   6
HETATM    6  C6  UNL     1      13.842  34.955  17.585  1.00  0.00     0.096 A 
HETATM    7  N2  UNL     1      12.639  35.446  17.234  1.00  0.00    -0.342 N 
HETATM    8  C5  UNL     1      12.611  36.222  16.142  1.00  0.00     0.182 A 
ATOM      9  H2  UNL     1      11.796  35.239  17.770  1.00  0.00     0.167 HD
HETATM   10  N1  UNL     1      13.658  36.563  15.379  1.00  0.00    -0.351 N 
HETATM   11  C4  UNL     1      14.848  36.075  15.747  1.00  0.00     0.049 A 
ATOM     12  H1  UNL     1      13.554  37.164  14.560  1.00  0.00     0.166 HD
HETATM   13  C3  UNL     1      15.966  36.410  14.992  1.00  0.00     0.070 A 
HETATM   14  C19 UNL     1      15.013  35.246  16.861  1.00  0.00     0.032 A 
HETATM   15  C2  UNL     1      17.246  35.938  15.310  1.00  0.00     0.103 A 
HETATM   16  C21 UNL     1      17.413  35.092  16.419  1.00  0.00     0.102 A 
HETATM   17  C20 UNL     1      16.302  34.759  17.193  1.00  0.00     0.056 A 
BRANCH  15  18
HETATM   18  O1  UNL     1      18.381  36.232  14.598  1.00  0.00    -0.353 OA
HETATM   19  C1  UNL     1      18.597  35.531  13.382  1.00  0.00     0.210 C 
ENDBRANCH  15  18
BRANCH  16  20
HETATM   20  O3  UNL     1      18.693  34.678  16.693  1.00  0.00    -0.353 OA
HETATM   21  C22 UNL     1      19.309  35.249  17.847  1.00  0.00     0.210 C 
ENDBRANCH  16  20
ENDBRANCH   1   6
BRANCH   4  22
HETATM   22  O2  UNL     1      12.170  34.664  21.882  1.00  0.00    -0.328 OA
BRANCH  22  23
HETATM   23  C10 UNL     1      11.070  35.133  21.192  1.00  0.00     0.159 A 
HETATM   24  C11 UNL     1      11.185  36.331  20.508  1.00  0.00     0.144 A 
HETATM   25  N4  UNL     1      10.180  36.848  19.764  1.00  0.00    -0.360 N 
HETATM   26  C12 UNL     1       9.039  36.140  19.756  1.00  0.00     0.059 A 
ATOM     27  H4  UNL     1      10.282  37.719  19.243  1.00  0.00     0.165 HD
HETATM   28  C13 UNL     1       7.964  36.589  18.994  1.00  0.00     0.032 A 
HETATM   29  C17 UNL     1       8.900  34.942  20.513  1.00  0.00     0.061 A 
HETATM   30  C14 UNL     1       6.749  35.899  18.978  1.00  0.00     0.002 A 
HETATM   31  C15 UNL     1       6.595  34.742  19.749  1.00  0.00     0.002 A 
HETATM   32  C16 UNL     1       7.671  34.269  20.502  1.00  0.00     0.032 A 
HETATM   33  N5  UNL     1       9.922  34.438  21.234  1.00  0.00    -0.334 N 
ATOM     34  H5  UNL     1       9.828  33.581  21.779  1.00  0.00     0.168 HD
ENDBRANCH  22  23
ENDBRANCH   4  22
TORSDOF 5
ENDMDL
MODEL 4
REMARK minimizedAffinity -7.60750437
REMARK  5 active torsions:
REMARK  status: ('A' for Active; 'I' for Inactive)
REMARK    1  A    between atoms: O1_2  and  C2_3 
REMARK    2  A    between atoms: C6_11  and  N3_12 
REMARK    3  A    between atoms: C9_15  and  O2_16 
REMARK    4  A    between atoms: O2_16  and  C10_17 
REMARK    5  A    between atoms: C21_32  and  O3_33 
ROOT
HETATM    1  N3  UNL     1      14.135  35.478  19.362  1.00  0.00    -0.266 NA
HETATM    2  C7  UNL     1      14.765  34.149  19.132  1.00  0.00     0.099 C 
HETATM    3  C8  UNL     1      15.974  34.418  18.235  1.00  0.00     0.048 C 
HETATM    4  C9  UNL     1      16.395  35.823  18.680  1.00  0.00     0.145 C 
HETATM    5  C18 UNL     1      15.032  36.515  18.781  1.00  0.00     0.129 C 
ENDROOT
BRANCH   1   6
HETATM    6  C6  UNL     1      12.838  35.522  18.798  1.00  0.00     0.096 A 
HETATM    7  N2  UNL     1      12.711  35.787  17.484  1.00  0.00    -0.342 N 
HETATM    8  C5  UNL     1      11.462  35.800  17.000  1.00  0.00     0.182 A 
ATOM      9  H2  UNL     1      13.521  35.968  16.891  1.00  0.00     0.167 HD
HETATM   10  N1  UNL     1      10.337  35.564  17.689  1.00  0.00    -0.351 N 
HETATM   11  C4  UNL     1      10.481  35.293  18.992  1.00  0.00     0.049 A 
ATOM     12  H1  UNL     1       9.419  35.591  17.245  1.00  0.00     0.166 HD
HETATM   13  C3  UNL     1       9.344  35.031  19.746  1.00  0.00     0.070 A 
HETATM   14  C19 UNL     1      11.729  35.258  19.623  1.00  0.00     0.032 A 
HETATM   15  C2  UNL     1       9.411  34.741  21.114  1.00  0.00     0.103 A 
HETATM   16  C21 UNL     1      10.660  34.720  21.755  1.00  0.00     0.102 A 
HETATM   17  C20 UNL     1      11.811  34.967  21.007  1.00  0.00     0.056 A 
BRANCH  15  18
HETATM   18  O1  UNL     1       8.321  34.481  21.907  1.00  0.00    -0.353 OA
HETATM   19  C1  UNL     1       7.326  35.489  22.011  1.00  0.00     0.210 C 
ENDBRANCH  15  18
BRANCH  16  20
HETATM   20  O3  UNL     1      10.665  34.410  23.092  1.00  0.00    -0.353 OA
HETATM   21  C22 UNL     1      10.765  35.511  23.995  1.00  0.00     0.210 C 
ENDBRANCH  16  20
ENDBRANCH   1   6
BRANCH   4  22
HETATM   22  O2  UNL     1      17.230  36.460  17.712  1.00  0.00    -0.328 OA
BRANCH  22  23
HETATM   23  C10 UNL     1      17.004  35.968  16.442  1.00  0.00     0.159 A 
HETATM   24  C11 UNL     1      15.914  36.446  15.736  1.00  0.00     0.144 A 
HETATM   25  N4  UNL     1      15.636  36.062  14.469  1.00  0.00    -0.360 N 
HETATM   26  C12 UNL     1      16.470  35.151  13.941  1.00  0.00     0.059 A 
ATOM     27  H4  UNL     1      14.845  36.439  13.948  1.00  0.00     0.165 HD
HETATM   28  C13 UNL     1      16.270  34.722  12.633  1.00  0.00     0.032 A 
HETATM   29  C17 UNL     1      17.553  34.610  14.691  1.00  0.00     0.061 A 
HETATM   30  C14 UNL     1      17.097  33.755  12.053  1.00  0.00     0.002 A 
HETATM   31  C15 UNL     1      18.140  33.194  12.798  1.00  0.00     0.002 A 
HETATM   32  C16 UNL     1      18.364  33.630  14.105  1.00  0.00     0.032 A 
HETATM   33  N5  UNL     1      17.818  35.022  15.948  1.00  0.00    -0.334 N 
ATOM     34  H5  UNL     1      18.592  34.637  16.490  1.00  0.00     0.168 HD
ENDBRANCH  22  23
ENDBRANCH   4  22
TORSDOF 5
ENDMDL
MODEL 5
REMARK minimizedAffinity -7.51490784
REMARK  5 active torsions:
REMARK  status: ('A' for Active; 'I' for Inactive)
REMARK    1  A    between atoms: O1_2  and  C2_3 
REMARK    2  A    between atoms: C6_11  and  N3_12 
REMARK    3  A    between atoms: C9_15  and  O2_16 
REMARK    4  A    between atoms: O2_16  and  C10_17 
REMARK    5  A    between atoms: C21_32  and  O3_33 
ROOT
HETATM    1  N3  UNL     1      16.077  36.607  17.135  1.00  0.00    -0.266 NA
HETATM    2  C7  UNL     1      15.376  37.067  15.905  1.00  0.00     0.099 C 
HETATM    3  C8  UNL     1      14.202  36.106  15.718  1.00  0.00     0.048 C 
HETATM    4  C9  UNL     1      13.854  35.743  17.166  1.00  0.00     0.145 C 
HETATM    5  C18 UNL     1      15.253  35.534  17.756  1.00  0.00     0.129 C 
ENDROOT
BRANCH   1   6
HETATM    6  C6  UNL     1      17.385  36.161  16.830  1.00  0.00     0.096 A 
HETATM    7  N2  UNL     1      18.313  36.161  17.804  1.00  0.00    -0.342 N 
HETATM    8  C5  UNL     1      19.529  35.713  17.464  1.00  0.00     0.182 A 
ATOM      9  H2  UNL     1      18.102  36.484  18.749  1.00  0.00     0.167 HD
HETATM   10  N1  UNL     1      19.904  35.258  16.261  1.00  0.00    -0.351 N 
HETATM   11  C4  UNL     1      18.967  35.256  15.306  1.00  0.00     0.049 A 
ATOM     12  H1  UNL     1      20.854  34.931  16.083  1.00  0.00     0.166 HD
HETATM   13  C3  UNL     1      19.306  34.783  14.044  1.00  0.00     0.070 A 
HETATM   14  C19 UNL     1      17.661  35.706  15.527  1.00  0.00     0.032 A 
HETATM   15  C2  UNL     1      18.383  34.750  12.991  1.00  0.00     0.103 A 
HETATM   16  C21 UNL     1      17.075  35.215  13.205  1.00  0.00     0.102 A 
HETATM   17  C20 UNL     1      16.718  35.680  14.470  1.00  0.00     0.056 A 
BRANCH  15  18
HETATM   18  O1  UNL     1      18.665  34.299  11.726  1.00  0.00    -0.353 OA
HETATM   19  C1  UNL     1      19.831  34.802  11.091  1.00  0.00     0.210 C 
ENDBRANCH  15  18
BRANCH  16  20
HETATM   20  O3  UNL     1      16.211  35.140  12.142  1.00  0.00    -0.353 OA
HETATM   21  C22 UNL     1      15.170  34.169  12.241  1.00  0.00     0.210 C 
ENDBRANCH  16  20
ENDBRANCH   1   6
BRANCH   4  22
HETATM   22  O2  UNL     1      13.075  34.547  17.242  1.00  0.00    -0.328 OA
BRANCH  22  23
HETATM   23  C10 UNL     1      11.937  34.729  18.002  1.00  0.00     0.159 A 
HETATM   24  C11 UNL     1      11.888  34.155  19.260  1.00  0.00     0.144 A 
HETATM   25  N4  UNL     1      10.838  34.316  20.098  1.00  0.00    -0.360 N 
HETATM   26  C12 UNL     1       9.818  35.045  19.619  1.00  0.00     0.059 A 
ATOM     27  H4  UNL     1      10.822  33.909  21.033  1.00  0.00     0.165 HD
HETATM   28  C13 UNL     1       8.711  35.281  20.427  1.00  0.00     0.032 A 
HETATM   29  C17 UNL     1       9.841  35.580  18.299  1.00  0.00     0.061 A 
HETATM   30  C14 UNL     1       7.614  36.011  19.958  1.00  0.00     0.002 A 
HETATM   31  C15 UNL     1       7.615  36.508  18.651  1.00  0.00     0.002 A 
HETATM   32  C16 UNL     1       8.729  36.296  17.836  1.00  0.00     0.032 A 
HETATM   33  N5  UNL     1      10.907  35.420  17.488  1.00  0.00    -0.334 N 
ATOM     34  H5  UNL     1      10.928  35.800  16.542  1.00  0.00     0.168 HD
ENDBRANCH  22  23
ENDBRANCH   4  22
TORSDOF 5
ENDMDL
MODEL 6
REMARK minimizedAffinity -7.47462368
REMARK  5 active torsions:
REMARK  status: ('A' for Active; 'I' for Inactive)
REMARK    1  A    between atoms: O1_2  and  C2_3 
REMARK    2  A    between atoms: C6_11  and  N3_12 
REMARK    3  A    between atoms: C9_15  and  O2_16 
REMARK    4  A    between atoms: O2_16  and  C10_17 
REMARK    5  A    between atoms: C21_32  and  O3_33 
ROOT
HETATM    1  N3  UNL     1      12.854  35.562  18.862  1.00  0.00    -0.266 NA
HETATM    2  C7  UNL     1      13.247  34.240  18.301  1.00  0.00     0.099 C 
HETATM    3  C8  UNL     1      14.006  34.552  17.010  1.00  0.00     0.048 C 
HETATM    4  C9  UNL     1      14.664  35.895  17.344  1.00  0.00     0.145 C 
HETATM    5  C18 UNL     1      13.507  36.619  18.042  1.00  0.00     0.129 C 
ENDROOT
BRANCH   1   6
HETATM    6  C6  UNL     1      11.446  35.700  18.881  1.00  0.00     0.096 A 
HETATM    7  N2  UNL     1      10.794  35.855  17.714  1.00  0.00    -0.342 N 
HETATM    8  C5  UNL     1       9.461  35.963  17.789  1.00  0.00     0.182 A 
ATOM      9  H2  UNL     1      11.288  35.887  16.821  1.00  0.00     0.167 HD
HETATM   10  N1  UNL     1       8.719  35.922  18.904  1.00  0.00    -0.351 N 
HETATM   11  C4  UNL     1       9.382  35.757  20.055  1.00  0.00     0.049 A 
ATOM     12  H1  UNL     1       7.703  36.010  18.877  1.00  0.00     0.166 HD
HETATM   13  C3  UNL     1       8.654  35.696  21.238  1.00  0.00     0.070 A 
HETATM   14  C19 UNL     1      10.774  35.640  20.116  1.00  0.00     0.032 A 
HETATM   15  C2  UNL     1       9.273  35.529  22.482  1.00  0.00     0.103 A 
HETATM   16  C21 UNL     1      10.672  35.426  22.549  1.00  0.00     0.102 A 
HETATM   17  C20 UNL     1      11.414  35.472  21.369  1.00  0.00     0.056 A 
BRANCH  15  18
HETATM   18  O1  UNL     1       8.605  35.468  23.680  1.00  0.00    -0.353 OA
HETATM   19  C1  UNL     1       8.028  34.225  24.051  1.00  0.00     0.210 C 
ENDBRANCH  15  18
BRANCH  16  20
HETATM   20  O3  UNL     1      11.220  35.243  23.794  1.00  0.00    -0.353 OA
HETATM   21  C22 UNL     1      12.036  36.306  24.288  1.00  0.00     0.210 C 
ENDBRANCH  16  20
ENDBRANCH   1   6
BRANCH   4  22
HETATM   22  O2  UNL     1      15.078  36.592  16.168  1.00  0.00    -0.328 OA
BRANCH  22  23
HETATM   23  C10 UNL     1      16.038  35.887  15.469  1.00  0.00     0.159 A 
HETATM   24  C11 UNL     1      17.251  35.639  16.088  1.00  0.00     0.144 A 
HETATM   25  N4  UNL     1      18.235  34.917  15.505  1.00  0.00    -0.360 N 
HETATM   26  C12 UNL     1      17.977  34.478  14.263  1.00  0.00     0.059 A 
ATOM     27  H4  UNL     1      19.116  34.718  15.979  1.00  0.00     0.165 HD
HETATM   28  C13 UNL     1      18.927  33.705  13.603  1.00  0.00     0.032 A 
HETATM   29  C17 UNL     1      16.755  34.790  13.602  1.00  0.00     0.061 A 
HETATM   30  C14 UNL     1      18.712  33.251  12.298  1.00  0.00     0.002 A 
HETATM   31  C15 UNL     1      17.529  33.585  11.630  1.00  0.00     0.002 A 
HETATM   32  C16 UNL     1      16.559  34.343  12.289  1.00  0.00     0.032 A 
HETATM   33  N5  UNL     1      15.782  35.498  14.210  1.00  0.00    -0.334 N 
ATOM     34  H5  UNL     1      14.905  35.725  13.741  1.00  0.00     0.168 HD
ENDBRANCH  22  23
ENDBRANCH   4  22
TORSDOF 5
ENDMDL
MODEL 7
REMARK minimizedAffinity -7.46972132
REMARK  5 active torsions:
REMARK  status: ('A' for Active; 'I' for Inactive)
REMARK    1  A    between atoms: O1_2  and  C2_3 
REMARK    2  A    between atoms: C6_11  and  N3_12 
REMARK    3  A    between atoms: C9_15  and  O2_16 
REMARK    4  A    between atoms: O2_16  and  C10_17 
REMARK    5  A    between atoms: C21_32  and  O3_33 
ROOT
HETATM    1  N3  UNL     1      14.847  35.819  16.309  1.00  0.00    -0.266 NA
HETATM    2  C7  UNL     1      15.551  34.927  17.271  1.00  0.00     0.099 C 
HETATM    3  C8  UNL     1      14.943  35.238  18.640  1.00  0.00     0.048 C 
HETATM    4  C9  UNL     1      13.504  35.614  18.270  1.00  0.00     0.145 C 
HETATM    5  C18 UNL     1      13.741  36.498  17.041  1.00  0.00     0.129 C 
ENDROOT
BRANCH   1   6
HETATM    6  C6  UNL     1      15.747  36.744  15.731  1.00  0.00     0.096 A 
HETATM    7  N2  UNL     1      15.964  37.916  16.358  1.00  0.00    -0.342 N 
HETATM    8  C5  UNL     1      16.839  38.747  15.776  1.00  0.00     0.182 A 
ATOM      9  H2  UNL     1      15.489  38.157  17.228  1.00  0.00     0.167 HD
HETATM   10  N1  UNL     1      17.522  38.521  14.645  1.00  0.00    -0.351 N 
HETATM   11  C4  UNL     1      17.302  37.349  14.040  1.00  0.00     0.049 A 
ATOM     12  H1  UNL     1      18.175  39.208  14.266  1.00  0.00     0.166 HD
HETATM   13  C3  UNL     1      17.997  37.065  12.870  1.00  0.00     0.070 A 
HETATM   14  C19 UNL     1      16.408  36.396  14.539  1.00  0.00     0.032 A 
HETATM   15  C2  UNL     1      17.821  35.861  12.176  1.00  0.00     0.103 A 
HETATM   16  C21 UNL     1      16.912  34.909  12.665  1.00  0.00     0.102 A 
HETATM   17  C20 UNL     1      16.219  35.175  13.846  1.00  0.00     0.056 A 
BRANCH  15  18
HETATM   18  O1  UNL     1      18.475  35.532  11.015  1.00  0.00    -0.353 OA
HETATM   19  C1  UNL     1      19.893  35.475  11.050  1.00  0.00     0.210 C 
ENDBRANCH  15  18
BRANCH  16  20
HETATM   20  O3  UNL     1      16.797  33.741  11.953  1.00  0.00    -0.353 OA
HETATM   21  C22 UNL     1      17.472  32.604  12.491  1.00  0.00     0.210 C 
ENDBRANCH  16  20
ENDBRANCH   1   6
BRANCH   4  22
HETATM   22  O2  UNL     1      12.860  36.345  19.316  1.00  0.00    -0.328 OA
BRANCH  22  23
HETATM   23  C10 UNL     1      11.582  35.878  19.551  1.00  0.00     0.159 A 
HETATM   24  C11 UNL     1      11.430  34.733  20.313  1.00  0.00     0.144 A 
HETATM   25  N4  UNL     1      10.218  34.225  20.637  1.00  0.00    -0.360 N 
HETATM   26  C12 UNL     1       9.159  34.886  20.143  1.00  0.00     0.059 A 
ATOM     27  H4  UNL     1      10.116  33.395  21.220  1.00  0.00     0.165 HD
HETATM   28  C13 UNL     1       7.876  34.445  20.451  1.00  0.00     0.032 A 
HETATM   29  C17 UNL     1       9.318  36.026  19.304  1.00  0.00     0.061 A 
HETATM   30  C14 UNL     1       6.746  35.085  19.935  1.00  0.00     0.002 A 
HETATM   31  C15 UNL     1       6.897  36.184  19.082  1.00  0.00     0.002 A 
HETATM   32  C16 UNL     1       8.178  36.649  18.780  1.00  0.00     0.032 A 
HETATM   33  N5  UNL     1      10.537  36.522  19.008  1.00  0.00    -0.334 N 
ATOM     34  H5  UNL     1      10.656  37.338  18.408  1.00  0.00     0.168 HD
ENDBRANCH  22  23
ENDBRANCH   4  22
TORSDOF 5
ENDMDL
MODEL 8
REMARK minimizedAffinity -7.38456964
REMARK  5 active torsions:
REMARK  status: ('A' for Active; 'I' for Inactive)
REMARK    1  A    between atoms: O1_2  and  C2_3 
REMARK    2  A    between atoms: C6_11  and  N3_12 
REMARK    3  A    between atoms: C9_15  and  O2_16 
REMARK    4  A    between atoms: O2_16  and  C10_17 
REMARK    5  A    between atoms: C21_32  and  O3_33 
ROOT
HETATM    1  N3  UNL     1      17.472  48.704   5.231  1.00  0.00    -0.266 NA
HETATM    2  C7  UNL     1      18.290  48.389   6.434  1.00  0.00     0.099 C 
HETATM    3  C8  UNL     1      19.088  49.660   6.732  1.00  0.00     0.048 C 
HETATM    4  C9  UNL     1      18.130  50.756   6.254  1.00  0.00     0.145 C 
HETATM    5  C18 UNL     1      17.635  50.154   4.934  1.00  0.00     0.129 C 
ENDROOT
BRANCH   1   6
HETATM    6  C6  UNL     1      17.856  47.893   4.137  1.00  0.00     0.096 A 
HETATM    7  N2  UNL     1      18.297  48.488   3.013  1.00  0.00    -0.342 N 
HETATM    8  C5  UNL     1      18.663  47.671   2.015  1.00  0.00     0.182 A 
ATOM      9  H2  UNL     1      18.350  49.503   2.926  1.00  0.00     0.167 HD
HETATM   10  N1  UNL     1      18.644  46.331   2.033  1.00  0.00    -0.351 N 
HETATM   11  C4  UNL     1      18.212  45.756   3.161  1.00  0.00     0.049 A 
ATOM     12  H1  UNL     1      18.942  45.779   1.228  1.00  0.00     0.166 HD
HETATM   13  C3  UNL     1      18.184  44.369   3.230  1.00  0.00     0.070 A 
HETATM   14  C19 UNL     1      17.792  46.494   4.273  1.00  0.00     0.032 A 
HETATM   15  C2  UNL     1      17.743  43.691   4.374  1.00  0.00     0.103 A 
HETATM   16  C21 UNL     1      17.306  44.428   5.487  1.00  0.00     0.102 A 
HETATM   17  C20 UNL     1      17.342  45.822   5.436  1.00  0.00     0.056 A 
BRANCH  15  18
HETATM   18  O1  UNL     1      17.689  42.325   4.495  1.00  0.00    -0.353 OA
HETATM   19  C1  UNL     1      18.657  41.562   3.790  1.00  0.00     0.210 C 
ENDBRANCH  15  18
BRANCH  16  20
HETATM   20  O3  UNL     1      16.905  43.710   6.586  1.00  0.00    -0.353 OA
HETATM   21  C22 UNL     1      17.054  44.354   7.851  1.00  0.00     0.210 C 
ENDBRANCH  16  20
ENDBRANCH   1   6
BRANCH   4  22
HETATM   22  O2  UNL     1      18.806  51.996   6.037  1.00  0.00    -0.328 OA
BRANCH  22  23
HETATM   23  C10 UNL     1      17.981  52.929   5.442  1.00  0.00     0.159 A 
HETATM   24  C11 UNL     1      18.548  53.859   4.588  1.00  0.00     0.144 A 
HETATM   25  N4  UNL     1      17.818  54.781   3.921  1.00  0.00    -0.360 N 
HETATM   26  C12 UNL     1      16.497  54.764   4.163  1.00  0.00     0.059 A 
ATOM     27  H4  UNL     1      18.242  55.447   3.275  1.00  0.00     0.165 HD
HETATM   28  C13 UNL     1      15.670  55.663   3.497  1.00  0.00     0.032 A 
HETATM   29  C17 UNL     1      15.923  53.850   5.091  1.00  0.00     0.061 A 
HETATM   30  C14 UNL     1      14.294  55.699   3.740  1.00  0.00     0.002 A 
HETATM   31  C15 UNL     1      13.729  54.828   4.677  1.00  0.00     0.002 A 
HETATM   32  C16 UNL     1      14.545  53.907   5.338  1.00  0.00     0.032 A 
HETATM   33  N5  UNL     1      16.670  52.929   5.733  1.00  0.00    -0.334 N 
ATOM     34  H5  UNL     1      16.264  52.272   6.399  1.00  0.00     0.168 HD
ENDBRANCH  22  23
ENDBRANCH   4  22
TORSDOF 5
ENDMDL
MODEL 9
REMARK minimizedAffinity -7.36157751
REMARK  5 active torsions:
REMARK  status: ('A' for Active; 'I' for Inactive)
REMARK    1  A    between atoms: O1_2  and  C2_3 
REMARK    2  A    between atoms: C6_11  and  N3_12 
REMARK    3  A    between atoms: C9_15  and  O2_16 
REMARK    4  A    between atoms: O2_16  and  C10_17 
REMARK    5  A    between atoms: C21_32  and  O3_33 
ROOT
HETATM    1  N3  UNL     1      15.290  36.491  18.298  1.00  0.00    -0.266 NA
HETATM    2  C7  UNL     1      15.888  35.170  18.635  1.00  0.00     0.099 C 
HETATM    3  C8  UNL     1      17.158  35.067  17.789  1.00  0.00     0.048 C 
HETATM    4  C9  UNL     1      17.597  36.533  17.695  1.00  0.00     0.145 C 
HETATM    5  C18 UNL     1      16.254  37.222  17.430  1.00  0.00     0.129 C 
ENDROOT
BRANCH   1   6
HETATM    6  C6  UNL     1      14.032  36.326  17.671  1.00  0.00     0.096 A 
HETATM    7  N2  UNL     1      13.916  36.623  16.363  1.00  0.00    -0.342 N 
HETATM    8  C5  UNL     1      12.707  36.432  15.818  1.00  0.00     0.182 A 
ATOM      9  H2  UNL     1      14.704  36.974  15.819  1.00  0.00     0.167 HD
HETATM   10  N1  UNL     1      11.615  35.968  16.440  1.00  0.00    -0.351 N 
HETATM   11  C4  UNL     1      11.750  35.668  17.737  1.00  0.00     0.049 A 
ATOM     12  H1  UNL     1      10.728  35.849  15.950  1.00  0.00     0.166 HD
HETATM   13  C3  UNL     1      10.648  35.172  18.422  1.00  0.00     0.070 A 
HETATM   14  C19 UNL     1      12.955  35.829  18.428  1.00  0.00     0.032 A 
HETATM   15  C2  UNL     1      10.707  34.837  19.780  1.00  0.00     0.103 A 
HETATM   16  C21 UNL     1      11.911  35.012  20.483  1.00  0.00     0.102 A 
HETATM   17  C20 UNL     1      13.029  35.496  19.803  1.00  0.00     0.056 A 
BRANCH  15  18
HETATM   18  O1  UNL     1       9.649  34.349  20.507  1.00  0.00    -0.353 OA
HETATM   19  C1  UNL     1       8.369  34.916  20.269  1.00  0.00     0.210 C 
ENDBRANCH  15  18
BRANCH  16  20
HETATM   20  O3  UNL     1      11.914  34.648  21.806  1.00  0.00    -0.353 OA
HETATM   21  C22 UNL     1      12.011  35.712  22.753  1.00  0.00     0.210 C 
ENDBRANCH  16  20
ENDBRANCH   1   6
BRANCH   4  22
HETATM   22  O2  UNL     1      18.511  36.746  16.617  1.00  0.00    -0.328 OA
BRANCH  22  23
HETATM   23  C10 UNL     1      18.359  35.796  15.627  1.00  0.00     0.159 A 
HETATM   24  C11 UNL     1      19.325  34.813  15.506  1.00  0.00     0.144 A 
HETATM   25  N4  UNL     1      19.241  33.812  14.599  1.00  0.00    -0.360 N 
HETATM   26  C12 UNL     1      18.171  33.848  13.790  1.00  0.00     0.059 A 
ATOM     27  H4  UNL     1      19.946  33.077  14.534  1.00  0.00     0.165 HD
HETATM   28  C13 UNL     1      17.995  32.841  12.847  1.00  0.00     0.032 A 
HETATM   29  C17 UNL     1      17.211  34.897  13.871  1.00  0.00     0.061 A 
HETATM   30  C14 UNL     1      16.910  32.854  11.965  1.00  0.00     0.002 A 
HETATM   31  C15 UNL     1      15.984  33.902  12.016  1.00  0.00     0.002 A 
HETATM   32  C16 UNL     1      16.138  34.908  12.972  1.00  0.00     0.032 A 
HETATM   33  N5  UNL     1      17.308  35.875  14.795  1.00  0.00    -0.334 N 
ATOM     34  H5  UNL     1      16.625  36.629  14.857  1.00  0.00     0.168 HD
ENDBRANCH  22  23
ENDBRANCH   4  22
TORSDOF 5
ENDMDL
