MODEL 1
REMARK minimizedAffinity -9.41092777
REMARK CNNscore 0.346729785
REMARK CNNaffinity 7.87099981
REMARK  13 active torsions:
REMARK  status: ('A' for Active; 'I' for Inactive)
REMARK    1  A    between atoms: O1_2  and  C2_3 
REMARK    2  A    between atoms: C2_3  and  C3_5 
REMARK    3  A    between atoms: C19_25  and  C20_26 
REMARK    4  A    between atoms: C20_26  and  C21_27 
REMARK    5  A    between atoms: C21_27  and  C22_28 
REMARK    6  A    between atoms: C22_28  and  O7_29 
REMARK    7  A    between atoms: C24_32  and  C25_33 
REMARK    8  A    between atoms: C25_33  and  C27_35 
REMARK    9  A    between atoms: C38_46  and  O8_47 
REMARK   10  A    between atoms: C39_48  and  O9_49 
REMARK   11  A    between atoms: C40_50  and  C41_51 
REMARK   12  A    between atoms: C41_51  and  C42_52 
REMARK   13  A    between atoms: C42_52  and  O11_54 
ROOT
HETATM    1  C3  UNL     1      -9.060  45.629 -20.008  1.00  0.00     0.019 C 
HETATM    2  C4  UNL     1      -7.770  45.275 -19.842  1.00  0.00    -0.006 C 
HETATM    3  C5  UNL     1      -6.589  46.218 -19.930  1.00  0.00     0.043 C 
HETATM    4  C6  UNL     1      -6.024  46.395 -18.479  1.00  0.00    -0.001 C 
HETATM    5  C7  UNL     1      -7.071  46.889 -17.453  1.00  0.00     0.032 C 
HETATM    6  C8  UNL     1      -7.701  48.229 -17.659  1.00  0.00    -0.030 C 
HETATM    7  C9  UNL     1      -8.230  48.716 -18.793  1.00  0.00    -0.023 C 
HETATM    8  C10 UNL     1      -8.302  48.086 -20.168  1.00  0.00     0.047 C 
HETATM    9  C11 UNL     1      -6.931  47.550 -20.647  1.00  0.00     0.141 C 
HETATM   10  O3  UNL     1      -7.066  47.325 -22.056  1.00  0.00    -0.351 OA
HETATM   11  C12 UNL     1      -6.270  48.121 -22.953  1.00  0.00     0.297 C 
HETATM   12  O4  UNL     1      -4.995  47.529 -23.231  1.00  0.00    -0.347 OA
HETATM   13  C13 UNL     1      -3.827  48.351 -23.351  1.00  0.00     0.191 C 
HETATM   14  C14 UNL     1      -2.833  47.904 -22.252  1.00  0.00     0.203 C 
HETATM   15  O5  UNL     1      -3.520  47.843 -21.006  1.00  0.00    -0.388 OA
HETATM   16  C15 UNL     1      -2.687  47.499 -19.907  1.00  0.00     0.167 C 
HETATM   17  C16 UNL     1      -3.493  46.577 -19.000  1.00  0.00     0.027 C 
HETATM   18  C17 UNL     1      -4.741  47.258 -18.400  1.00  0.00     0.007 C 
HETATM   19  C18 UNL     1      -4.004  49.901 -23.565  1.00  0.00     0.148 C 
HETATM   20  O6  UNL     1      -3.124  50.262 -24.682  1.00  0.00    -0.332 OA
HETATM   21  C19 UNL     1      -1.878  50.788 -24.406  1.00  0.00     0.075 C 
HETATM   22  C23 UNL     1      -1.576  51.287 -23.201  1.00  0.00     0.072 A 
HETATM   23  N1  UNL     1      -0.462  51.859 -22.652  1.00  0.00    -0.357 N 
HETATM   24  C24 UNL     1      -0.729  52.338 -21.370  1.00  0.00     0.014 A 
HETATM   25  C33 UNL     1      -2.002  52.047 -21.016  1.00  0.00     0.039 A 
HETATM   26  C34 UNL     1      -2.580  51.346 -22.148  1.00  0.00     0.001 A 
HETATM   27  C35 UNL     1      -3.765  50.721 -22.289  1.00  0.00    -0.027 C 
HETATM   28  C36 UNL     1      -4.832  50.683 -21.226  1.00  0.00     0.041 C 
HETATM   29  C37 UNL     1      -6.250  50.560 -21.773  1.00  0.00     0.050 C 
HETATM   30  C38 UNL     1      -6.438  49.679 -23.028  1.00  0.00     0.136 C 
HETATM   31  C39 UNL     1      -5.435  50.162 -24.091  1.00  0.00     0.199 C 
HETATM   32  C40 UNL     1      -9.456  47.050 -20.409  1.00  0.00     0.044 C 
HETATM   33  H30 UNL     1       0.307  52.196 -23.215  1.00  0.00     0.166 HD
ENDROOT
BRANCH  24  34
HETATM   34  C25 UNL     1       0.352  53.003 -20.554  1.00  0.00     0.035 C 
HETATM   35  C26 UNL     1       1.707  52.395 -20.947  1.00  0.00     0.017 C 
BRANCH  34  36
HETATM   36  C27 UNL     1       0.090  52.982 -19.020  1.00  0.00    -0.005 C 
HETATM   37  C28 UNL     1       1.419  52.908 -18.234  1.00  0.00     0.005 C 
HETATM   38  C29 UNL     1       1.251  52.284 -16.853  1.00  0.00     0.000 C 
HETATM   39  C30 UNL     1       0.758  50.835 -16.945  1.00  0.00     0.000 C 
HETATM   40  C31 UNL     1      -0.133  50.582 -18.160  1.00  0.00     0.000 C 
HETATM   41  C32 UNL     1      -0.873  51.854 -18.576  1.00  0.00     0.005 C 
ENDBRANCH  34  36
ENDBRANCH  24  34
BRANCH  21  42
HETATM   42  C20 UNL     1      -0.922  50.774 -25.565  1.00  0.00     0.069 C 
BRANCH  42  43
HETATM   43  C21 UNL     1      -1.649  51.093 -26.885  1.00  0.00     0.033 C 
BRANCH  43  44
HETATM   44  C22 UNL     1      -2.441  52.392 -26.784  1.00  0.00     0.164 C 
BRANCH  44  45
HETATM   45  O7  UNL     1      -2.188  53.186 -27.943  1.00  0.00    -0.401 OA
HETATM   46  H29 UNL     1      -2.597  54.064 -27.777  1.00  0.00     0.209 HD
ENDBRANCH  44  45
ENDBRANCH  43  44
ENDBRANCH  42  43
ENDBRANCH  21  42
BRANCH  31  47
HETATM   47  O9  UNL     1      -5.686  51.552 -24.392  1.00  0.00    -0.389 OA
HETATM   48  H53 UNL     1      -6.639  51.593 -24.567  1.00  0.00     0.210 HD
ENDBRANCH  31  47
BRANCH  30  49
HETATM   49  O8  UNL     1      -7.790  49.992 -23.475  1.00  0.00    -0.382 OA
HETATM   50  H51 UNL     1      -8.026  49.362 -24.186  1.00  0.00     0.210 HD
ENDBRANCH  30  49
BRANCH  32  51
HETATM   51  C41 UNL     1     -10.791  47.633 -19.881  1.00  0.00     0.120 C 
BRANCH  51  52
HETATM   52  C42 UNL     1     -11.368  46.873 -18.712  1.00  0.00     0.140 C 
HETATM   53  O10 UNL     1     -12.397  46.215 -18.663  1.00  0.00    -0.650 OA
BRANCH  52  54
HETATM   54  O11 UNL     1     -10.610  47.023 -17.598  1.00  0.00    -0.776 OA
HETATM   55  H57 UNL     1     -11.089  46.496 -16.923  1.00  0.00     0.167 HD
ENDBRANCH  52  54
ENDBRANCH  51  52
ENDBRANCH  32  51
BRANCH   1  56
HETATM   56  C2  UNL     1     -10.017  44.493 -19.857  1.00  0.00     0.289 C 
HETATM   57  O2  UNL     1     -10.889  44.215 -20.675  1.00  0.00    -0.260 OA
BRANCH  56  58
HETATM   58  O1  UNL     1      -9.776  43.792 -18.722  1.00  0.00    -0.323 OA
HETATM   59  C1  UNL     1     -10.942  43.194 -18.151  1.00  0.00     0.213 C 
ENDBRANCH  56  58
ENDBRANCH   1  56
TORSDOF 13
ENDMDL
MODEL 2
REMARK minimizedAffinity -7.74775076
REMARK CNNscore 0.292321503
REMARK CNNaffinity 7.40188932
REMARK  13 active torsions:
REMARK  status: ('A' for Active; 'I' for Inactive)
REMARK    1  A    between atoms: O1_2  and  C2_3 
REMARK    2  A    between atoms: C2_3  and  C3_5 
REMARK    3  A    between atoms: C19_25  and  C20_26 
REMARK    4  A    between atoms: C20_26  and  C21_27 
REMARK    5  A    between atoms: C21_27  and  C22_28 
REMARK    6  A    between atoms: C22_28  and  O7_29 
REMARK    7  A    between atoms: C24_32  and  C25_33 
REMARK    8  A    between atoms: C25_33  and  C27_35 
REMARK    9  A    between atoms: C38_46  and  O8_47 
REMARK   10  A    between atoms: C39_48  and  O9_49 
REMARK   11  A    between atoms: C40_50  and  C41_51 
REMARK   12  A    between atoms: C41_51  and  C42_52 
REMARK   13  A    between atoms: C42_52  and  O11_54 
ROOT
HETATM    1  C3  UNL     1       2.820  54.747  -5.529  1.00  0.00     0.019 C 
HETATM    2  C4  UNL     1       3.451  53.746  -6.174  1.00  0.00    -0.006 C 
HETATM    3  C5  UNL     1       3.194  53.336  -7.609  1.00  0.00     0.043 C 
HETATM    4  C6  UNL     1       4.449  53.762  -8.447  1.00  0.00    -0.001 C 
HETATM    5  C7  UNL     1       4.797  55.265  -8.338  1.00  0.00     0.032 C 
HETATM    6  C8  UNL     1       3.801  56.269  -8.823  1.00  0.00    -0.030 C 
HETATM    7  C9  UNL     1       2.486  56.308  -8.553  1.00  0.00    -0.023 C 
HETATM    8  C10 UNL     1       1.642  55.350  -7.739  1.00  0.00     0.047 C 
HETATM    9  C11 UNL     1       1.848  53.874  -8.160  1.00  0.00     0.141 C 
HETATM   10  O3  UNL     1       0.758  53.144  -7.584  1.00  0.00    -0.351 OA
HETATM   11  C12 UNL     1      -0.190  52.522  -8.471  1.00  0.00     0.297 C 
HETATM   12  O4  UNL     1       0.188  51.188  -8.835  1.00  0.00    -0.347 OA
HETATM   13  C13 UNL     1      -0.037  50.712 -10.167  1.00  0.00     0.191 C 
HETATM   14  C14 UNL     1       1.342  50.346 -10.766  1.00  0.00     0.203 C 
HETATM   15  O5  UNL     1       2.239  51.432 -10.555  1.00  0.00    -0.388 OA
HETATM   16  C15 UNL     1       3.528  51.231 -11.120  1.00  0.00     0.167 C 
HETATM   17  C16 UNL     1       4.544  51.803 -10.139  1.00  0.00     0.027 C 
HETATM   18  C17 UNL     1       4.396  53.325  -9.932  1.00  0.00     0.007 C 
HETATM   19  C18 UNL     1      -1.035  51.496 -11.100  1.00  0.00     0.148 C 
HETATM   20  O6  UNL     1      -1.928  50.489 -11.683  1.00  0.00    -0.332 OA
HETATM   21  C19 UNL     1      -1.657  50.010 -12.949  1.00  0.00     0.075 C 
HETATM   22  C23 UNL     1      -0.832  50.656 -13.783  1.00  0.00     0.072 A 
HETATM   23  N1  UNL     1      -0.391  50.432 -15.058  1.00  0.00    -0.357 N 
HETATM   24  C24 UNL     1       0.368  51.508 -15.517  1.00  0.00     0.014 A 
HETATM   25  C33 UNL     1       0.497  52.440 -14.546  1.00  0.00     0.039 A 
HETATM   26  C34 UNL     1      -0.234  51.927 -13.401  1.00  0.00     0.001 A 
HETATM   27  C35 UNL     1      -0.328  52.381 -12.136  1.00  0.00    -0.027 C 
HETATM   28  C36 UNL     1       0.312  53.654 -11.646  1.00  0.00     0.041 C 
HETATM   29  C37 UNL     1      -0.427  54.315 -10.487  1.00  0.00     0.050 C 
HETATM   30  C38 UNL     1      -1.074  53.375  -9.447  1.00  0.00     0.136 C 
HETATM   31  C39 UNL     1      -1.953  52.369 -10.211  1.00  0.00     0.199 C 
HETATM   32  C40 UNL     1       1.678  55.528  -6.180  1.00  0.00     0.044 C 
HETATM   33  H30 UNL     1      -0.839  49.772 -15.678  1.00  0.00     0.166 HD
ENDROOT
BRANCH  24  34
HETATM   34  C25 UNL     1       0.978  51.489 -16.897  1.00  0.00     0.035 C 
HETATM   35  C26 UNL     1       2.236  52.372 -16.890  1.00  0.00     0.017 C 
BRANCH  34  36
HETATM   36  C27 UNL     1      -0.021  51.849 -18.035  1.00  0.00    -0.005 C 
HETATM   37  C28 UNL     1      -0.160  50.680 -19.037  1.00  0.00     0.005 C 
HETATM   38  C29 UNL     1      -0.591  51.144 -20.425  1.00  0.00     0.000 C 
HETATM   39  C30 UNL     1       0.444  52.087 -21.050  1.00  0.00     0.000 C 
HETATM   40  C31 UNL     1       1.193  52.925 -20.015  1.00  0.00     0.000 C 
HETATM   41  C32 UNL     1       0.334  53.163 -18.771  1.00  0.00     0.005 C 
ENDBRANCH  34  36
ENDBRANCH  24  34
BRANCH  21  42
HETATM   42  C20 UNL     1      -2.378  48.742 -13.307  1.00  0.00     0.069 C 
BRANCH  42  43
HETATM   43  C21 UNL     1      -3.008  48.093 -12.059  1.00  0.00     0.033 C 
BRANCH  43  44
HETATM   44  C22 UNL     1      -4.531  48.134 -12.122  1.00  0.00     0.164 C 
BRANCH  44  45
HETATM   45  O7  UNL     1      -4.978  47.319 -13.205  1.00  0.00    -0.401 OA
HETATM   46  H29 UNL     1      -5.942  47.482 -13.300  1.00  0.00     0.209 HD
ENDBRANCH  44  45
ENDBRANCH  43  44
ENDBRANCH  42  43
ENDBRANCH  21  42
BRANCH  31  47
HETATM   47  O9  UNL     1      -2.960  53.081 -10.960  1.00  0.00    -0.389 OA
HETATM   48  H53 UNL     1      -3.359  53.685 -10.314  1.00  0.00     0.210 HD
ENDBRANCH  31  47
BRANCH  30  49
HETATM   49  O8  UNL     1      -1.933  54.257  -8.666  1.00  0.00    -0.382 OA
HETATM   50  H51 UNL     1      -2.265  53.750  -7.896  1.00  0.00     0.210 HD
ENDBRANCH  30  49
BRANCH  32  51
HETATM   51  C41 UNL     1       1.498  57.025  -5.828  1.00  0.00     0.120 C 
BRANCH  51  52
HETATM   52  C42 UNL     1       0.340  57.297  -4.899  1.00  0.00     0.140 C 
HETATM   53  O10 UNL     1      -0.813  56.901  -4.980  1.00  0.00    -0.650 OA
BRANCH  52  54
HETATM   54  O11 UNL     1       0.697  58.132  -3.890  1.00  0.00    -0.776 OA
HETATM   55  H57 UNL     1      -0.132  58.231  -3.374  1.00  0.00     0.167 HD
ENDBRANCH  52  54
ENDBRANCH  51  52
ENDBRANCH  32  51
BRANCH   1  56
HETATM   56  C2  UNL     1       3.280  54.936  -4.121  1.00  0.00     0.289 C 
HETATM   57  O2  UNL     1       2.540  54.885  -3.143  1.00  0.00    -0.260 OA
BRANCH  56  58
HETATM   58  O1  UNL     1       4.619  55.134  -4.061  1.00  0.00    -0.323 OA
HETATM   59  C1  UNL     1       5.068  55.704  -2.830  1.00  0.00     0.213 C 
ENDBRANCH  56  58
ENDBRANCH   1  56
TORSDOF 13
ENDMDL
MODEL 3
REMARK minimizedAffinity -6.72848129
REMARK CNNscore 0.240499929
REMARK CNNaffinity 6.18545532
REMARK  13 active torsions:
REMARK  status: ('A' for Active; 'I' for Inactive)
REMARK    1  A    between atoms: O1_2  and  C2_3 
REMARK    2  A    between atoms: C2_3  and  C3_5 
REMARK    3  A    between atoms: C19_25  and  C20_26 
REMARK    4  A    between atoms: C20_26  and  C21_27 
REMARK    5  A    between atoms: C21_27  and  C22_28 
REMARK    6  A    between atoms: C22_28  and  O7_29 
REMARK    7  A    between atoms: C24_32  and  C25_33 
REMARK    8  A    between atoms: C25_33  and  C27_35 
REMARK    9  A    between atoms: C38_46  and  O8_47 
REMARK   10  A    between atoms: C39_48  and  O9_49 
REMARK   11  A    between atoms: C40_50  and  C41_51 
REMARK   12  A    between atoms: C41_51  and  C42_52 
REMARK   13  A    between atoms: C42_52  and  O11_54 
ROOT
HETATM    1  C3  UNL     1      13.368  52.498  -1.814  1.00  0.00     0.019 C 
HETATM    2  C4  UNL     1      12.101  52.399  -1.364  1.00  0.00    -0.006 C 
HETATM    3  C5  UNL     1      10.886  52.990  -2.048  1.00  0.00     0.043 C 
HETATM    4  C6  UNL     1      10.055  51.798  -2.635  1.00  0.00    -0.001 C 
HETATM    5  C7  UNL     1      10.856  50.885  -3.591  1.00  0.00     0.032 C 
HETATM    6  C8  UNL     1      11.406  51.471  -4.851  1.00  0.00    -0.030 C 
HETATM    7  C9  UNL     1      12.094  52.617  -4.985  1.00  0.00    -0.023 C 
HETATM    8  C10 UNL     1      12.463  53.644  -3.936  1.00  0.00     0.047 C 
HETATM    9  C11 UNL     1      11.248  54.086  -3.084  1.00  0.00     0.141 C 
HETATM   10  O3  UNL     1      11.654  55.282  -2.408  1.00  0.00    -0.351 OA
HETATM   11  C12 UNL     1      10.974  56.510  -2.728  1.00  0.00     0.297 C 
HETATM   12  O4  UNL     1       9.821  56.733  -1.907  1.00  0.00    -0.347 OA
HETATM   13  C13 UNL     1       8.635  57.306  -2.468  1.00  0.00     0.191 C 
HETATM   14  C14 UNL     1       7.495  56.274  -2.295  1.00  0.00     0.203 C 
HETATM   15  O5  UNL     1       7.946  55.007  -2.762  1.00  0.00    -0.388 OA
HETATM   16  C15 UNL     1       6.957  53.988  -2.707  1.00  0.00     0.167 C 
HETATM   17  C16 UNL     1       7.655  52.704  -2.275  1.00  0.00     0.027 C 
HETATM   18  C17 UNL     1       8.716  52.221  -3.287  1.00  0.00     0.007 C 
HETATM   19  C18 UNL     1       8.726  58.042  -3.858  1.00  0.00     0.148 C 
HETATM   20  O6  UNL     1       8.038  59.326  -3.687  1.00  0.00    -0.332 OA
HETATM   21  C19 UNL     1       6.726  59.440  -4.099  1.00  0.00     0.075 C 
HETATM   22  C23 UNL     1       6.172  58.554  -4.936  1.00  0.00     0.072 A 
HETATM   23  N1  UNL     1       4.936  58.415  -5.503  1.00  0.00    -0.357 N 
HETATM   24  C24 UNL     1       4.927  57.370  -6.426  1.00  0.00     0.014 A 
HETATM   25  C33 UNL     1       6.133  56.758  -6.454  1.00  0.00     0.039 A 
HETATM   26  C34 UNL     1       6.961  57.464  -5.493  1.00  0.00     0.001 A 
HETATM   27  C35 UNL     1       8.196  57.198  -5.026  1.00  0.00    -0.027 C 
HETATM   28  C36 UNL     1       9.051  56.054  -5.505  1.00  0.00     0.041 C 
HETATM   29  C37 UNL     1      10.551  56.312  -5.397  1.00  0.00     0.050 C 
HETATM   30  C38 UNL     1      11.032  57.121  -4.172  1.00  0.00     0.136 C 
HETATM   31  C39 UNL     1      10.204  58.417  -4.116  1.00  0.00     0.199 C 
HETATM   32  C40 UNL     1      13.719  53.326  -3.050  1.00  0.00     0.044 C 
HETATM   33  H30 UNL     1       4.258  59.165  -5.516  1.00  0.00     0.166 HD
ENDROOT
BRANCH  24  34
HETATM   34  C25 UNL     1       3.667  57.013  -7.176  1.00  0.00     0.035 C 
HETATM   35  C26 UNL     1       2.504  56.943  -6.175  1.00  0.00     0.017 C 
BRANCH  34  36
HETATM   36  C27 UNL     1       3.797  55.739  -8.061  1.00  0.00    -0.005 C 
HETATM   37  C28 UNL     1       5.191  55.668  -8.725  1.00  0.00     0.005 C 
HETATM   38  C29 UNL     1       5.187  54.855 -10.015  1.00  0.00     0.000 C 
HETATM   39  C30 UNL     1       4.270  55.482 -11.072  1.00  0.00     0.000 C 
HETATM   40  C31 UNL     1       3.074  56.216 -10.469  1.00  0.00     0.000 C 
HETATM   41  C32 UNL     1       2.677  55.610  -9.121  1.00  0.00     0.005 C 
ENDBRANCH  34  36
ENDBRANCH  24  34
BRANCH  21  42
HETATM   42  C20 UNL     1       6.001  60.638  -3.555  1.00  0.00     0.069 C 
BRANCH  42  43
HETATM   43  C21 UNL     1       4.970  60.223  -2.487  1.00  0.00     0.033 C 
BRANCH  43  44
HETATM   44  C22 UNL     1       3.551  60.577  -2.917  1.00  0.00     0.164 C 
BRANCH  44  45
HETATM   45  O7  UNL     1       2.917  59.413  -3.444  1.00  0.00    -0.401 OA
HETATM   46  H29 UNL     1       2.066  59.709  -3.836  1.00  0.00     0.209 HD
ENDBRANCH  44  45
ENDBRANCH  43  44
ENDBRANCH  42  43
ENDBRANCH  21  42
BRANCH  31  47
HETATM   47  O9  UNL     1      10.397  59.164  -5.337  1.00  0.00    -0.389 OA
HETATM   48  H53 UNL     1      11.360  59.204  -5.446  1.00  0.00     0.210 HD
ENDBRANCH  31  47
BRANCH  30  49
HETATM   49  O8  UNL     1      12.414  57.455  -4.495  1.00  0.00    -0.382 OA
HETATM   50  H51 UNL     1      12.824  57.847  -3.697  1.00  0.00     0.210 HD
ENDBRANCH  30  49
BRANCH  32  51
HETATM   51  C41 UNL     1      14.886  52.863  -3.956  1.00  0.00     0.120 C 
BRANCH  51  52
HETATM   52  C42 UNL     1      15.409  53.939  -4.875  1.00  0.00     0.140 C 
HETATM   53  O10 UNL     1      14.976  54.291  -5.963  1.00  0.00    -0.650 OA
BRANCH  52  54
HETATM   54  O11 UNL     1      16.531  54.516  -4.378  1.00  0.00    -0.776 OA
HETATM   55  H57 UNL     1      16.768  55.180  -5.061  1.00  0.00     0.167 HD
ENDBRANCH  52  54
ENDBRANCH  51  52
ENDBRANCH  32  51
BRANCH   1  56
HETATM   56  C2  UNL     1      14.368  51.810  -0.943  1.00  0.00     0.289 C 
HETATM   57  O2  UNL     1      15.299  52.380  -0.384  1.00  0.00    -0.260 OA
BRANCH  56  58
HETATM   58  O1  UNL     1      14.092  50.489  -0.824  1.00  0.00    -0.323 OA
HETATM   59  C1  UNL     1      14.554  49.698  -1.922  1.00  0.00     0.213 C 
ENDBRANCH  56  58
ENDBRANCH   1  56
TORSDOF 13
ENDMDL
MODEL 4
REMARK minimizedAffinity -8.99756622
REMARK CNNscore 0.222710714
REMARK CNNaffinity 6.37865591
REMARK  13 active torsions:
REMARK  status: ('A' for Active; 'I' for Inactive)
REMARK    1  A    between atoms: O1_2  and  C2_3 
REMARK    2  A    between atoms: C2_3  and  C3_5 
REMARK    3  A    between atoms: C19_25  and  C20_26 
REMARK    4  A    between atoms: C20_26  and  C21_27 
REMARK    5  A    between atoms: C21_27  and  C22_28 
REMARK    6  A    between atoms: C22_28  and  O7_29 
REMARK    7  A    between atoms: C24_32  and  C25_33 
REMARK    8  A    between atoms: C25_33  and  C27_35 
REMARK    9  A    between atoms: C38_46  and  O8_47 
REMARK   10  A    between atoms: C39_48  and  O9_49 
REMARK   11  A    between atoms: C40_50  and  C41_51 
REMARK   12  A    between atoms: C41_51  and  C42_52 
REMARK   13  A    between atoms: C42_52  and  O11_54 
ROOT
HETATM    1  C3  UNL     1      -6.164  45.725 -31.492  1.00  0.00     0.019 C 
HETATM    2  C4  UNL     1      -6.745  44.626 -30.970  1.00  0.00    -0.006 C 
HETATM    3  C5  UNL     1      -8.125  44.583 -30.346  1.00  0.00     0.043 C 
HETATM    4  C6  UNL     1      -9.054  43.786 -31.323  1.00  0.00    -0.001 C 
HETATM    5  C7  UNL     1      -9.098  44.360 -32.758  1.00  0.00     0.032 C 
HETATM    6  C8  UNL     1      -9.624  45.745 -32.962  1.00  0.00    -0.030 C 
HETATM    7  C9  UNL     1      -9.298  46.850 -32.272  1.00  0.00    -0.023 C 
HETATM    8  C10 UNL     1      -8.363  47.006 -31.091  1.00  0.00     0.047 C 
HETATM    9  C11 UNL     1      -8.659  45.987 -29.963  1.00  0.00     0.141 C 
HETATM   10  O3  UNL     1      -7.969  46.473 -28.804  1.00  0.00    -0.351 OA
HETATM   11  C12 UNL     1      -8.751  46.883 -27.667  1.00  0.00     0.297 C 
HETATM   12  O4  UNL     1      -9.011  45.806 -26.758  1.00  0.00    -0.347 OA
HETATM   13  C13 UNL     1     -10.283  45.701 -26.107  1.00  0.00     0.191 C 
HETATM   14  C14 UNL     1     -10.910  44.352 -26.534  1.00  0.00     0.203 C 
HETATM   15  O5  UNL     1     -10.839  44.239 -27.952  1.00  0.00    -0.388 OA
HETATM   16  C15 UNL     1     -11.443  43.059 -28.466  1.00  0.00     0.167 C 
HETATM   17  C16 UNL     1     -10.566  42.565 -29.610  1.00  0.00     0.027 C 
HETATM   18  C17 UNL     1     -10.490  43.559 -30.788  1.00  0.00     0.007 C 
HETATM   19  C18 UNL     1     -11.235  46.955 -26.085  1.00  0.00     0.148 C 
HETATM   20  O6  UNL     1     -11.683  47.104 -24.696  1.00  0.00    -0.332 OA
HETATM   21  C19 UNL     1     -12.912  46.592 -24.333  1.00  0.00     0.075 C 
HETATM   22  C23 UNL     1     -13.839  46.272 -25.246  1.00  0.00     0.072 A 
HETATM   23  N1  UNL     1     -15.107  45.765 -25.187  1.00  0.00    -0.357 N 
HETATM   24  C24 UNL     1     -15.695  45.751 -26.450  1.00  0.00     0.014 A 
HETATM   25  C33 UNL     1     -14.819  46.191 -27.382  1.00  0.00     0.039 A 
HETATM   26  C34 UNL     1     -13.600  46.513 -26.662  1.00  0.00     0.001 A 
HETATM   27  C35 UNL     1     -12.378  46.867 -27.106  1.00  0.00    -0.027 C 
HETATM   28  C36 UNL     1     -12.035  47.075 -28.557  1.00  0.00     0.041 C 
HETATM   29  C37 UNL     1     -10.908  48.075 -28.792  1.00  0.00     0.050 C 
HETATM   30  C38 UNL     1      -9.758  48.083 -27.762  1.00  0.00     0.136 C 
HETATM   31  C39 UNL     1     -10.386  48.218 -26.363  1.00  0.00     0.199 C 
HETATM   32  C40 UNL     1      -6.830  47.099 -31.414  1.00  0.00     0.044 C 
HETATM   33  H30 UNL     1     -15.643  45.747 -24.330  1.00  0.00     0.166 HD
ENDROOT
BRANCH  24  34
HETATM   34  C25 UNL     1     -17.095  45.221 -26.644  1.00  0.00     0.035 C 
HETATM   35  C26 UNL     1     -17.842  45.307 -25.303  1.00  0.00     0.017 C 
BRANCH  34  36
HETATM   36  C27 UNL     1     -17.153  43.807 -27.292  1.00  0.00    -0.005 C 
HETATM   37  C28 UNL     1     -17.092  43.904 -28.833  1.00  0.00     0.005 C 
HETATM   38  C29 UNL     1     -17.738  42.707 -29.523  1.00  0.00     0.000 C 
HETATM   39  C30 UNL     1     -19.231  42.602 -29.187  1.00  0.00     0.000 C 
HETATM   40  C31 UNL     1     -19.568  43.125 -27.792  1.00  0.00     0.000 C 
HETATM   41  C32 UNL     1     -18.378  42.975 -26.843  1.00  0.00     0.005 C 
ENDBRANCH  34  36
ENDBRANCH  24  34
BRANCH  21  42
HETATM   42  C20 UNL     1     -13.120  46.454 -22.852  1.00  0.00     0.069 C 
BRANCH  42  43
HETATM   43  C21 UNL     1     -14.394  47.194 -22.401  1.00  0.00     0.033 C 
BRANCH  43  44
HETATM   44  C22 UNL     1     -15.352  46.258 -21.672  1.00  0.00     0.164 C 
BRANCH  44  45
HETATM   45  O7  UNL     1     -16.695  46.614 -22.000  1.00  0.00    -0.401 OA
HETATM   46  H29 UNL     1     -17.277  46.088 -21.409  1.00  0.00     0.209 HD
ENDBRANCH  44  45
ENDBRANCH  43  44
ENDBRANCH  42  43
ENDBRANCH  21  42
BRANCH  31  47
HETATM   47  O9  UNL     1     -11.150  49.443 -26.295  1.00  0.00    -0.389 OA
HETATM   48  H53 UNL     1     -10.543  50.124 -26.626  1.00  0.00     0.210 HD
ENDBRANCH  31  47
BRANCH  30  49
HETATM   49  O8  UNL     1      -9.021  49.302 -28.070  1.00  0.00    -0.382 OA
HETATM   50  H51 UNL     1      -8.194  49.296 -27.545  1.00  0.00     0.210 HD
ENDBRANCH  30  49
BRANCH  32  51
HETATM   51  C41 UNL     1      -6.606  48.107 -32.567  1.00  0.00     0.120 C 
BRANCH  51  52
HETATM   52  C42 UNL     1      -6.034  47.485 -33.818  1.00  0.00     0.140 C 
HETATM   53  O10 UNL     1      -4.889  47.542 -34.244  1.00  0.00    -0.650 OA
BRANCH  52  54
HETATM   54  O11 UNL     1      -6.986  46.831 -34.528  1.00  0.00    -0.776 OA
HETATM   55  H57 UNL     1      -6.494  46.486 -35.305  1.00  0.00     0.167 HD
ENDBRANCH  52  54
ENDBRANCH  51  52
ENDBRANCH  32  51
BRANCH   1  56
HETATM   56  C2  UNL     1      -4.802  45.474 -32.050  1.00  0.00     0.289 C 
HETATM   57  O2  UNL     1      -3.799  46.099 -31.720  1.00  0.00    -0.260 OA
BRANCH  56  58
HETATM   58  O1  UNL     1      -4.812  44.448 -32.935  1.00  0.00    -0.323 OA
HETATM   59  C1  UNL     1      -3.877  43.410 -32.633  1.00  0.00     0.213 C 
ENDBRANCH  56  58
ENDBRANCH   1  56
TORSDOF 13
ENDMDL
MODEL 5
REMARK minimizedAffinity -7.64508057
REMARK CNNscore 0.207264677
REMARK CNNaffinity 6.2045207
REMARK  13 active torsions:
REMARK  status: ('A' for Active; 'I' for Inactive)
REMARK    1  A    between atoms: O1_2  and  C2_3 
REMARK    2  A    between atoms: C2_3  and  C3_5 
REMARK    3  A    between atoms: C19_25  and  C20_26 
REMARK    4  A    between atoms: C20_26  and  C21_27 
REMARK    5  A    between atoms: C21_27  and  C22_28 
REMARK    6  A    between atoms: C22_28  and  O7_29 
REMARK    7  A    between atoms: C24_32  and  C25_33 
REMARK    8  A    between atoms: C25_33  and  C27_35 
REMARK    9  A    between atoms: C38_46  and  O8_47 
REMARK   10  A    between atoms: C39_48  and  O9_49 
REMARK   11  A    between atoms: C40_50  and  C41_51 
REMARK   12  A    between atoms: C41_51  and  C42_52 
REMARK   13  A    between atoms: C42_52  and  O11_54 
ROOT
HETATM    1  C3  UNL     1      -1.857  53.766  -9.798  1.00  0.00     0.019 C 
HETATM    2  C4  UNL     1      -0.986  54.670 -10.290  1.00  0.00    -0.006 C 
HETATM    3  C5  UNL     1       0.341  55.034  -9.659  1.00  0.00     0.043 C 
HETATM    4  C6  UNL     1       1.470  54.449 -10.575  1.00  0.00    -0.001 C 
HETATM    5  C7  UNL     1       1.355  52.926 -10.819  1.00  0.00     0.032 C 
HETATM    6  C8  UNL     1       1.459  52.002  -9.648  1.00  0.00    -0.030 C 
HETATM    7  C9  UNL     1       0.821  52.104  -8.471  1.00  0.00    -0.023 C 
HETATM    8  C10 UNL     1      -0.128  53.178  -7.981  1.00  0.00     0.047 C 
HETATM    9  C11 UNL     1       0.442  54.605  -8.172  1.00  0.00     0.141 C 
HETATM   10  O3  UNL     1      -0.368  55.464  -7.360  1.00  0.00    -0.351 OA
HETATM   11  C12 UNL     1       0.253  56.134  -6.247  1.00  0.00     0.297 C 
HETATM   12  O4  UNL     1       0.807  57.405  -6.607  1.00  0.00    -0.347 OA
HETATM   13  C13 UNL     1       2.050  57.838  -6.041  1.00  0.00     0.191 C 
HETATM   14  C14 UNL     1       3.045  58.039  -7.209  1.00  0.00     0.203 C 
HETATM   15  O5  UNL     1       3.020  56.882  -8.039  1.00  0.00    -0.388 OA
HETATM   16  C15 UNL     1       3.945  56.929  -9.118  1.00  0.00     0.167 C 
HETATM   17  C16 UNL     1       3.258  56.307 -10.328  1.00  0.00     0.027 C 
HETATM   18  C17 UNL     1       2.905  54.818 -10.126  1.00  0.00     0.007 C 
HETATM   19  C18 UNL     1       2.597  57.112  -4.754  1.00  0.00     0.148 C 
HETATM   20  O6  UNL     1       2.972  58.173  -3.814  1.00  0.00    -0.332 OA
HETATM   21  C19 UNL     1       4.294  58.562  -3.739  1.00  0.00     0.075 C 
HETATM   22  C23 UNL     1       5.280  57.801  -4.230  1.00  0.00     0.072 A 
HETATM   23  N1  UNL     1       6.640  57.920  -4.296  1.00  0.00    -0.357 N 
HETATM   24  C24 UNL     1       7.217  56.755  -4.799  1.00  0.00     0.014 A 
HETATM   25  C33 UNL     1       6.258  55.861  -5.131  1.00  0.00     0.039 A 
HETATM   26  C34 UNL     1       4.993  56.496  -4.810  1.00  0.00     0.001 A 
HETATM   27  C35 UNL     1       3.724  56.114  -5.055  1.00  0.00    -0.027 C 
HETATM   28  C36 UNL     1       3.347  54.810  -5.707  1.00  0.00     0.041 C 
HETATM   29  C37 UNL     1       1.979  54.279  -5.288  1.00  0.00     0.050 C 
HETATM   30  C38 UNL     1       0.869  55.326  -5.051  1.00  0.00     0.136 C 
HETATM   31  C39 UNL     1       1.420  56.376  -4.071  1.00  0.00     0.199 C 
HETATM   32  C40 UNL     1      -1.620  53.071  -8.457  1.00  0.00     0.044 C 
HETATM   33  H30 UNL     1       7.153  58.591  -3.740  1.00  0.00     0.166 HD
ENDROOT
BRANCH  24  34
HETATM   34  C25 UNL     1       8.712  56.649  -4.978  1.00  0.00     0.035 C 
HETATM   35  C26 UNL     1       9.131  55.189  -4.746  1.00  0.00     0.017 C 
BRANCH  34  36
HETATM   36  C27 UNL     1       9.525  57.666  -4.125  1.00  0.00    -0.005 C 
HETATM   37  C28 UNL     1       9.905  58.909  -4.963  1.00  0.00     0.005 C 
HETATM   38  C29 UNL     1      11.152  59.612  -4.439  1.00  0.00     0.000 C 
HETATM   39  C30 UNL     1      12.381  58.697  -4.500  1.00  0.00     0.000 C 
HETATM   40  C31 UNL     1      12.038  57.220  -4.315  1.00  0.00     0.000 C 
HETATM   41  C32 UNL     1      10.780  57.048  -3.462  1.00  0.00     0.005 C 
ENDBRANCH  34  36
ENDBRANCH  24  34
BRANCH  21  42
HETATM   42  C20 UNL     1       4.522  59.876  -3.049  1.00  0.00     0.069 C 
BRANCH  42  43
HETATM   43  C21 UNL     1       3.727  61.006  -3.732  1.00  0.00     0.033 C 
BRANCH  43  44
HETATM   44  C22 UNL     1       4.564  62.274  -3.862  1.00  0.00     0.164 C 
BRANCH  44  45
HETATM   45  O7  UNL     1       3.946  63.147  -4.807  1.00  0.00    -0.401 OA
HETATM   46  H29 UNL     1       4.580  63.881  -4.968  1.00  0.00     0.209 HD
ENDBRANCH  44  45
ENDBRANCH  43  44
ENDBRANCH  42  43
ENDBRANCH  21  42
BRANCH  31  47
HETATM   47  O9  UNL     1       1.795  55.731  -2.834  1.00  0.00    -0.389 OA
HETATM   48  H53 UNL     1       1.019  55.199  -2.595  1.00  0.00     0.210 HD
ENDBRANCH  31  47
BRANCH  30  49
HETATM   49  O8  UNL     1      -0.189  54.570  -4.390  1.00  0.00    -0.382 OA
HETATM   50  H51 UNL     1      -0.982  55.142  -4.339  1.00  0.00     0.210 HD
ENDBRANCH  30  49
BRANCH  32  51
HETATM   51  C41 UNL     1      -2.118  51.617  -8.269  1.00  0.00     0.120 C 
BRANCH  51  52
HETATM   52  C42 UNL     1      -2.357  50.881  -9.565  1.00  0.00     0.140 C 
HETATM   53  O10 UNL     1      -1.535  50.430 -10.349  1.00  0.00    -0.650 OA
BRANCH  52  54
HETATM   54  O11 UNL     1      -3.681  50.787  -9.847  1.00  0.00    -0.776 OA
HETATM   55  H57 UNL     1      -3.698  50.304 -10.701  1.00  0.00     0.167 HD
ENDBRANCH  52  54
ENDBRANCH  51  52
ENDBRANCH  32  51
BRANCH   1  56
HETATM   56  C2  UNL     1      -3.084  53.600 -10.633  1.00  0.00     0.289 C 
HETATM   57  O2  UNL     1      -4.215  53.898 -10.260  1.00  0.00    -0.260 OA
BRANCH  56  58
HETATM   58  O1  UNL     1      -2.783  53.114 -11.861  1.00  0.00    -0.323 OA
HETATM   59  C1  UNL     1      -3.924  52.883 -12.690  1.00  0.00     0.213 C 
ENDBRANCH  56  58
ENDBRANCH   1  56
TORSDOF 13
ENDMDL
MODEL 6
REMARK minimizedAffinity -9.81454182
REMARK CNNscore 0.188308507
REMARK CNNaffinity 6.1012845
REMARK  13 active torsions:
REMARK  status: ('A' for Active; 'I' for Inactive)
REMARK    1  A    between atoms: O1_2  and  C2_3 
REMARK    2  A    between atoms: C2_3  and  C3_5 
REMARK    3  A    between atoms: C19_25  and  C20_26 
REMARK    4  A    between atoms: C20_26  and  C21_27 
REMARK    5  A    between atoms: C21_27  and  C22_28 
REMARK    6  A    between atoms: C22_28  and  O7_29 
REMARK    7  A    between atoms: C24_32  and  C25_33 
REMARK    8  A    between atoms: C25_33  and  C27_35 
REMARK    9  A    between atoms: C38_46  and  O8_47 
REMARK   10  A    between atoms: C39_48  and  O9_49 
REMARK   11  A    between atoms: C40_50  and  C41_51 
REMARK   12  A    between atoms: C41_51  and  C42_52 
REMARK   13  A    between atoms: C42_52  and  O11_54 
ROOT
HETATM    1  C3  UNL     1      -6.510  44.993 -31.481  1.00  0.00     0.019 C 
HETATM    2  C4  UNL     1      -7.059  43.969 -30.798  1.00  0.00    -0.006 C 
HETATM    3  C5  UNL     1      -8.381  44.024 -30.059  1.00  0.00     0.043 C 
HETATM    4  C6  UNL     1      -9.402  43.150 -30.865  1.00  0.00    -0.001 C 
HETATM    5  C7  UNL     1      -9.560  43.570 -32.344  1.00  0.00     0.032 C 
HETATM    6  C8  UNL     1     -10.082  44.937 -32.650  1.00  0.00    -0.030 C 
HETATM    7  C9  UNL     1      -9.683  46.101 -32.112  1.00  0.00    -0.023 C 
HETATM    8  C10 UNL     1      -8.649  46.360 -31.037  1.00  0.00     0.047 C 
HETATM    9  C11 UNL     1      -8.861  45.473 -29.785  1.00  0.00     0.141 C 
HETATM   10  O3  UNL     1      -8.068  46.062 -28.747  1.00  0.00    -0.351 OA
HETATM   11  C12 UNL     1      -8.744  46.608 -27.599  1.00  0.00     0.297 C 
HETATM   12  O4  UNL     1      -8.940  45.639 -26.561  1.00  0.00    -0.347 OA
HETATM   13  C13 UNL     1     -10.153  45.632 -25.800  1.00  0.00     0.191 C 
HETATM   14  C14 UNL     1     -10.833  44.261 -26.026  1.00  0.00     0.203 C 
HETATM   15  O5  UNL     1     -10.885  43.997 -27.424  1.00  0.00    -0.388 OA
HETATM   16  C15 UNL     1     -11.547  42.784 -27.756  1.00  0.00     0.167 C 
HETATM   17  C16 UNL     1     -10.778  42.152 -28.910  1.00  0.00     0.027 C 
HETATM   18  C17 UNL     1     -10.789  43.014 -30.190  1.00  0.00     0.007 C 
HETATM   19  C18 UNL     1     -11.082  46.904 -25.832  1.00  0.00     0.148 C 
HETATM   20  O6  UNL     1     -11.407  47.208 -24.435  1.00  0.00    -0.332 OA
HETATM   21  C19 UNL     1     -12.608  46.766 -23.917  1.00  0.00     0.075 C 
HETATM   22  C23 UNL     1     -13.614  46.373 -24.710  1.00  0.00     0.072 A 
HETATM   23  N1  UNL     1     -14.879  45.904 -24.491  1.00  0.00    -0.357 N 
HETATM   24  C24 UNL     1     -15.574  45.770 -25.692  1.00  0.00     0.014 A 
HETATM   25  C33 UNL     1     -14.774  46.090 -26.736  1.00  0.00     0.039 A 
HETATM   26  C34 UNL     1     -13.494  46.458 -26.159  1.00  0.00     0.001 A 
HETATM   27  C35 UNL     1     -12.310  46.734 -26.738  1.00  0.00    -0.027 C 
HETATM   28  C36 UNL     1     -12.089  46.780 -28.228  1.00  0.00     0.041 C 
HETATM   29  C37 UNL     1     -10.972  47.724 -28.662  1.00  0.00     0.050 C 
HETATM   30  C38 UNL     1      -9.738  47.814 -27.737  1.00  0.00     0.136 C 
HETATM   31  C39 UNL     1     -10.243  48.111 -26.314  1.00  0.00     0.199 C 
HETATM   32  C40 UNL     1      -7.147  46.383 -31.495  1.00  0.00     0.044 C 
HETATM   33  H30 UNL     1     -15.340  45.989 -23.596  1.00  0.00     0.166 HD
ENDROOT
BRANCH  24  34
HETATM   34  C25 UNL     1     -16.992  45.255 -25.710  1.00  0.00     0.035 C 
HETATM   35  C26 UNL     1     -17.451  45.132 -27.171  1.00  0.00     0.017 C 
BRANCH  34  36
HETATM   36  C27 UNL     1     -17.974  46.075 -24.823  1.00  0.00    -0.005 C 
HETATM   37  C28 UNL     1     -17.558  46.012 -23.336  1.00  0.00     0.005 C 
HETATM   38  C29 UNL     1     -18.731  46.235 -22.388  1.00  0.00     0.000 C 
HETATM   39  C30 UNL     1     -19.802  45.150 -22.551  1.00  0.00     0.000 C 
HETATM   40  C31 UNL     1     -19.890  44.605 -23.976  1.00  0.00     0.000 C 
HETATM   41  C32 UNL     1     -19.454  45.657 -24.997  1.00  0.00     0.005 C 
ENDBRANCH  34  36
ENDBRANCH  24  34
BRANCH  21  42
HETATM   42  C20 UNL     1     -12.691  46.790 -22.418  1.00  0.00     0.069 C 
BRANCH  42  43
HETATM   43  C21 UNL     1     -14.051  47.339 -21.947  1.00  0.00     0.033 C 
BRANCH  43  44
HETATM   44  C22 UNL     1     -14.016  47.719 -20.471  1.00  0.00     0.164 C 
BRANCH  44  45
HETATM   45  O7  UNL     1     -13.827  49.129 -20.355  1.00  0.00    -0.401 OA
HETATM   46  H29 UNL     1     -13.669  49.314 -19.403  1.00  0.00     0.209 HD
ENDBRANCH  44  45
ENDBRANCH  43  44
ENDBRANCH  42  43
ENDBRANCH  21  42
BRANCH  31  47
HETATM   47  O9  UNL     1     -10.980  49.352 -26.314  1.00  0.00    -0.389 OA
HETATM   48  H53 UNL     1     -10.394  49.981 -26.765  1.00  0.00     0.210 HD
ENDBRANCH  31  47
BRANCH  30  49
HETATM   49  O8  UNL     1      -9.013  48.976 -28.235  1.00  0.00    -0.382 OA
HETATM   50  H51 UNL     1      -8.145  49.007 -27.783  1.00  0.00     0.210 HD
ENDBRANCH  30  49
BRANCH  32  51
HETATM   51  C41 UNL     1      -7.009  47.258 -32.765  1.00  0.00     0.120 C 
BRANCH  51  52
HETATM   52  C42 UNL     1      -5.648  47.890 -32.924  1.00  0.00     0.140 C 
HETATM   53  O10 UNL     1      -5.027  48.118 -33.952  1.00  0.00    -0.650 OA
BRANCH  52  54
HETATM   54  O11 UNL     1      -5.088  48.176 -31.721  1.00  0.00    -0.776 OA
HETATM   55  H57 UNL     1      -4.221  48.567 -31.961  1.00  0.00     0.167 HD
ENDBRANCH  52  54
ENDBRANCH  51  52
ENDBRANCH  32  51
BRANCH   1  56
HETATM   56  C2  UNL     1      -5.204  44.654 -32.120  1.00  0.00     0.289 C 
HETATM   57  O2  UNL     1      -4.158  45.261 -31.911  1.00  0.00    -0.260 OA
BRANCH  56  58
HETATM   58  O1  UNL     1      -5.316  43.573 -32.929  1.00  0.00    -0.323 OA
HETATM   59  C1  UNL     1      -4.168  42.721 -32.924  1.00  0.00     0.213 C 
ENDBRANCH  56  58
ENDBRANCH   1  56
TORSDOF 13
ENDMDL
MODEL 7
REMARK minimizedAffinity -9.68510151
REMARK CNNscore 0.181986123
REMARK CNNaffinity 6.99659777
REMARK  13 active torsions:
REMARK  status: ('A' for Active; 'I' for Inactive)
REMARK    1  A    between atoms: O1_2  and  C2_3 
REMARK    2  A    between atoms: C2_3  and  C3_5 
REMARK    3  A    between atoms: C19_25  and  C20_26 
REMARK    4  A    between atoms: C20_26  and  C21_27 
REMARK    5  A    between atoms: C21_27  and  C22_28 
REMARK    6  A    between atoms: C22_28  and  O7_29 
REMARK    7  A    between atoms: C24_32  and  C25_33 
REMARK    8  A    between atoms: C25_33  and  C27_35 
REMARK    9  A    between atoms: C38_46  and  O8_47 
REMARK   10  A    between atoms: C39_48  and  O9_49 
REMARK   11  A    between atoms: C40_50  and  C41_51 
REMARK   12  A    between atoms: C41_51  and  C42_52 
REMARK   13  A    between atoms: C42_52  and  O11_54 
ROOT
HETATM    1  C3  UNL     1      -8.769  44.744 -22.999  1.00  0.00     0.019 C 
HETATM    2  C4  UNL     1      -7.479  44.440 -22.756  1.00  0.00    -0.006 C 
HETATM    3  C5  UNL     1      -6.445  45.403 -22.211  1.00  0.00     0.043 C 
HETATM    4  C6  UNL     1      -6.124  44.961 -20.742  1.00  0.00    -0.001 C 
HETATM    5  C7  UNL     1      -7.366  44.882 -19.824  1.00  0.00     0.032 C 
HETATM    6  C8  UNL     1      -8.145  46.131 -19.562  1.00  0.00    -0.030 C 
HETATM    7  C9  UNL     1      -8.572  47.030 -20.463  1.00  0.00    -0.023 C 
HETATM    8  C10 UNL     1      -8.356  47.066 -21.962  1.00  0.00     0.047 C 
HETATM    9  C11 UNL     1      -6.868  46.888 -22.351  1.00  0.00     0.141 C 
HETATM   10  O3  UNL     1      -6.768  47.297 -23.721  1.00  0.00    -0.351 OA
HETATM   11  C12 UNL     1      -5.974  48.458 -24.029  1.00  0.00     0.297 C 
HETATM   12  O4  UNL     1      -4.601  48.135 -24.283  1.00  0.00    -0.347 OA
HETATM   13  C13 UNL     1      -3.558  49.002 -23.820  1.00  0.00     0.191 C 
HETATM   14  C14 UNL     1      -2.677  48.185 -22.845  1.00  0.00     0.203 C 
HETATM   15  O5  UNL     1      -3.518  47.537 -21.897  1.00  0.00    -0.388 OA
HETATM   16  C15 UNL     1      -2.810  46.801 -20.908  1.00  0.00     0.167 C 
HETATM   17  C16 UNL     1      -3.597  45.523 -20.646  1.00  0.00     0.027 C 
HETATM   18  C17 UNL     1      -5.002  45.785 -20.064  1.00  0.00     0.007 C 
HETATM   19  C18 UNL     1      -3.922  50.473 -23.391  1.00  0.00     0.148 C 
HETATM   20  O6  UNL     1      -2.953  51.346 -24.061  1.00  0.00    -0.332 OA
HETATM   21  C19 UNL     1      -1.847  51.780 -23.358  1.00  0.00     0.075 C 
HETATM   22  C23 UNL     1      -1.795  51.717 -22.021  1.00  0.00     0.072 A 
HETATM   23  N1  UNL     1      -0.864  52.063 -21.082  1.00  0.00    -0.357 N 
HETATM   24  C24 UNL     1      -1.377  51.910 -19.795  1.00  0.00     0.014 A 
HETATM   25  C33 UNL     1      -2.632  51.408 -19.845  1.00  0.00     0.039 A 
HETATM   26  C34 UNL     1      -2.937  51.240 -21.255  1.00  0.00     0.001 A 
HETATM   27  C35 UNL     1      -3.988  50.662 -21.869  1.00  0.00    -0.027 C 
HETATM   28  C36 UNL     1      -5.178  50.090 -21.145  1.00  0.00     0.041 C 
HETATM   29  C37 UNL     1      -6.472  50.124 -21.953  1.00  0.00     0.050 C 
HETATM   30  C38 UNL     1      -6.352  49.875 -23.472  1.00  0.00     0.136 C 
HETATM   31  C39 UNL     1      -5.287  50.842 -24.020  1.00  0.00     0.199 C 
HETATM   32  C40 UNL     1      -9.304  46.167 -22.832  1.00  0.00     0.044 C 
HETATM   33  H30 UNL     1      -0.079  52.663 -21.293  1.00  0.00     0.166 HD
ENDROOT
BRANCH  24  34
HETATM   34  C25 UNL     1      -0.529  52.218 -18.585  1.00  0.00     0.035 C 
HETATM   35  C26 UNL     1       0.361  53.428 -18.905  1.00  0.00     0.017 C 
BRANCH  34  36
HETATM   36  C27 UNL     1       0.265  50.996 -18.040  1.00  0.00    -0.005 C 
HETATM   37  C28 UNL     1      -0.695  49.876 -17.578  1.00  0.00     0.005 C 
HETATM   38  C29 UNL     1      -0.076  48.970 -16.519  1.00  0.00     0.000 C 
HETATM   39  C30 UNL     1       0.273  49.750 -15.245  1.00  0.00     0.000 C 
HETATM   40  C31 UNL     1       0.653  51.204 -15.519  1.00  0.00     0.000 C 
HETATM   41  C32 UNL     1       1.261  51.362 -16.914  1.00  0.00     0.005 C 
ENDBRANCH  34  36
ENDBRANCH  24  34
BRANCH  21  42
HETATM   42  C20 UNL     1      -0.745  52.341 -24.209  1.00  0.00     0.069 C 
BRANCH  42  43
HETATM   43  C21 UNL     1      -0.399  51.386 -25.368  1.00  0.00     0.033 C 
BRANCH  43  44
HETATM   44  C22 UNL     1       1.013  51.631 -25.888  1.00  0.00     0.164 C 
BRANCH  44  45
HETATM   45  O7  UNL     1       1.040  52.864 -26.607  1.00  0.00    -0.401 OA
HETATM   46  H29 UNL     1       1.919  52.917 -27.042  1.00  0.00     0.209 HD
ENDBRANCH  44  45
ENDBRANCH  43  44
ENDBRANCH  42  43
ENDBRANCH  21  42
BRANCH  31  47
HETATM   47  O9  UNL     1      -5.688  52.203 -23.750  1.00  0.00    -0.389 OA
HETATM   48  H53 UNL     1      -6.603  52.252 -24.069  1.00  0.00     0.210 HD
ENDBRANCH  31  47
BRANCH  30  49
HETATM   49  O8  UNL     1      -7.656  50.262 -23.994  1.00  0.00    -0.382 OA
HETATM   50  H51 UNL     1      -7.696  49.993 -24.935  1.00  0.00     0.210 HD
ENDBRANCH  30  49
BRANCH  32  51
HETATM   51  C41 UNL     1     -10.770  46.367 -22.373  1.00  0.00     0.120 C 
BRANCH  51  52
HETATM   52  C42 UNL     1     -11.739  46.587 -23.508  1.00  0.00     0.140 C 
HETATM   53  O10 UNL     1     -12.874  46.151 -23.639  1.00  0.00    -0.650 OA
BRANCH  52  54
HETATM   54  O11 UNL     1     -11.189  47.342 -24.493  1.00  0.00    -0.776 OA
HETATM   55  H57 UNL     1     -11.906  47.402 -25.160  1.00  0.00     0.167 HD
ENDBRANCH  52  54
ENDBRANCH  51  52
ENDBRANCH  32  51
BRANCH   1  56
HETATM   56  C2  UNL     1      -9.566  43.596 -23.526  1.00  0.00     0.289 C 
HETATM   57  O2  UNL     1      -9.786  42.566 -22.896  1.00  0.00    -0.260 OA
BRANCH  56  58
HETATM   58  O1  UNL     1     -10.040  43.854 -24.769  1.00  0.00    -0.323 OA
HETATM   59  C1  UNL     1      -9.125  43.530 -25.818  1.00  0.00     0.213 C 
ENDBRANCH  56  58
ENDBRANCH   1  56
TORSDOF 13
ENDMDL
MODEL 8
REMARK minimizedAffinity -9.75167751
REMARK CNNscore 0.180430815
REMARK CNNaffinity 7.45094109
REMARK  13 active torsions:
REMARK  status: ('A' for Active; 'I' for Inactive)
REMARK    1  A    between atoms: O1_2  and  C2_3 
REMARK    2  A    between atoms: C2_3  and  C3_5 
REMARK    3  A    between atoms: C19_25  and  C20_26 
REMARK    4  A    between atoms: C20_26  and  C21_27 
REMARK    5  A    between atoms: C21_27  and  C22_28 
REMARK    6  A    between atoms: C22_28  and  O7_29 
REMARK    7  A    between atoms: C24_32  and  C25_33 
REMARK    8  A    between atoms: C25_33  and  C27_35 
REMARK    9  A    between atoms: C38_46  and  O8_47 
REMARK   10  A    between atoms: C39_48  and  O9_49 
REMARK   11  A    between atoms: C40_50  and  C41_51 
REMARK   12  A    between atoms: C41_51  and  C42_52 
REMARK   13  A    between atoms: C42_52  and  O11_54 
ROOT
HETATM    1  C3  UNL     1      -8.851  44.908 -19.500  1.00  0.00     0.019 C 
HETATM    2  C4  UNL     1      -9.074  46.163 -19.939  1.00  0.00    -0.006 C 
HETATM    3  C5  UNL     1      -8.049  47.042 -20.623  1.00  0.00     0.043 C 
HETATM    4  C6  UNL     1      -8.467  47.163 -22.128  1.00  0.00    -0.001 C 
HETATM    5  C7  UNL     1      -8.621  45.803 -22.848  1.00  0.00     0.032 C 
HETATM    6  C8  UNL     1      -7.422  44.919 -22.976  1.00  0.00    -0.030 C 
HETATM    7  C9  UNL     1      -6.553  44.580 -22.011  1.00  0.00    -0.023 C 
HETATM    8  C10 UNL     1      -6.506  45.018 -20.562  1.00  0.00     0.047 C 
HETATM    9  C11 UNL     1      -6.593  46.555 -20.404  1.00  0.00     0.141 C 
HETATM   10  O3  UNL     1      -6.181  46.837 -19.060  1.00  0.00    -0.351 OA
HETATM   11  C12 UNL     1      -4.974  47.597 -18.862  1.00  0.00     0.297 C 
HETATM   12  O4  UNL     1      -5.212  49.010 -18.823  1.00  0.00    -0.347 OA
HETATM   13  C13 UNL     1      -4.282  49.916 -19.428  1.00  0.00     0.191 C 
HETATM   14  C14 UNL     1      -5.041  50.687 -20.534  1.00  0.00     0.203 C 
HETATM   15  O5  UNL     1      -5.739  49.753 -21.351  1.00  0.00    -0.388 OA
HETATM   16  C15 UNL     1      -6.427  50.347 -22.444  1.00  0.00     0.167 C 
HETATM   17  C16 UNL     1      -7.751  49.608 -22.598  1.00  0.00     0.027 C 
HETATM   18  C17 UNL     1      -7.575  48.117 -22.959  1.00  0.00     0.007 C 
HETATM   19  C18 UNL     1      -2.835  49.403 -19.780  1.00  0.00     0.148 C 
HETATM   20  O6  UNL     1      -1.905  50.407 -19.255  1.00  0.00    -0.332 OA
HETATM   21  C19 UNL     1      -1.403  51.366 -20.112  1.00  0.00     0.075 C 
HETATM   22  C23 UNL     1      -1.461  51.219 -21.442  1.00  0.00     0.072 A 
HETATM   23  N1  UNL     1      -1.057  51.974 -22.507  1.00  0.00    -0.357 N 
HETATM   24  C24 UNL     1      -1.238  51.283 -23.704  1.00  0.00     0.014 A 
HETATM   25  C33 UNL     1      -1.816  50.082 -23.470  1.00  0.00     0.039 A 
HETATM   26  C34 UNL     1      -2.006  50.005 -22.033  1.00  0.00     0.001 A 
HETATM   27  C35 UNL     1      -2.648  49.096 -21.273  1.00  0.00    -0.027 C 
HETATM   28  C36 UNL     1      -3.291  47.846 -21.815  1.00  0.00     0.041 C 
HETATM   29  C37 UNL     1      -3.338  46.690 -20.821  1.00  0.00     0.050 C 
HETATM   30  C38 UNL     1      -3.582  47.054 -19.340  1.00  0.00     0.136 C 
HETATM   31  C39 UNL     1      -2.552  48.129 -18.949  1.00  0.00     0.199 C 
HETATM   32  C40 UNL     1      -7.464  44.269 -19.569  1.00  0.00     0.044 C 
HETATM   33  H30 UNL     1      -0.409  52.744 -22.411  1.00  0.00     0.166 HD
ENDROOT
BRANCH  24  34
HETATM   34  C25 UNL     1      -0.876  51.917 -25.025  1.00  0.00     0.035 C 
HETATM   35  C26 UNL     1      -2.171  52.230 -25.790  1.00  0.00     0.017 C 
BRANCH  34  36
HETATM   36  C27 UNL     1       0.150  51.097 -25.860  1.00  0.00    -0.005 C 
HETATM   37  C28 UNL     1       1.594  51.577 -25.585  1.00  0.00     0.005 C 
HETATM   38  C29 UNL     1       2.539  51.290 -26.746  1.00  0.00     0.000 C 
HETATM   39  C30 UNL     1       2.107  52.025 -28.021  1.00  0.00     0.000 C 
HETATM   40  C31 UNL     1       0.595  52.213 -28.119  1.00  0.00     0.000 C 
HETATM   41  C32 UNL     1      -0.150  51.101 -27.378  1.00  0.00     0.005 C 
ENDBRANCH  34  36
ENDBRANCH  24  34
BRANCH  21  42
HETATM   42  C20 UNL     1      -0.777  52.548 -19.431  1.00  0.00     0.069 C 
BRANCH  42  43
HETATM   43  C21 UNL     1       0.655  52.789 -19.946  1.00  0.00     0.033 C 
BRANCH  43  44
HETATM   44  C22 UNL     1       0.786  54.157 -20.605  1.00  0.00     0.164 C 
BRANCH  44  45
HETATM   45  O7  UNL     1       2.164  54.419 -20.871  1.00  0.00    -0.401 OA
HETATM   46  H29 UNL     1       2.221  55.356 -21.161  1.00  0.00     0.209 HD
ENDBRANCH  44  45
ENDBRANCH  43  44
ENDBRANCH  42  43
ENDBRANCH  21  42
BRANCH  31  47
HETATM   47  O9  UNL     1      -1.218  47.610 -19.140  1.00  0.00    -0.389 OA
HETATM   48  H53 UNL     1      -1.226  46.752 -18.686  1.00  0.00     0.210 HD
ENDBRANCH  31  47
BRANCH  30  49
HETATM   49  O8  UNL     1      -3.277  45.822 -18.623  1.00  0.00    -0.382 OA
HETATM   50  H51 UNL     1      -3.549  45.942 -17.690  1.00  0.00     0.210 HD
ENDBRANCH  30  49
BRANCH  32  51
HETATM   51  C41 UNL     1      -7.353  42.741 -19.799  1.00  0.00     0.120 C 
BRANCH  51  52
HETATM   52  C42 UNL     1      -6.023  42.158 -19.390  1.00  0.00     0.140 C 
HETATM   53  O10 UNL     1      -5.400  42.331 -18.352  1.00  0.00    -0.650 OA
BRANCH  52  54
HETATM   54  O11 UNL     1      -5.494  41.386 -20.373  1.00  0.00    -0.776 OA
HETATM   55  H57 UNL     1      -4.644  41.081 -19.990  1.00  0.00     0.167 HD
ENDBRANCH  52  54
ENDBRANCH  51  52
ENDBRANCH  32  51
BRANCH   1  56
HETATM   56  C2  UNL     1     -10.047  44.271 -18.871  1.00  0.00     0.289 C 
HETATM   57  O2  UNL     1     -10.947  43.727 -19.503  1.00  0.00    -0.260 OA
BRANCH  56  58
HETATM   58  O1  UNL     1      -9.990  44.342 -17.520  1.00  0.00    -0.323 OA
HETATM   59  C1  UNL     1     -10.593  45.518 -16.974  1.00  0.00     0.213 C 
ENDBRANCH  56  58
ENDBRANCH   1  56
TORSDOF 13
ENDMDL
MODEL 9
REMARK minimizedAffinity -7.7785821
REMARK CNNscore 0.179212466
REMARK CNNaffinity 7.00151825
REMARK  13 active torsions:
REMARK  status: ('A' for Active; 'I' for Inactive)
REMARK    1  A    between atoms: O1_2  and  C2_3 
REMARK    2  A    between atoms: C2_3  and  C3_5 
REMARK    3  A    between atoms: C19_25  and  C20_26 
REMARK    4  A    between atoms: C20_26  and  C21_27 
REMARK    5  A    between atoms: C21_27  and  C22_28 
REMARK    6  A    between atoms: C22_28  and  O7_29 
REMARK    7  A    between atoms: C24_32  and  C25_33 
REMARK    8  A    between atoms: C25_33  and  C27_35 
REMARK    9  A    between atoms: C38_46  and  O8_47 
REMARK   10  A    between atoms: C39_48  and  O9_49 
REMARK   11  A    between atoms: C40_50  and  C41_51 
REMARK   12  A    between atoms: C41_51  and  C42_52 
REMARK   13  A    between atoms: C42_52  and  O11_54 
ROOT
HETATM    1  C3  UNL     1      -9.717  43.682 -16.818  1.00  0.00     0.019 C 
HETATM    2  C4  UNL     1      -8.443  43.293 -17.020  1.00  0.00    -0.006 C 
HETATM    3  C5  UNL     1      -7.318  44.200 -17.476  1.00  0.00     0.043 C 
HETATM    4  C6  UNL     1      -6.354  44.395 -16.256  1.00  0.00    -0.001 C 
HETATM    5  C7  UNL     1      -7.048  44.945 -14.988  1.00  0.00     0.032 C 
HETATM    6  C8  UNL     1      -7.682  46.298 -15.046  1.00  0.00    -0.030 C 
HETATM    7  C9  UNL     1      -8.506  46.772 -15.994  1.00  0.00    -0.023 C 
HETATM    8  C10 UNL     1      -8.986  46.111 -17.268  1.00  0.00     0.047 C 
HETATM    9  C11 UNL     1      -7.824  45.523 -18.106  1.00  0.00     0.141 C 
HETATM   10  O3  UNL     1      -8.366  45.268 -19.408  1.00  0.00    -0.351 OA
HETATM   11  C12 UNL     1      -7.847  46.017 -20.521  1.00  0.00     0.297 C 
HETATM   12  O4  UNL     1      -6.720  45.381 -21.137  1.00  0.00    -0.347 OA
HETATM   13  C13 UNL     1      -5.620  46.164 -21.614  1.00  0.00     0.191 C 
HETATM   14  C14 UNL     1      -4.360  45.715 -20.836  1.00  0.00     0.203 C 
HETATM   15  O5  UNL     1      -4.658  45.705 -19.444  1.00  0.00    -0.388 OA
HETATM   16  C15 UNL     1      -3.550  45.364 -18.621  1.00  0.00     0.167 C 
HETATM   17  C16 UNL     1      -4.079  44.489 -17.491  1.00  0.00     0.027 C 
HETATM   18  C17 UNL     1      -5.084  45.222 -16.578  1.00  0.00     0.007 C 
HETATM   19  C18 UNL     1      -5.818  47.713 -21.819  1.00  0.00     0.148 C 
HETATM   20  O6  UNL     1      -5.291  48.021 -23.152  1.00  0.00    -0.332 OA
HETATM   21  C19 UNL     1      -4.008  48.516 -23.265  1.00  0.00     0.075 C 
HETATM   22  C23 UNL     1      -3.359  49.036 -22.215  1.00  0.00     0.072 A 
HETATM   23  N1  UNL     1      -2.123  49.588 -22.030  1.00  0.00    -0.357 N 
HETATM   24  C24 UNL     1      -1.997  50.105 -20.742  1.00  0.00     0.014 A 
HETATM   25  C33 UNL     1      -3.118  49.861 -20.026  1.00  0.00     0.039 A 
HETATM   26  C34 UNL     1      -4.015  49.151 -20.920  1.00  0.00     0.001 A 
HETATM   27  C35 UNL     1      -5.203  48.557 -20.693  1.00  0.00    -0.027 C 
HETATM   28  C36 UNL     1      -5.916  48.577 -19.366  1.00  0.00     0.041 C 
HETATM   29  C37 UNL     1      -7.435  48.482 -19.476  1.00  0.00     0.050 C 
HETATM   30  C38 UNL     1      -7.997  47.577 -20.594  1.00  0.00     0.136 C 
HETATM   31  C39 UNL     1      -7.334  48.004 -21.916  1.00  0.00     0.199 C 
HETATM   32  C40 UNL     1     -10.183  45.104 -17.132  1.00  0.00     0.044 C 
HETATM   33  H30 UNL     1      -1.543  49.888 -22.802  1.00  0.00     0.166 HD
ENDROOT
BRANCH  24  34
HETATM   34  C25 UNL     1      -0.712  50.758 -20.294  1.00  0.00     0.035 C 
HETATM   35  C26 UNL     1      -0.563  50.558 -18.778  1.00  0.00     0.017 C 
BRANCH  34  36
HETATM   36  C27 UNL     1      -0.568  52.243 -20.736  1.00  0.00    -0.005 C 
HETATM   37  C28 UNL     1       0.281  52.355 -22.023  1.00  0.00     0.005 C 
HETATM   38  C29 UNL     1       0.960  53.713 -22.162  1.00  0.00     0.000 C 
HETATM   39  C30 UNL     1       1.940  53.973 -21.012  1.00  0.00     0.000 C 
HETATM   40  C31 UNL     1       1.514  53.311 -19.702  1.00  0.00     0.000 C 
HETATM   41  C32 UNL     1      -0.006  53.164 -19.627  1.00  0.00     0.005 C 
ENDBRANCH  34  36
ENDBRANCH  24  34
BRANCH  21  42
HETATM   42  C20 UNL     1      -3.429  48.446 -24.649  1.00  0.00     0.069 C 
BRANCH  42  43
HETATM   43  C21 UNL     1      -2.729  49.767 -25.025  1.00  0.00     0.033 C 
BRANCH  43  44
HETATM   44  C22 UNL     1      -3.699  50.740 -25.687  1.00  0.00     0.164 C 
BRANCH  44  45
HETATM   45  O7  UNL     1      -4.870  50.857 -24.880  1.00  0.00    -0.401 OA
HETATM   46  H29 UNL     1      -5.521  51.374 -25.403  1.00  0.00     0.209 HD
ENDBRANCH  44  45
ENDBRANCH  43  44
ENDBRANCH  42  43
ENDBRANCH  21  42
BRANCH  31  47
HETATM   47  O9  UNL     1      -7.632  49.393 -22.177  1.00  0.00    -0.389 OA
HETATM   48  H53 UNL     1      -8.594  49.457 -22.070  1.00  0.00     0.210 HD
ENDBRANCH  31  47
BRANCH  30  49
HETATM   49  O8  UNL     1      -9.413  47.919 -20.642  1.00  0.00    -0.382 OA
HETATM   50  H51 UNL     1      -9.859  47.278 -21.234  1.00  0.00     0.210 HD
ENDBRANCH  30  49
BRANCH  32  51
HETATM   51  C41 UNL     1     -11.295  45.738 -16.261  1.00  0.00     0.120 C 
BRANCH  51  52
HETATM   52  C42 UNL     1     -12.234  46.636 -17.030  1.00  0.00     0.140 C 
HETATM   53  O10 UNL     1     -12.119  47.064 -18.169  1.00  0.00    -0.650 OA
BRANCH  52  54
HETATM   54  O11 UNL     1     -13.299  47.005 -16.275  1.00  0.00    -0.776 OA
HETATM   55  H57 UNL     1     -13.817  47.581 -16.878  1.00  0.00     0.167 HD
ENDBRANCH  52  54
ENDBRANCH  51  52
ENDBRANCH  32  51
BRANCH   1  56
HETATM   56  C2  UNL     1     -10.614  42.579 -16.360  1.00  0.00     0.289 C 
HETATM   57  O2  UNL     1     -11.587  42.177 -16.992  1.00  0.00    -0.260 OA
BRANCH  56  58
HETATM   58  O1  UNL     1     -10.195  42.060 -15.181  1.00  0.00    -0.323 OA
HETATM   59  C1  UNL     1     -11.153  41.208 -14.549  1.00  0.00     0.213 C 
ENDBRANCH  56  58
ENDBRANCH   1  56
TORSDOF 13
ENDMDL
