MODEL 1
REMARK minimizedAffinity -9.52382183
REMARK  5 active torsions:
REMARK  status: ('A' for Active; 'I' for Inactive)
REMARK    1  A    between atoms: C4_4  and  C5_5 
REMARK    2  A    between atoms: C5_5  and  C6_6 
REMARK    3  A    between atoms: C6_6  and  C7_7 
REMARK    4  A    between atoms: C7_7  and  C9_9 
REMARK    5  A    between atoms: C30_31  and  O2_32 
ROOT
HETATM    1  C9  UNL     1      -0.569  50.120 -21.217  1.00  0.00    -0.002 C 
HETATM    2  C10 UNL     1      -0.867  49.596 -19.791  1.00  0.00     0.007 C 
HETATM    3  C11 UNL     1      -2.197  48.811 -19.873  1.00  0.00     0.015 C 
HETATM    4  C12 UNL     1      -2.464  48.613 -21.379  1.00  0.00    -0.010 C 
HETATM    5  C13 UNL     1      -1.644  47.360 -21.828  1.00  0.00     0.021 C 
HETATM    6  C14 UNL     1      -3.890  48.372 -21.875  1.00  0.00    -0.039 C 
HETATM    7  C15 UNL     1      -4.215  48.713 -23.154  1.00  0.00    -0.066 C 
HETATM    8  C16 UNL     1      -3.206  49.416 -24.078  1.00  0.00     0.036 C 
HETATM    9  C17 UNL     1      -1.861  49.871 -23.469  1.00  0.00     0.015 C 
HETATM   10  C18 UNL     1      -1.941  49.986 -21.943  1.00  0.00    -0.029 C 
HETATM   11  C19 UNL     1      -2.865  51.190 -21.596  1.00  0.00     0.016 C 
HETATM   12  C20 UNL     1      -5.635  48.463 -23.731  1.00  0.00    -0.015 C 
HETATM   13  C21 UNL     1      -6.372  49.818 -23.626  1.00  0.00     0.020 C 
HETATM   14  C22 UNL     1      -5.576  48.017 -25.213  1.00  0.00     0.021 C 
HETATM   15  C23 UNL     1      -6.938  47.663 -25.790  1.00  0.00     0.080 C 
HETATM   16  C24 UNL     1      -7.619  46.583 -24.987  1.00  0.00     0.135 C 
HETATM   17  O1  UNL     1      -8.197  45.663 -25.572  1.00  0.00    -0.297 OA
HETATM   18  C25 UNL     1      -7.683  46.748 -23.460  1.00  0.00     0.018 C 
HETATM   19  C26 UNL     1      -8.909  47.611 -23.126  1.00  0.00     0.023 C 
HETATM   20  C27 UNL     1      -7.936  45.343 -22.852  1.00  0.00     0.023 C 
HETATM   21  C28 UNL     1      -6.312  47.290 -22.928  1.00  0.00     0.016 C 
HETATM   22  C29 UNL     1      -6.305  47.625 -21.425  1.00  0.00     0.043 C 
HETATM   23  C30 UNL     1      -4.868  47.744 -20.906  1.00  0.00     0.148 C 
ENDROOT
BRANCH   1  24
HETATM   24  C7  UNL     1       0.206  51.469 -21.329  1.00  0.00    -0.014 C 
HETATM   25  C8  UNL     1       0.072  52.235 -20.001  1.00  0.00     0.010 C 
BRANCH  24  26
HETATM   26  C6  UNL     1      -0.215  52.385 -22.504  1.00  0.00     0.008 C 
BRANCH  26  27
HETATM   27  C5  UNL     1       0.785  52.418 -23.671  1.00  0.00     0.028 C 
BRANCH  27  28
HETATM   28  C4  UNL     1       0.161  52.100 -25.004  1.00  0.00    -0.025 C 
HETATM   29  C2  UNL     1       0.787  51.643 -26.105  1.00  0.00    -0.091 C 
HETATM   30  C1  UNL     1       0.028  51.416 -27.385  1.00  0.00     0.042 C 
HETATM   31  C3  UNL     1       2.250  51.306 -26.183  1.00  0.00     0.042 C 
ENDBRANCH  27  28
ENDBRANCH  26  27
ENDBRANCH  24  26
ENDBRANCH   1  24
BRANCH  23  32
HETATM   32  O2  UNL     1      -4.395  46.435 -20.596  1.00  0.00    -0.391 OA
HETATM   33  H48 UNL     1      -4.947  46.090 -19.876  1.00  0.00     0.210 HD
ENDBRANCH  23  32
TORSDOF 5
ENDMDL
MODEL 2
REMARK minimizedAffinity -9.31711578
REMARK  5 active torsions:
REMARK  status: ('A' for Active; 'I' for Inactive)
REMARK    1  A    between atoms: C4_4  and  C5_5 
REMARK    2  A    between atoms: C5_5  and  C6_6 
REMARK    3  A    between atoms: C6_6  and  C7_7 
REMARK    4  A    between atoms: C7_7  and  C9_9 
REMARK    5  A    between atoms: C30_31  and  O2_32 
ROOT
HETATM    1  C9  UNL     1      -1.451  49.443 -18.148  1.00  0.00    -0.002 C 
HETATM    2  C10 UNL     1      -2.708  48.552 -18.308  1.00  0.00     0.007 C 
HETATM    3  C11 UNL     1      -3.078  48.567 -19.809  1.00  0.00     0.015 C 
HETATM    4  C12 UNL     1      -1.857  49.179 -20.527  1.00  0.00    -0.010 C 
HETATM    5  C13 UNL     1      -0.827  48.023 -20.744  1.00  0.00     0.021 C 
HETATM    6  C14 UNL     1      -2.029  49.843 -21.893  1.00  0.00    -0.039 C 
HETATM    7  C15 UNL     1      -1.145  50.805 -22.279  1.00  0.00    -0.066 C 
HETATM    8  C16 UNL     1      -0.035  51.302 -21.338  1.00  0.00     0.036 C 
HETATM    9  C17 UNL     1      -0.044  50.795 -19.878  1.00  0.00     0.015 C 
HETATM   10  C18 UNL     1      -1.423  50.264 -19.472  1.00  0.00    -0.029 C 
HETATM   11  C19 UNL     1      -2.401  51.473 -19.388  1.00  0.00     0.016 C 
HETATM   12  C20 UNL     1      -1.242  51.493 -23.669  1.00  0.00    -0.015 C 
HETATM   13  C21 UNL     1      -1.958  52.841 -23.417  1.00  0.00     0.020 C 
HETATM   14  C22 UNL     1       0.160  51.755 -24.273  1.00  0.00     0.021 C 
HETATM   15  C23 UNL     1       0.111  52.335 -25.678  1.00  0.00     0.080 C 
HETATM   16  C24 UNL     1      -0.663  51.449 -26.621  1.00  0.00     0.135 C 
HETATM   17  O1  UNL     1      -0.226  51.238 -27.755  1.00  0.00    -0.297 OA
HETATM   18  C25 UNL     1      -2.046  50.950 -26.172  1.00  0.00     0.018 C 
HETATM   19  C26 UNL     1      -3.079  52.032 -26.523  1.00  0.00     0.023 C 
HETATM   20  C27 UNL     1      -2.389  49.700 -27.026  1.00  0.00     0.023 C 
HETATM   21  C28 UNL     1      -1.995  50.532 -24.662  1.00  0.00     0.016 C 
HETATM   22  C29 UNL     1      -3.362  50.145 -24.066  1.00  0.00     0.043 C 
HETATM   23  C30 UNL     1      -3.179  49.371 -22.756  1.00  0.00     0.148 C 
ENDROOT
BRANCH   1  24
HETATM   24  C7  UNL     1      -1.287  50.201 -16.795  1.00  0.00    -0.014 C 
HETATM   25  C8  UNL     1      -2.681  50.584 -16.264  1.00  0.00     0.010 C 
BRANCH  24  26
HETATM   26  C6  UNL     1      -0.383  51.457 -16.839  1.00  0.00     0.008 C 
BRANCH  26  27
HETATM   27  C5  UNL     1       0.680  51.511 -15.730  1.00  0.00     0.028 C 
BRANCH  27  28
HETATM   28  C4  UNL     1       2.007  52.046 -16.198  1.00  0.00    -0.025 C 
HETATM   29  C2  UNL     1       3.201  51.897 -15.594  1.00  0.00    -0.091 C 
HETATM   30  C1  UNL     1       4.439  52.538 -16.164  1.00  0.00     0.042 C 
HETATM   31  C3  UNL     1       3.435  51.100 -14.341  1.00  0.00     0.042 C 
ENDBRANCH  27  28
ENDBRANCH  26  27
ENDBRANCH  24  26
ENDBRANCH   1  24
BRANCH  23  32
HETATM   32  O2  UNL     1      -2.951  48.001 -23.075  1.00  0.00    -0.391 OA
HETATM   33  H48 UNL     1      -3.752  47.668 -23.511  1.00  0.00     0.210 HD
ENDBRANCH  23  32
TORSDOF 5
ENDMDL
MODEL 3
REMARK minimizedAffinity -9.14846325
REMARK  5 active torsions:
REMARK  status: ('A' for Active; 'I' for Inactive)
REMARK    1  A    between atoms: C4_4  and  C5_5 
REMARK    2  A    between atoms: C5_5  and  C6_6 
REMARK    3  A    between atoms: C6_6  and  C7_7 
REMARK    4  A    between atoms: C7_7  and  C9_9 
REMARK    5  A    between atoms: C30_31  and  O2_32 
ROOT
HETATM    1  C9  UNL     1      -0.216  51.830 -16.953  1.00  0.00    -0.002 C 
HETATM    2  C10 UNL     1       1.276  52.196 -17.154  1.00  0.00     0.007 C 
HETATM    3  C11 UNL     1       1.482  52.408 -18.671  1.00  0.00     0.015 C 
HETATM    4  C12 UNL     1       0.063  52.492 -19.271  1.00  0.00    -0.010 C 
HETATM    5  C13 UNL     1      -0.426  53.965 -19.085  1.00  0.00     0.021 C 
HETATM    6  C14 UNL     1      -0.160  52.165 -20.748  1.00  0.00    -0.039 C 
HETATM    7  C15 UNL     1      -1.386  51.728 -21.153  1.00  0.00    -0.066 C 
HETATM    8  C16 UNL     1      -2.519  51.471 -20.146  1.00  0.00     0.036 C 
HETATM    9  C17 UNL     1      -2.187  51.567 -18.641  1.00  0.00     0.015 C 
HETATM   10  C18 UNL     1      -0.683  51.428 -18.383  1.00  0.00    -0.029 C 
HETATM   11  C19 UNL     1      -0.272  49.959 -18.701  1.00  0.00     0.016 C 
HETATM   12  C20 UNL     1      -1.689  51.414 -22.644  1.00  0.00    -0.015 C 
HETATM   13  C21 UNL     1      -1.560  49.879 -22.780  1.00  0.00     0.020 C 
HETATM   14  C22 UNL     1      -3.123  51.851 -23.037  1.00  0.00     0.021 C 
HETATM   15  C23 UNL     1      -3.428  51.654 -24.513  1.00  0.00     0.080 C 
HETATM   16  C24 UNL     1      -2.442  52.387 -25.389  1.00  0.00     0.135 C 
HETATM   17  O1  UNL     1      -2.849  53.014 -26.370  1.00  0.00    -0.297 OA
HETATM   18  C25 UNL     1      -0.944  52.206 -25.098  1.00  0.00     0.018 C 
HETATM   19  C26 UNL     1      -0.468  50.937 -25.820  1.00  0.00     0.023 C 
HETATM   20  C27 UNL     1      -0.198  53.404 -25.744  1.00  0.00     0.023 C 
HETATM   21  C28 UNL     1      -0.697  52.233 -23.550  1.00  0.00     0.016 C 
HETATM   22  C29 UNL     1       0.753  51.923 -23.135  1.00  0.00     0.043 C 
HETATM   23  C30 UNL     1       1.007  52.366 -21.690  1.00  0.00     0.148 C 
ENDROOT
BRANCH   1  24
HETATM   24  C7  UNL     1      -0.560  50.885 -15.762  1.00  0.00    -0.014 C 
HETATM   25  C8  UNL     1       0.391  49.675 -15.792  1.00  0.00     0.010 C 
BRANCH  24  26
HETATM   26  C6  UNL     1      -2.027  50.393 -15.701  1.00  0.00     0.008 C 
BRANCH  26  27
HETATM   27  C5  UNL     1      -2.891  51.108 -14.648  1.00  0.00     0.028 C 
BRANCH  27  28
HETATM   28  C4  UNL     1      -2.130  51.483 -13.404  1.00  0.00    -0.025 C 
HETATM   29  C2  UNL     1      -2.533  52.316 -12.427  1.00  0.00    -0.091 C 
HETATM   30  C1  UNL     1      -1.633  52.631 -11.262  1.00  0.00     0.042 C 
HETATM   31  C3  UNL     1      -3.874  52.993 -12.375  1.00  0.00     0.042 C 
ENDBRANCH  27  28
ENDBRANCH  26  27
ENDBRANCH  24  26
ENDBRANCH   1  24
BRANCH  23  32
HETATM   32  O2  UNL     1       1.327  53.755 -21.698  1.00  0.00    -0.391 OA
HETATM   33  H48 UNL     1       2.155  53.859 -22.193  1.00  0.00     0.210 HD
ENDBRANCH  23  32
TORSDOF 5
ENDMDL
MODEL 4
REMARK minimizedAffinity -9.0028019
REMARK  5 active torsions:
REMARK  status: ('A' for Active; 'I' for Inactive)
REMARK    1  A    between atoms: C4_4  and  C5_5 
REMARK    2  A    between atoms: C5_5  and  C6_6 
REMARK    3  A    between atoms: C6_6  and  C7_7 
REMARK    4  A    between atoms: C7_7  and  C9_9 
REMARK    5  A    between atoms: C30_31  and  O2_32 
ROOT
HETATM    1  C9  UNL     1      -1.531  52.171 -24.350  1.00  0.00    -0.002 C 
HETATM    2  C10 UNL     1      -1.616  51.357 -25.665  1.00  0.00     0.007 C 
HETATM    3  C11 UNL     1      -2.786  50.360 -25.496  1.00  0.00     0.015 C 
HETATM    4  C12 UNL     1      -3.555  50.836 -24.246  1.00  0.00    -0.010 C 
HETATM    5  C13 UNL     1      -4.526  51.969 -24.711  1.00  0.00     0.021 C 
HETATM    6  C14 UNL     1      -4.418  49.850 -23.459  1.00  0.00    -0.039 C 
HETATM    7  C15 UNL     1      -4.655  50.083 -22.137  1.00  0.00    -0.066 C 
HETATM    8  C16 UNL     1      -4.003  51.265 -21.401  1.00  0.00     0.036 C 
HETATM    9  C17 UNL     1      -2.942  52.093 -22.158  1.00  0.00     0.015 C 
HETATM   10  C18 UNL     1      -2.358  51.318 -23.344  1.00  0.00    -0.029 C 
HETATM   11  C19 UNL     1      -1.498  50.147 -22.780  1.00  0.00     0.016 C 
HETATM   12  C20 UNL     1      -5.552  49.139 -21.290  1.00  0.00    -0.015 C 
HETATM   13  C21 UNL     1      -4.577  48.217 -20.522  1.00  0.00     0.020 C 
HETATM   14  C22 UNL     1      -6.419  49.933 -20.281  1.00  0.00     0.021 C 
HETATM   15  C23 UNL     1      -7.386  49.058 -19.500  1.00  0.00     0.080 C 
HETATM   16  C24 UNL     1      -8.300  48.282 -20.415  1.00  0.00     0.135 C 
HETATM   17  O1  UNL     1      -9.500  48.193 -20.145  1.00  0.00    -0.297 OA
HETATM   18  C25 UNL     1      -7.666  47.511 -21.584  1.00  0.00     0.018 C 
HETATM   19  C26 UNL     1      -7.213  46.140 -21.060  1.00  0.00     0.023 C 
HETATM   20  C27 UNL     1      -8.784  47.252 -22.629  1.00  0.00     0.023 C 
HETATM   21  C28 UNL     1      -6.545  48.382 -22.249  1.00  0.00     0.016 C 
HETATM   22  C29 UNL     1      -5.746  47.655 -23.346  1.00  0.00     0.043 C 
HETATM   23  C30 UNL     1      -4.979  48.662 -24.211  1.00  0.00     0.148 C 
ENDROOT
BRANCH   1  24
HETATM   24  C7  UNL     1      -0.119  52.674 -23.918  1.00  0.00    -0.014 C 
HETATM   25  C8  UNL     1       0.945  51.988 -24.793  1.00  0.00     0.010 C 
BRANCH  24  26
HETATM   26  C6  UNL     1       0.230  52.479 -22.423  1.00  0.00     0.008 C 
BRANCH  26  27
HETATM   27  C5  UNL     1       1.061  53.620 -21.813  1.00  0.00     0.028 C 
BRANCH  27  28
HETATM   28  C4  UNL     1       1.230  53.506 -20.321  1.00  0.00    -0.025 C 
HETATM   29  C2  UNL     1       0.665  52.592 -19.508  1.00  0.00    -0.091 C 
HETATM   30  C1  UNL     1       0.894  52.638 -18.020  1.00  0.00     0.042 C 
HETATM   31  C3  UNL     1      -0.211  51.460 -19.967  1.00  0.00     0.042 C 
ENDBRANCH  27  28
ENDBRANCH  26  27
ENDBRANCH  24  26
ENDBRANCH   1  24
BRANCH  23  32
HETATM   32  O2  UNL     1      -5.865  49.158 -25.211  1.00  0.00    -0.391 OA
HETATM   33  H48 UNL     1      -6.115  48.409 -25.774  1.00  0.00     0.210 HD
ENDBRANCH  23  32
TORSDOF 5
ENDMDL
MODEL 5
REMARK minimizedAffinity -8.92786407
REMARK  5 active torsions:
REMARK  status: ('A' for Active; 'I' for Inactive)
REMARK    1  A    between atoms: C4_4  and  C5_5 
REMARK    2  A    between atoms: C5_5  and  C6_6 
REMARK    3  A    between atoms: C6_6  and  C7_7 
REMARK    4  A    between atoms: C7_7  and  C9_9 
REMARK    5  A    between atoms: C30_31  and  O2_32 
ROOT
HETATM    1  C9  UNL     1      -0.122  50.875 -21.230  1.00  0.00    -0.002 C 
HETATM    2  C10 UNL     1      -0.158  50.997 -19.686  1.00  0.00     0.007 C 
HETATM    3  C11 UNL     1      -1.461  50.310 -19.216  1.00  0.00     0.015 C 
HETATM    4  C12 UNL     1      -1.976  49.523 -20.439  1.00  0.00    -0.010 C 
HETATM    5  C13 UNL     1      -1.210  48.160 -20.461  1.00  0.00     0.021 C 
HETATM    6  C14 UNL     1      -3.459  49.167 -20.548  1.00  0.00    -0.039 C 
HETATM    7  C15 UNL     1      -4.005  48.968 -21.780  1.00  0.00    -0.066 C 
HETATM    8  C16 UNL     1      -3.188  49.182 -23.065  1.00  0.00     0.036 C 
HETATM    9  C17 UNL     1      -1.771  49.784 -22.930  1.00  0.00     0.015 C 
HETATM   10  C18 UNL     1      -1.593  50.518 -21.597  1.00  0.00    -0.029 C 
HETATM   11  C19 UNL     1      -2.476  51.801 -21.629  1.00  0.00     0.016 C 
HETATM   12  C20 UNL     1      -5.496  48.568 -21.958  1.00  0.00    -0.015 C 
HETATM   13  C21 UNL     1      -6.240  49.880 -22.300  1.00  0.00     0.020 C 
HETATM   14  C22 UNL     1      -5.678  47.552 -23.112  1.00  0.00     0.021 C 
HETATM   15  C23 UNL     1      -7.108  47.056 -23.256  1.00  0.00     0.080 C 
HETATM   16  C24 UNL     1      -7.614  46.433 -21.979  1.00  0.00     0.135 C 
HETATM   17  O1  UNL     1      -8.258  45.382 -22.028  1.00  0.00    -0.297 OA
HETATM   18  C25 UNL     1      -7.421  47.213 -20.669  1.00  0.00     0.018 C 
HETATM   19  C26 UNL     1      -8.595  48.193 -20.521  1.00  0.00     0.023 C 
HETATM   20  C27 UNL     1      -7.529  46.195 -19.502  1.00  0.00     0.023 C 
HETATM   21  C28 UNL     1      -5.994  47.862 -20.643  1.00  0.00     0.016 C 
HETATM   22  C29 UNL     1      -5.741  48.784 -19.435  1.00  0.00     0.043 C 
HETATM   23  C30 UNL     1      -4.240  49.038 -19.258  1.00  0.00     0.148 C 
ENDROOT
BRANCH   1  24
HETATM   24  C7  UNL     1       0.587  52.021 -22.015  1.00  0.00    -0.014 C 
HETATM   25  C8  UNL     1       0.855  53.194 -21.054  1.00  0.00     0.010 C 
BRANCH  24  26
HETATM   26  C6  UNL     1      -0.163  52.535 -23.268  1.00  0.00     0.008 C 
BRANCH  26  27
HETATM   27  C5  UNL     1       0.743  53.191 -24.323  1.00  0.00     0.028 C 
BRANCH  27  28
HETATM   28  C4  UNL     1       0.968  52.331 -25.538  1.00  0.00    -0.025 C 
HETATM   29  C2  UNL     1       0.600  52.603 -26.804  1.00  0.00    -0.091 C 
HETATM   30  C1  UNL     1       0.854  51.614 -27.911  1.00  0.00     0.042 C 
HETATM   31  C3  UNL     1      -0.068  53.874 -27.250  1.00  0.00     0.042 C 
ENDBRANCH  27  28
ENDBRANCH  26  27
ENDBRANCH  24  26
ENDBRANCH   1  24
BRANCH  23  32
HETATM   32  O2  UNL     1      -3.686  47.951 -18.520  1.00  0.00    -0.391 OA
HETATM   33  H48 UNL     1      -4.098  47.958 -17.641  1.00  0.00     0.210 HD
ENDBRANCH  23  32
TORSDOF 5
ENDMDL
MODEL 6
REMARK minimizedAffinity -8.79685116
REMARK  5 active torsions:
REMARK  status: ('A' for Active; 'I' for Inactive)
REMARK    1  A    between atoms: C4_4  and  C5_5 
REMARK    2  A    between atoms: C5_5  and  C6_6 
REMARK    3  A    between atoms: C6_6  and  C7_7 
REMARK    4  A    between atoms: C7_7  and  C9_9 
REMARK    5  A    between atoms: C30_31  and  O2_32 
ROOT
HETATM    1  C9  UNL     1      -0.913  50.588 -20.831  1.00  0.00    -0.002 C 
HETATM    2  C10 UNL     1      -1.089  49.879 -19.465  1.00  0.00     0.007 C 
HETATM    3  C11 UNL     1      -2.297  48.924 -19.610  1.00  0.00     0.015 C 
HETATM    4  C12 UNL     1      -2.580  48.848 -21.125  1.00  0.00    -0.010 C 
HETATM    5  C13 UNL     1      -1.605  47.781 -21.720  1.00  0.00     0.021 C 
HETATM    6  C14 UNL     1      -3.973  48.458 -21.621  1.00  0.00    -0.039 C 
HETATM    7  C15 UNL     1      -4.381  48.881 -22.850  1.00  0.00    -0.066 C 
HETATM    8  C16 UNL     1      -3.512  49.815 -23.709  1.00  0.00     0.036 C 
HETATM    9  C17 UNL     1      -2.227  50.393 -23.076  1.00  0.00     0.015 C 
HETATM   10  C18 UNL     1      -2.274  50.334 -21.545  1.00  0.00    -0.029 C 
HETATM   11  C19 UNL     1      -3.349  51.350 -21.055  1.00  0.00     0.016 C 
HETATM   12  C20 UNL     1      -5.770  48.490 -23.429  1.00  0.00    -0.015 C 
HETATM   13  C21 UNL     1      -6.687  49.707 -23.166  1.00  0.00     0.020 C 
HETATM   14  C22 UNL     1      -5.695  48.216 -24.951  1.00  0.00     0.021 C 
HETATM   15  C23 UNL     1      -7.010  47.732 -25.541  1.00  0.00     0.080 C 
HETATM   16  C24 UNL     1      -7.506  46.487 -24.850  1.00  0.00     0.135 C 
HETATM   17  O1  UNL     1      -7.966  45.560 -25.522  1.00  0.00    -0.297 OA
HETATM   18  C25 UNL     1      -7.545  46.481 -23.313  1.00  0.00     0.018 C 
HETATM   19  C26 UNL     1      -8.870  47.118 -22.868  1.00  0.00     0.023 C 
HETATM   20  C27 UNL     1      -7.578  44.997 -22.856  1.00  0.00     0.023 C 
HETATM   21  C28 UNL     1      -6.248  47.155 -22.747  1.00  0.00     0.016 C 
HETATM   22  C29 UNL     1      -6.242  47.328 -21.216  1.00  0.00     0.043 C 
HETATM   23  C30 UNL     1      -4.821  47.597 -20.710  1.00  0.00     0.148 C 
ENDROOT
BRANCH   1  24
HETATM   24  C7  UNL     1      -0.341  52.038 -20.808  1.00  0.00    -0.014 C 
HETATM   25  C8  UNL     1       1.081  52.023 -21.397  1.00  0.00     0.010 C 
BRANCH  24  26
HETATM   26  C6  UNL     1      -0.324  52.727 -19.422  1.00  0.00     0.008 C 
BRANCH  26  27
HETATM   27  C5  UNL     1       1.038  52.679 -18.708  1.00  0.00     0.028 C 
BRANCH  27  28
HETATM   28  C4  UNL     1       0.971  52.067 -17.334  1.00  0.00    -0.025 C 
HETATM   29  C2  UNL     1       1.933  52.082 -16.392  1.00  0.00    -0.091 C 
HETATM   30  C1  UNL     1       1.733  51.378 -15.075  1.00  0.00     0.042 C 
HETATM   31  C3  UNL     1       3.257  52.780 -16.527  1.00  0.00     0.042 C 
ENDBRANCH  27  28
ENDBRANCH  26  27
ENDBRANCH  24  26
ENDBRANCH   1  24
BRANCH  23  32
HETATM   32  O2  UNL     1      -4.158  46.345 -20.552  1.00  0.00    -0.391 OA
HETATM   33  H48 UNL     1      -4.633  45.851 -19.865  1.00  0.00     0.210 HD
ENDBRANCH  23  32
TORSDOF 5
ENDMDL
MODEL 7
REMARK minimizedAffinity -8.79029465
REMARK  5 active torsions:
REMARK  status: ('A' for Active; 'I' for Inactive)
REMARK    1  A    between atoms: C4_4  and  C5_5 
REMARK    2  A    between atoms: C5_5  and  C6_6 
REMARK    3  A    between atoms: C6_6  and  C7_7 
REMARK    4  A    between atoms: C7_7  and  C9_9 
REMARK    5  A    between atoms: C30_31  and  O2_32 
ROOT
HETATM    1  C9  UNL     1      -1.184  52.203 -21.829  1.00  0.00    -0.002 C 
HETATM    2  C10 UNL     1      -0.552  51.960 -23.222  1.00  0.00     0.007 C 
HETATM    3  C11 UNL     1      -1.563  51.111 -24.028  1.00  0.00     0.015 C 
HETATM    4  C12 UNL     1      -2.878  51.165 -23.223  1.00  0.00    -0.010 C 
HETATM    5  C13 UNL     1      -3.603  52.492 -23.620  1.00  0.00     0.021 C 
HETATM    6  C14 UNL     1      -3.920  50.058 -23.389  1.00  0.00    -0.039 C 
HETATM    7  C15 UNL     1      -4.784  49.802 -22.367  1.00  0.00    -0.066 C 
HETATM    8  C16 UNL     1      -4.677  50.536 -21.021  1.00  0.00     0.036 C 
HETATM    9  C17 UNL     1      -3.462  51.464 -20.797  1.00  0.00     0.015 C 
HETATM   10  C18 UNL     1      -2.312  51.132 -21.754  1.00  0.00    -0.029 C 
HETATM   11  C19 UNL     1      -1.728  49.747 -21.347  1.00  0.00     0.016 C 
HETATM   12  C20 UNL     1      -5.889  48.715 -22.486  1.00  0.00    -0.015 C 
HETATM   13  C21 UNL     1      -5.324  47.468 -21.766  1.00  0.00     0.020 C 
HETATM   14  C22 UNL     1      -7.202  49.162 -21.796  1.00  0.00     0.021 C 
HETATM   15  C23 UNL     1      -8.342  48.173 -21.974  1.00  0.00     0.080 C 
HETATM   16  C24 UNL     1      -8.627  47.907 -23.431  1.00  0.00     0.135 C 
HETATM   17  O1  UNL     1      -9.796  47.859 -23.823  1.00  0.00    -0.297 OA
HETATM   18  C25 UNL     1      -7.442  47.568 -24.349  1.00  0.00     0.018 C 
HETATM   19  C26 UNL     1      -7.176  46.059 -24.244  1.00  0.00     0.023 C 
HETATM   20  C27 UNL     1      -7.891  47.850 -25.809  1.00  0.00     0.023 C 
HETATM   21  C28 UNL     1      -6.224  48.493 -24.007  1.00  0.00     0.016 C 
HETATM   22  C29 UNL     1      -4.933  48.148 -24.773  1.00  0.00     0.043 C 
HETATM   23  C30 UNL     1      -3.940  49.313 -24.706  1.00  0.00     0.148 C 
ENDROOT
BRANCH   1  24
HETATM   24  C7  UNL     1      -0.206  52.343 -20.622  1.00  0.00    -0.014 C 
HETATM   25  C8  UNL     1       1.207  52.639 -21.155  1.00  0.00     0.010 C 
BRANCH  24  26
HETATM   26  C6  UNL     1      -0.157  51.132 -19.659  1.00  0.00     0.008 C 
BRANCH  26  27
HETATM   27  C5  UNL     1      -0.200  51.507 -18.168  1.00  0.00     0.028 C 
BRANCH  27  28
HETATM   28  C4  UNL     1       1.094  52.085 -17.659  1.00  0.00    -0.025 C 
HETATM   29  C2  UNL     1       1.681  51.839 -16.472  1.00  0.00    -0.091 C 
HETATM   30  C1  UNL     1       2.958  52.535 -16.085  1.00  0.00     0.042 C 
HETATM   31  C3  UNL     1       1.163  50.875 -15.442  1.00  0.00     0.042 C 
ENDBRANCH  27  28
ENDBRANCH  26  27
ENDBRANCH  24  26
ENDBRANCH   1  24
BRANCH  23  32
HETATM   32  O2  UNL     1      -4.275  50.247 -25.730  1.00  0.00    -0.391 OA
HETATM   33  H48 UNL     1      -4.155  49.798 -26.582  1.00  0.00     0.210 HD
ENDBRANCH  23  32
TORSDOF 5
ENDMDL
MODEL 8
REMARK minimizedAffinity -8.77307415
REMARK  5 active torsions:
REMARK  status: ('A' for Active; 'I' for Inactive)
REMARK    1  A    between atoms: C4_4  and  C5_5 
REMARK    2  A    between atoms: C5_5  and  C6_6 
REMARK    3  A    between atoms: C6_6  and  C7_7 
REMARK    4  A    between atoms: C7_7  and  C9_9 
REMARK    5  A    between atoms: C30_31  and  O2_32 
ROOT
HETATM    1  C9  UNL     1      -1.896  51.112 -23.712  1.00  0.00    -0.002 C 
HETATM    2  C10 UNL     1      -1.982  50.232 -24.984  1.00  0.00     0.007 C 
HETATM    3  C11 UNL     1      -3.243  49.350 -24.830  1.00  0.00     0.015 C 
HETATM    4  C12 UNL     1      -4.032  49.963 -23.655  1.00  0.00    -0.010 C 
HETATM    5  C13 UNL     1      -4.874  51.145 -24.237  1.00  0.00     0.021 C 
HETATM    6  C14 UNL     1      -5.019  49.100 -22.868  1.00  0.00    -0.039 C 
HETATM    7  C15 UNL     1      -5.306  49.430 -21.577  1.00  0.00    -0.066 C 
HETATM    8  C16 UNL     1      -4.593  50.593 -20.868  1.00  0.00     0.036 C 
HETATM    9  C17 UNL     1      -3.424  51.283 -21.605  1.00  0.00     0.015 C 
HETATM   10  C18 UNL     1      -2.848  50.392 -22.712  1.00  0.00    -0.029 C 
HETATM   11  C19 UNL     1      -2.126  49.188 -22.037  1.00  0.00     0.016 C 
HETATM   12  C20 UNL     1      -6.327  48.617 -20.734  1.00  0.00    -0.015 C 
HETATM   13  C21 UNL     1      -5.479  47.662 -19.862  1.00  0.00     0.020 C 
HETATM   14  C22 UNL     1      -7.173  49.540 -19.821  1.00  0.00     0.021 C 
HETATM   15  C23 UNL     1      -8.254  48.797 -19.052  1.00  0.00     0.080 C 
HETATM   16  C24 UNL     1      -9.182  48.049 -19.977  1.00  0.00     0.135 C 
HETATM   17  O1  UNL     1     -10.398  48.079 -19.773  1.00  0.00    -0.297 OA
HETATM   18  C25 UNL     1      -8.557  47.160 -21.063  1.00  0.00     0.018 C 
HETATM   19  C26 UNL     1      -8.255  45.788 -20.441  1.00  0.00     0.023 C 
HETATM   20  C27 UNL     1      -9.635  46.936 -22.157  1.00  0.00     0.023 C 
HETATM   21  C28 UNL     1      -7.329  47.893 -21.707  1.00  0.00     0.016 C 
HETATM   22  C29 UNL     1      -6.540  47.037 -22.715  1.00  0.00     0.043 C 
HETATM   23  C30 UNL     1      -5.642  47.923 -23.586  1.00  0.00     0.148 C 
ENDROOT
BRANCH   1  24
HETATM   24  C7  UNL     1      -0.470  51.518 -23.226  1.00  0.00    -0.014 C 
HETATM   25  C8  UNL     1      -0.321  51.138 -21.742  1.00  0.00     0.010 C 
BRANCH  24  26
HETATM   26  C6  UNL     1      -0.097  53.007 -23.424  1.00  0.00     0.008 C 
BRANCH  26  27
HETATM   27  C5  UNL     1       0.946  53.257 -24.526  1.00  0.00     0.028 C 
BRANCH  27  28
HETATM   28  C4  UNL     1       0.490  52.816 -25.892  1.00  0.00    -0.025 C 
HETATM   29  C2  UNL     1       1.132  51.981 -26.731  1.00  0.00    -0.091 C 
HETATM   30  C1  UNL     1       0.568  51.673 -28.092  1.00  0.00     0.042 C 
HETATM   31  C3  UNL     1       2.424  51.278 -26.420  1.00  0.00     0.042 C 
ENDBRANCH  27  28
ENDBRANCH  26  27
ENDBRANCH  24  26
ENDBRANCH   1  24
BRANCH  23  32
HETATM   32  O2  UNL     1      -6.426  48.433 -24.662  1.00  0.00    -0.391 OA
HETATM   33  H48 UNL     1      -6.710  47.676 -25.198  1.00  0.00     0.210 HD
ENDBRANCH  23  32
TORSDOF 5
ENDMDL
MODEL 9
REMARK minimizedAffinity -8.71828175
REMARK  5 active torsions:
REMARK  status: ('A' for Active; 'I' for Inactive)
REMARK    1  A    between atoms: C4_4  and  C5_5 
REMARK    2  A    between atoms: C5_5  and  C6_6 
REMARK    3  A    between atoms: C6_6  and  C7_7 
REMARK    4  A    between atoms: C7_7  and  C9_9 
REMARK    5  A    between atoms: C30_31  and  O2_32 
ROOT
HETATM    1  C9  UNL     1      -1.306  49.797 -18.093  1.00  0.00    -0.002 C 
HETATM    2  C10 UNL     1      -2.509  48.827 -18.191  1.00  0.00     0.007 C 
HETATM    3  C11 UNL     1      -2.893  48.744 -19.687  1.00  0.00     0.015 C 
HETATM    4  C12 UNL     1      -1.717  49.389 -20.449  1.00  0.00    -0.010 C 
HETATM    5  C13 UNL     1      -0.623  48.285 -20.621  1.00  0.00     0.021 C 
HETATM    6  C14 UNL     1      -1.940  49.969 -21.846  1.00  0.00    -0.039 C 
HETATM    7  C15 UNL     1      -1.118  50.961 -22.291  1.00  0.00    -0.066 C 
HETATM    8  C16 UNL     1      -0.031  51.569 -21.390  1.00  0.00     0.036 C 
HETATM    9  C17 UNL     1       0.004  51.138 -19.907  1.00  0.00     0.015 C 
HETATM   10  C18 UNL     1      -1.338  50.549 -19.456  1.00  0.00    -0.029 C 
HETATM   11  C19 UNL     1      -2.385  51.702 -19.423  1.00  0.00     0.016 C 
HETATM   12  C20 UNL     1      -1.269  51.569 -23.713  1.00  0.00    -0.015 C 
HETATM   13  C21 UNL     1      -2.060  52.884 -23.521  1.00  0.00     0.020 C 
HETATM   14  C22 UNL     1       0.110  51.881 -24.347  1.00  0.00     0.021 C 
HETATM   15  C23 UNL     1       0.014  52.384 -25.778  1.00  0.00     0.080 C 
HETATM   16  C24 UNL     1      -0.716  51.406 -26.665  1.00  0.00     0.135 C 
HETATM   17  O1  UNL     1      -0.278  51.163 -27.793  1.00  0.00    -0.297 OA
HETATM   18  C25 UNL     1      -2.063  50.852 -26.175  1.00  0.00     0.018 C 
HETATM   19  C26 UNL     1      -3.160  51.852 -26.568  1.00  0.00     0.023 C 
HETATM   20  C27 UNL     1      -2.339  49.542 -26.960  1.00  0.00     0.023 C 
HETATM   21  C28 UNL     1      -1.973  50.516 -24.646  1.00  0.00     0.016 C 
HETATM   22  C29 UNL     1      -3.309  50.081 -24.015  1.00  0.00     0.043 C 
HETATM   23  C30 UNL     1      -3.069  49.388 -22.670  1.00  0.00     0.148 C 
ENDROOT
BRANCH   1  24
HETATM   24  C7  UNL     1      -1.174  50.632 -16.782  1.00  0.00    -0.014 C 
HETATM   25  C8  UNL     1       0.238  50.435 -16.203  1.00  0.00     0.010 C 
BRANCH  24  26
HETATM   26  C6  UNL     1      -2.231  50.334 -15.692  1.00  0.00     0.008 C 
BRANCH  26  27
HETATM   27  C5  UNL     1      -1.834  50.798 -14.281  1.00  0.00     0.028 C 
BRANCH  27  28
HETATM   28  C4  UNL     1      -2.911  51.588 -13.585  1.00  0.00    -0.025 C 
HETATM   29  C2  UNL     1      -2.775  52.352 -12.485  1.00  0.00    -0.091 C 
HETATM   30  C1  UNL     1      -3.965  53.046 -11.876  1.00  0.00     0.042 C 
HETATM   31  C3  UNL     1      -1.477  52.605 -11.771  1.00  0.00     0.042 C 
ENDBRANCH  27  28
ENDBRANCH  26  27
ENDBRANCH  24  26
ENDBRANCH   1  24
BRANCH  23  32
HETATM   32  O2  UNL     1      -2.764  48.018 -22.921  1.00  0.00    -0.391 OA
HETATM   33  H48 UNL     1      -3.548  47.617 -23.329  1.00  0.00     0.210 HD
ENDBRANCH  23  32
TORSDOF 5
ENDMDL
