MODEL 1
REMARK minimizedAffinity -10.0058861
REMARK  6 active torsions:
REMARK  status: ('A' for Active; 'I' for Inactive)
REMARK    1  A    between atoms: C2_2  and  C30_32 
REMARK    2  A    between atoms: C3_3  and  C4_4 
REMARK    3  A    between atoms: C4_4  and  C5_5 
REMARK    4  A    between atoms: C5_5  and  C6_6 
REMARK    5  A    between atoms: C6_6  and  C8_8 
REMARK    6  A    between atoms: C30_32  and  O4_34 
ROOT
HETATM    1  C8  UNL     1      -3.897  50.457 -24.786  1.00  0.00    -0.002 C 
HETATM    2  C9  UNL     1      -5.387  50.212 -24.411  1.00  0.00     0.007 C 
HETATM    3  C10 UNL     1      -5.473  50.111 -22.878  1.00  0.00     0.015 C 
HETATM    4  C11 UNL     1      -4.125  50.649 -22.366  1.00  0.00    -0.005 C 
HETATM    5  C12 UNL     1      -4.235  52.205 -22.333  1.00  0.00     0.021 C 
HETATM    6  C13 UNL     1      -3.625  50.264 -20.979  1.00  0.00    -0.000 C 
HETATM    7  C14 UNL     1      -2.296  50.188 -20.703  1.00  0.00    -0.060 C 
HETATM    8  C15 UNL     1      -1.262  50.440 -21.810  1.00  0.00     0.036 C 
HETATM    9  C16 UNL     1      -1.779  50.695 -23.241  1.00  0.00     0.015 C 
HETATM   10  C17 UNL     1      -3.157  50.064 -23.470  1.00  0.00    -0.028 C 
HETATM   11  C18 UNL     1      -3.016  48.510 -23.404  1.00  0.00     0.016 C 
HETATM   12  C19 UNL     1      -1.730  49.818 -19.303  1.00  0.00    -0.014 C 
HETATM   13  C20 UNL     1      -1.285  48.341 -19.366  1.00  0.00     0.020 C 
HETATM   14  C21 UNL     1      -0.532  50.725 -18.940  1.00  0.00     0.021 C 
HETATM   15  C22 UNL     1       0.033  50.537 -17.540  1.00  0.00     0.080 C 
HETATM   16  C23 UNL     1      -0.839  49.810 -16.547  1.00  0.00     0.135 C 
HETATM   17  O1  UNL     1      -0.307  49.317 -15.547  1.00  0.00    -0.297 OA
HETATM   18  C24 UNL     1      -2.361  49.773 -16.736  1.00  0.00     0.018 C 
HETATM   19  C25 UNL     1      -2.860  48.397 -16.236  1.00  0.00     0.023 C 
HETATM   20  C26 UNL     1      -2.938  50.849 -15.791  1.00  0.00     0.023 C 
HETATM   21  C27 UNL     1      -2.803  50.091 -18.204  1.00  0.00     0.020 C 
HETATM   22  C28 UNL     1      -4.146  49.463 -18.586  1.00  0.00     0.090 C 
HETATM   23  C29 UNL     1      -4.631  50.009 -19.902  1.00  0.00     0.157 C 
HETATM   24  O2  UNL     1      -5.831  50.207 -20.083  1.00  0.00    -0.293 OA
ENDROOT
BRANCH   1  25
HETATM   25  C6  UNL     1      -3.522  49.770 -26.138  1.00  0.00    -0.014 C 
HETATM   26  C7  UNL     1      -4.084  48.349 -26.242  1.00  0.00     0.010 C 
BRANCH  25  27
HETATM   27  C5  UNL     1      -1.977  49.748 -26.312  1.00  0.00     0.008 C 
BRANCH  27  28
HETATM   28  C4  UNL     1      -1.352  51.127 -26.556  1.00  0.00     0.028 C 
BRANCH  28  29
HETATM   29  C3  UNL     1       0.136  51.094 -26.339  1.00  0.00    -0.013 C 
HETATM   30  C2  UNL     1       1.099  51.461 -27.212  1.00  0.00     0.008 C 
HETATM   31  C1  UNL     1       0.867  51.946 -28.614  1.00  0.00     0.055 C 
BRANCH  30  32
HETATM   32  C30 UNL     1       2.536  51.389 -26.835  1.00  0.00     0.171 C 
HETATM   33  O3  UNL     1       2.994  50.704 -25.937  1.00  0.00    -0.646 OA
BRANCH  32  34
HETATM   34  O4  UNL     1       3.339  52.163 -27.585  1.00  0.00    -0.773 OA
HETATM   35  H44 UNL     1       4.229  51.998 -27.211  1.00  0.00     0.167 HD
ENDBRANCH  32  34
ENDBRANCH  30  32
ENDBRANCH  28  29
ENDBRANCH  27  28
ENDBRANCH  25  27
ENDBRANCH   1  25
TORSDOF 6
ENDMDL
MODEL 2
REMARK minimizedAffinity -9.85709095
REMARK  6 active torsions:
REMARK  status: ('A' for Active; 'I' for Inactive)
REMARK    1  A    between atoms: C2_2  and  C30_32 
REMARK    2  A    between atoms: C3_3  and  C4_4 
REMARK    3  A    between atoms: C4_4  and  C5_5 
REMARK    4  A    between atoms: C5_5  and  C6_6 
REMARK    5  A    between atoms: C6_6  and  C8_8 
REMARK    6  A    between atoms: C30_32  and  O4_34 
ROOT
HETATM    1  C8  UNL     1      -0.526  50.134 -21.049  1.00  0.00    -0.002 C 
HETATM    2  C9  UNL     1      -0.868  49.550 -19.648  1.00  0.00     0.007 C 
HETATM    3  C10 UNL     1      -2.192  48.775 -19.775  1.00  0.00     0.015 C 
HETATM    4  C11 UNL     1      -2.414  48.610 -21.289  1.00  0.00    -0.005 C 
HETATM    5  C12 UNL     1      -1.574  47.376 -21.744  1.00  0.00     0.021 C 
HETATM    6  C13 UNL     1      -3.814  48.351 -21.833  1.00  0.00    -0.000 C 
HETATM    7  C14 UNL     1      -4.177  48.767 -23.074  1.00  0.00    -0.060 C 
HETATM    8  C15 UNL     1      -3.191  49.563 -23.942  1.00  0.00     0.036 C 
HETATM    9  C16 UNL     1      -1.826  49.937 -23.330  1.00  0.00     0.015 C 
HETATM   10  C17 UNL     1      -1.888  50.010 -21.800  1.00  0.00    -0.028 C 
HETATM   11  C18 UNL     1      -2.811  51.202 -21.390  1.00  0.00     0.016 C 
HETATM   12  C19 UNL     1      -5.584  48.515 -23.686  1.00  0.00    -0.014 C 
HETATM   13  C20 UNL     1      -6.380  49.833 -23.564  1.00  0.00     0.020 C 
HETATM   14  C21 UNL     1      -5.469  48.094 -25.169  1.00  0.00     0.021 C 
HETATM   15  C22 UNL     1      -6.775  47.704 -25.845  1.00  0.00     0.080 C 
HETATM   16  C23 UNL     1      -7.941  47.389 -24.940  1.00  0.00     0.135 C 
HETATM   17  O1  UNL     1      -9.081  47.431 -25.413  1.00  0.00    -0.297 OA
HETATM   18  C24 UNL     1      -7.698  46.938 -23.494  1.00  0.00     0.018 C 
HETATM   19  C25 UNL     1      -8.838  47.519 -22.626  1.00  0.00     0.023 C 
HETATM   20  C26 UNL     1      -7.848  45.402 -23.492  1.00  0.00     0.023 C 
HETATM   21  C27 UNL     1      -6.272  47.314 -22.967  1.00  0.00     0.020 C 
HETATM   22  C28 UNL     1      -6.208  47.479 -21.447  1.00  0.00     0.090 C 
HETATM   23  C29 UNL     1      -4.779  47.584 -20.985  1.00  0.00     0.157 C 
HETATM   24  O2  UNL     1      -4.435  47.074 -19.921  1.00  0.00    -0.293 OA
ENDROOT
BRANCH   1  25
HETATM   25  C6  UNL     1       0.192  51.517 -20.938  1.00  0.00    -0.014 C 
HETATM   26  C7  UNL     1      -0.112  52.223 -19.613  1.00  0.00     0.010 C 
BRANCH  25  27
HETATM   27  C5  UNL     1      -0.216  52.425 -22.133  1.00  0.00     0.008 C 
BRANCH  27  28
HETATM   28  C4  UNL     1       0.704  52.305 -23.355  1.00  0.00     0.028 C 
BRANCH  28  29
HETATM   29  C3  UNL     1       0.311  53.285 -24.427  1.00  0.00    -0.013 C 
HETATM   30  C2  UNL     1       0.383  53.108 -25.763  1.00  0.00     0.008 C 
HETATM   31  C1  UNL     1       0.916  51.887 -26.455  1.00  0.00     0.055 C 
BRANCH  30  32
HETATM   32  C30 UNL     1      -0.068  54.174 -26.698  1.00  0.00     0.171 C 
HETATM   33  O3  UNL     1      -0.674  53.986 -27.738  1.00  0.00    -0.646 OA
BRANCH  32  34
HETATM   34  O4  UNL     1       0.248  55.419 -26.303  1.00  0.00    -0.773 OA
HETATM   35  H44 UNL     1      -0.116  55.983 -27.016  1.00  0.00     0.167 HD
ENDBRANCH  32  34
ENDBRANCH  30  32
ENDBRANCH  28  29
ENDBRANCH  27  28
ENDBRANCH  25  27
ENDBRANCH   1  25
TORSDOF 6
ENDMDL
MODEL 3
REMARK minimizedAffinity -9.44304276
REMARK  6 active torsions:
REMARK  status: ('A' for Active; 'I' for Inactive)
REMARK    1  A    between atoms: C2_2  and  C30_32 
REMARK    2  A    between atoms: C3_3  and  C4_4 
REMARK    3  A    between atoms: C4_4  and  C5_5 
REMARK    4  A    between atoms: C5_5  and  C6_6 
REMARK    5  A    between atoms: C6_6  and  C8_8 
REMARK    6  A    between atoms: C30_32  and  O4_34 
ROOT
HETATM    1  C8  UNL     1      -4.414  48.161 -20.170  1.00  0.00    -0.002 C 
HETATM    2  C9  UNL     1      -5.128  47.320 -21.268  1.00  0.00     0.007 C 
HETATM    3  C10 UNL     1      -4.561  47.753 -22.632  1.00  0.00     0.015 C 
HETATM    4  C11 UNL     1      -3.293  48.560 -22.299  1.00  0.00    -0.005 C 
HETATM    5  C12 UNL     1      -2.141  47.532 -22.075  1.00  0.00     0.021 C 
HETATM    6  C13 UNL     1      -2.735  49.558 -23.306  1.00  0.00    -0.000 C 
HETATM    7  C14 UNL     1      -2.051  50.661 -22.903  1.00  0.00    -0.060 C 
HETATM    8  C15 UNL     1      -1.870  50.954 -21.406  1.00  0.00     0.036 C 
HETATM    9  C16 UNL     1      -2.555  50.011 -20.395  1.00  0.00     0.015 C 
HETATM   10  C17 UNL     1      -3.782  49.320 -21.001  1.00  0.00    -0.028 C 
HETATM   11  C18 UNL     1      -4.874  50.397 -21.294  1.00  0.00     0.016 C 
HETATM   12  C19 UNL     1      -1.445  51.701 -23.886  1.00  0.00    -0.014 C 
HETATM   13  C20 UNL     1      -2.394  52.920 -23.905  1.00  0.00     0.020 C 
HETATM   14  C21 UNL     1      -0.032  52.130 -23.428  1.00  0.00     0.021 C 
HETATM   15  C22 UNL     1       0.713  53.058 -24.376  1.00  0.00     0.080 C 
HETATM   16  C23 UNL     1       0.195  53.144 -25.790  1.00  0.00     0.135 C 
HETATM   17  O1  UNL     1       0.511  54.122 -26.475  1.00  0.00    -0.297 OA
HETATM   18  C24 UNL     1      -0.627  51.993 -26.384  1.00  0.00     0.018 C 
HETATM   19  C25 UNL     1      -1.688  52.612 -27.323  1.00  0.00     0.023 C 
HETATM   20  C26 UNL     1       0.347  51.175 -27.258  1.00  0.00     0.023 C 
HETATM   21  C27 UNL     1      -1.246  51.056 -25.292  1.00  0.00     0.020 C 
HETATM   22  C28 UNL     1      -2.522  50.345 -25.750  1.00  0.00     0.090 C 
HETATM   23  C29 UNL     1      -2.918  49.279 -24.764  1.00  0.00     0.157 C 
HETATM   24  O2  UNL     1      -3.407  48.223 -25.160  1.00  0.00    -0.293 OA
ENDROOT
BRANCH   1  25
HETATM   25  C6  UNL     1      -5.367  48.475 -18.973  1.00  0.00    -0.014 C 
HETATM   26  C7  UNL     1      -4.916  47.792 -17.678  1.00  0.00     0.010 C 
BRANCH  25  27
HETATM   27  C5  UNL     1      -6.820  48.049 -19.325  1.00  0.00     0.008 C 
BRANCH  27  28
HETATM   28  C4  UNL     1      -7.876  49.127 -19.044  1.00  0.00     0.028 C 
BRANCH  28  29
HETATM   29  C3  UNL     1      -8.779  48.719 -17.912  1.00  0.00    -0.013 C 
HETATM   30  C2  UNL     1      -9.972  48.094 -18.002  1.00  0.00     0.008 C 
HETATM   31  C1  UNL     1     -10.663  47.711 -19.278  1.00  0.00     0.055 C 
BRANCH  30  32
HETATM   32  C30 UNL     1     -10.738  47.737 -16.778  1.00  0.00     0.171 C 
HETATM   33  O3  UNL     1     -11.924  47.456 -16.747  1.00  0.00    -0.646 OA
BRANCH  32  34
HETATM   34  O4  UNL     1     -10.005  47.740 -15.651  1.00  0.00    -0.773 OA
HETATM   35  H44 UNL     1     -10.650  47.488 -14.959  1.00  0.00     0.167 HD
ENDBRANCH  32  34
ENDBRANCH  30  32
ENDBRANCH  28  29
ENDBRANCH  27  28
ENDBRANCH  25  27
ENDBRANCH   1  25
TORSDOF 6
ENDMDL
MODEL 4
REMARK minimizedAffinity -9.40801048
REMARK  6 active torsions:
REMARK  status: ('A' for Active; 'I' for Inactive)
REMARK    1  A    between atoms: C2_2  and  C30_32 
REMARK    2  A    between atoms: C3_3  and  C4_4 
REMARK    3  A    between atoms: C4_4  and  C5_5 
REMARK    4  A    between atoms: C5_5  and  C6_6 
REMARK    5  A    between atoms: C6_6  and  C8_8 
REMARK    6  A    between atoms: C30_32  and  O4_34 
ROOT
HETATM    1  C8  UNL     1      -0.453  50.919 -21.733  1.00  0.00    -0.002 C 
HETATM    2  C9  UNL     1      -0.397  51.151 -20.195  1.00  0.00     0.007 C 
HETATM    3  C10 UNL     1      -1.633  50.477 -19.575  1.00  0.00     0.015 C 
HETATM    4  C11 UNL     1      -2.191  49.568 -20.685  1.00  0.00    -0.005 C 
HETATM    5  C12 UNL     1      -1.370  48.242 -20.648  1.00  0.00     0.021 C 
HETATM    6  C13 UNL     1      -3.649  49.124 -20.651  1.00  0.00    -0.000 C 
HETATM    7  C14 UNL     1      -4.334  48.860 -21.794  1.00  0.00    -0.060 C 
HETATM    8  C15 UNL     1      -3.661  49.056 -23.161  1.00  0.00     0.036 C 
HETATM    9  C16 UNL     1      -2.232  49.634 -23.188  1.00  0.00     0.015 C 
HETATM   10  C17 UNL     1      -1.936  50.485 -21.947  1.00  0.00    -0.028 C 
HETATM   11  C18 UNL     1      -2.845  51.755 -21.979  1.00  0.00     0.016 C 
HETATM   12  C19 UNL     1      -5.815  48.388 -21.817  1.00  0.00    -0.014 C 
HETATM   13  C20 UNL     1      -6.680  49.614 -22.182  1.00  0.00     0.020 C 
HETATM   14  C21 UNL     1      -6.015  47.262 -22.856  1.00  0.00     0.021 C 
HETATM   15  C22 UNL     1      -7.401  46.635 -22.888  1.00  0.00     0.080 C 
HETATM   16  C23 UNL     1      -8.284  46.877 -21.689  1.00  0.00     0.135 C 
HETATM   17  O1  UNL     1      -9.502  46.718 -21.813  1.00  0.00    -0.297 OA
HETATM   18  C24 UNL     1      -7.663  47.222 -20.329  1.00  0.00     0.018 C 
HETATM   19  C25 UNL     1      -8.615  48.213 -19.619  1.00  0.00     0.023 C 
HETATM   20  C26 UNL     1      -7.663  45.912 -19.513  1.00  0.00     0.023 C 
HETATM   21  C27 UNL     1      -6.196  47.755 -20.443  1.00  0.00     0.020 C 
HETATM   22  C28 UNL     1      -5.789  48.674 -19.288  1.00  0.00     0.090 C 
HETATM   23  C29 UNL     1      -4.308  48.942 -19.320  1.00  0.00     0.157 C 
HETATM   24  O2  UNL     1      -3.676  49.036 -18.271  1.00  0.00    -0.293 OA
ENDROOT
BRANCH   1  25
HETATM   25  C6  UNL     1       0.136  52.132 -22.522  1.00  0.00    -0.014 C 
HETATM   26  C7  UNL     1       0.660  53.229 -21.590  1.00  0.00     0.010 C 
BRANCH  25  27
HETATM   27  C5  UNL     1      -0.940  52.715 -23.481  1.00  0.00     0.008 C 
BRANCH  27  28
HETATM   28  C4  UNL     1      -0.372  53.290 -24.786  1.00  0.00     0.028 C 
BRANCH  28  29
HETATM   29  C3  UNL     1       0.898  52.587 -25.180  1.00  0.00    -0.013 C 
HETATM   30  C2  UNL     1       1.248  52.160 -26.412  1.00  0.00     0.008 C 
HETATM   31  C1  UNL     1       0.403  52.271 -27.648  1.00  0.00     0.055 C 
BRANCH  30  32
HETATM   32  C30 UNL     1       2.559  51.497 -26.644  1.00  0.00     0.171 C 
HETATM   33  O3  UNL     1       2.965  50.515 -26.047  1.00  0.00    -0.646 OA
BRANCH  32  34
HETATM   34  O4  UNL     1       3.305  52.074 -27.602  1.00  0.00    -0.773 OA
HETATM   35  H44 UNL     1       4.113  51.523 -27.624  1.00  0.00     0.167 HD
ENDBRANCH  32  34
ENDBRANCH  30  32
ENDBRANCH  28  29
ENDBRANCH  27  28
ENDBRANCH  25  27
ENDBRANCH   1  25
TORSDOF 6
ENDMDL
MODEL 5
REMARK minimizedAffinity -9.32434082
REMARK  6 active torsions:
REMARK  status: ('A' for Active; 'I' for Inactive)
REMARK    1  A    between atoms: C2_2  and  C30_32 
REMARK    2  A    between atoms: C3_3  and  C4_4 
REMARK    3  A    between atoms: C4_4  and  C5_5 
REMARK    4  A    between atoms: C5_5  and  C6_6 
REMARK    5  A    between atoms: C6_6  and  C8_8 
REMARK    6  A    between atoms: C30_32  and  O4_34 
ROOT
HETATM    1  C8  UNL     1      -0.367  51.739 -17.067  1.00  0.00    -0.002 C 
HETATM    2  C9  UNL     1       1.144  52.065 -17.252  1.00  0.00     0.007 C 
HETATM    3  C10 UNL     1       1.389  52.307 -18.753  1.00  0.00     0.015 C 
HETATM    4  C11 UNL     1      -0.013  52.476 -19.365  1.00  0.00    -0.005 C 
HETATM    5  C12 UNL     1      -0.439  53.958 -19.131  1.00  0.00     0.021 C 
HETATM    6  C13 UNL     1      -0.232  52.238 -20.854  1.00  0.00    -0.000 C 
HETATM    7  C14 UNL     1      -1.426  51.798 -21.331  1.00  0.00    -0.060 C 
HETATM    8  C15 UNL     1      -2.575  51.478 -20.362  1.00  0.00     0.036 C 
HETATM    9  C16 UNL     1      -2.299  51.593 -18.849  1.00  0.00     0.015 C 
HETATM   10  C17 UNL     1      -0.813  51.403 -18.523  1.00  0.00    -0.028 C 
HETATM   11  C18 UNL     1      -0.408  49.932 -18.858  1.00  0.00     0.016 C 
HETATM   12  C19 UNL     1      -1.710  51.555 -22.839  1.00  0.00    -0.014 C 
HETATM   13  C20 UNL     1      -1.627  50.032 -23.082  1.00  0.00     0.020 C 
HETATM   14  C21 UNL     1      -3.111  52.084 -23.225  1.00  0.00     0.021 C 
HETATM   15  C22 UNL     1      -3.457  52.010 -24.705  1.00  0.00     0.080 C 
HETATM   16  C23 UNL     1      -2.308  51.815 -25.662  1.00  0.00     0.135 C 
HETATM   17  O1  UNL     1      -2.551  51.389 -26.796  1.00  0.00    -0.297 OA
HETATM   18  C24 UNL     1      -0.886  52.230 -25.260  1.00  0.00     0.018 C 
HETATM   19  C25 UNL     1       0.094  51.216 -25.895  1.00  0.00     0.023 C 
HETATM   20  C26 UNL     1      -0.634  53.600 -25.924  1.00  0.00     0.023 C 
HETATM   21  C27 UNL     1      -0.706  52.371 -23.711  1.00  0.00     0.020 C 
HETATM   22  C28 UNL     1       0.733  52.143 -23.241  1.00  0.00     0.090 C 
HETATM   23  C29 UNL     1       0.889  52.540 -21.797  1.00  0.00     0.157 C 
HETATM   24  O2  UNL     1       1.928  53.070 -21.412  1.00  0.00    -0.293 OA
ENDROOT
BRANCH   1  25
HETATM   25  C6  UNL     1      -0.598  50.713 -15.913  1.00  0.00    -0.014 C 
HETATM   26  C7  UNL     1       0.289  49.472 -16.056  1.00  0.00     0.010 C 
BRANCH  25  27
HETATM   27  C5  UNL     1      -2.095  50.297 -15.863  1.00  0.00     0.008 C 
BRANCH  27  28
HETATM   28  C4  UNL     1      -2.633  50.056 -14.447  1.00  0.00     0.028 C 
BRANCH  28  29
HETATM   29  C3  UNL     1      -3.331  51.279 -13.917  1.00  0.00    -0.013 C 
HETATM   30  C2  UNL     1      -3.040  51.964 -12.791  1.00  0.00     0.008 C 
HETATM   31  C1  UNL     1      -1.964  51.609 -11.806  1.00  0.00     0.055 C 
BRANCH  30  32
HETATM   32  C30 UNL     1      -3.817  53.176 -12.414  1.00  0.00     0.171 C 
HETATM   33  O3  UNL     1      -4.003  53.565 -11.274  1.00  0.00    -0.646 OA
BRANCH  32  34
HETATM   34  O4  UNL     1      -4.325  53.849 -13.461  1.00  0.00    -0.773 OA
HETATM   35  H44 UNL     1      -4.794  54.600 -13.042  1.00  0.00     0.167 HD
ENDBRANCH  32  34
ENDBRANCH  30  32
ENDBRANCH  28  29
ENDBRANCH  27  28
ENDBRANCH  25  27
ENDBRANCH   1  25
TORSDOF 6
ENDMDL
MODEL 6
REMARK minimizedAffinity -9.16042709
REMARK  6 active torsions:
REMARK  status: ('A' for Active; 'I' for Inactive)
REMARK    1  A    between atoms: C2_2  and  C30_32 
REMARK    2  A    between atoms: C3_3  and  C4_4 
REMARK    3  A    between atoms: C4_4  and  C5_5 
REMARK    4  A    between atoms: C5_5  and  C6_6 
REMARK    5  A    between atoms: C6_6  and  C8_8 
REMARK    6  A    between atoms: C30_32  and  O4_34 
ROOT
HETATM    1  C8  UNL     1      -3.819  50.632 -25.278  1.00  0.00    -0.002 C 
HETATM    2  C9  UNL     1      -4.783  49.493 -24.836  1.00  0.00     0.007 C 
HETATM    3  C10 UNL     1      -4.566  49.255 -23.331  1.00  0.00     0.015 C 
HETATM    4  C11 UNL     1      -3.763  50.475 -22.845  1.00  0.00    -0.005 C 
HETATM    5  C12 UNL     1      -4.787  51.623 -22.582  1.00  0.00     0.021 C 
HETATM    6  C13 UNL     1      -2.937  50.389 -21.567  1.00  0.00    -0.000 C 
HETATM    7  C14 UNL     1      -1.812  51.133 -21.402  1.00  0.00    -0.060 C 
HETATM    8  C15 UNL     1      -1.316  52.046 -22.533  1.00  0.00     0.036 C 
HETATM    9  C16 UNL     1      -2.082  52.024 -23.871  1.00  0.00     0.015 C 
HETATM   10  C17 UNL     1      -2.811  50.692 -24.089  1.00  0.00    -0.028 C 
HETATM   11  C18 UNL     1      -1.750  49.559 -24.256  1.00  0.00     0.016 C 
HETATM   12  C19 UNL     1      -0.943  51.097 -20.114  1.00  0.00    -0.014 C 
HETATM   13  C20 UNL     1       0.292  50.220 -20.419  1.00  0.00     0.020 C 
HETATM   14  C21 UNL     1      -0.501  52.523 -19.711  1.00  0.00     0.021 C 
HETATM   15  C22 UNL     1       0.257  52.630 -18.397  1.00  0.00     0.080 C 
HETATM   16  C23 UNL     1       0.160  51.453 -17.458  1.00  0.00     0.135 C 
HETATM   17  O1  UNL     1       1.019  51.327 -16.580  1.00  0.00    -0.297 OA
HETATM   18  C24 UNL     1      -1.036  50.495 -17.541  1.00  0.00     0.018 C 
HETATM   19  C25 UNL     1      -0.521  49.075 -17.209  1.00  0.00     0.023 C 
HETATM   20  C26 UNL     1      -2.002  50.915 -16.412  1.00  0.00     0.023 C 
HETATM   21  C27 UNL     1      -1.787  50.571 -18.913  1.00  0.00     0.020 C 
HETATM   22  C28 UNL     1      -2.513  49.275 -19.283  1.00  0.00     0.090 C 
HETATM   23  C29 UNL     1      -3.415  49.492 -20.469  1.00  0.00     0.157 C 
HETATM   24  O2  UNL     1      -4.499  48.918 -20.533  1.00  0.00    -0.293 OA
ENDROOT
BRANCH   1  25
HETATM   25  C6  UNL     1      -3.306  50.420 -26.738  1.00  0.00    -0.014 C 
HETATM   26  C7  UNL     1      -3.786  49.093 -27.333  1.00  0.00     0.010 C 
BRANCH  25  27
HETATM   27  C5  UNL     1      -1.753  50.490 -26.771  1.00  0.00     0.008 C 
BRANCH  27  28
HETATM   28  C4  UNL     1      -1.192  51.530 -27.750  1.00  0.00     0.028 C 
BRANCH  28  29
HETATM   29  C3  UNL     1      -0.849  52.812 -27.041  1.00  0.00    -0.013 C 
HETATM   30  C2  UNL     1       0.211  53.044 -26.238  1.00  0.00     0.008 C 
HETATM   31  C1  UNL     1       1.256  52.036 -25.857  1.00  0.00     0.055 C 
BRANCH  30  32
HETATM   32  C30 UNL     1       0.423  54.383 -25.626  1.00  0.00     0.171 C 
HETATM   33  O3  UNL     1       0.162  55.449 -26.157  1.00  0.00    -0.646 OA
BRANCH  32  34
HETATM   34  O4  UNL     1       0.943  54.344 -24.387  1.00  0.00    -0.773 OA
HETATM   35  H44 UNL     1       1.013  55.288 -24.139  1.00  0.00     0.167 HD
ENDBRANCH  32  34
ENDBRANCH  30  32
ENDBRANCH  28  29
ENDBRANCH  27  28
ENDBRANCH  25  27
ENDBRANCH   1  25
TORSDOF 6
ENDMDL
MODEL 7
REMARK minimizedAffinity -9.0771904
REMARK  6 active torsions:
REMARK  status: ('A' for Active; 'I' for Inactive)
REMARK    1  A    between atoms: C2_2  and  C30_32 
REMARK    2  A    between atoms: C3_3  and  C4_4 
REMARK    3  A    between atoms: C4_4  and  C5_5 
REMARK    4  A    between atoms: C5_5  and  C6_6 
REMARK    5  A    between atoms: C6_6  and  C8_8 
REMARK    6  A    between atoms: C30_32  and  O4_34 
ROOT
HETATM    1  C8  UNL     1      -1.675  50.075 -23.183  1.00  0.00    -0.002 C 
HETATM    2  C9  UNL     1      -1.422  50.480 -21.701  1.00  0.00     0.007 C 
HETATM    3  C10 UNL     1      -2.578  49.914 -20.858  1.00  0.00     0.015 C 
HETATM    4  C11 UNL     1      -3.282  48.898 -21.776  1.00  0.00    -0.005 C 
HETATM    5  C12 UNL     1      -2.477  47.564 -21.685  1.00  0.00     0.021 C 
HETATM    6  C13 UNL     1      -4.728  48.500 -21.509  1.00  0.00    -0.000 C 
HETATM    7  C14 UNL     1      -5.555  48.124 -22.520  1.00  0.00    -0.060 C 
HETATM    8  C15 UNL     1      -5.058  48.144 -23.973  1.00  0.00     0.036 C 
HETATM    9  C16 UNL     1      -3.637  48.678 -24.245  1.00  0.00     0.015 C 
HETATM   10  C17 UNL     1      -3.177  49.657 -23.159  1.00  0.00    -0.028 C 
HETATM   11  C18 UNL     1      -4.069  50.938 -23.226  1.00  0.00     0.016 C 
HETATM   12  C19 UNL     1      -7.032  47.691 -22.303  1.00  0.00    -0.014 C 
HETATM   13  C20 UNL     1      -7.923  48.889 -22.699  1.00  0.00     0.020 C 
HETATM   14  C21 UNL     1      -7.375  46.458 -23.171  1.00  0.00     0.021 C 
HETATM   15  C22 UNL     1      -8.760  45.868 -22.957  1.00  0.00     0.080 C 
HETATM   16  C23 UNL     1      -9.482  46.269 -21.694  1.00  0.00     0.135 C 
HETATM   17  O1  UNL     1     -10.708  46.128 -21.647  1.00  0.00    -0.297 OA
HETATM   18  C24 UNL     1      -8.691  46.751 -20.471  1.00  0.00     0.018 C 
HETATM   19  C25 UNL     1      -9.535  47.842 -19.770  1.00  0.00     0.023 C 
HETATM   20  C26 UNL     1      -8.603  45.544 -19.513  1.00  0.00     0.023 C 
HETATM   21  C27 UNL     1      -7.244  47.230 -20.828  1.00  0.00     0.020 C 
HETATM   22  C28 UNL     1      -6.684  48.265 -19.848  1.00  0.00     0.090 C 
HETATM   23  C29 UNL     1      -5.216  48.489 -20.095  1.00  0.00     0.157 C 
HETATM   24  O2  UNL     1      -4.455  48.686 -19.150  1.00  0.00    -0.293 OA
ENDROOT
BRANCH   1  25
HETATM   25  C6  UNL     1      -1.176  51.174 -24.175  1.00  0.00    -0.014 C 
HETATM   26  C7  UNL     1      -1.154  52.565 -23.534  1.00  0.00     0.010 C 
BRANCH  25  27
HETATM   27  C5  UNL     1      -2.069  51.185 -25.448  1.00  0.00     0.008 C 
BRANCH  27  28
HETATM   28  C4  UNL     1      -1.327  50.815 -26.738  1.00  0.00     0.028 C 
BRANCH  28  29
HETATM   29  C3  UNL     1       0.161  50.791 -26.520  1.00  0.00    -0.013 C 
HETATM   30  C2  UNL     1       1.093  51.528 -27.161  1.00  0.00     0.008 C 
HETATM   31  C1  UNL     1       0.825  52.506 -28.267  1.00  0.00     0.055 C 
BRANCH  30  32
HETATM   32  C30 UNL     1       2.534  51.403 -26.812  1.00  0.00     0.171 C 
HETATM   33  O3  UNL     1       2.989  50.663 -25.957  1.00  0.00    -0.646 OA
BRANCH  32  34
HETATM   34  O4  UNL     1       3.345  52.194 -27.536  1.00  0.00    -0.773 OA
HETATM   35  H44 UNL     1       4.236  51.989 -27.185  1.00  0.00     0.167 HD
ENDBRANCH  32  34
ENDBRANCH  30  32
ENDBRANCH  28  29
ENDBRANCH  27  28
ENDBRANCH  25  27
ENDBRANCH   1  25
TORSDOF 6
ENDMDL
MODEL 8
REMARK minimizedAffinity -9.06012154
REMARK  6 active torsions:
REMARK  status: ('A' for Active; 'I' for Inactive)
REMARK    1  A    between atoms: C2_2  and  C30_32 
REMARK    2  A    between atoms: C3_3  and  C4_4 
REMARK    3  A    between atoms: C4_4  and  C5_5 
REMARK    4  A    between atoms: C5_5  and  C6_6 
REMARK    5  A    between atoms: C6_6  and  C8_8 
REMARK    6  A    between atoms: C30_32  and  O4_34 
ROOT
HETATM    1  C8  UNL     1      -2.006  50.628 -22.487  1.00  0.00    -0.002 C 
HETATM    2  C9  UNL     1      -1.446  52.064 -22.703  1.00  0.00     0.007 C 
HETATM    3  C10 UNL     1      -0.666  52.458 -21.436  1.00  0.00     0.015 C 
HETATM    4  C11 UNL     1      -0.473  51.143 -20.661  1.00  0.00    -0.005 C 
HETATM    5  C12 UNL     1       0.768  50.425 -21.279  1.00  0.00     0.021 C 
HETATM    6  C13 UNL     1      -0.200  51.171 -19.162  1.00  0.00    -0.000 C 
HETATM    7  C14 UNL     1      -0.593  50.152 -18.353  1.00  0.00    -0.060 C 
HETATM    8  C15 UNL     1      -1.374  48.963 -18.933  1.00  0.00     0.036 C 
HETATM    9  C16 UNL     1      -1.763  49.009 -20.424  1.00  0.00     0.015 C 
HETATM   10  C17 UNL     1      -1.864  50.448 -20.943  1.00  0.00    -0.028 C 
HETATM   11  C18 UNL     1      -3.061  51.157 -20.232  1.00  0.00     0.016 C 
HETATM   12  C19 UNL     1      -0.325  50.120 -16.822  1.00  0.00    -0.014 C 
HETATM   13  C20 UNL     1      -1.644  50.512 -16.120  1.00  0.00     0.020 C 
HETATM   14  C21 UNL     1       0.123  48.711 -16.374  1.00  0.00     0.021 C 
HETATM   15  C22 UNL     1       0.529  48.584 -14.913  1.00  0.00     0.080 C 
HETATM   16  C23 UNL     1       0.829  49.866 -14.177  1.00  0.00     0.135 C 
HETATM   17  O1  UNL     1       0.799  49.857 -12.943  1.00  0.00    -0.297 OA
HETATM   18  C24 UNL     1       1.253  51.121 -14.952  1.00  0.00     0.018 C 
HETATM   19  C25 UNL     1       0.658  52.346 -14.218  1.00  0.00     0.023 C 
HETATM   20  C26 UNL     1       2.789  51.204 -14.827  1.00  0.00     0.023 C 
HETATM   21  C27 UNL     1       0.864  51.065 -16.468  1.00  0.00     0.020 C 
HETATM   22  C28 UNL     1       0.670  52.446 -17.099  1.00  0.00     0.090 C 
HETATM   23  C29 UNL     1       0.553  52.333 -18.596  1.00  0.00     0.157 C 
HETATM   24  O2  UNL     1       1.042  53.197 -19.319  1.00  0.00    -0.293 OA
ENDROOT
BRANCH   1  25
HETATM   25  C6  UNL     1      -3.392  50.437 -23.180  1.00  0.00    -0.014 C 
HETATM   26  C7  UNL     1      -3.474  49.121 -23.959  1.00  0.00     0.010 C 
BRANCH  25  27
HETATM   27  C5  UNL     1      -3.683  51.637 -24.126  1.00  0.00     0.008 C 
BRANCH  27  28
HETATM   28  C4  UNL     1      -3.545  51.308 -25.618  1.00  0.00     0.028 C 
BRANCH  28  29
HETATM   29  C3  UNL     1      -2.649  52.297 -26.311  1.00  0.00    -0.013 C 
HETATM   30  C2  UNL     1      -1.367  52.112 -26.692  1.00  0.00     0.008 C 
HETATM   31  C1  UNL     1      -0.557  50.871 -26.459  1.00  0.00     0.055 C 
BRANCH  30  32
HETATM   32  C30 UNL     1      -0.619  53.191 -27.393  1.00  0.00     0.171 C 
HETATM   33  O3  UNL     1      -0.416  54.308 -26.950  1.00  0.00    -0.646 OA
BRANCH  32  34
HETATM   34  O4  UNL     1      -0.153  52.838 -28.604  1.00  0.00    -0.773 OA
HETATM   35  H44 UNL     1       0.304  53.646 -28.916  1.00  0.00     0.167 HD
ENDBRANCH  32  34
ENDBRANCH  30  32
ENDBRANCH  28  29
ENDBRANCH  27  28
ENDBRANCH  25  27
ENDBRANCH   1  25
TORSDOF 6
ENDMDL
MODEL 9
REMARK minimizedAffinity -9.04800606
REMARK  6 active torsions:
REMARK  status: ('A' for Active; 'I' for Inactive)
REMARK    1  A    between atoms: C2_2  and  C30_32 
REMARK    2  A    between atoms: C3_3  and  C4_4 
REMARK    3  A    between atoms: C4_4  and  C5_5 
REMARK    4  A    between atoms: C5_5  and  C6_6 
REMARK    5  A    between atoms: C6_6  and  C8_8 
REMARK    6  A    between atoms: C30_32  and  O4_34 
ROOT
HETATM    1  C8  UNL     1      -4.671  48.080 -20.306  1.00  0.00    -0.002 C 
HETATM    2  C9  UNL     1      -5.252  47.205 -21.455  1.00  0.00     0.007 C 
HETATM    3  C10 UNL     1      -4.588  47.655 -22.768  1.00  0.00     0.015 C 
HETATM    4  C11 UNL     1      -3.388  48.516 -22.334  1.00  0.00    -0.005 C 
HETATM    5  C12 UNL     1      -2.218  47.537 -22.003  1.00  0.00     0.021 C 
HETATM    6  C13 UNL     1      -2.786  49.531 -23.297  1.00  0.00    -0.000 C 
HETATM    7  C14 UNL     1      -2.184  50.663 -22.846  1.00  0.00    -0.060 C 
HETATM    8  C15 UNL     1      -2.146  50.971 -21.341  1.00  0.00     0.036 C 
HETATM    9  C16 UNL     1      -2.877  50.005 -20.386  1.00  0.00     0.015 C 
HETATM   10  C17 UNL     1      -4.017  49.260 -21.089  1.00  0.00    -0.028 C 
HETATM   11  C18 UNL     1      -5.123  50.291 -21.484  1.00  0.00     0.016 C 
HETATM   12  C19 UNL     1      -1.539  51.723 -23.782  1.00  0.00    -0.014 C 
HETATM   13  C20 UNL     1      -2.532  52.901 -23.893  1.00  0.00     0.020 C 
HETATM   14  C21 UNL     1      -0.190  52.212 -23.207  1.00  0.00     0.021 C 
HETATM   15  C22 UNL     1       0.596  53.166 -24.095  1.00  0.00     0.080 C 
HETATM   16  C23 UNL     1       0.199  53.224 -25.549  1.00  0.00     0.135 C 
HETATM   17  O1  UNL     1       0.533  54.210 -26.212  1.00  0.00    -0.297 OA
HETATM   18  C24 UNL     1      -0.521  52.036 -26.202  1.00  0.00     0.018 C 
HETATM   19  C25 UNL     1      -1.521  52.607 -27.235  1.00  0.00     0.023 C 
HETATM   20  C26 UNL     1       0.558  51.256 -26.982  1.00  0.00     0.023 C 
HETATM   21  C27 UNL     1      -1.193  51.080 -25.160  1.00  0.00     0.020 C 
HETATM   22  C28 UNL     1      -2.395  50.315 -25.721  1.00  0.00     0.090 C 
HETATM   23  C29 UNL     1      -2.831  49.238 -24.764  1.00  0.00     0.157 C 
HETATM   24  O2  UNL     1      -3.239  48.161 -25.192  1.00  0.00    -0.293 OA
ENDROOT
BRANCH   1  25
HETATM   25  C6  UNL     1      -5.736  48.361 -19.199  1.00  0.00    -0.014 C 
HETATM   26  C7  UNL     1      -6.221  47.075 -18.523  1.00  0.00     0.010 C 
BRANCH  25  27
HETATM   27  C5  UNL     1      -6.942  49.133 -19.804  1.00  0.00     0.008 C 
BRANCH  27  28
HETATM   28  C4  UNL     1      -7.973  48.239 -20.505  1.00  0.00     0.028 C 
BRANCH  28  29
HETATM   29  C3  UNL     1      -8.235  48.710 -21.909  1.00  0.00    -0.013 C 
HETATM   30  C2  UNL     1      -8.404  47.947 -23.010  1.00  0.00     0.008 C 
HETATM   31  C1  UNL     1      -8.323  46.449 -23.055  1.00  0.00     0.055 C 
BRANCH  30  32
HETATM   32  C30 UNL     1      -8.679  48.570 -24.333  1.00  0.00     0.171 C 
HETATM   33  O3  UNL     1      -9.651  48.338 -25.030  1.00  0.00    -0.646 OA
BRANCH  32  34
HETATM   34  O4  UNL     1      -7.744  49.450 -24.730  1.00  0.00    -0.773 OA
HETATM   35  H44 UNL     1      -8.075  49.757 -25.598  1.00  0.00     0.167 HD
ENDBRANCH  32  34
ENDBRANCH  30  32
ENDBRANCH  28  29
ENDBRANCH  27  28
ENDBRANCH  25  27
ENDBRANCH   1  25
TORSDOF 6
ENDMDL
