MODEL 1
REMARK minimizedAffinity -8.18721676
REMARK  16 active torsions:
REMARK  status: ('A' for Active; 'I' for Inactive)
REMARK    1  A    between atoms: C4_4  and  C5_5 
REMARK    2  A    between atoms: C5_5  and  C6_6 
REMARK    3  A    between atoms: C6_6  and  C7_7 
REMARK    4  A    between atoms: C9_9  and  C10_10 
REMARK    5  A    between atoms: C10_10  and  O1_11 
REMARK    6  A    between atoms: C10_10  and  C11_12 
REMARK    7  A    between atoms: C11_12  and  C12_13 
REMARK    8  A    between atoms: C14_15  and  C15_16 
REMARK    9  A    between atoms: C15_16  and  C16_17 
REMARK   10  A    between atoms: C16_17  and  C17_18 
REMARK   11  A    between atoms: C19_20  and  C20_21 
REMARK   12  A    between atoms: C20_21  and  C21_22 
REMARK   13  A    between atoms: C21_22  and  C22_23 
REMARK   14  A    between atoms: C22_23  and  O2_24 
REMARK   15  A    between atoms: C24_26  and  C26_28 
REMARK   16  A    between atoms: C29_32  and  O4_34 
ROOT
HETATM    1  C17 UNL     1      -2.274  50.929 -24.437  1.00  0.00    -0.006 C 
HETATM    2  C18 UNL     1      -3.031  52.116 -23.778  1.00  0.00     0.019 C 
HETATM    3  C19 UNL     1      -0.765  51.325 -24.811  1.00  0.00     0.026 C 
HETATM    4  C23 UNL     1      -0.565  51.771 -26.272  1.00  0.00    -0.066 C 
HETATM    5  C24 UNL     1       0.551  51.515 -27.001  1.00  0.00    -0.021 C 
HETATM    6  C25 UNL     1       0.737  51.937 -28.432  1.00  0.00     0.052 C 
HETATM    7  C27 UNL     1      -1.753  52.499 -26.840  1.00  0.00     0.038 C 
HETATM    8  C28 UNL     1      -3.023  51.651 -26.805  1.00  0.00     0.042 C 
HETATM    9  C29 UNL     1      -3.028  50.507 -25.760  1.00  0.00     0.062 C 
HETATM   10  C30 UNL     1      -2.483  49.214 -26.399  1.00  0.00     0.046 C 
ENDROOT
BRANCH   1  11
HETATM   11  C16 UNL     1      -2.197  49.769 -23.366  1.00  0.00     0.016 C 
BRANCH  11  12
HETATM   12  C15 UNL     1      -2.995  48.468 -23.574  1.00  0.00     0.028 C 
BRANCH  12  13
HETATM   13  C14 UNL     1      -4.151  48.261 -22.635  1.00  0.00    -0.024 C 
HETATM   14  C12 UNL     1      -4.169  47.570 -21.478  1.00  0.00    -0.085 C 
HETATM   15  C13 UNL     1      -2.989  46.833 -20.906  1.00  0.00     0.043 C 
BRANCH  14  16
HETATM   16  C11 UNL     1      -5.435  47.542 -20.632  1.00  0.00     0.069 C 
BRANCH  16  17
HETATM   17  C10 UNL     1      -5.976  48.943 -20.294  1.00  0.00     0.145 C 
BRANCH  17  18
HETATM   18  C9  UNL     1      -4.887  49.986 -20.269  1.00  0.00     0.007 C 
HETATM   19  C7  UNL     1      -3.899  50.180 -19.370  1.00  0.00    -0.085 C 
HETATM   20  C8  UNL     1      -3.671  49.334 -18.146  1.00  0.00     0.043 C 
BRANCH  19  21
HETATM   21  C6  UNL     1      -2.939  51.345 -19.534  1.00  0.00     0.037 C 
BRANCH  21  22
HETATM   22  C5  UNL     1      -1.497  50.947 -19.879  1.00  0.00     0.031 C 
BRANCH  22  23
HETATM   23  C4  UNL     1      -0.647  52.093 -20.360  1.00  0.00    -0.024 C 
HETATM   24  C2  UNL     1       0.271  52.788 -19.659  1.00  0.00    -0.091 C 
HETATM   25  C1  UNL     1       0.665  52.504 -18.237  1.00  0.00     0.042 C 
HETATM   26  C3  UNL     1       1.011  53.938 -20.290  1.00  0.00     0.042 C 
ENDBRANCH  22  23
ENDBRANCH  21  22
ENDBRANCH  19  21
ENDBRANCH  17  18
BRANCH  17  27
HETATM   27  O1  UNL     1      -6.671  48.954 -19.051  1.00  0.00    -0.391 OA
HETATM   28  H17 UNL     1      -7.454  48.391 -19.172  1.00  0.00     0.210 HD
ENDBRANCH  17  27
ENDBRANCH  16  17
ENDBRANCH  14  16
ENDBRANCH  12  13
ENDBRANCH  11  12
ENDBRANCH   1  11
BRANCH   3  29
HETATM   29  C20 UNL     1      -0.081  52.388 -23.904  1.00  0.00     0.012 C 
BRANCH  29  30
HETATM   30  C21 UNL     1       0.286  53.684 -24.639  1.00  0.00     0.027 C 
BRANCH  30  31
HETATM   31  C22 UNL     1       1.133  54.618 -23.782  1.00  0.00     0.164 C 
BRANCH  31  32
HETATM   32  O2  UNL     1       1.277  55.902 -24.374  1.00  0.00    -0.401 OA
HETATM   33  H38 UNL     1       1.136  55.822 -25.343  1.00  0.00     0.209 HD
ENDBRANCH  31  32
ENDBRANCH  30  31
ENDBRANCH  29  30
ENDBRANCH   3  29
BRANCH   9  34
HETATM   34  O4  UNL     1      -4.410  50.254 -25.469  1.00  0.00    -0.389 OA
HETATM   35  H50 UNL     1      -4.869  50.069 -26.310  1.00  0.00     0.210 HD
ENDBRANCH   9  34
BRANCH   5  36
HETATM   36  C26 UNL     1       1.741  50.782 -26.449  1.00  0.00     0.265 C 
HETATM   37  O3  UNL     1       2.904  51.158 -26.537  1.00  0.00    -0.302 OA
ENDBRANCH   5  36
TORSDOF 16
ENDMDL
MODEL 2
REMARK minimizedAffinity -8.17990398
REMARK  16 active torsions:
REMARK  status: ('A' for Active; 'I' for Inactive)
REMARK    1  A    between atoms: C4_4  and  C5_5 
REMARK    2  A    between atoms: C5_5  and  C6_6 
REMARK    3  A    between atoms: C6_6  and  C7_7 
REMARK    4  A    between atoms: C9_9  and  C10_10 
REMARK    5  A    between atoms: C10_10  and  O1_11 
REMARK    6  A    between atoms: C10_10  and  C11_12 
REMARK    7  A    between atoms: C11_12  and  C12_13 
REMARK    8  A    between atoms: C14_15  and  C15_16 
REMARK    9  A    between atoms: C15_16  and  C16_17 
REMARK   10  A    between atoms: C16_17  and  C17_18 
REMARK   11  A    between atoms: C19_20  and  C20_21 
REMARK   12  A    between atoms: C20_21  and  C21_22 
REMARK   13  A    between atoms: C21_22  and  C22_23 
REMARK   14  A    between atoms: C22_23  and  O2_24 
REMARK   15  A    between atoms: C24_26  and  C26_28 
REMARK   16  A    between atoms: C29_32  and  O4_34 
ROOT
HETATM    1  C17 UNL     1      -2.342  50.905 -24.424  1.00  0.00    -0.006 C 
HETATM    2  C18 UNL     1      -3.171  52.078 -23.828  1.00  0.00     0.019 C 
HETATM    3  C19 UNL     1      -0.844  51.360 -24.777  1.00  0.00     0.026 C 
HETATM    4  C23 UNL     1      -0.628  51.761 -26.248  1.00  0.00    -0.066 C 
HETATM    5  C24 UNL     1       0.517  51.533 -26.940  1.00  0.00    -0.021 C 
HETATM    6  C25 UNL     1       0.719  51.912 -28.381  1.00  0.00     0.052 C 
HETATM    7  C27 UNL     1      -1.834  52.411 -26.871  1.00  0.00     0.038 C 
HETATM    8  C28 UNL     1      -3.063  51.506 -26.835  1.00  0.00     0.042 C 
HETATM    9  C29 UNL     1      -3.041  50.401 -25.748  1.00  0.00     0.062 C 
HETATM   10  C30 UNL     1      -2.420  49.113 -26.326  1.00  0.00     0.046 C 
ENDROOT
BRANCH   1  11
HETATM   11  C16 UNL     1      -2.238  49.790 -23.310  1.00  0.00     0.016 C 
BRANCH  11  12
HETATM   12  C15 UNL     1      -1.722  50.145 -21.903  1.00  0.00     0.028 C 
BRANCH  12  13
HETATM   13  C14 UNL     1      -2.576  49.671 -20.761  1.00  0.00    -0.024 C 
HETATM   14  C12 UNL     1      -2.764  48.406 -20.334  1.00  0.00    -0.085 C 
HETATM   15  C13 UNL     1      -2.145  47.190 -20.966  1.00  0.00     0.043 C 
BRANCH  14  16
HETATM   16  C11 UNL     1      -3.620  48.142 -19.101  1.00  0.00     0.069 C 
BRANCH  16  17
HETATM   17  C10 UNL     1      -2.795  47.903 -17.823  1.00  0.00     0.145 C 
BRANCH  17  18
HETATM   18  C9  UNL     1      -1.499  48.673 -17.828  1.00  0.00     0.007 C 
HETATM   19  C7  UNL     1      -1.187  49.842 -17.228  1.00  0.00    -0.085 C 
HETATM   20  C8  UNL     1      -2.129  50.649 -16.375  1.00  0.00     0.043 C 
BRANCH  19  21
HETATM   21  C6  UNL     1       0.188  50.454 -17.424  1.00  0.00     0.037 C 
BRANCH  21  22
HETATM   22  C5  UNL     1       0.528  51.595 -16.454  1.00  0.00     0.031 C 
BRANCH  22  23
HETATM   23  C4  UNL     1       1.914  52.157 -16.635  1.00  0.00    -0.024 C 
HETATM   24  C2  UNL     1       2.957  52.064 -15.786  1.00  0.00    -0.091 C 
HETATM   25  C1  UNL     1       2.945  51.310 -14.486  1.00  0.00     0.042 C 
HETATM   26  C3  UNL     1       4.273  52.721 -16.111  1.00  0.00     0.042 C 
ENDBRANCH  22  23
ENDBRANCH  21  22
ENDBRANCH  19  21
ENDBRANCH  17  18
BRANCH  17  27
HETATM   27  O1  UNL     1      -2.523  46.520 -17.624  1.00  0.00    -0.391 OA
HETATM   28  H17 UNL     1      -3.383  46.093 -17.466  1.00  0.00     0.210 HD
ENDBRANCH  17  27
ENDBRANCH  16  17
ENDBRANCH  14  16
ENDBRANCH  12  13
ENDBRANCH  11  12
ENDBRANCH   1  11
BRANCH   3  29
HETATM   29  C20 UNL     1      -0.235  52.486 -23.893  1.00  0.00     0.012 C 
BRANCH  29  30
HETATM   30  C21 UNL     1       0.451  53.599 -24.698  1.00  0.00     0.027 C 
BRANCH  30  31
HETATM   31  C22 UNL     1       1.145  54.619 -23.802  1.00  0.00     0.164 C 
BRANCH  31  32
HETATM   32  O2  UNL     1       1.191  55.909 -24.397  1.00  0.00    -0.401 OA
HETATM   33  H38 UNL     1       1.116  55.810 -25.372  1.00  0.00     0.209 HD
ENDBRANCH  31  32
ENDBRANCH  30  31
ENDBRANCH  29  30
ENDBRANCH   3  29
BRANCH   9  34
HETATM   34  O4  UNL     1      -4.417  50.093 -25.481  1.00  0.00    -0.389 OA
HETATM   35  H50 UNL     1      -4.846  49.856 -26.325  1.00  0.00     0.210 HD
ENDBRANCH   9  34
BRANCH   5  36
HETATM   36  C26 UNL     1       1.726  50.878 -26.333  1.00  0.00     0.265 C 
HETATM   37  O3  UNL     1       2.885  51.093 -26.664  1.00  0.00    -0.302 OA
ENDBRANCH   5  36
TORSDOF 16
ENDMDL
MODEL 3
REMARK minimizedAffinity -8.16569042
REMARK  16 active torsions:
REMARK  status: ('A' for Active; 'I' for Inactive)
REMARK    1  A    between atoms: C4_4  and  C5_5 
REMARK    2  A    between atoms: C5_5  and  C6_6 
REMARK    3  A    between atoms: C6_6  and  C7_7 
REMARK    4  A    between atoms: C9_9  and  C10_10 
REMARK    5  A    between atoms: C10_10  and  O1_11 
REMARK    6  A    between atoms: C10_10  and  C11_12 
REMARK    7  A    between atoms: C11_12  and  C12_13 
REMARK    8  A    between atoms: C14_15  and  C15_16 
REMARK    9  A    between atoms: C15_16  and  C16_17 
REMARK   10  A    between atoms: C16_17  and  C17_18 
REMARK   11  A    between atoms: C19_20  and  C20_21 
REMARK   12  A    between atoms: C20_21  and  C21_22 
REMARK   13  A    between atoms: C21_22  and  C22_23 
REMARK   14  A    between atoms: C22_23  and  O2_24 
REMARK   15  A    between atoms: C24_26  and  C26_28 
REMARK   16  A    between atoms: C29_32  and  O4_34 
ROOT
HETATM    1  C17 UNL     1      -2.420  50.875 -24.448  1.00  0.00    -0.006 C 
HETATM    2  C18 UNL     1      -3.320  51.998 -23.860  1.00  0.00     0.019 C 
HETATM    3  C19 UNL     1      -0.929  51.398 -24.729  1.00  0.00     0.026 C 
HETATM    4  C23 UNL     1      -0.672  51.845 -26.180  1.00  0.00    -0.066 C 
HETATM    5  C24 UNL     1       0.509  51.681 -26.829  1.00  0.00    -0.021 C 
HETATM    6  C25 UNL     1       0.753  52.104 -28.252  1.00  0.00     0.052 C 
HETATM    7  C27 UNL     1      -1.878  52.461 -26.836  1.00  0.00     0.038 C 
HETATM    8  C28 UNL     1      -3.068  51.505 -26.872  1.00  0.00     0.042 C 
HETATM    9  C29 UNL     1      -3.044  50.375 -25.812  1.00  0.00     0.062 C 
HETATM   10  C30 UNL     1      -2.347  49.129 -26.393  1.00  0.00     0.046 C 
ENDROOT
BRANCH   1  11
HETATM   11  C16 UNL     1      -2.314  49.737 -23.357  1.00  0.00     0.016 C 
BRANCH  11  12
HETATM   12  C15 UNL     1      -3.195  49.789 -22.095  1.00  0.00     0.028 C 
BRANCH  12  13
HETATM   13  C14 UNL     1      -2.471  50.093 -20.813  1.00  0.00    -0.024 C 
HETATM   14  C12 UNL     1      -1.483  49.386 -20.228  1.00  0.00    -0.085 C 
HETATM   15  C13 UNL     1      -0.920  48.099 -20.767  1.00  0.00     0.043 C 
BRANCH  14  16
HETATM   16  C11 UNL     1      -0.828  49.908 -18.956  1.00  0.00     0.069 C 
BRANCH  16  17
HETATM   17  C10 UNL     1      -0.930  51.437 -18.798  1.00  0.00     0.145 C 
BRANCH  17  18
HETATM   18  C9  UNL     1       0.343  52.043 -18.266  1.00  0.00     0.007 C 
HETATM   19  C7  UNL     1       0.933  51.893 -17.061  1.00  0.00    -0.085 C 
HETATM   20  C8  UNL     1       0.405  51.031 -15.946  1.00  0.00     0.043 C 
BRANCH  19  21
HETATM   21  C6  UNL     1       2.203  52.658 -16.735  1.00  0.00     0.037 C 
BRANCH  21  22
HETATM   22  C5  UNL     1       3.257  51.853 -15.960  1.00  0.00     0.031 C 
BRANCH  22  23
HETATM   23  C4  UNL     1       3.016  51.807 -14.474  1.00  0.00    -0.024 C 
HETATM   24  C2  UNL     1       3.471  50.892 -13.595  1.00  0.00    -0.091 C 
HETATM   25  C1  UNL     1       4.376  49.743 -13.938  1.00  0.00     0.042 C 
HETATM   26  C3  UNL     1       3.101  50.977 -12.137  1.00  0.00     0.042 C 
ENDBRANCH  22  23
ENDBRANCH  21  22
ENDBRANCH  19  21
ENDBRANCH  17  18
BRANCH  17  27
HETATM   27  O1  UNL     1      -2.018  51.807 -17.957  1.00  0.00    -0.391 OA
HETATM   28  H17 UNL     1      -2.827  51.535 -18.423  1.00  0.00     0.210 HD
ENDBRANCH  17  27
ENDBRANCH  16  17
ENDBRANCH  14  16
ENDBRANCH  12  13
ENDBRANCH  11  12
ENDBRANCH   1  11
BRANCH   3  29
HETATM   29  C20 UNL     1      -0.403  52.526 -23.795  1.00  0.00     0.012 C 
BRANCH  29  30
HETATM   30  C21 UNL     1       0.181  52.010 -22.473  1.00  0.00     0.027 C 
BRANCH  30  31
HETATM   31  C22 UNL     1       1.007  53.069 -21.751  1.00  0.00     0.164 C 
BRANCH  31  32
HETATM   32  O2  UNL     1       1.234  54.214 -22.563  1.00  0.00    -0.401 OA
HETATM   33  H38 UNL     1       1.151  53.955 -23.507  1.00  0.00     0.209 HD
ENDBRANCH  31  32
ENDBRANCH  30  31
ENDBRANCH  29  30
ENDBRANCH   3  29
BRANCH   9  34
HETATM   34  O4  UNL     1      -4.416  50.005 -25.608  1.00  0.00    -0.389 OA
HETATM   35  H50 UNL     1      -4.800  49.772 -26.475  1.00  0.00     0.210 HD
ENDBRANCH   9  34
BRANCH   5  36
HETATM   36  C26 UNL     1       1.718  51.060 -26.189  1.00  0.00     0.265 C 
HETATM   37  O3  UNL     1       2.852  51.080 -26.655  1.00  0.00    -0.302 OA
ENDBRANCH   5  36
TORSDOF 16
ENDMDL
MODEL 4
REMARK minimizedAffinity -8.16518307
REMARK  16 active torsions:
REMARK  status: ('A' for Active; 'I' for Inactive)
REMARK    1  A    between atoms: C4_4  and  C5_5 
REMARK    2  A    between atoms: C5_5  and  C6_6 
REMARK    3  A    between atoms: C6_6  and  C7_7 
REMARK    4  A    between atoms: C9_9  and  C10_10 
REMARK    5  A    between atoms: C10_10  and  O1_11 
REMARK    6  A    between atoms: C10_10  and  C11_12 
REMARK    7  A    between atoms: C11_12  and  C12_13 
REMARK    8  A    between atoms: C14_15  and  C15_16 
REMARK    9  A    between atoms: C15_16  and  C16_17 
REMARK   10  A    between atoms: C16_17  and  C17_18 
REMARK   11  A    between atoms: C19_20  and  C20_21 
REMARK   12  A    between atoms: C20_21  and  C21_22 
REMARK   13  A    between atoms: C21_22  and  C22_23 
REMARK   14  A    between atoms: C22_23  and  O2_24 
REMARK   15  A    between atoms: C24_26  and  C26_28 
REMARK   16  A    between atoms: C29_32  and  O4_34 
ROOT
HETATM    1  C17 UNL     1      -1.660  51.407 -25.959  1.00  0.00    -0.006 C 
HETATM    2  C18 UNL     1      -2.865  52.164 -26.585  1.00  0.00     0.019 C 
HETATM    3  C19 UNL     1      -1.455  51.797 -24.416  1.00  0.00     0.026 C 
HETATM    4  C23 UNL     1      -0.407  52.898 -24.169  1.00  0.00    -0.066 C 
HETATM    5  C24 UNL     1       0.410  52.943 -23.086  1.00  0.00    -0.021 C 
HETATM    6  C25 UNL     1       1.444  54.011 -22.855  1.00  0.00     0.052 C 
HETATM    7  C27 UNL     1      -0.346  53.920 -25.271  1.00  0.00     0.038 C 
HETATM    8  C28 UNL     1      -0.018  53.292 -26.625  1.00  0.00     0.042 C 
HETATM    9  C29 UNL     1      -0.347  51.783 -26.753  1.00  0.00     0.062 C 
HETATM   10  C30 UNL     1       0.883  50.946 -26.349  1.00  0.00     0.046 C 
ENDROOT
BRANCH   1  11
HETATM   11  C16 UNL     1      -1.998  49.864 -26.007  1.00  0.00     0.016 C 
BRANCH  11  12
HETATM   12  C15 UNL     1      -3.453  49.395 -26.195  1.00  0.00     0.028 C 
BRANCH  12  13
HETATM   13  C14 UNL     1      -3.776  48.813 -27.543  1.00  0.00    -0.024 C 
HETATM   14  C12 UNL     1      -4.886  48.144 -27.914  1.00  0.00    -0.085 C 
HETATM   15  C13 UNL     1      -6.038  47.827 -27.000  1.00  0.00     0.043 C 
BRANCH  14  16
HETATM   16  C11 UNL     1      -5.052  47.695 -29.361  1.00  0.00     0.069 C 
BRANCH  16  17
HETATM   17  C10 UNL     1      -5.678  48.772 -30.267  1.00  0.00     0.145 C 
BRANCH  17  18
HETATM   18  C9  UNL     1      -6.567  48.177 -31.329  1.00  0.00     0.007 C 
HETATM   19  C7  UNL     1      -7.832  48.499 -31.676  1.00  0.00    -0.085 C 
HETATM   20  C8  UNL     1      -8.648  49.590 -31.037  1.00  0.00     0.043 C 
BRANCH  19  21
HETATM   21  C6  UNL     1      -8.548  47.711 -32.759  1.00  0.00     0.037 C 
BRANCH  21  22
HETATM   22  C5  UNL     1      -9.462  46.591 -32.241  1.00  0.00     0.031 C 
BRANCH  22  23
HETATM   23  C4  UNL     1     -10.695  47.089 -31.533  1.00  0.00    -0.024 C 
HETATM   24  C2  UNL     1     -11.049  46.878 -30.250  1.00  0.00    -0.091 C 
HETATM   25  C1  UNL     1     -10.225  46.129 -29.241  1.00  0.00     0.042 C 
HETATM   26  C3  UNL     1     -12.345  47.423 -29.711  1.00  0.00     0.042 C 
ENDBRANCH  22  23
ENDBRANCH  21  22
ENDBRANCH  19  21
ENDBRANCH  17  18
BRANCH  17  27
HETATM   27  O1  UNL     1      -4.684  49.585 -30.881  1.00  0.00    -0.391 OA
HETATM   28  H17 UNL     1      -4.245  50.069 -30.162  1.00  0.00     0.210 HD
ENDBRANCH  17  27
ENDBRANCH  16  17
ENDBRANCH  14  16
ENDBRANCH  12  13
ENDBRANCH  11  12
ENDBRANCH   1  11
BRANCH   3  29
HETATM   29  C20 UNL     1      -2.735  52.188 -23.623  1.00  0.00     0.012 C 
BRANCH  29  30
HETATM   30  C21 UNL     1      -3.557  50.983 -23.145  1.00  0.00     0.027 C 
BRANCH  30  31
HETATM   31  C22 UNL     1      -5.038  51.313 -22.996  1.00  0.00     0.164 C 
BRANCH  31  32
HETATM   32  O2  UNL     1      -5.760  51.085 -24.200  1.00  0.00    -0.401 OA
HETATM   33  H38 UNL     1      -5.134  51.126 -24.956  1.00  0.00     0.209 HD
ENDBRANCH  31  32
ENDBRANCH  30  31
ENDBRANCH  29  30
ENDBRANCH   3  29
BRANCH   9  34
HETATM   34  O4  UNL     1      -0.545  51.548 -28.154  1.00  0.00    -0.389 OA
HETATM   35  H50 UNL     1       0.249  51.856 -28.630  1.00  0.00     0.210 HD
ENDBRANCH   9  34
BRANCH   5  36
HETATM   36  C26 UNL     1       0.366  51.925 -21.981  1.00  0.00     0.265 C 
HETATM   37  O3  UNL     1      -0.647  51.569 -21.390  1.00  0.00    -0.302 OA
ENDBRANCH   5  36
TORSDOF 16
ENDMDL
MODEL 5
REMARK minimizedAffinity -8.06033802
REMARK  16 active torsions:
REMARK  status: ('A' for Active; 'I' for Inactive)
REMARK    1  A    between atoms: C4_4  and  C5_5 
REMARK    2  A    between atoms: C5_5  and  C6_6 
REMARK    3  A    between atoms: C6_6  and  C7_7 
REMARK    4  A    between atoms: C9_9  and  C10_10 
REMARK    5  A    between atoms: C10_10  and  O1_11 
REMARK    6  A    between atoms: C10_10  and  C11_12 
REMARK    7  A    between atoms: C11_12  and  C12_13 
REMARK    8  A    between atoms: C14_15  and  C15_16 
REMARK    9  A    between atoms: C15_16  and  C16_17 
REMARK   10  A    between atoms: C16_17  and  C17_18 
REMARK   11  A    between atoms: C19_20  and  C20_21 
REMARK   12  A    between atoms: C20_21  and  C21_22 
REMARK   13  A    between atoms: C21_22  and  C22_23 
REMARK   14  A    between atoms: C22_23  and  O2_24 
REMARK   15  A    between atoms: C24_26  and  C26_28 
REMARK   16  A    between atoms: C29_32  and  O4_34 
ROOT
HETATM    1  C17 UNL     1      -2.308  51.146 -24.077  1.00  0.00    -0.006 C 
HETATM    2  C18 UNL     1      -3.033  52.402 -23.516  1.00  0.00     0.019 C 
HETATM    3  C19 UNL     1      -0.806  51.485 -24.529  1.00  0.00     0.026 C 
HETATM    4  C23 UNL     1      -0.643  51.785 -26.030  1.00  0.00    -0.066 C 
HETATM    5  C24 UNL     1       0.449  51.445 -26.761  1.00  0.00    -0.021 C 
HETATM    6  C25 UNL     1       0.599  51.725 -28.232  1.00  0.00     0.052 C 
HETATM    7  C27 UNL     1      -1.839  52.471 -26.634  1.00  0.00     0.038 C 
HETATM    8  C28 UNL     1      -3.116  51.647 -26.483  1.00  0.00     0.042 C 
HETATM    9  C29 UNL     1      -3.103  50.609 -25.332  1.00  0.00     0.062 C 
HETATM   10  C30 UNL     1      -2.591  49.254 -25.858  1.00  0.00     0.046 C 
ENDROOT
BRANCH   1  11
HETATM   11  C16 UNL     1      -2.213  50.094 -22.902  1.00  0.00     0.016 C 
BRANCH  11  12
HETATM   12  C15 UNL     1      -0.950  50.026 -22.024  1.00  0.00     0.028 C 
BRANCH  12  13
HETATM   13  C14 UNL     1      -0.977  50.874 -20.783  1.00  0.00    -0.024 C 
HETATM   14  C12 UNL     1      -0.992  50.467 -19.498  1.00  0.00    -0.085 C 
HETATM   15  C13 UNL     1      -1.007  49.028 -19.058  1.00  0.00     0.043 C 
BRANCH  14  16
HETATM   16  C11 UNL     1      -0.945  51.497 -18.376  1.00  0.00     0.069 C 
BRANCH  16  17
HETATM   17  C10 UNL     1       0.476  52.004 -18.070  1.00  0.00     0.145 C 
BRANCH  17  18
HETATM   18  C9  UNL     1       0.863  51.782 -16.630  1.00  0.00     0.007 C 
HETATM   19  C7  UNL     1       2.038  52.014 -16.007  1.00  0.00    -0.085 C 
HETATM   20  C8  UNL     1       3.264  52.585 -16.667  1.00  0.00     0.043 C 
BRANCH  19  21
HETATM   21  C6  UNL     1       2.205  51.657 -14.540  1.00  0.00     0.037 C 
BRANCH  21  22
HETATM   22  C5  UNL     1       3.470  50.848 -14.216  1.00  0.00     0.031 C 
BRANCH  22  23
HETATM   23  C4  UNL     1       3.266  49.798 -13.156  1.00  0.00    -0.024 C 
HETATM   24  C2  UNL     1       2.436  48.737 -13.197  1.00  0.00    -0.091 C 
HETATM   25  C1  UNL     1       1.572  48.364 -14.369  1.00  0.00     0.042 C 
HETATM   26  C3  UNL     1       2.329  47.798 -12.024  1.00  0.00     0.042 C 
ENDBRANCH  22  23
ENDBRANCH  21  22
ENDBRANCH  19  21
ENDBRANCH  17  18
BRANCH  17  27
HETATM   27  O1  UNL     1       0.624  53.383 -18.393  1.00  0.00    -0.391 OA
HETATM   28  H17 UNL     1       0.523  53.448 -19.358  1.00  0.00     0.210 HD
ENDBRANCH  17  27
ENDBRANCH  16  17
ENDBRANCH  14  16
ENDBRANCH  12  13
ENDBRANCH  11  12
ENDBRANCH   1  11
BRANCH   3  29
HETATM   29  C20 UNL     1      -0.085  52.621 -23.747  1.00  0.00     0.012 C 
BRANCH  29  30
HETATM   30  C21 UNL     1       0.268  53.838 -24.613  1.00  0.00     0.027 C 
BRANCH  30  31
HETATM   31  C22 UNL     1       1.182  54.820 -23.888  1.00  0.00     0.164 C 
BRANCH  31  32
HETATM   32  O2  UNL     1       1.243  56.078 -24.546  1.00  0.00    -0.401 OA
HETATM   33  H38 UNL     1       1.006  55.953 -25.491  1.00  0.00     0.209 HD
ENDBRANCH  31  32
ENDBRANCH  30  31
ENDBRANCH  29  30
ENDBRANCH   3  29
BRANCH   9  34
HETATM   34  O4  UNL     1      -4.480  50.404 -24.981  1.00  0.00    -0.389 OA
HETATM   35  H50 UNL     1      -4.964  50.145 -25.787  1.00  0.00     0.210 HD
ENDBRANCH   9  34
BRANCH   5  36
HETATM   36  C26 UNL     1       1.647  50.753 -26.174  1.00  0.00     0.265 C 
HETATM   37  O3  UNL     1       2.812  50.978 -26.478  1.00  0.00    -0.302 OA
ENDBRANCH   5  36
TORSDOF 16
ENDMDL
MODEL 6
REMARK minimizedAffinity -8.05507755
REMARK  16 active torsions:
REMARK  status: ('A' for Active; 'I' for Inactive)
REMARK    1  A    between atoms: C4_4  and  C5_5 
REMARK    2  A    between atoms: C5_5  and  C6_6 
REMARK    3  A    between atoms: C6_6  and  C7_7 
REMARK    4  A    between atoms: C9_9  and  C10_10 
REMARK    5  A    between atoms: C10_10  and  O1_11 
REMARK    6  A    between atoms: C10_10  and  C11_12 
REMARK    7  A    between atoms: C11_12  and  C12_13 
REMARK    8  A    between atoms: C14_15  and  C15_16 
REMARK    9  A    between atoms: C15_16  and  C16_17 
REMARK   10  A    between atoms: C16_17  and  C17_18 
REMARK   11  A    between atoms: C19_20  and  C20_21 
REMARK   12  A    between atoms: C20_21  and  C21_22 
REMARK   13  A    between atoms: C21_22  and  C22_23 
REMARK   14  A    between atoms: C22_23  and  O2_24 
REMARK   15  A    between atoms: C24_26  and  C26_28 
REMARK   16  A    between atoms: C29_32  and  O4_34 
ROOT
HETATM    1  C17 UNL     1      -2.354  50.557 -24.747  1.00  0.00    -0.006 C 
HETATM    2  C18 UNL     1      -1.852  49.110 -24.479  1.00  0.00     0.019 C 
HETATM    3  C19 UNL     1      -1.241  51.440 -25.493  1.00  0.00     0.026 C 
HETATM    4  C23 UNL     1      -0.386  52.314 -24.556  1.00  0.00    -0.066 C 
HETATM    5  C24 UNL     1       0.087  53.543 -24.882  1.00  0.00    -0.021 C 
HETATM    6  C25 UNL     1       0.908  54.402 -23.959  1.00  0.00     0.052 C 
HETATM    7  C27 UNL     1      -0.146  51.686 -23.210  1.00  0.00     0.038 C 
HETATM    8  C28 UNL     1      -1.449  51.386 -22.470  1.00  0.00     0.042 C 
HETATM    9  C29 UNL     1      -2.704  51.245 -23.369  1.00  0.00     0.062 C 
HETATM   10  C30 UNL     1      -3.396  52.615 -23.517  1.00  0.00     0.046 C 
ENDROOT
BRANCH   1  11
HETATM   11  C16 UNL     1      -3.592  50.451 -25.724  1.00  0.00     0.016 C 
BRANCH  11  12
HETATM   12  C15 UNL     1      -4.281  49.094 -25.957  1.00  0.00     0.028 C 
BRANCH  12  13
HETATM   13  C14 UNL     1      -4.235  48.578 -27.368  1.00  0.00    -0.024 C 
HETATM   14  C12 UNL     1      -5.221  47.980 -28.067  1.00  0.00    -0.085 C 
HETATM   15  C13 UNL     1      -6.595  47.690 -27.528  1.00  0.00     0.043 C 
BRANCH  14  16
HETATM   16  C11 UNL     1      -4.990  47.593 -29.522  1.00  0.00     0.069 C 
BRANCH  16  17
HETATM   17  C10 UNL     1      -5.624  48.576 -30.524  1.00  0.00     0.145 C 
BRANCH  17  18
HETATM   18  C9  UNL     1      -6.764  47.954 -31.291  1.00  0.00     0.007 C 
HETATM   19  C7  UNL     1      -8.033  48.384 -31.451  1.00  0.00    -0.085 C 
HETATM   20  C8  UNL     1      -8.591  49.654 -30.866  1.00  0.00     0.043 C 
BRANCH  19  21
HETATM   21  C6  UNL     1      -9.027  47.548 -32.236  1.00  0.00     0.037 C 
BRANCH  21  22
HETATM   22  C5  UNL     1     -10.366  47.304 -31.525  1.00  0.00     0.031 C 
BRANCH  22  23
HETATM   23  C4  UNL     1     -10.239  46.546 -30.229  1.00  0.00    -0.024 C 
HETATM   24  C2  UNL     1     -10.956  46.719 -29.101  1.00  0.00    -0.091 C 
HETATM   25  C1  UNL     1     -12.089  47.694 -28.941  1.00  0.00     0.042 C 
HETATM   26  C3  UNL     1     -10.671  45.892 -27.875  1.00  0.00     0.042 C 
ENDBRANCH  22  23
ENDBRANCH  21  22
ENDBRANCH  19  21
ENDBRANCH  17  18
BRANCH  17  27
HETATM   27  O1  UNL     1      -4.661  49.088 -31.439  1.00  0.00    -0.391 OA
HETATM   28  H17 UNL     1      -4.038  49.615 -30.912  1.00  0.00     0.210 HD
ENDBRANCH  17  27
ENDBRANCH  16  17
ENDBRANCH  14  16
ENDBRANCH  12  13
ENDBRANCH  11  12
ENDBRANCH   1  11
BRANCH   3  29
HETATM   29  C20 UNL     1      -0.265  50.676 -26.434  1.00  0.00     0.012 C 
BRANCH  29  30
HETATM   30  C21 UNL     1       1.212  51.026 -26.207  1.00  0.00     0.027 C 
BRANCH  30  31
HETATM   31  C22 UNL     1       1.882  51.561 -27.468  1.00  0.00     0.164 C 
BRANCH  31  32
HETATM   32  O2  UNL     1       3.300  51.498 -27.388  1.00  0.00    -0.401 OA
HETATM   33  H38 UNL     1       3.563  51.483 -26.441  1.00  0.00     0.209 HD
ENDBRANCH  31  32
ENDBRANCH  30  31
ENDBRANCH  29  30
ENDBRANCH   3  29
BRANCH   9  34
HETATM   34  O4  UNL     1      -3.615  50.417 -22.632  1.00  0.00    -0.389 OA
HETATM   35  H50 UNL     1      -3.758  50.824 -21.757  1.00  0.00     0.210 HD
ENDBRANCH   9  34
BRANCH   5  36
HETATM   36  C26 UNL     1      -0.151  54.186 -26.219  1.00  0.00     0.265 C 
HETATM   37  O3  UNL     1       0.116  55.348 -26.501  1.00  0.00    -0.302 OA
ENDBRANCH   5  36
TORSDOF 16
ENDMDL
MODEL 7
REMARK minimizedAffinity -7.99259996
REMARK  16 active torsions:
REMARK  status: ('A' for Active; 'I' for Inactive)
REMARK    1  A    between atoms: C4_4  and  C5_5 
REMARK    2  A    between atoms: C5_5  and  C6_6 
REMARK    3  A    between atoms: C6_6  and  C7_7 
REMARK    4  A    between atoms: C9_9  and  C10_10 
REMARK    5  A    between atoms: C10_10  and  O1_11 
REMARK    6  A    between atoms: C10_10  and  C11_12 
REMARK    7  A    between atoms: C11_12  and  C12_13 
REMARK    8  A    between atoms: C14_15  and  C15_16 
REMARK    9  A    between atoms: C15_16  and  C16_17 
REMARK   10  A    between atoms: C16_17  and  C17_18 
REMARK   11  A    between atoms: C19_20  and  C20_21 
REMARK   12  A    between atoms: C20_21  and  C21_22 
REMARK   13  A    between atoms: C21_22  and  C22_23 
REMARK   14  A    between atoms: C22_23  and  O2_24 
REMARK   15  A    between atoms: C24_26  and  C26_28 
REMARK   16  A    between atoms: C29_32  and  O4_34 
ROOT
HETATM    1  C17 UNL     1      -2.380  51.008 -24.621  1.00  0.00    -0.006 C 
HETATM    2  C18 UNL     1      -3.313  52.149 -24.127  1.00  0.00     0.019 C 
HETATM    3  C19 UNL     1      -0.895  51.543 -24.910  1.00  0.00     0.026 C 
HETATM    4  C23 UNL     1      -0.618  51.896 -26.383  1.00  0.00    -0.066 C 
HETATM    5  C24 UNL     1       0.578  51.714 -26.999  1.00  0.00    -0.021 C 
HETATM    6  C25 UNL     1       0.841  52.044 -28.443  1.00  0.00     0.052 C 
HETATM    7  C27 UNL     1      -1.823  52.440 -27.102  1.00  0.00     0.038 C 
HETATM    8  C28 UNL     1      -2.994  51.459 -27.094  1.00  0.00     0.042 C 
HETATM    9  C29 UNL     1      -2.967  50.404 -25.958  1.00  0.00     0.062 C 
HETATM   10  C30 UNL     1      -2.234  49.137 -26.441  1.00  0.00     0.046 C 
ENDROOT
BRANCH   1  11
HETATM   11  C16 UNL     1      -2.272  49.949 -23.453  1.00  0.00     0.016 C 
BRANCH  11  12
HETATM   12  C15 UNL     1      -3.041  48.618 -23.541  1.00  0.00     0.028 C 
BRANCH  12  13
HETATM   13  C14 UNL     1      -3.585  48.098 -22.240  1.00  0.00    -0.024 C 
HETATM   14  C12 UNL     1      -2.897  47.654 -21.169  1.00  0.00    -0.085 C 
HETATM   15  C13 UNL     1      -1.397  47.576 -21.090  1.00  0.00     0.043 C 
BRANCH  14  16
HETATM   16  C11 UNL     1      -3.645  47.233 -19.910  1.00  0.00     0.069 C 
BRANCH  16  17
HETATM   17  C10 UNL     1      -4.294  48.412 -19.161  1.00  0.00     0.145 C 
BRANCH  17  18
HETATM   18  C9  UNL     1      -3.284  49.453 -18.750  1.00  0.00     0.007 C 
HETATM   19  C7  UNL     1      -3.053  50.681 -19.262  1.00  0.00    -0.085 C 
HETATM   20  C8  UNL     1      -3.813  51.292 -20.409  1.00  0.00     0.043 C 
BRANCH  19  21
HETATM   21  C6  UNL     1      -1.930  51.539 -18.705  1.00  0.00     0.037 C 
BRANCH  21  22
HETATM   22  C5  UNL     1      -0.552  50.861 -18.687  1.00  0.00     0.031 C 
BRANCH  22  23
HETATM   23  C4  UNL     1       0.301  51.246 -17.507  1.00  0.00    -0.024 C 
HETATM   24  C2  UNL     1       0.623  50.487 -16.441  1.00  0.00    -0.091 C 
HETATM   25  C1  UNL     1       0.223  49.050 -16.255  1.00  0.00     0.042 C 
HETATM   26  C3  UNL     1       1.463  51.047 -15.324  1.00  0.00     0.042 C 
ENDBRANCH  22  23
ENDBRANCH  21  22
ENDBRANCH  19  21
ENDBRANCH  17  18
BRANCH  17  27
HETATM   27  O1  UNL     1      -5.015  47.973 -18.014  1.00  0.00    -0.391 OA
HETATM   28  H17 UNL     1      -5.753  47.434 -18.347  1.00  0.00     0.210 HD
ENDBRANCH  17  27
ENDBRANCH  16  17
ENDBRANCH  14  16
ENDBRANCH  12  13
ENDBRANCH  11  12
ENDBRANCH   1  11
BRANCH   3  29
HETATM   29  C20 UNL     1      -0.409  52.743 -24.046  1.00  0.00     0.012 C 
BRANCH  29  30
HETATM   30  C21 UNL     1       0.656  52.365 -23.008  1.00  0.00     0.027 C 
BRANCH  30  31
HETATM   31  C22 UNL     1       0.232  52.718 -21.587  1.00  0.00     0.164 C 
BRANCH  31  32
HETATM   32  O2  UNL     1       1.309  53.248 -20.824  1.00  0.00    -0.401 OA
HETATM   33  H38 UNL     1       2.156  52.941 -21.217  1.00  0.00     0.209 HD
ENDBRANCH  31  32
ENDBRANCH  30  31
ENDBRANCH  29  30
ENDBRANCH   3  29
BRANCH   9  34
HETATM   34  O4  UNL     1      -4.334  50.019 -25.755  1.00  0.00    -0.389 OA
HETATM   35  H50 UNL     1      -4.697  49.720 -26.610  1.00  0.00     0.210 HD
ENDBRANCH   9  34
BRANCH   5  36
HETATM   36  C26 UNL     1       1.787  51.164 -26.296  1.00  0.00     0.265 C 
HETATM   37  O3  UNL     1       2.934  51.208 -26.726  1.00  0.00    -0.302 OA
ENDBRANCH   5  36
TORSDOF 16
ENDMDL
MODEL 8
REMARK minimizedAffinity -7.96881819
REMARK  16 active torsions:
REMARK  status: ('A' for Active; 'I' for Inactive)
REMARK    1  A    between atoms: C4_4  and  C5_5 
REMARK    2  A    between atoms: C5_5  and  C6_6 
REMARK    3  A    between atoms: C6_6  and  C7_7 
REMARK    4  A    between atoms: C9_9  and  C10_10 
REMARK    5  A    between atoms: C10_10  and  O1_11 
REMARK    6  A    between atoms: C10_10  and  C11_12 
REMARK    7  A    between atoms: C11_12  and  C12_13 
REMARK    8  A    between atoms: C14_15  and  C15_16 
REMARK    9  A    between atoms: C15_16  and  C16_17 
REMARK   10  A    between atoms: C16_17  and  C17_18 
REMARK   11  A    between atoms: C19_20  and  C20_21 
REMARK   12  A    between atoms: C20_21  and  C21_22 
REMARK   13  A    between atoms: C21_22  and  C22_23 
REMARK   14  A    between atoms: C22_23  and  O2_24 
REMARK   15  A    between atoms: C24_26  and  C26_28 
REMARK   16  A    between atoms: C29_32  and  O4_34 
ROOT
HETATM    1  C17 UNL     1      -2.282  50.969 -24.366  1.00  0.00    -0.006 C 
HETATM    2  C18 UNL     1      -3.033  52.193 -23.768  1.00  0.00     0.019 C 
HETATM    3  C19 UNL     1      -0.763  51.332 -24.735  1.00  0.00     0.026 C 
HETATM    4  C23 UNL     1      -0.538  51.713 -26.210  1.00  0.00    -0.066 C 
HETATM    5  C24 UNL     1       0.585  51.413 -26.912  1.00  0.00    -0.021 C 
HETATM    6  C25 UNL     1       0.795  51.772 -28.357  1.00  0.00     0.052 C 
HETATM    7  C27 UNL     1      -1.708  52.431 -26.825  1.00  0.00     0.038 C 
HETATM    8  C28 UNL     1      -2.989  51.600 -26.773  1.00  0.00     0.042 C 
HETATM    9  C29 UNL     1      -3.023  50.501 -25.681  1.00  0.00     0.062 C 
HETATM   10  C30 UNL     1      -2.485  49.176 -26.257  1.00  0.00     0.046 C 
ENDROOT
BRANCH   1  11
HETATM   11  C16 UNL     1      -2.234  49.855 -23.247  1.00  0.00     0.016 C 
BRANCH  11  12
HETATM   12  C15 UNL     1      -3.019  50.040 -21.935  1.00  0.00     0.028 C 
BRANCH  12  13
HETATM   13  C14 UNL     1      -2.481  51.087 -21.000  1.00  0.00    -0.024 C 
HETATM   14  C12 UNL     1      -1.234  51.191 -20.497  1.00  0.00    -0.085 C 
HETATM   15  C13 UNL     1      -0.118  50.222 -20.775  1.00  0.00     0.043 C 
BRANCH  14  16
HETATM   16  C11 UNL     1      -0.870  52.379 -19.616  1.00  0.00     0.069 C 
BRANCH  16  17
HETATM   17  C10 UNL     1       0.444  52.182 -18.836  1.00  0.00     0.145 C 
BRANCH  17  18
HETATM   18  C9  UNL     1       0.223  51.512 -17.504  1.00  0.00     0.007 C 
HETATM   19  C7  UNL     1       1.026  51.460 -16.420  1.00  0.00    -0.085 C 
HETATM   20  C8  UNL     1       2.380  52.110 -16.321  1.00  0.00     0.043 C 
BRANCH  19  21
HETATM   21  C6  UNL     1       0.601  50.669 -15.196  1.00  0.00     0.037 C 
BRANCH  21  22
HETATM   22  C5  UNL     1      -0.527  51.311 -14.375  1.00  0.00     0.031 C 
BRANCH  22  23
HETATM   23  C4  UNL     1      -0.511  50.934 -12.917  1.00  0.00    -0.024 C 
HETATM   24  C2  UNL     1      -0.170  51.711 -11.870  1.00  0.00    -0.091 C 
HETATM   25  C1  UNL     1       0.217  53.160 -11.963  1.00  0.00     0.042 C 
HETATM   26  C3  UNL     1      -0.175  51.158 -10.469  1.00  0.00     0.042 C 
ENDBRANCH  22  23
ENDBRANCH  21  22
ENDBRANCH  19  21
ENDBRANCH  17  18
BRANCH  17  27
HETATM   27  O1  UNL     1       1.127  53.416 -18.638  1.00  0.00    -0.391 OA
HETATM   28  H17 UNL     1       1.389  53.727 -19.522  1.00  0.00     0.210 HD
ENDBRANCH  17  27
ENDBRANCH  16  17
ENDBRANCH  14  16
ENDBRANCH  12  13
ENDBRANCH  11  12
ENDBRANCH   1  11
BRANCH   3  29
HETATM   29  C20 UNL     1      -0.078  52.424 -23.864  1.00  0.00     0.012 C 
BRANCH  29  30
HETATM   30  C21 UNL     1       0.353  53.665 -24.656  1.00  0.00     0.027 C 
BRANCH  30  31
HETATM   31  C22 UNL     1       1.154  54.646 -23.807  1.00  0.00     0.164 C 
BRANCH  31  32
HETATM   32  O2  UNL     1       1.204  55.941 -24.390  1.00  0.00    -0.401 OA
HETATM   33  H38 UNL     1       1.050  55.859 -25.357  1.00  0.00     0.209 HD
ENDBRANCH  31  32
ENDBRANCH  30  31
ENDBRANCH  29  30
ENDBRANCH   3  29
BRANCH   9  34
HETATM   34  O4  UNL     1      -4.412  50.278 -25.399  1.00  0.00    -0.389 OA
HETATM   35  H50 UNL     1      -4.862  50.063 -26.238  1.00  0.00     0.210 HD
ENDBRANCH   9  34
BRANCH   5  36
HETATM   36  C26 UNL     1       1.758  50.690 -26.313  1.00  0.00     0.265 C 
HETATM   37  O3  UNL     1       2.923  51.068 -26.367  1.00  0.00    -0.302 OA
ENDBRANCH   5  36
TORSDOF 16
ENDMDL
MODEL 9
REMARK minimizedAffinity -7.96363211
REMARK  16 active torsions:
REMARK  status: ('A' for Active; 'I' for Inactive)
REMARK    1  A    between atoms: C4_4  and  C5_5 
REMARK    2  A    between atoms: C5_5  and  C6_6 
REMARK    3  A    between atoms: C6_6  and  C7_7 
REMARK    4  A    between atoms: C9_9  and  C10_10 
REMARK    5  A    between atoms: C10_10  and  O1_11 
REMARK    6  A    between atoms: C10_10  and  C11_12 
REMARK    7  A    between atoms: C11_12  and  C12_13 
REMARK    8  A    between atoms: C14_15  and  C15_16 
REMARK    9  A    between atoms: C15_16  and  C16_17 
REMARK   10  A    between atoms: C16_17  and  C17_18 
REMARK   11  A    between atoms: C19_20  and  C20_21 
REMARK   12  A    between atoms: C20_21  and  C21_22 
REMARK   13  A    between atoms: C21_22  and  C22_23 
REMARK   14  A    between atoms: C22_23  and  O2_24 
REMARK   15  A    between atoms: C24_26  and  C26_28 
REMARK   16  A    between atoms: C29_32  and  O4_34 
ROOT
HETATM    1  C17 UNL     1      -2.300  50.895 -24.490  1.00  0.00    -0.006 C 
HETATM    2  C18 UNL     1      -3.050  52.101 -23.857  1.00  0.00     0.019 C 
HETATM    3  C19 UNL     1      -0.778  51.263 -24.841  1.00  0.00     0.026 C 
HETATM    4  C23 UNL     1      -0.544  51.691 -26.301  1.00  0.00    -0.066 C 
HETATM    5  C24 UNL     1       0.580  51.410 -27.007  1.00  0.00    -0.021 C 
HETATM    6  C25 UNL     1       0.799  51.816 -28.439  1.00  0.00     0.052 C 
HETATM    7  C27 UNL     1      -1.710  52.433 -26.898  1.00  0.00     0.038 C 
HETATM    8  C28 UNL     1      -2.994  51.607 -26.879  1.00  0.00     0.042 C 
HETATM    9  C29 UNL     1      -3.037  50.473 -25.823  1.00  0.00     0.062 C 
HETATM   10  C30 UNL     1      -2.502  49.165 -26.440  1.00  0.00     0.046 C 
ENDROOT
BRANCH   1  11
HETATM   11  C16 UNL     1      -2.262  49.744 -23.408  1.00  0.00     0.016 C 
BRANCH  11  12
HETATM   12  C15 UNL     1      -3.573  49.136 -22.876  1.00  0.00     0.028 C 
BRANCH  12  13
HETATM   13  C14 UNL     1      -3.663  48.998 -21.382  1.00  0.00    -0.024 C 
HETATM   14  C12 UNL     1      -4.096  49.910 -20.487  1.00  0.00    -0.085 C 
HETATM   15  C13 UNL     1      -4.564  51.295 -20.839  1.00  0.00     0.043 C 
BRANCH  14  16
HETATM   16  C11 UNL     1      -4.176  49.543 -19.011  1.00  0.00     0.069 C 
BRANCH  16  17
HETATM   17  C10 UNL     1      -2.836  49.697 -18.268  1.00  0.00     0.145 C 
BRANCH  17  18
HETATM   18  C9  UNL     1      -1.984  50.796 -18.850  1.00  0.00     0.007 C 
HETATM   19  C7  UNL     1      -0.931  50.718 -19.691  1.00  0.00    -0.085 C 
HETATM   20  C8  UNL     1      -0.373  49.439 -20.255  1.00  0.00     0.043 C 
BRANCH  19  21
HETATM   21  C6  UNL     1      -0.191  51.979 -20.102  1.00  0.00     0.037 C 
BRANCH  21  22
HETATM   22  C5  UNL     1       0.006  53.005 -18.977  1.00  0.00     0.031 C 
BRANCH  22  23
HETATM   23  C4  UNL     1       1.346  52.913 -18.296  1.00  0.00    -0.024 C 
HETATM   24  C2  UNL     1       1.632  52.324 -17.117  1.00  0.00    -0.091 C 
HETATM   25  C1  UNL     1       0.644  51.578 -16.265  1.00  0.00     0.042 C 
HETATM   26  C3  UNL     1       3.031  52.357 -16.561  1.00  0.00     0.042 C 
ENDBRANCH  22  23
ENDBRANCH  21  22
ENDBRANCH  19  21
ENDBRANCH  17  18
BRANCH  17  27
HETATM   27  O1  UNL     1      -2.097  48.480 -18.258  1.00  0.00    -0.391 OA
HETATM   28  H17 UNL     1      -2.619  47.850 -17.733  1.00  0.00     0.210 HD
ENDBRANCH  17  27
ENDBRANCH  16  17
ENDBRANCH  14  16
ENDBRANCH  12  13
ENDBRANCH  11  12
ENDBRANCH   1  11
BRANCH   3  29
HETATM   29  C20 UNL     1      -0.094  52.323 -23.931  1.00  0.00     0.012 C 
BRANCH  29  30
HETATM   30  C21 UNL     1       0.808  53.302 -24.694  1.00  0.00     0.027 C 
BRANCH  30  31
HETATM   31  C22 UNL     1       0.291  54.735 -24.633  1.00  0.00     0.164 C 
BRANCH  31  32
HETATM   32  O2  UNL     1       0.293  55.359 -25.911  1.00  0.00    -0.401 OA
HETATM   33  H38 UNL     1       0.950  54.905 -26.483  1.00  0.00     0.209 HD
ENDBRANCH  31  32
ENDBRANCH  30  31
ENDBRANCH  29  30
ENDBRANCH   3  29
BRANCH   9  34
HETATM   34  O4  UNL     1      -4.428  50.245 -25.556  1.00  0.00    -0.389 OA
HETATM   35  H50 UNL     1      -4.875  50.060 -26.403  1.00  0.00     0.210 HD
ENDBRANCH   9  34
BRANCH   5  36
HETATM   36  C26 UNL     1       1.748  50.663 -26.427  1.00  0.00     0.265 C 
HETATM   37  O3  UNL     1       2.917  51.024 -26.488  1.00  0.00    -0.302 OA
ENDBRANCH   5  36
TORSDOF 16
ENDMDL
