MODEL 1
REMARK minimizedAffinity -6.81423521
REMARK CNNscore 0.626340032
REMARK CNNaffinity 6.8420639
REMARK  12 active torsions:
REMARK  status: ('A' for Active; 'I' for Inactive)
REMARK    1  A    between atoms: C4_4  and  C5_5 
REMARK    2  A    between atoms: C5_5  and  C6_6 
REMARK    3  A    between atoms: C6_6  and  C7_7 
REMARK    4  A    between atoms: C7_7  and  C9_9 
REMARK    5  A    between atoms: C17_17  and  C18_18 
REMARK    6  A    between atoms: C18_18  and  O1_20 
REMARK    7  A    between atoms: C18_18  and  C20_21 
REMARK    8  A    between atoms: C20_21  and  O2_22 
REMARK    9  A    between atoms: C21_23  and  C22_24 
REMARK   10  A    between atoms: C22_24  and  C23_25 
REMARK   11  A    between atoms: C23_25  and  C24_26 
REMARK   12  A    between atoms: C24_26  and  O4_28 
ROOT
HETATM    1  C9  UNL     1       4.393  54.862  -8.447  1.00  0.00    -0.002 C 
HETATM    2  C10 UNL     1       3.616  54.366  -7.209  1.00  0.00     0.006 C 
HETATM    3  C11 UNL     1       2.224  53.989  -7.703  1.00  0.00     0.011 C 
HETATM    4  C12 UNL     1       1.909  55.020  -8.811  1.00  0.00    -0.032 C 
HETATM    5  C13 UNL     1       1.561  56.377  -8.136  1.00  0.00     0.016 C 
HETATM    6  C14 UNL     1       0.677  54.614  -9.719  1.00  0.00     0.004 C 
HETATM    7  C15 UNL     1      -0.611  54.446  -8.892  1.00  0.00     0.007 C 
HETATM    8  C16 UNL     1      -1.739  53.613  -9.487  1.00  0.00     0.009 C 
HETATM    9  C17 UNL     1      -1.659  53.340 -10.998  1.00  0.00     0.031 C 
HETATM   10  C21 UNL     1      -0.242  52.812 -11.404  1.00  0.00    -0.025 A 
HETATM   11  C25 UNL     1       0.592  52.040 -10.379  1.00  0.00     0.021 A 
HETATM   12  C26 UNL     1       0.970  53.467 -10.685  1.00  0.00    -0.027 A 
HETATM   13  C27 UNL     1       2.247  53.697 -11.471  1.00  0.00     0.011 C 
HETATM   14  C28 UNL     1       3.429  53.872 -10.540  1.00  0.00     0.011 C 
HETATM   15  C29 UNL     1       3.295  55.089  -9.571  1.00  0.00    -0.032 C 
HETATM   16  C30 UNL     1       3.429  56.365 -10.417  1.00  0.00     0.016 C 
ENDROOT
BRANCH   1  17
HETATM   17  C7  UNL     1       5.524  55.883  -8.107  1.00  0.00    -0.014 C 
HETATM   18  C8  UNL     1       5.047  56.968  -7.132  1.00  0.00     0.010 C 
BRANCH  17  19
HETATM   19  C6  UNL     1       6.892  55.301  -7.695  1.00  0.00     0.008 C 
BRANCH  19  20
HETATM   20  C5  UNL     1       7.130  55.336  -6.179  1.00  0.00     0.028 C 
BRANCH  20  21
HETATM   21  C4  UNL     1       8.497  55.878  -5.854  1.00  0.00    -0.025 C 
HETATM   22  C2  UNL     1       8.787  57.054  -5.265  1.00  0.00    -0.091 C 
HETATM   23  C1  UNL     1       7.771  58.087  -4.859  1.00  0.00     0.042 C 
HETATM   24  C3  UNL     1      10.214  57.439  -4.974  1.00  0.00     0.042 C 
ENDBRANCH  20  21
ENDBRANCH  19  20
ENDBRANCH  17  19
ENDBRANCH   1  17
BRANCH  10  25
HETATM   25  C22 UNL     1      -0.075  52.533 -12.911  1.00  0.00     0.021 C 
BRANCH  25  26
HETATM   26  C23 UNL     1       0.331  51.101 -13.266  1.00  0.00     0.111 C 
BRANCH  26  27
HETATM   27  C24 UNL     1       1.554  51.091 -14.139  1.00  0.00     0.139 C 
HETATM   28  O3  UNL     1       2.307  50.157 -14.356  1.00  0.00    -0.650 OA
BRANCH  27  29
HETATM   29  O4  UNL     1       1.788  52.297 -14.698  1.00  0.00    -0.776 OA
HETATM   30  H41 UNL     1       2.604  52.158 -15.222  1.00  0.00     0.167 HD
ENDBRANCH  27  29
ENDBRANCH  26  27
ENDBRANCH  25  26
ENDBRANCH  10  25
BRANCH   9  31
HETATM   31  C18 UNL     1      -2.888  52.465 -11.504  1.00  0.00     0.080 C 
HETATM   32  C19 UNL     1      -4.219  52.691 -10.755  1.00  0.00     0.048 C 
BRANCH  31  33
HETATM   33  O1  UNL     1      -2.620  51.061 -11.346  1.00  0.00    -0.388 OA
HETATM   34  H33 UNL     1      -3.249  50.617 -11.951  1.00  0.00     0.210 HD
ENDBRANCH  31  33
BRANCH  31  35
HETATM   35  C20 UNL     1      -3.152  52.731 -13.015  1.00  0.00     0.201 C 
BRANCH  35  36
HETATM   36  O2  UNL     1      -4.205  53.693 -13.150  1.00  0.00    -0.398 OA
HETATM   37  H36 UNL     1      -4.451  53.707 -14.093  1.00  0.00     0.209 HD
ENDBRANCH  35  36
ENDBRANCH  31  35
ENDBRANCH   9  31
TORSDOF 12
ENDMDL
MODEL 2
REMARK minimizedAffinity -9.33189201
REMARK CNNscore 0.429090351
REMARK CNNaffinity 7.05997276
REMARK  12 active torsions:
REMARK  status: ('A' for Active; 'I' for Inactive)
REMARK    1  A    between atoms: C4_4  and  C5_5 
REMARK    2  A    between atoms: C5_5  and  C6_6 
REMARK    3  A    between atoms: C6_6  and  C7_7 
REMARK    4  A    between atoms: C7_7  and  C9_9 
REMARK    5  A    between atoms: C17_17  and  C18_18 
REMARK    6  A    between atoms: C18_18  and  O1_20 
REMARK    7  A    between atoms: C18_18  and  C20_21 
REMARK    8  A    between atoms: C20_21  and  O2_22 
REMARK    9  A    between atoms: C21_23  and  C22_24 
REMARK   10  A    between atoms: C22_24  and  C23_25 
REMARK   11  A    between atoms: C23_25  and  C24_26 
REMARK   12  A    between atoms: C24_26  and  O4_28 
ROOT
HETATM    1  C9  UNL     1      -2.564  49.854 -19.511  1.00  0.00    -0.002 C 
HETATM    2  C10 UNL     1      -2.477  51.386 -19.340  1.00  0.00     0.006 C 
HETATM    3  C11 UNL     1      -1.988  51.935 -20.676  1.00  0.00     0.011 C 
HETATM    4  C12 UNL     1      -1.001  50.868 -21.201  1.00  0.00    -0.032 C 
HETATM    5  C13 UNL     1       0.325  50.986 -20.397  1.00  0.00     0.016 C 
HETATM    6  C14 UNL     1      -0.642  51.041 -22.734  1.00  0.00     0.004 C 
HETATM    7  C15 UNL     1      -0.003  52.412 -23.019  1.00  0.00     0.007 C 
HETATM    8  C16 UNL     1      -0.041  52.934 -24.450  1.00  0.00     0.009 C 
HETATM    9  C17 UNL     1      -0.357  51.900 -25.543  1.00  0.00     0.031 C 
HETATM   10  C21 UNL     1      -1.623  51.056 -25.177  1.00  0.00    -0.025 A 
HETATM   11  C25 UNL     1      -2.703  51.674 -24.287  1.00  0.00     0.021 A 
HETATM   12  C26 UNL     1      -1.773  50.652 -23.684  1.00  0.00    -0.027 A 
HETATM   13  C27 UNL     1      -2.354  49.291 -23.351  1.00  0.00     0.011 C 
HETATM   14  C28 UNL     1      -2.871  49.258 -21.927  1.00  0.00     0.011 C 
HETATM   15  C29 UNL     1      -1.774  49.533 -20.851  1.00  0.00    -0.032 C 
HETATM   16  C30 UNL     1      -0.842  48.312 -20.824  1.00  0.00     0.016 C 
ENDROOT
BRANCH   1  17
HETATM   17  C7  UNL     1      -2.382  49.066 -18.176  1.00  0.00    -0.014 C 
HETATM   18  C8  UNL     1      -3.156  47.740 -18.179  1.00  0.00     0.010 C 
BRANCH  17  19
HETATM   19  C6  UNL     1      -0.939  48.887 -17.660  1.00  0.00     0.008 C 
BRANCH  19  20
HETATM   20  C5  UNL     1      -0.571  49.875 -16.544  1.00  0.00     0.028 C 
BRANCH  20  21
HETATM   21  C4  UNL     1       0.533  50.801 -16.980  1.00  0.00    -0.025 C 
HETATM   22  C2  UNL     1       1.163  51.726 -16.230  1.00  0.00    -0.091 C 
HETATM   23  C1  UNL     1       0.831  52.043 -14.797  1.00  0.00     0.042 C 
HETATM   24  C3  UNL     1       2.280  52.555 -16.807  1.00  0.00     0.042 C 
ENDBRANCH  20  21
ENDBRANCH  19  20
ENDBRANCH  17  19
ENDBRANCH   1  17
BRANCH  10  25
HETATM   25  C22 UNL     1      -1.993  49.980 -26.217  1.00  0.00     0.021 C 
BRANCH  25  26
HETATM   26  C23 UNL     1      -3.475  49.920 -26.590  1.00  0.00     0.111 C 
BRANCH  26  27
HETATM   27  C24 UNL     1      -3.656  49.388 -27.985  1.00  0.00     0.139 C 
HETATM   28  O3  UNL     1      -3.861  48.233 -28.321  1.00  0.00    -0.650 OA
BRANCH  27  29
HETATM   29  O4  UNL     1      -3.549  50.359 -28.916  1.00  0.00    -0.776 OA
HETATM   30  H41 UNL     1      -3.673  49.884 -29.764  1.00  0.00     0.167 HD
ENDBRANCH  27  29
ENDBRANCH  26  27
ENDBRANCH  25  26
ENDBRANCH  10  25
BRANCH   9  31
HETATM   31  C18 UNL     1      -0.368  52.560 -26.992  1.00  0.00     0.080 C 
HETATM   32  C19 UNL     1       0.238  51.698 -28.120  1.00  0.00     0.048 C 
BRANCH  31  33
HETATM   33  O1  UNL     1       0.406  53.772 -27.010  1.00  0.00    -0.388 OA
HETATM   34  H33 UNL     1       0.091  54.258 -27.801  1.00  0.00     0.210 HD
ENDBRANCH  31  33
BRANCH  31  35
HETATM   35  C20 UNL     1      -1.824  52.919 -27.409  1.00  0.00     0.201 C 
BRANCH  35  36
HETATM   36  O2  UNL     1      -1.803  54.069 -28.263  1.00  0.00    -0.398 OA
HETATM   37  H36 UNL     1      -2.728  54.358 -28.365  1.00  0.00     0.209 HD
ENDBRANCH  35  36
ENDBRANCH  31  35
ENDBRANCH   9  31
TORSDOF 12
ENDMDL
MODEL 3
REMARK minimizedAffinity -6.2039175
REMARK CNNscore 0.383375227
REMARK CNNaffinity 7.06943941
REMARK  12 active torsions:
REMARK  status: ('A' for Active; 'I' for Inactive)
REMARK    1  A    between atoms: C4_4  and  C5_5 
REMARK    2  A    between atoms: C5_5  and  C6_6 
REMARK    3  A    between atoms: C6_6  and  C7_7 
REMARK    4  A    between atoms: C7_7  and  C9_9 
REMARK    5  A    between atoms: C17_17  and  C18_18 
REMARK    6  A    between atoms: C18_18  and  O1_20 
REMARK    7  A    between atoms: C18_18  and  C20_21 
REMARK    8  A    between atoms: C20_21  and  O2_22 
REMARK    9  A    between atoms: C21_23  and  C22_24 
REMARK   10  A    between atoms: C22_24  and  C23_25 
REMARK   11  A    between atoms: C23_25  and  C24_26 
REMARK   12  A    between atoms: C24_26  and  O4_28 
ROOT
HETATM    1  C9  UNL     1       4.004  54.183  -8.860  1.00  0.00    -0.002 C 
HETATM    2  C10 UNL     1       3.274  53.479  -7.696  1.00  0.00     0.006 C 
HETATM    3  C11 UNL     1       1.892  53.109  -8.223  1.00  0.00     0.011 C 
HETATM    4  C12 UNL     1       1.509  54.270  -9.168  1.00  0.00    -0.032 C 
HETATM    5  C13 UNL     1       1.111  55.498  -8.302  1.00  0.00     0.016 C 
HETATM    6  C14 UNL     1       0.281  53.937 -10.111  1.00  0.00     0.004 C 
HETATM    7  C15 UNL     1      -0.982  53.591  -9.301  1.00  0.00     0.007 C 
HETATM    8  C16 UNL     1      -2.081  52.798  -9.996  1.00  0.00     0.009 C 
HETATM    9  C17 UNL     1      -2.017  52.746 -11.531  1.00  0.00     0.031 C 
HETATM   10  C21 UNL     1      -0.585  52.351 -12.025  1.00  0.00    -0.025 A 
HETATM   11  C25 UNL     1       0.303  51.483 -11.131  1.00  0.00     0.021 A 
HETATM   12  C26 UNL     1       0.608  52.956 -11.234  1.00  0.00    -0.027 A 
HETATM   13  C27 UNL     1       1.859  53.357 -11.994  1.00  0.00     0.011 C 
HETATM   14  C28 UNL     1       3.049  53.455 -11.062  1.00  0.00     0.011 C 
HETATM   15  C29 UNL     1       2.875  54.514  -9.927  1.00  0.00    -0.032 C 
HETATM   16  C30 UNL     1       2.935  55.902 -10.583  1.00  0.00     0.016 C 
ENDROOT
BRANCH   1  17
HETATM   17  C7  UNL     1       5.092  55.199  -8.391  1.00  0.00    -0.014 C 
HETATM   18  C8  UNL     1       6.354  55.136  -9.263  1.00  0.00     0.010 C 
BRANCH  17  19
HETATM   19  C6  UNL     1       4.635  56.653  -8.147  1.00  0.00     0.008 C 
BRANCH  19  20
HETATM   20  C5  UNL     1       4.837  57.112  -6.697  1.00  0.00     0.028 C 
BRANCH  20  21
HETATM   21  C4  UNL     1       3.964  56.331  -5.751  1.00  0.00    -0.025 C 
HETATM   22  C2  UNL     1       2.780  56.713  -5.234  1.00  0.00    -0.091 C 
HETATM   23  C1  UNL     1       2.124  58.045  -5.477  1.00  0.00     0.042 C 
HETATM   24  C3  UNL     1       2.005  55.796  -4.324  1.00  0.00     0.042 C 
ENDBRANCH  20  21
ENDBRANCH  19  20
ENDBRANCH  17  19
ENDBRANCH   1  17
BRANCH  10  25
HETATM   25  C22 UNL     1      -0.433  52.297 -13.558  1.00  0.00     0.021 C 
BRANCH  25  26
HETATM   26  C23 UNL     1       0.839  51.612 -14.062  1.00  0.00     0.111 C 
BRANCH  26  27
HETATM   27  C24 UNL     1       1.063  51.904 -15.519  1.00  0.00     0.139 C 
HETATM   28  O3  UNL     1       0.816  51.182 -16.471  1.00  0.00    -0.650 OA
BRANCH  27  29
HETATM   29  O4  UNL     1       1.619  53.119 -15.714  1.00  0.00    -0.776 OA
HETATM   30  H41 UNL     1       1.720  53.177 -16.686  1.00  0.00     0.167 HD
ENDBRANCH  27  29
ENDBRANCH  26  27
ENDBRANCH  25  26
ENDBRANCH  10  25
BRANCH   9  31
HETATM   31  C18 UNL     1      -3.214  51.893 -12.143  1.00  0.00     0.080 C 
HETATM   32  C19 UNL     1      -4.473  51.783 -11.256  1.00  0.00     0.048 C 
BRANCH  31  33
HETATM   33  O1  UNL     1      -2.811  50.531 -12.367  1.00  0.00    -0.388 OA
HETATM   34  H33 UNL     1      -3.460  50.182 -13.013  1.00  0.00     0.210 HD
ENDBRANCH  31  33
BRANCH  31  35
HETATM   35  C20 UNL     1      -3.656  52.490 -13.510  1.00  0.00     0.201 C 
BRANCH  35  36
HETATM   36  O2  UNL     1      -4.411  53.687 -13.284  1.00  0.00    -0.398 OA
HETATM   37  H36 UNL     1      -4.805  53.934 -14.139  1.00  0.00     0.209 HD
ENDBRANCH  35  36
ENDBRANCH  31  35
ENDBRANCH   9  31
TORSDOF 12
ENDMDL
MODEL 4
REMARK minimizedAffinity -8.54776955
REMARK CNNscore 0.30124414
REMARK CNNaffinity 6.78372383
REMARK  12 active torsions:
REMARK  status: ('A' for Active; 'I' for Inactive)
REMARK    1  A    between atoms: C4_4  and  C5_5 
REMARK    2  A    between atoms: C5_5  and  C6_6 
REMARK    3  A    between atoms: C6_6  and  C7_7 
REMARK    4  A    between atoms: C7_7  and  C9_9 
REMARK    5  A    between atoms: C17_17  and  C18_18 
REMARK    6  A    between atoms: C18_18  and  O1_20 
REMARK    7  A    between atoms: C18_18  and  C20_21 
REMARK    8  A    between atoms: C20_21  and  O2_22 
REMARK    9  A    between atoms: C21_23  and  C22_24 
REMARK   10  A    between atoms: C22_24  and  C23_25 
REMARK   11  A    between atoms: C23_25  and  C24_26 
REMARK   12  A    between atoms: C24_26  and  O4_28 
ROOT
HETATM    1  C9  UNL     1      -3.897  48.913 -20.307  1.00  0.00    -0.002 C 
HETATM    2  C10 UNL     1      -3.770  50.405 -19.931  1.00  0.00     0.006 C 
HETATM    3  C11 UNL     1      -3.003  51.067 -21.072  1.00  0.00     0.011 C 
HETATM    4  C12 UNL     1      -1.986  49.998 -21.531  1.00  0.00    -0.032 C 
HETATM    5  C13 UNL     1      -0.839  49.928 -20.483  1.00  0.00     0.016 C 
HETATM    6  C14 UNL     1      -1.326  50.317 -22.934  1.00  0.00     0.004 C 
HETATM    7  C15 UNL     1      -0.577  51.662 -22.920  1.00  0.00     0.007 C 
HETATM    8  C16 UNL     1      -0.309  52.345 -24.255  1.00  0.00     0.009 C 
HETATM    9  C17 UNL     1      -0.455  51.468 -25.509  1.00  0.00     0.031 C 
HETATM   10  C21 UNL     1      -1.808  50.681 -25.497  1.00  0.00    -0.025 A 
HETATM   11  C25 UNL     1      -3.010  51.271 -24.757  1.00  0.00     0.021 A 
HETATM   12  C26 UNL     1      -2.267  50.122 -24.122  1.00  0.00    -0.027 A 
HETATM   13  C27 UNL     1      -2.968  48.777 -24.078  1.00  0.00     0.011 C 
HETATM   14  C28 UNL     1      -3.755  48.620 -22.793  1.00  0.00     0.011 C 
HETATM   15  C29 UNL     1      -2.877  48.691 -21.503  1.00  0.00    -0.032 C 
HETATM   16  C30 UNL     1      -2.029  47.411 -21.455  1.00  0.00     0.016 C 
ENDROOT
BRANCH   1  17
HETATM   17  C7  UNL     1      -4.019  47.967 -19.071  1.00  0.00    -0.014 C 
HETATM   18  C8  UNL     1      -4.947  46.776 -19.347  1.00  0.00     0.010 C 
BRANCH  17  19
HETATM   19  C6  UNL     1      -2.704  47.526 -18.394  1.00  0.00     0.008 C 
BRANCH  19  20
HETATM   20  C5  UNL     1      -2.524  48.114 -16.988  1.00  0.00     0.028 C 
BRANCH  20  21
HETATM   21  C4  UNL     1      -1.140  48.681 -16.808  1.00  0.00    -0.025 C 
HETATM   22  C2  UNL     1      -0.788  49.981 -16.803  1.00  0.00    -0.091 C 
HETATM   23  C1  UNL     1      -1.733  51.129 -17.034  1.00  0.00     0.042 C 
HETATM   24  C3  UNL     1       0.643  50.390 -16.574  1.00  0.00     0.042 C 
ENDBRANCH  20  21
ENDBRANCH  19  20
ENDBRANCH  17  19
ENDBRANCH   1  17
BRANCH  10  25
HETATM   25  C22 UNL     1      -2.019  49.761 -26.715  1.00  0.00     0.021 C 
BRANCH  25  26
HETATM   26  C23 UNL     1      -3.261  50.068 -27.555  1.00  0.00     0.111 C 
BRANCH  26  27
HETATM   27  C24 UNL     1      -4.112  48.840 -27.722  1.00  0.00     0.139 C 
HETATM   28  O3  UNL     1      -4.004  47.969 -28.569  1.00  0.00    -0.650 OA
BRANCH  27  29
HETATM   29  O4  UNL     1      -5.095  48.775 -26.800  1.00  0.00    -0.776 OA
HETATM   30  H41 UNL     1      -5.572  47.950 -27.026  1.00  0.00     0.167 HD
ENDBRANCH  27  29
ENDBRANCH  26  27
ENDBRANCH  25  26
ENDBRANCH  10  25
BRANCH   9  31
HETATM   31  C18 UNL     1      -0.149  52.288 -26.839  1.00  0.00     0.080 C 
HETATM   32  C19 UNL     1       0.432  51.465 -28.009  1.00  0.00     0.048 C 
BRANCH  31  33
HETATM   33  O1  UNL     1       0.830  53.312 -26.598  1.00  0.00    -0.388 OA
HETATM   34  H33 UNL     1       0.719  53.943 -27.339  1.00  0.00     0.210 HD
ENDBRANCH  31  33
BRANCH  31  35
HETATM   35  C20 UNL     1      -1.445  52.980 -27.354  1.00  0.00     0.201 C 
BRANCH  35  36
HETATM   36  O2  UNL     1      -1.129  54.301 -27.807  1.00  0.00    -0.398 OA
HETATM   37  H36 UNL     1      -1.978  54.754 -27.963  1.00  0.00     0.209 HD
ENDBRANCH  35  36
ENDBRANCH  31  35
ENDBRANCH   9  31
TORSDOF 12
ENDMDL
MODEL 5
REMARK minimizedAffinity -6.88100767
REMARK CNNscore 0.263204485
REMARK CNNaffinity 5.93407488
REMARK  12 active torsions:
REMARK  status: ('A' for Active; 'I' for Inactive)
REMARK    1  A    between atoms: C4_4  and  C5_5 
REMARK    2  A    between atoms: C5_5  and  C6_6 
REMARK    3  A    between atoms: C6_6  and  C7_7 
REMARK    4  A    between atoms: C7_7  and  C9_9 
REMARK    5  A    between atoms: C17_17  and  C18_18 
REMARK    6  A    between atoms: C18_18  and  O1_20 
REMARK    7  A    between atoms: C18_18  and  C20_21 
REMARK    8  A    between atoms: C20_21  and  O2_22 
REMARK    9  A    between atoms: C21_23  and  C22_24 
REMARK   10  A    between atoms: C22_24  and  C23_25 
REMARK   11  A    between atoms: C23_25  and  C24_26 
REMARK   12  A    between atoms: C24_26  and  O4_28 
ROOT
HETATM    1  C9  UNL     1     -12.607  45.641 -27.377  1.00  0.00    -0.002 C 
HETATM    2  C10 UNL     1     -13.054  44.957 -28.687  1.00  0.00     0.006 C 
HETATM    3  C11 UNL     1     -11.954  45.232 -29.707  1.00  0.00     0.011 C 
HETATM    4  C12 UNL     1     -11.455  46.655 -29.370  1.00  0.00    -0.032 C 
HETATM    5  C13 UNL     1     -12.509  47.680 -29.877  1.00  0.00     0.016 C 
HETATM    6  C14 UNL     1     -10.074  47.017 -30.056  1.00  0.00     0.004 C 
HETATM    7  C15 UNL     1     -10.159  46.931 -31.591  1.00  0.00     0.007 C 
HETATM    8  C16 UNL     1      -8.861  46.769 -32.371  1.00  0.00     0.009 C 
HETATM    9  C17 UNL     1      -7.565  47.094 -31.610  1.00  0.00     0.031 C 
HETATM   10  C21 UNL     1      -7.527  46.372 -30.221  1.00  0.00    -0.025 A 
HETATM   11  C25 UNL     1      -8.283  45.054 -30.042  1.00  0.00     0.021 A 
HETATM   12  C26 UNL     1      -8.870  46.307 -29.442  1.00  0.00    -0.027 A 
HETATM   13  C27 UNL     1      -8.843  46.434 -27.930  1.00  0.00     0.011 C 
HETATM   14  C28 UNL     1     -10.111  45.877 -27.318  1.00  0.00     0.011 C 
HETATM   15  C29 UNL     1     -11.412  46.601 -27.790  1.00  0.00    -0.032 C 
HETATM   16  C30 UNL     1     -11.407  48.004 -27.161  1.00  0.00     0.016 C 
ENDROOT
BRANCH   1  17
HETATM   17  C7  UNL     1     -13.795  46.066 -26.458  1.00  0.00    -0.014 C 
HETATM   18  C8  UNL     1     -15.155  45.692 -27.064  1.00  0.00     0.010 C 
BRANCH  17  19
HETATM   19  C6  UNL     1     -13.703  45.674 -24.968  1.00  0.00     0.008 C 
BRANCH  19  20
HETATM   20  C5  UNL     1     -14.033  46.834 -24.019  1.00  0.00     0.028 C 
BRANCH  20  21
HETATM   21  C4  UNL     1     -15.254  46.529 -23.191  1.00  0.00    -0.025 C 
HETATM   22  C2  UNL     1     -15.481  46.888 -21.913  1.00  0.00    -0.091 C 
HETATM   23  C1  UNL     1     -14.507  47.636 -21.043  1.00  0.00     0.042 C 
HETATM   24  C3  UNL     1     -16.778  46.535 -21.233  1.00  0.00     0.042 C 
ENDBRANCH  20  21
ENDBRANCH  19  20
ENDBRANCH  17  19
ENDBRANCH   1  17
BRANCH  10  25
HETATM   25  C22 UNL     1      -6.265  46.665 -29.386  1.00  0.00     0.021 C 
BRANCH  25  26
HETATM   26  C23 UNL     1      -6.216  48.054 -28.747  1.00  0.00     0.111 C 
BRANCH  26  27
HETATM   27  C24 UNL     1      -4.801  48.445 -28.422  1.00  0.00     0.139 C 
HETATM   28  O3  UNL     1      -4.101  48.023 -27.517  1.00  0.00    -0.650 OA
BRANCH  27  29
HETATM   29  O4  UNL     1      -4.329  49.386 -29.266  1.00  0.00    -0.776 OA
HETATM   30  H41 UNL     1      -3.420  49.555 -28.942  1.00  0.00     0.167 HD
ENDBRANCH  27  29
ENDBRANCH  26  27
ENDBRANCH  25  26
ENDBRANCH  10  25
BRANCH   9  31
HETATM   31  C18 UNL     1      -6.278  46.890 -32.525  1.00  0.00     0.080 C 
HETATM   32  C19 UNL     1      -6.272  47.683 -33.849  1.00  0.00     0.048 C 
BRANCH  31  33
HETATM   33  O1  UNL     1      -6.146  45.516 -32.927  1.00  0.00    -0.388 OA
HETATM   34  H33 UNL     1      -5.207  45.423 -33.191  1.00  0.00     0.210 HD
ENDBRANCH  31  33
BRANCH  31  35
HETATM   35  C20 UNL     1      -4.993  47.282 -31.739  1.00  0.00     0.201 C 
BRANCH  35  36
HETATM   36  O2  UNL     1      -4.507  48.540 -32.222  1.00  0.00    -0.398 OA
HETATM   37  H36 UNL     1      -3.625  48.669 -31.830  1.00  0.00     0.209 HD
ENDBRANCH  35  36
ENDBRANCH  31  35
ENDBRANCH   9  31
TORSDOF 12
ENDMDL
MODEL 6
REMARK minimizedAffinity -8.23577881
REMARK CNNscore 0.256735384
REMARK CNNaffinity 6.36843348
REMARK  12 active torsions:
REMARK  status: ('A' for Active; 'I' for Inactive)
REMARK    1  A    between atoms: C4_4  and  C5_5 
REMARK    2  A    between atoms: C5_5  and  C6_6 
REMARK    3  A    between atoms: C6_6  and  C7_7 
REMARK    4  A    between atoms: C7_7  and  C9_9 
REMARK    5  A    between atoms: C17_17  and  C18_18 
REMARK    6  A    between atoms: C18_18  and  O1_20 
REMARK    7  A    between atoms: C18_18  and  C20_21 
REMARK    8  A    between atoms: C20_21  and  O2_22 
REMARK    9  A    between atoms: C21_23  and  C22_24 
REMARK   10  A    between atoms: C22_24  and  C23_25 
REMARK   11  A    between atoms: C23_25  and  C24_26 
REMARK   12  A    between atoms: C24_26  and  O4_28 
ROOT
HETATM    1  C9  UNL     1      -0.171  50.799 -20.846  1.00  0.00    -0.002 C 
HETATM    2  C10 UNL     1      -0.588  49.689 -19.858  1.00  0.00     0.006 C 
HETATM    3  C11 UNL     1      -1.922  49.150 -20.362  1.00  0.00     0.011 C 
HETATM    4  C12 UNL     1      -2.651  50.385 -20.939  1.00  0.00    -0.032 C 
HETATM    5  C13 UNL     1      -3.176  51.245 -19.755  1.00  0.00     0.016 C 
HETATM    6  C14 UNL     1      -3.896  50.016 -21.845  1.00  0.00     0.004 C 
HETATM    7  C15 UNL     1      -4.949  49.207 -21.066  1.00  0.00     0.007 C 
HETATM    8  C16 UNL     1      -5.943  48.373 -21.863  1.00  0.00     0.009 C 
HETATM    9  C17 UNL     1      -6.066  48.707 -23.359  1.00  0.00     0.031 C 
HETATM   10  C21 UNL     1      -4.659  48.780 -24.041  1.00  0.00    -0.025 A 
HETATM   11  C25 UNL     1      -3.507  47.950 -23.471  1.00  0.00     0.021 A 
HETATM   12  C26 UNL     1      -3.523  49.434 -23.207  1.00  0.00    -0.027 A 
HETATM   13  C27 UNL     1      -2.487  50.280 -23.924  1.00  0.00     0.011 C 
HETATM   14  C28 UNL     1      -1.233  50.423 -23.086  1.00  0.00     0.011 C 
HETATM   15  C29 UNL     1      -1.471  51.110 -21.704  1.00  0.00    -0.032 C 
HETATM   16  C30 UNL     1      -1.778  52.590 -21.977  1.00  0.00     0.016 C 
ENDROOT
BRANCH   1  17
HETATM   17  C7  UNL     1       0.739  51.895 -20.207  1.00  0.00    -0.014 C 
HETATM   18  C8  UNL     1       1.358  52.819 -21.264  1.00  0.00     0.010 C 
BRANCH  17  19
HETATM   19  C6  UNL     1       0.151  52.690 -19.022  1.00  0.00     0.008 C 
BRANCH  19  20
HETATM   20  C5  UNL     1       0.575  52.136 -17.655  1.00  0.00     0.028 C 
BRANCH  20  21
HETATM   21  C4  UNL     1       1.985  52.541 -17.316  1.00  0.00    -0.025 C 
HETATM   22  C2  UNL     1       2.679  52.221 -16.207  1.00  0.00    -0.091 C 
HETATM   23  C1  UNL     1       2.137  51.422 -15.053  1.00  0.00     0.042 C 
HETATM   24  C3  UNL     1       4.104  52.678 -16.031  1.00  0.00     0.042 C 
ENDBRANCH  20  21
ENDBRANCH  19  20
ENDBRANCH  17  19
ENDBRANCH   1  17
BRANCH  10  25
HETATM   25  C22 UNL     1      -4.697  49.132 -25.541  1.00  0.00     0.021 C 
BRANCH  25  26
HETATM   26  C23 UNL     1      -3.729  48.337 -26.420  1.00  0.00     0.111 C 
BRANCH  26  27
HETATM   27  C24 UNL     1      -3.904  48.696 -27.869  1.00  0.00     0.139 C 
HETATM   28  O3  UNL     1      -4.452  48.038 -28.738  1.00  0.00    -0.650 OA
BRANCH  27  29
HETATM   29  O4  UNL     1      -3.350  49.890 -28.167  1.00  0.00    -0.776 OA
HETATM   30  H41 UNL     1      -3.522  49.994 -29.126  1.00  0.00     0.167 HD
ENDBRANCH  27  29
ENDBRANCH  26  27
ENDBRANCH  25  26
ENDBRANCH  10  25
BRANCH   9  31
HETATM   31  C18 UNL     1      -7.134  47.775 -24.084  1.00  0.00     0.080 C 
HETATM   32  C19 UNL     1      -7.354  46.390 -23.440  1.00  0.00     0.048 C 
BRANCH  31  33
HETATM   33  O1  UNL     1      -6.729  47.485 -25.433  1.00  0.00    -0.388 OA
HETATM   34  H33 UNL     1      -7.551  47.201 -25.885  1.00  0.00     0.210 HD
ENDBRANCH  31  33
BRANCH  31  35
HETATM   35  C20 UNL     1      -8.516  48.487 -24.145  1.00  0.00     0.201 C 
BRANCH  35  36
HETATM   36  O2  UNL     1      -8.394  49.697 -24.902  1.00  0.00    -0.398 OA
HETATM   37  H36 UNL     1      -9.226  50.189 -24.778  1.00  0.00     0.209 HD
ENDBRANCH  35  36
ENDBRANCH  31  35
ENDBRANCH   9  31
TORSDOF 12
ENDMDL
MODEL 7
REMARK minimizedAffinity -8.36316681
REMARK CNNscore 0.253615171
REMARK CNNaffinity 6.58029938
REMARK  12 active torsions:
REMARK  status: ('A' for Active; 'I' for Inactive)
REMARK    1  A    between atoms: C4_4  and  C5_5 
REMARK    2  A    between atoms: C5_5  and  C6_6 
REMARK    3  A    between atoms: C6_6  and  C7_7 
REMARK    4  A    between atoms: C7_7  and  C9_9 
REMARK    5  A    between atoms: C17_17  and  C18_18 
REMARK    6  A    between atoms: C18_18  and  O1_20 
REMARK    7  A    between atoms: C18_18  and  C20_21 
REMARK    8  A    between atoms: C20_21  and  O2_22 
REMARK    9  A    between atoms: C21_23  and  C22_24 
REMARK   10  A    between atoms: C22_24  and  C23_25 
REMARK   11  A    between atoms: C23_25  and  C24_26 
REMARK   12  A    between atoms: C24_26  and  O4_28 
ROOT
HETATM    1  C9  UNL     1      -4.068  48.527 -20.842  1.00  0.00    -0.002 C 
HETATM    2  C10 UNL     1      -4.747  48.697 -19.466  1.00  0.00     0.006 C 
HETATM    3  C11 UNL     1      -3.690  49.294 -18.542  1.00  0.00     0.011 C 
HETATM    4  C12 UNL     1      -2.362  48.647 -18.998  1.00  0.00    -0.032 C 
HETATM    5  C13 UNL     1      -2.325  47.181 -18.483  1.00  0.00     0.016 C 
HETATM    6  C14 UNL     1      -1.077  49.380 -18.431  1.00  0.00     0.004 C 
HETATM    7  C15 UNL     1      -1.059  49.390 -16.891  1.00  0.00     0.007 C 
HETATM    8  C16 UNL     1      -0.195  50.432 -16.194  1.00  0.00     0.009 C 
HETATM    9  C17 UNL     1       0.872  51.122 -17.060  1.00  0.00     0.031 C 
HETATM   10  C21 UNL     1       0.260  51.648 -18.401  1.00  0.00    -0.025 A 
HETATM   11  C25 UNL     1      -1.220  52.034 -18.449  1.00  0.00     0.021 A 
HETATM   12  C26 UNL     1      -0.796  50.733 -19.082  1.00  0.00    -0.027 A 
HETATM   13  C27 UNL     1      -0.824  50.653 -20.597  1.00  0.00     0.011 C 
HETATM   14  C28 UNL     1      -2.162  50.138 -21.086  1.00  0.00     0.011 C 
HETATM   15  C29 UNL     1      -2.514  48.706 -20.571  1.00  0.00    -0.032 C 
HETATM   16  C30 UNL     1      -1.573  47.721 -21.282  1.00  0.00     0.016 C 
ENDROOT
BRANCH   1  17
HETATM   17  C7  UNL     1      -4.681  47.377 -21.702  1.00  0.00    -0.014 C 
HETATM   18  C8  UNL     1      -5.602  46.468 -20.876  1.00  0.00     0.010 C 
BRANCH  17  19
HETATM   19  C6  UNL     1      -5.323  47.775 -23.048  1.00  0.00     0.008 C 
BRANCH  19  20
HETATM   20  C5  UNL     1      -4.340  48.462 -24.005  1.00  0.00     0.028 C 
BRANCH  20  21
HETATM   21  C4  UNL     1      -4.812  48.366 -25.432  1.00  0.00    -0.025 C 
HETATM   22  C2  UNL     1      -4.060  48.462 -26.545  1.00  0.00    -0.091 C 
HETATM   23  C1  UNL     1      -2.581  48.741 -26.564  1.00  0.00     0.042 C 
HETATM   24  C3  UNL     1      -4.681  48.308 -27.909  1.00  0.00     0.042 C 
ENDBRANCH  20  21
ENDBRANCH  19  20
ENDBRANCH  17  19
ENDBRANCH   1  17
BRANCH  10  25
HETATM   25  C22 UNL     1       1.274  52.336 -19.337  1.00  0.00     0.021 C 
BRANCH  25  26
HETATM   26  C23 UNL     1       0.838  53.698 -19.879  1.00  0.00     0.111 C 
BRANCH  26  27
HETATM   27  C24 UNL     1       1.349  53.907 -21.277  1.00  0.00     0.139 C 
HETATM   28  O3  UNL     1       2.001  54.848 -21.699  1.00  0.00    -0.650 OA
BRANCH  27  29
HETATM   29  O4  UNL     1       0.991  52.902 -22.103  1.00  0.00    -0.776 OA
HETATM   30  H41 UNL     1       1.371  53.164 -22.967  1.00  0.00     0.167 HD
ENDBRANCH  27  29
ENDBRANCH  26  27
ENDBRANCH  25  26
ENDBRANCH  10  25
BRANCH   9  31
HETATM   31  C18 UNL     1       1.711  52.187 -16.224  1.00  0.00     0.080 C 
HETATM   32  C19 UNL     1       1.863  51.880 -14.719  1.00  0.00     0.048 C 
BRANCH  31  33
HETATM   33  O1  UNL     1       1.085  53.480 -16.267  1.00  0.00    -0.388 OA
HETATM   34  H33 UNL     1       1.795  54.109 -16.023  1.00  0.00     0.210 HD
ENDBRANCH  31  33
BRANCH  31  35
HETATM   35  C20 UNL     1       3.142  52.330 -16.819  1.00  0.00     0.201 C 
BRANCH  35  36
HETATM   36  O2  UNL     1       4.098  52.361 -15.752  1.00  0.00    -0.398 OA
HETATM   37  H36 UNL     1       4.950  52.615 -16.149  1.00  0.00     0.209 HD
ENDBRANCH  35  36
ENDBRANCH  31  35
ENDBRANCH   9  31
TORSDOF 12
ENDMDL
MODEL 8
REMARK minimizedAffinity -6.95892048
REMARK CNNscore 0.253151268
REMARK CNNaffinity 6.55631971
REMARK  12 active torsions:
REMARK  status: ('A' for Active; 'I' for Inactive)
REMARK    1  A    between atoms: C4_4  and  C5_5 
REMARK    2  A    between atoms: C5_5  and  C6_6 
REMARK    3  A    between atoms: C6_6  and  C7_7 
REMARK    4  A    between atoms: C7_7  and  C9_9 
REMARK    5  A    between atoms: C17_17  and  C18_18 
REMARK    6  A    between atoms: C18_18  and  O1_20 
REMARK    7  A    between atoms: C18_18  and  C20_21 
REMARK    8  A    between atoms: C20_21  and  O2_22 
REMARK    9  A    between atoms: C21_23  and  C22_24 
REMARK   10  A    between atoms: C22_24  and  C23_25 
REMARK   11  A    between atoms: C23_25  and  C24_26 
REMARK   12  A    between atoms: C24_26  and  O4_28 
ROOT
HETATM    1  C9  UNL     1      -3.212  50.250 -23.852  1.00  0.00    -0.002 C 
HETATM    2  C10 UNL     1      -2.570  48.864 -24.074  1.00  0.00     0.006 C 
HETATM    3  C11 UNL     1      -2.785  48.084 -22.781  1.00  0.00     0.011 C 
HETATM    4  C12 UNL     1      -2.666  49.142 -21.661  1.00  0.00    -0.032 C 
HETATM    5  C13 UNL     1      -1.163  49.496 -21.476  1.00  0.00     0.016 C 
HETATM    6  C14 UNL     1      -3.210  48.641 -20.261  1.00  0.00     0.004 C 
HETATM    7  C15 UNL     1      -2.457  47.391 -19.770  1.00  0.00     0.007 C 
HETATM    8  C16 UNL     1      -3.136  46.511 -18.728  1.00  0.00     0.009 C 
HETATM    9  C17 UNL     1      -4.321  47.139 -17.975  1.00  0.00     0.031 C 
HETATM   10  C21 UNL     1      -5.340  47.793 -18.967  1.00  0.00    -0.025 A 
HETATM   11  C25 UNL     1      -5.464  47.238 -20.387  1.00  0.00     0.021 A 
HETATM   12  C26 UNL     1      -4.732  48.541 -20.185  1.00  0.00    -0.027 A 
HETATM   13  C27 UNL     1      -5.411  49.805 -20.678  1.00  0.00     0.011 C 
HETATM   14  C28 UNL     1      -5.006  50.115 -22.104  1.00  0.00     0.011 C 
HETATM   15  C29 UNL     1      -3.473  50.349 -22.289  1.00  0.00    -0.032 C 
HETATM   16  C30 UNL     1      -3.130  51.688 -21.617  1.00  0.00     0.016 C 
ENDROOT
BRANCH   1  17
HETATM   17  C7  UNL     1      -2.561  51.383 -24.705  1.00  0.00    -0.014 C 
HETATM   18  C8  UNL     1      -3.614  52.291 -25.358  1.00  0.00     0.010 C 
BRANCH  17  19
HETATM   19  C6  UNL     1      -1.432  52.199 -24.042  1.00  0.00     0.008 C 
BRANCH  19  20
HETATM   20  C5  UNL     1      -0.036  51.830 -24.562  1.00  0.00     0.028 C 
BRANCH  20  21
HETATM   21  C4  UNL     1       0.023  51.911 -26.065  1.00  0.00    -0.025 C 
HETATM   22  C2  UNL     1       1.090  51.669 -26.851  1.00  0.00    -0.091 C 
HETATM   23  C1  UNL     1       2.464  51.314 -26.352  1.00  0.00     0.042 C 
HETATM   24  C3  UNL     1       0.978  51.759 -28.351  1.00  0.00     0.042 C 
ENDBRANCH  20  21
ENDBRANCH  19  20
ENDBRANCH  17  19
ENDBRANCH   1  17
BRANCH  10  25
HETATM   25  C22 UNL     1      -6.550  48.463 -18.286  1.00  0.00     0.021 C 
BRANCH  25  26
HETATM   26  C23 UNL     1      -7.918  47.954 -18.742  1.00  0.00     0.111 C 
BRANCH  26  27
HETATM   27  C24 UNL     1      -8.868  47.856 -17.581  1.00  0.00     0.139 C 
HETATM   28  O3  UNL     1     -10.086  47.904 -17.609  1.00  0.00    -0.650 OA
BRANCH  27  29
HETATM   29  O4  UNL     1      -8.220  47.716 -16.406  1.00  0.00    -0.776 OA
HETATM   30  H41 UNL     1      -8.941  47.676 -15.744  1.00  0.00     0.167 HD
ENDBRANCH  27  29
ENDBRANCH  26  27
ENDBRANCH  25  26
ENDBRANCH  10  25
BRANCH   9  31
HETATM   31  C18 UNL     1      -4.946  46.129 -16.915  1.00  0.00     0.080 C 
HETATM   32  C19 UNL     1      -5.983  45.133 -17.476  1.00  0.00     0.048 C 
BRANCH  31  33
HETATM   33  O1  UNL     1      -5.651  46.840 -15.883  1.00  0.00    -0.388 OA
HETATM   34  H33 UNL     1      -5.716  46.204 -15.141  1.00  0.00     0.210 HD
ENDBRANCH  31  33
BRANCH  31  35
HETATM   35  C20 UNL     1      -3.820  45.297 -16.235  1.00  0.00     0.201 C 
BRANCH  35  36
HETATM   36  O2  UNL     1      -4.409  44.248 -15.458  1.00  0.00    -0.398 OA
HETATM   37  H36 UNL     1      -3.693  43.860 -14.924  1.00  0.00     0.209 HD
ENDBRANCH  35  36
ENDBRANCH  31  35
ENDBRANCH   9  31
TORSDOF 12
ENDMDL
MODEL 9
REMARK minimizedAffinity -7.51763201
REMARK CNNscore 0.237171501
REMARK CNNaffinity 6.63724661
REMARK  12 active torsions:
REMARK  status: ('A' for Active; 'I' for Inactive)
REMARK    1  A    between atoms: C4_4  and  C5_5 
REMARK    2  A    between atoms: C5_5  and  C6_6 
REMARK    3  A    between atoms: C6_6  and  C7_7 
REMARK    4  A    between atoms: C7_7  and  C9_9 
REMARK    5  A    between atoms: C17_17  and  C18_18 
REMARK    6  A    between atoms: C18_18  and  O1_20 
REMARK    7  A    between atoms: C18_18  and  C20_21 
REMARK    8  A    between atoms: C20_21  and  O2_22 
REMARK    9  A    between atoms: C21_23  and  C22_24 
REMARK   10  A    between atoms: C22_24  and  C23_25 
REMARK   11  A    between atoms: C23_25  and  C24_26 
REMARK   12  A    between atoms: C24_26  and  O4_28 
ROOT
HETATM    1  C9  UNL     1      -3.184  49.871 -18.481  1.00  0.00    -0.002 C 
HETATM    2  C10 UNL     1      -2.483  51.237 -18.321  1.00  0.00     0.006 C 
HETATM    3  C11 UNL     1      -2.070  51.669 -19.724  1.00  0.00     0.011 C 
HETATM    4  C12 UNL     1      -1.683  50.355 -20.441  1.00  0.00    -0.032 C 
HETATM    5  C13 UNL     1      -0.293  49.898 -19.915  1.00  0.00     0.016 C 
HETATM    6  C14 UNL     1      -1.569  50.504 -22.013  1.00  0.00     0.004 C 
HETATM    7  C15 UNL     1      -0.514  51.551 -22.412  1.00  0.00     0.007 C 
HETATM    8  C16 UNL     1      -0.605  52.165 -23.803  1.00  0.00     0.009 C 
HETATM    9  C17 UNL     1      -1.487  51.419 -24.818  1.00  0.00     0.031 C 
HETATM   10  C21 UNL     1      -2.892  51.088 -24.213  1.00  0.00    -0.025 A 
HETATM   11  C25 UNL     1      -3.470  51.994 -23.124  1.00  0.00     0.021 A 
HETATM   12  C26 UNL     1      -2.914  50.650 -22.723  1.00  0.00    -0.027 A 
HETATM   13  C27 UNL     1      -3.905  49.587 -22.289  1.00  0.00     0.011 C 
HETATM   14  C28 UNL     1      -4.129  49.634 -20.791  1.00  0.00     0.011 C 
HETATM   15  C29 UNL     1      -2.835  49.387 -19.952  1.00  0.00    -0.032 C 
HETATM   16  C30 UNL     1      -2.459  47.906 -20.118  1.00  0.00     0.016 C 
ENDROOT
BRANCH   1  17
HETATM   17  C7  UNL     1      -3.083  48.966 -17.213  1.00  0.00    -0.014 C 
HETATM   18  C8  UNL     1      -3.129  47.472 -17.565  1.00  0.00     0.010 C 
BRANCH  17  19
HETATM   19  C6  UNL     1      -1.951  49.285 -16.213  1.00  0.00     0.008 C 
BRANCH  19  20
HETATM   20  C5  UNL     1      -2.436  49.361 -14.759  1.00  0.00     0.028 C 
BRANCH  20  21
HETATM   21  C4  UNL     1      -1.514  50.207 -13.921  1.00  0.00    -0.025 C 
HETATM   22  C2  UNL     1      -1.763  50.716 -12.699  1.00  0.00    -0.091 C 
HETATM   23  C1  UNL     1      -3.061  50.567 -11.953  1.00  0.00     0.042 C 
HETATM   24  C3  UNL     1      -0.716  51.519 -11.971  1.00  0.00     0.042 C 
ENDBRANCH  20  21
ENDBRANCH  19  20
ENDBRANCH  17  19
ENDBRANCH   1  17
BRANCH  10  25
HETATM   25  C22 UNL     1      -3.830  50.321 -25.166  1.00  0.00     0.021 C 
BRANCH  25  26
HETATM   26  C23 UNL     1      -3.312  48.959 -25.631  1.00  0.00     0.111 C 
BRANCH  26  27
HETATM   27  C24 UNL     1      -4.053  48.492 -26.852  1.00  0.00     0.139 C 
HETATM   28  O3  UNL     1      -3.620  48.373 -27.986  1.00  0.00    -0.650 OA
BRANCH  27  29
HETATM   29  O4  UNL     1      -5.344  48.206 -26.584  1.00  0.00    -0.776 OA
HETATM   30  H41 UNL     1      -5.708  47.931 -27.451  1.00  0.00     0.167 HD
ENDBRANCH  27  29
ENDBRANCH  26  27
ENDBRANCH  25  26
ENDBRANCH  10  25
BRANCH   9  31
HETATM   31  C18 UNL     1      -1.504  52.151 -26.232  1.00  0.00     0.080 C 
HETATM   32  C19 UNL     1      -0.389  53.196 -26.454  1.00  0.00     0.048 C 
BRANCH  31  33
HETATM   33  O1  UNL     1      -2.727  52.884 -26.417  1.00  0.00    -0.388 OA
HETATM   34  H33 UNL     1      -2.793  53.020 -27.384  1.00  0.00     0.210 HD
ENDBRANCH  31  33
BRANCH  31  35
HETATM   35  C20 UNL     1      -1.398  51.105 -27.380  1.00  0.00     0.201 C 
BRANCH  35  36
HETATM   36  O2  UNL     1      -2.499  51.277 -28.281  1.00  0.00    -0.398 OA
HETATM   37  H36 UNL     1      -2.490  50.511 -28.882  1.00  0.00     0.209 HD
ENDBRANCH  35  36
ENDBRANCH  31  35
ENDBRANCH   9  31
TORSDOF 12
ENDMDL
