MODEL 1
REMARK minimizedAffinity -9.1617918
REMARK CNNscore 0.736925185
REMARK CNNaffinity 6.92767334
REMARK  11 active torsions:
REMARK  status: ('A' for Active; 'I' for Inactive)
REMARK    1  A    between atoms: O1_2  and  C2_3 
REMARK    2  A    between atoms: C4_5  and  O2_6 
REMARK    3  A    between atoms: O2_6  and  C5_7 
REMARK    4  A    between atoms: C8_10  and  C9_11 
REMARK    5  A    between atoms: N1_12  and  C10_14 
REMARK    6  A    between atoms: C10_14  and  C11_15 
REMARK    7  A    between atoms: C11_15  and  O3_16 
REMARK    8  A    between atoms: C17_22  and  C18_23 
REMARK    9  A    between atoms: C24_31  and  O6_32 
REMARK   10  A    between atoms: C28_36  and  O7_37 
REMARK   11  A    between atoms: C32_42  and  O9_43 
ROOT
HETATM    1  C5  UNL     1       0.057  11.124  18.767  1.00  0.00     0.127 C 
HETATM    2  C6  UNL     1      -1.425  11.460  18.980  1.00  0.00     0.033 C 
HETATM    3  C7  UNL     1      -2.365  10.647  18.088  1.00  0.00     0.021 C 
HETATM    4  C8  UNL     1      -2.050  10.728  16.550  1.00  0.00     0.026 C 
HETATM    5  C12 UNL     1      -2.514   9.349  15.915  1.00  0.00     0.009 C 
HETATM    6  C13 UNL     1      -4.054   9.155  15.945  1.00  0.00     0.007 C 
HETATM    7  C14 UNL     1      -4.492   7.799  15.397  1.00  0.00     0.013 C 
HETATM    8  C15 UNL     1      -3.964   7.517  13.969  1.00  0.00    -0.005 C 
HETATM    9  C16 UNL     1      -4.699   8.416  12.953  1.00  0.00     0.019 C 
HETATM   10  C17 UNL     1      -4.089   6.004  13.582  1.00  0.00     0.028 C 
HETATM   11  C22 UNL     1      -2.875   5.331  14.277  1.00  0.00     0.013 C 
HETATM   12  C23 UNL     1      -1.880   6.459  14.614  1.00  0.00     0.040 C 
HETATM   13  C24 UNL     1      -2.418   7.713  13.910  1.00  0.00     0.070 C 
HETATM   14  C25 UNL     1      -1.948   9.069  14.502  1.00  0.00     0.026 C 
HETATM   15  C26 UNL     1      -0.416   9.219  14.524  1.00  0.00     0.011 C 
HETATM   16  C27 UNL     1      -0.033  10.633  14.919  1.00  0.00     0.039 C 
HETATM   17  C28 UNL     1      -0.527  11.045  16.312  1.00  0.00     0.073 C 
HETATM   18  C29 UNL     1       0.324  10.425  17.427  1.00  0.00     0.071 C 
ENDROOT
BRANCH   1  19
HETATM   19  O2  UNL     1       0.550  10.290  19.826  1.00  0.00    -0.356 OA
BRANCH  19  20
HETATM   20  C4  UNL     1       1.904  10.593  20.176  1.00  0.00     0.263 C 
HETATM   21  C3  UNL     1       1.948  11.955  20.869  1.00  0.00     0.095 C 
HETATM   22  C2  UNL     1       3.270  12.132  21.599  1.00  0.00     0.156 C 
HETATM   23  C32 UNL     1       3.483  10.981  22.619  1.00  0.00     0.175 C 
HETATM   24  C30 UNL     1       2.504   9.809  22.359  1.00  0.00     0.151 C 
HETATM   25  O8  UNL     1       2.467   9.535  20.958  1.00  0.00    -0.354 OA
HETATM   26  C31 UNL     1       2.921   8.535  23.077  1.00  0.00     0.042 C 
BRANCH  22  27
HETATM   27  O1  UNL     1       3.235  13.413  22.250  1.00  0.00    -0.388 OA
HETATM   28  C1  UNL     1       2.752  13.340  23.593  1.00  0.00     0.202 C 
ENDBRANCH  22  27
BRANCH  23  29
HETATM   29  O9  UNL     1       4.850  10.540  22.498  1.00  0.00    -0.390 OA
HETATM   30  H49 UNL     1       4.916   9.986  21.692  1.00  0.00     0.210 HD
ENDBRANCH  23  29
ENDBRANCH  19  20
ENDBRANCH   1  19
BRANCH  17  31
HETATM   31  O7  UNL     1      -0.295  12.466  16.410  1.00  0.00    -0.389 OA
HETATM   32  H41 UNL     1       0.622  12.645  16.123  1.00  0.00     0.210 HD
ENDBRANCH  17  31
BRANCH   4  33
HETATM   33  C9  UNL     1      -2.840  11.918  15.975  1.00  0.00     0.068 C 
HETATM   34  N1  UNL     1      -2.534  12.471  14.847  1.00  0.00    -0.399 N 
ATOM     35  H1  UNL     1      -1.805  12.111  14.231  1.00  0.00     0.158 HD
BRANCH  34  36
HETATM   36  C10 UNL     1      -3.332  13.662  14.534  1.00  0.00     0.144 C 
BRANCH  36  37
HETATM   37  C11 UNL     1      -2.502  14.601  13.653  1.00  0.00     0.183 C 
BRANCH  37  38
HETATM   38  O3  UNL     1      -1.301  13.970  13.231  1.00  0.00    -0.399 OA
HETATM   39  H18 UNL     1      -1.555  13.326  12.548  1.00  0.00     0.209 HD
ENDBRANCH  37  38
ENDBRANCH  36  37
ENDBRANCH  34  36
ENDBRANCH   4  33
BRANCH  13  40
HETATM   40  O6  UNL     1      -2.009   7.637  12.536  1.00  0.00    -0.389 OA
HETATM   41  H35 UNL     1      -1.040   7.613  12.487  1.00  0.00     0.210 HD
ENDBRANCH  13  40
BRANCH  10  42
HETATM   42  C18 UNL     1      -5.422   5.341  13.793  1.00  0.00    -0.045 A 
HETATM   43  C19 UNL     1      -6.017   4.397  13.063  1.00  0.00     0.087 A 
HETATM   44  C20 UNL     1      -7.338   4.161  13.652  1.00  0.00     0.283 A 
HETATM   45  O4  UNL     1      -8.147   3.352  13.236  1.00  0.00    -0.260 OA
HETATM   46  O5  UNL     1      -7.514   4.993  14.713  1.00  0.00    -0.314 OA
HETATM   47  C21 UNL     1      -6.337   5.786  14.879  1.00  0.00     0.213 A 
ENDBRANCH  10  42
TORSDOF 11
ENDMDL
MODEL 2
REMARK minimizedAffinity -8.60942841
REMARK CNNscore 0.721151829
REMARK CNNaffinity 7.07138205
REMARK  11 active torsions:
REMARK  status: ('A' for Active; 'I' for Inactive)
REMARK    1  A    between atoms: O1_2  and  C2_3 
REMARK    2  A    between atoms: C4_5  and  O2_6 
REMARK    3  A    between atoms: O2_6  and  C5_7 
REMARK    4  A    between atoms: C8_10  and  C9_11 
REMARK    5  A    between atoms: N1_12  and  C10_14 
REMARK    6  A    between atoms: C10_14  and  C11_15 
REMARK    7  A    between atoms: C11_15  and  O3_16 
REMARK    8  A    between atoms: C17_22  and  C18_23 
REMARK    9  A    between atoms: C24_31  and  O6_32 
REMARK   10  A    between atoms: C28_36  and  O7_37 
REMARK   11  A    between atoms: C32_42  and  O9_43 
ROOT
HETATM    1  C5  UNL     1      -2.836   6.824  13.668  1.00  0.00     0.127 C 
HETATM    2  C6  UNL     1      -2.479   6.377  15.093  1.00  0.00     0.033 C 
HETATM    3  C7  UNL     1      -2.611   7.494  16.128  1.00  0.00     0.021 C 
HETATM    4  C8  UNL     1      -1.802   8.801  15.797  1.00  0.00     0.026 C 
HETATM    5  C12 UNL     1      -2.604  10.012  16.440  1.00  0.00     0.009 C 
HETATM    6  C13 UNL     1      -2.601   9.985  17.992  1.00  0.00     0.007 C 
HETATM    7  C14 UNL     1      -3.430  11.110  18.607  1.00  0.00     0.013 C 
HETATM    8  C15 UNL     1      -3.012  12.516  18.113  1.00  0.00    -0.005 C 
HETATM    9  C16 UNL     1      -1.642  12.896  18.714  1.00  0.00     0.019 C 
HETATM   10  C17 UNL     1      -4.094  13.602  18.439  1.00  0.00     0.028 C 
HETATM   11  C22 UNL     1      -5.165  13.417  17.331  1.00  0.00     0.013 C 
HETATM   12  C23 UNL     1      -4.491  12.623  16.195  1.00  0.00     0.040 C 
HETATM   13  C24 UNL     1      -2.999  12.567  16.555  1.00  0.00     0.070 C 
HETATM   14  C25 UNL     1      -2.196  11.406  15.908  1.00  0.00     0.026 C 
HETATM   15  C26 UNL     1      -2.262  11.410  14.370  1.00  0.00     0.011 C 
HETATM   16  C27 UNL     1      -1.300  10.384  13.802  1.00  0.00     0.039 C 
HETATM   17  C28 UNL     1      -1.593   8.944  14.244  1.00  0.00     0.073 C 
HETATM   18  C29 UNL     1      -2.788   8.347  13.490  1.00  0.00     0.071 C 
ENDROOT
BRANCH   1  19
HETATM   19  O2  UNL     1      -4.143   6.359  13.299  1.00  0.00    -0.356 OA
BRANCH  19  20
HETATM   20  C4  UNL     1      -4.233   4.931  13.287  1.00  0.00     0.263 C 
HETATM   21  C3  UNL     1      -5.666   4.524  12.942  1.00  0.00     0.095 C 
HETATM   22  C2  UNL     1      -5.714   3.061  12.533  1.00  0.00     0.156 C 
HETATM   23  C32 UNL     1      -4.759   2.803  11.336  1.00  0.00     0.175 C 
HETATM   24  C30 UNL     1      -3.775   3.983  11.135  1.00  0.00     0.151 C 
HETATM   25  O8  UNL     1      -3.253   4.376  12.405  1.00  0.00    -0.354 OA
HETATM   26  C31 UNL     1      -2.605   3.615  10.237  1.00  0.00     0.042 C 
BRANCH  22  27
HETATM   27  O1  UNL     1      -7.077   2.753  12.195  1.00  0.00    -0.388 OA
HETATM   28  C1  UNL     1      -8.023   3.491  12.971  1.00  0.00     0.202 C 
ENDBRANCH  22  27
BRANCH  23  29
HETATM   29  O9  UNL     1      -4.042   1.582  11.608  1.00  0.00    -0.390 OA
HETATM   30  H49 UNL     1      -3.343   1.784  12.264  1.00  0.00     0.210 HD
ENDBRANCH  23  29
ENDBRANCH  19  20
ENDBRANCH   1  19
BRANCH  17  31
HETATM   31  O7  UNL     1      -0.455   8.162  13.822  1.00  0.00    -0.389 OA
HETATM   32  H41 UNL     1      -0.268   8.378  12.888  1.00  0.00     0.210 HD
ENDBRANCH  17  31
BRANCH   4  33
HETATM   33  C9  UNL     1      -0.400   8.650  16.415  1.00  0.00     0.068 C 
HETATM   34  N1  UNL     1       0.670   8.579  15.693  1.00  0.00    -0.399 N 
ATOM     35  H1  UNL     1       0.667   8.693  14.679  1.00  0.00     0.158 HD
BRANCH  34  36
HETATM   36  C10 UNL     1       1.891   8.318  16.465  1.00  0.00     0.144 C 
BRANCH  36  37
HETATM   37  C11 UNL     1       2.847   7.473  15.616  1.00  0.00     0.183 C 
BRANCH  37  38
HETATM   38  O3  UNL     1       4.164   8.005  15.657  1.00  0.00    -0.399 OA
HETATM   39  H18 UNL     1       4.523   7.785  16.533  1.00  0.00     0.209 HD
ENDBRANCH  37  38
ENDBRANCH  36  37
ENDBRANCH  34  36
ENDBRANCH   4  33
BRANCH  13  40
HETATM   40  O6  UNL     1      -2.419  13.817  16.152  1.00  0.00    -0.389 OA
HETATM   41  H35 UNL     1      -2.530  13.933  15.194  1.00  0.00     0.210 HD
ENDBRANCH  13  40
BRANCH  10  42
HETATM   42  C18 UNL     1      -4.608  13.668  19.852  1.00  0.00    -0.045 A 
HETATM   43  C19 UNL     1      -5.570  12.950  20.430  1.00  0.00     0.087 A 
HETATM   44  C20 UNL     1      -5.737  13.466  21.792  1.00  0.00     0.283 A 
HETATM   45  O4  UNL     1      -6.533  13.031  22.604  1.00  0.00    -0.260 OA
HETATM   46  O5  UNL     1      -4.882  14.504  21.988  1.00  0.00    -0.314 OA
HETATM   47  C21 UNL     1      -4.117  14.705  20.799  1.00  0.00     0.213 A 
ENDBRANCH  10  42
TORSDOF 11
ENDMDL
MODEL 3
REMARK minimizedAffinity -8.66821957
REMARK CNNscore 0.58973062
REMARK CNNaffinity 6.95101213
REMARK  11 active torsions:
REMARK  status: ('A' for Active; 'I' for Inactive)
REMARK    1  A    between atoms: O1_2  and  C2_3 
REMARK    2  A    between atoms: C4_5  and  O2_6 
REMARK    3  A    between atoms: O2_6  and  C5_7 
REMARK    4  A    between atoms: C8_10  and  C9_11 
REMARK    5  A    between atoms: N1_12  and  C10_14 
REMARK    6  A    between atoms: C10_14  and  C11_15 
REMARK    7  A    between atoms: C11_15  and  O3_16 
REMARK    8  A    between atoms: C17_22  and  C18_23 
REMARK    9  A    between atoms: C24_31  and  O6_32 
REMARK   10  A    between atoms: C28_36  and  O7_37 
REMARK   11  A    between atoms: C32_42  and  O9_43 
ROOT
HETATM    1  C5  UNL     1      -3.086   7.392  13.744  1.00  0.00     0.127 C 
HETATM    2  C6  UNL     1      -2.709   6.871  15.138  1.00  0.00     0.033 C 
HETATM    3  C7  UNL     1      -2.834   7.930  16.234  1.00  0.00     0.021 C 
HETATM    4  C8  UNL     1      -2.038   9.259  15.964  1.00  0.00     0.026 C 
HETATM    5  C12 UNL     1      -2.839  10.427  16.680  1.00  0.00     0.009 C 
HETATM    6  C13 UNL     1      -2.817  10.317  18.229  1.00  0.00     0.007 C 
HETATM    7  C14 UNL     1      -3.644  11.402  18.913  1.00  0.00     0.013 C 
HETATM    8  C15 UNL     1      -3.241  12.835  18.492  1.00  0.00    -0.005 C 
HETATM    9  C16 UNL     1      -1.867  13.192  19.096  1.00  0.00     0.019 C 
HETATM   10  C17 UNL     1      -4.326  13.894  18.889  1.00  0.00     0.028 C 
HETATM   11  C22 UNL     1      -5.410  13.762  17.786  1.00  0.00     0.013 C 
HETATM   12  C23 UNL     1      -4.746  13.036  16.601  1.00  0.00     0.040 C 
HETATM   13  C24 UNL     1      -3.249  12.970  16.938  1.00  0.00     0.070 C 
HETATM   14  C25 UNL     1      -2.447  11.851  16.220  1.00  0.00     0.026 C 
HETATM   15  C26 UNL     1      -2.532  11.937  14.686  1.00  0.00     0.011 C 
HETATM   16  C27 UNL     1      -1.571  10.950  14.051  1.00  0.00     0.039 C 
HETATM   17  C28 UNL     1      -1.849   9.486  14.418  1.00  0.00     0.073 C 
HETATM   18  C29 UNL     1      -3.050   8.923  13.648  1.00  0.00     0.071 C 
ENDROOT
BRANCH   1  19
HETATM   19  O2  UNL     1      -4.395   6.939  13.366  1.00  0.00    -0.356 OA
BRANCH  19  20
HETATM   20  C4  UNL     1      -5.108   6.353  14.460  1.00  0.00     0.263 C 
HETATM   21  C3  UNL     1      -6.148   7.351  14.970  1.00  0.00     0.095 C 
HETATM   22  C2  UNL     1      -7.172   6.645  15.843  1.00  0.00     0.156 C 
HETATM   23  C32 UNL     1      -7.849   5.491  15.055  1.00  0.00     0.175 C 
HETATM   24  C30 UNL     1      -7.059   5.149  13.767  1.00  0.00     0.151 C 
HETATM   25  O8  UNL     1      -5.666   5.093  14.076  1.00  0.00    -0.354 OA
HETATM   26  C31 UNL     1      -7.465   3.807  13.178  1.00  0.00     0.042 C 
BRANCH  22  27
HETATM   27  O1  UNL     1      -8.132   7.629  16.263  1.00  0.00    -0.388 OA
HETATM   28  C1  UNL     1      -8.413   8.599  15.252  1.00  0.00     0.202 C 
ENDBRANCH  22  27
BRANCH  23  29
HETATM   29  O9  UNL     1      -7.916   4.348  15.931  1.00  0.00    -0.390 OA
HETATM   30  H49 UNL     1      -7.024   3.946  15.968  1.00  0.00     0.210 HD
ENDBRANCH  23  29
ENDBRANCH  19  20
ENDBRANCH   1  19
BRANCH  17  31
HETATM   31  O7  UNL     1      -0.713   8.736  13.941  1.00  0.00    -0.389 OA
HETATM   32  H41 UNL     1      -0.538   9.004  13.017  1.00  0.00     0.210 HD
ENDBRANCH  17  31
BRANCH   4  33
HETATM   33  C9  UNL     1      -0.627   9.084  16.555  1.00  0.00     0.068 C 
HETATM   34  N1  UNL     1       0.346   9.886  16.272  1.00  0.00    -0.399 N 
ATOM     35  H1  UNL     1       0.228  10.725  15.703  1.00  0.00     0.158 HD
BRANCH  34  36
HETATM   36  C10 UNL     1       1.636   9.480  16.842  1.00  0.00     0.144 C 
BRANCH  36  37
HETATM   37  C11 UNL     1       2.243   8.378  15.969  1.00  0.00     0.183 C 
BRANCH  37  38
HETATM   38  O3  UNL     1       2.074   7.103  16.573  1.00  0.00    -0.399 OA
HETATM   39  H18 UNL     1       1.136   6.869  16.462  1.00  0.00     0.209 HD
ENDBRANCH  37  38
ENDBRANCH  36  37
ENDBRANCH  34  36
ENDBRANCH   4  33
BRANCH  13  40
HETATM   40  O6  UNL     1      -2.681  14.244  16.596  1.00  0.00    -0.389 OA
HETATM   41  H35 UNL     1      -2.806  14.411  15.648  1.00  0.00     0.210 HD
ENDBRANCH  13  40
BRANCH  10  42
HETATM   42  C18 UNL     1      -4.822  13.880  20.309  1.00  0.00    -0.045 A 
HETATM   43  C19 UNL     1      -5.782  13.135  20.857  1.00  0.00     0.087 A 
HETATM   44  C20 UNL     1      -5.929  13.571  22.249  1.00  0.00     0.283 A 
HETATM   45  O4  UNL     1      -6.718  13.094  23.043  1.00  0.00    -0.260 OA
HETATM   46  O5  UNL     1      -5.066  14.592  22.494  1.00  0.00    -0.314 OA
HETATM   47  C21 UNL     1      -4.314  14.859  21.309  1.00  0.00     0.213 A 
ENDBRANCH  10  42
TORSDOF 11
ENDMDL
MODEL 4
REMARK minimizedAffinity -10.3581371
REMARK CNNscore 0.393547714
REMARK CNNaffinity 6.71426201
REMARK  11 active torsions:
REMARK  status: ('A' for Active; 'I' for Inactive)
REMARK    1  A    between atoms: O1_2  and  C2_3 
REMARK    2  A    between atoms: C4_5  and  O2_6 
REMARK    3  A    between atoms: O2_6  and  C5_7 
REMARK    4  A    between atoms: C8_10  and  C9_11 
REMARK    5  A    between atoms: N1_12  and  C10_14 
REMARK    6  A    between atoms: C10_14  and  C11_15 
REMARK    7  A    between atoms: C11_15  and  O3_16 
REMARK    8  A    between atoms: C17_22  and  C18_23 
REMARK    9  A    between atoms: C24_31  and  O6_32 
REMARK   10  A    between atoms: C28_36  and  O7_37 
REMARK   11  A    between atoms: C32_42  and  O9_43 
ROOT
HETATM    1  C5  UNL     1      -5.103   7.634  15.313  1.00  0.00     0.127 C 
HETATM    2  C6  UNL     1      -5.077   8.733  14.242  1.00  0.00     0.033 C 
HETATM    3  C7  UNL     1      -3.834   8.681  13.352  1.00  0.00     0.021 C 
HETATM    4  C8  UNL     1      -2.466   8.703  14.125  1.00  0.00     0.026 C 
HETATM    5  C12 UNL     1      -1.425   7.895  13.239  1.00  0.00     0.009 C 
HETATM    6  C13 UNL     1      -1.082   8.609  11.904  1.00  0.00     0.007 C 
HETATM    7  C14 UNL     1      -0.135   7.798  11.024  1.00  0.00     0.013 C 
HETATM    8  C15 UNL     1       1.174   7.393  11.744  1.00  0.00    -0.005 C 
HETATM    9  C16 UNL     1       2.067   8.635  11.945  1.00  0.00     0.019 C 
HETATM   10  C17 UNL     1       1.942   6.261  10.981  1.00  0.00     0.028 C 
HETATM   11  C22 UNL     1       1.196   4.959  11.380  1.00  0.00     0.013 C 
HETATM   12  C23 UNL     1       0.388   5.286  12.651  1.00  0.00     0.040 C 
HETATM   13  C24 UNL     1       0.856   6.680  13.094  1.00  0.00     0.070 C 
HETATM   14  C25 UNL     1      -0.139   7.469  13.987  1.00  0.00     0.026 C 
HETATM   15  C26 UNL     1      -0.519   6.719  15.276  1.00  0.00     0.011 C 
HETATM   16  C27 UNL     1      -1.324   7.622  16.191  1.00  0.00     0.039 C 
HETATM   17  C28 UNL     1      -2.640   8.118  15.576  1.00  0.00     0.073 C 
HETATM   18  C29 UNL     1      -3.719   7.028  15.582  1.00  0.00     0.071 C 
ENDROOT
BRANCH   1  19
HETATM   19  O2  UNL     1      -6.002   6.579  14.940  1.00  0.00    -0.356 OA
BRANCH  19  20
HETATM   20  C4  UNL     1      -5.729   6.064  13.633  1.00  0.00     0.263 C 
HETATM   21  C3  UNL     1      -4.488   5.173  13.697  1.00  0.00     0.095 C 
HETATM   22  C2  UNL     1      -4.396   4.307  12.451  1.00  0.00     0.156 C 
HETATM   23  C32 UNL     1      -5.685   3.455  12.290  1.00  0.00     0.175 C 
HETATM   24  C30 UNL     1      -6.823   3.978  13.202  1.00  0.00     0.151 C 
HETATM   25  O8  UNL     1      -6.881   5.401  13.106  1.00  0.00    -0.354 OA
HETATM   26  C31 UNL     1      -8.183   3.423  12.806  1.00  0.00     0.042 C 
BRANCH  22  27
HETATM   27  O1  UNL     1      -3.231   3.477  12.588  1.00  0.00    -0.388 OA
HETATM   28  C1  UNL     1      -3.323   2.262  11.841  1.00  0.00     0.202 C 
ENDBRANCH  22  27
BRANCH  23  29
HETATM   29  O9  UNL     1      -6.074   3.514  10.903  1.00  0.00    -0.390 OA
HETATM   30  H49 UNL     1      -6.497   4.384  10.748  1.00  0.00     0.210 HD
ENDBRANCH  23  29
ENDBRANCH  19  20
ENDBRANCH   1  19
BRANCH  17  31
HETATM   31  O7  UNL     1      -3.133   9.140  16.468  1.00  0.00    -0.389 OA
HETATM   32  H41 UNL     1      -3.099   8.789  17.379  1.00  0.00     0.210 HD
ENDBRANCH  17  31
BRANCH   4  33
HETATM   33  C9  UNL     1      -2.051  10.176  14.295  1.00  0.00     0.068 C 
HETATM   34  N1  UNL     1      -0.952  10.523  14.881  1.00  0.00    -0.399 N 
ATOM     35  H1  UNL     1      -0.254   9.849  15.199  1.00  0.00     0.158 HD
BRANCH  34  36
HETATM   36  C10 UNL     1      -0.798  11.973  15.046  1.00  0.00     0.144 C 
BRANCH  36  37
HETATM   37  C11 UNL     1      -1.979  12.680  14.374  1.00  0.00     0.183 C 
BRANCH  37  38
HETATM   38  O3  UNL     1      -1.524  13.638  13.429  1.00  0.00    -0.399 OA
HETATM   39  H18 UNL     1      -1.205  13.136  12.660  1.00  0.00     0.209 HD
ENDBRANCH  37  38
ENDBRANCH  36  37
ENDBRANCH  34  36
ENDBRANCH   4  33
BRANCH  13  40
HETATM   40  O6  UNL     1       2.088   6.505  13.810  1.00  0.00    -0.389 OA
HETATM   41  H35 UNL     1       1.937   5.939  14.584  1.00  0.00     0.210 HD
ENDBRANCH  13  40
BRANCH  10  42
HETATM   42  C18 UNL     1       2.188   6.458   9.510  1.00  0.00    -0.045 A 
HETATM   43  C19 UNL     1       1.687   7.381   8.690  1.00  0.00     0.087 A 
HETATM   44  C20 UNL     1       2.178   7.079   7.343  1.00  0.00     0.283 A 
HETATM   45  O4  UNL     1       1.917   7.731   6.349  1.00  0.00    -0.260 OA
HETATM   46  O5  UNL     1       2.946   5.957   7.385  1.00  0.00    -0.314 OA
HETATM   47  C21 UNL     1       3.010   5.490   8.733  1.00  0.00     0.213 A 
ENDBRANCH  10  42
TORSDOF 11
ENDMDL
MODEL 5
REMARK minimizedAffinity -8.73453617
REMARK CNNscore 0.335404813
REMARK CNNaffinity 5.86601639
REMARK  11 active torsions:
REMARK  status: ('A' for Active; 'I' for Inactive)
REMARK    1  A    between atoms: O1_2  and  C2_3 
REMARK    2  A    between atoms: C4_5  and  O2_6 
REMARK    3  A    between atoms: O2_6  and  C5_7 
REMARK    4  A    between atoms: C8_10  and  C9_11 
REMARK    5  A    between atoms: N1_12  and  C10_14 
REMARK    6  A    between atoms: C10_14  and  C11_15 
REMARK    7  A    between atoms: C11_15  and  O3_16 
REMARK    8  A    between atoms: C17_22  and  C18_23 
REMARK    9  A    between atoms: C24_31  and  O6_32 
REMARK   10  A    between atoms: C28_36  and  O7_37 
REMARK   11  A    between atoms: C32_42  and  O9_43 
ROOT
HETATM    1  C5  UNL     1      -0.170   7.551  10.310  1.00  0.00     0.127 C 
HETATM    2  C6  UNL     1       0.216   6.409  11.261  1.00  0.00     0.033 C 
HETATM    3  C7  UNL     1       1.625   6.553  11.838  1.00  0.00     0.021 C 
HETATM    4  C8  UNL     1       2.764   6.719  10.768  1.00  0.00     0.026 C 
HETATM    5  C12 UNL     1       3.905   7.591  11.445  1.00  0.00     0.009 C 
HETATM    6  C13 UNL     1       4.624   6.853  12.606  1.00  0.00     0.007 C 
HETATM    7  C14 UNL     1       5.673   7.718  13.300  1.00  0.00     0.013 C 
HETATM    8  C15 UNL     1       6.727   8.299  12.327  1.00  0.00    -0.005 C 
HETATM    9  C16 UNL     1       7.660   7.174  11.832  1.00  0.00     0.019 C 
HETATM   10  C17 UNL     1       7.545   9.470  12.973  1.00  0.00     0.028 C 
HETATM   11  C22 UNL     1       6.606  10.700  12.857  1.00  0.00     0.013 C 
HETATM   12  C23 UNL     1       5.552  10.351  11.788  1.00  0.00     0.040 C 
HETATM   13  C24 UNL     1       6.029   9.040  11.146  1.00  0.00     0.070 C 
HETATM   14  C25 UNL     1       4.929   8.192  10.453  1.00  0.00     0.026 C 
HETATM   15  C26 UNL     1       4.182   8.960   9.347  1.00  0.00     0.011 C 
HETATM   16  C27 UNL     1       3.271   8.021   8.580  1.00  0.00     0.039 C 
HETATM   17  C28 UNL     1       2.193   7.354   9.445  1.00  0.00     0.073 C 
HETATM   18  C29 UNL     1       1.046   8.317   9.772  1.00  0.00     0.071 C 
ENDROOT
BRANCH   1  19
HETATM   19  O2  UNL     1      -1.049   8.481  10.960  1.00  0.00    -0.356 OA
BRANCH  19  20
HETATM   20  C4  UNL     1      -1.240   8.177  12.345  1.00  0.00     0.263 C 
HETATM   21  C3  UNL     1      -0.805   9.379  13.184  1.00  0.00     0.095 C 
HETATM   22  C2  UNL     1      -1.351   9.260  14.598  1.00  0.00     0.156 C 
HETATM   23  C32 UNL     1      -2.898   9.132  14.570  1.00  0.00     0.175 C 
HETATM   24  C30 UNL     1      -3.411   8.797  13.147  1.00  0.00     0.151 C 
HETATM   25  O8  UNL     1      -2.591   7.771  12.586  1.00  0.00    -0.354 OA
HETATM   26  C31 UNL     1      -4.848   8.301  13.152  1.00  0.00     0.042 C 
BRANCH  22  27
HETATM   27  O1  UNL     1      -0.932  10.430  15.322  1.00  0.00    -0.388 OA
HETATM   28  C1  UNL     1      -0.437  10.128  16.628  1.00  0.00     0.202 C 
ENDBRANCH  22  27
BRANCH  23  29
HETATM   29  O9  UNL     1      -3.265   8.094  15.502  1.00  0.00    -0.390 OA
HETATM   30  H49 UNL     1      -3.076   7.231  15.079  1.00  0.00     0.210 HD
ENDBRANCH  23  29
ENDBRANCH  19  20
ENDBRANCH   1  19
BRANCH  17  31
HETATM   31  O7  UNL     1       1.600   6.330   8.620  1.00  0.00    -0.389 OA
HETATM   32  H41 UNL     1       1.381   6.727   7.754  1.00  0.00     0.210 HD
ENDBRANCH  17  31
BRANCH   4  33
HETATM   33  C9  UNL     1       3.263   5.311  10.397  1.00  0.00     0.068 C 
HETATM   34  N1  UNL     1       3.976   5.085   9.342  1.00  0.00    -0.399 N 
ATOM     35  H1  UNL     1       4.317   5.827   8.731  1.00  0.00     0.158 HD
BRANCH  34  36
HETATM   36  C10 UNL     1       4.250   3.663   9.103  1.00  0.00     0.144 C 
BRANCH  36  37
HETATM   37  C11 UNL     1       4.545   3.455   7.614  1.00  0.00     0.183 C 
BRANCH  37  38
HETATM   38  O3  UNL     1       3.379   3.673   6.832  1.00  0.00    -0.399 OA
HETATM   39  H18 UNL     1       3.237   4.635   6.813  1.00  0.00     0.209 HD
ENDBRANCH  37  38
ENDBRANCH  36  37
ENDBRANCH  34  36
ENDBRANCH   4  33
BRANCH  13  40
HETATM   40  O6  UNL     1       7.032   9.384  10.177  1.00  0.00    -0.389 OA
HETATM   41  H35 UNL     1       6.647   9.969   9.504  1.00  0.00     0.210 HD
ENDBRANCH  13  40
BRANCH  10  42
HETATM   42  C18 UNL     1       8.153   9.227  14.327  1.00  0.00    -0.045 A 
HETATM   43  C19 UNL     1       8.501   8.075  14.899  1.00  0.00     0.087 A 
HETATM   44  C20 UNL     1       8.966   8.385  16.254  1.00  0.00     0.283 A 
HETATM   45  O4  UNL     1       9.367   7.560  17.053  1.00  0.00    -0.260 OA
HETATM   46  O5  UNL     1       8.861   9.723  16.470  1.00  0.00    -0.314 OA
HETATM   47  C21 UNL     1       8.349  10.345  15.290  1.00  0.00     0.213 A 
ENDBRANCH  10  42
TORSDOF 11
ENDMDL
MODEL 6
REMARK minimizedAffinity -6.91825533
REMARK CNNscore 0.32247442
REMARK CNNaffinity 5.70210886
REMARK  11 active torsions:
REMARK  status: ('A' for Active; 'I' for Inactive)
REMARK    1  A    between atoms: O1_2  and  C2_3 
REMARK    2  A    between atoms: C4_5  and  O2_6 
REMARK    3  A    between atoms: O2_6  and  C5_7 
REMARK    4  A    between atoms: C8_10  and  C9_11 
REMARK    5  A    between atoms: N1_12  and  C10_14 
REMARK    6  A    between atoms: C10_14  and  C11_15 
REMARK    7  A    between atoms: C11_15  and  O3_16 
REMARK    8  A    between atoms: C17_22  and  C18_23 
REMARK    9  A    between atoms: C24_31  and  O6_32 
REMARK   10  A    between atoms: C28_36  and  O7_37 
REMARK   11  A    between atoms: C32_42  and  O9_43 
ROOT
HETATM    1  C5  UNL     1     -11.997  10.270  19.140  1.00  0.00     0.127 C 
HETATM    2  C6  UNL     1     -11.193  10.433  20.437  1.00  0.00     0.033 C 
HETATM    3  C7  UNL     1     -11.481   9.342  21.469  1.00  0.00     0.021 C 
HETATM    4  C8  UNL     1     -12.998   9.167  21.840  1.00  0.00     0.026 C 
HETATM    5  C12 UNL     1     -13.203   7.641  22.228  1.00  0.00     0.009 C 
HETATM    6  C13 UNL     1     -12.475   7.246  23.541  1.00  0.00     0.007 C 
HETATM    7  C14 UNL     1     -12.616   5.763  23.875  1.00  0.00     0.013 C 
HETATM    8  C15 UNL     1     -14.087   5.287  23.936  1.00  0.00    -0.005 C 
HETATM    9  C16 UNL     1     -14.772   5.863  25.194  1.00  0.00     0.019 C 
HETATM   10  C17 UNL     1     -14.205   3.726  23.893  1.00  0.00     0.028 C 
HETATM   11  C22 UNL     1     -14.044   3.373  22.390  1.00  0.00     0.013 C 
HETATM   12  C23 UNL     1     -14.310   4.670  21.602  1.00  0.00     0.040 C 
HETATM   13  C24 UNL     1     -14.843   5.679  22.630  1.00  0.00     0.070 C 
HETATM   14  C25 UNL     1     -14.678   7.175  22.249  1.00  0.00     0.026 C 
HETATM   15  C26 UNL     1     -15.350   7.536  20.912  1.00  0.00     0.011 C 
HETATM   16  C27 UNL     1     -15.328   9.038  20.703  1.00  0.00     0.039 C 
HETATM   17  C28 UNL     1     -13.917   9.640  20.653  1.00  0.00     0.073 C 
HETATM   18  C29 UNL     1     -13.228   9.369  19.310  1.00  0.00     0.071 C 
ENDROOT
BRANCH   1  19
HETATM   19  O2  UNL     1     -11.175   9.731  18.094  1.00  0.00    -0.356 OA
BRANCH  19  20
HETATM   20  C4  UNL     1     -11.615  10.130  16.792  1.00  0.00     0.263 C 
HETATM   21  C3  UNL     1     -10.739  11.282  16.300  1.00  0.00     0.095 C 
HETATM   22  C2  UNL     1     -10.904  11.467  14.800  1.00  0.00     0.156 C 
HETATM   23  C32 UNL     1     -10.563  10.149  14.053  1.00  0.00     0.175 C 
HETATM   24  C30 UNL     1     -10.510   8.946  15.027  1.00  0.00     0.151 C 
HETATM   25  O8  UNL     1     -11.635   9.008  15.905  1.00  0.00    -0.354 OA
HETATM   26  C31 UNL     1     -10.552   7.611  14.300  1.00  0.00     0.042 C 
BRANCH  22  27
HETATM   27  O1  UNL     1     -10.035  12.540  14.399  1.00  0.00    -0.388 OA
HETATM   28  C1  UNL     1      -9.316  13.111  15.494  1.00  0.00     0.202 C 
ENDBRANCH  22  27
BRANCH  23  29
HETATM   29  O9  UNL     1     -11.574   9.946  13.045  1.00  0.00    -0.390 OA
HETATM   30  H49 UNL     1     -12.379   9.613  13.492  1.00  0.00     0.210 HD
ENDBRANCH  23  29
ENDBRANCH  19  20
ENDBRANCH   1  19
BRANCH  17  31
HETATM   31  O7  UNL     1     -14.095  11.071  20.702  1.00  0.00    -0.389 OA
HETATM   32  H41 UNL     1     -14.774  11.315  20.043  1.00  0.00     0.210 HD
ENDBRANCH  17  31
BRANCH   4  33
HETATM   33  C9  UNL     1     -13.299  10.104  23.025  1.00  0.00     0.068 C 
HETATM   34  N1  UNL     1     -13.508  11.371  22.869  1.00  0.00    -0.399 N 
ATOM     35  H1  UNL     1     -13.563  11.817  21.953  1.00  0.00     0.158 HD
BRANCH  34  36
HETATM   36  C10 UNL     1     -13.658  12.107  24.129  1.00  0.00     0.144 C 
BRANCH  36  37
HETATM   37  C11 UNL     1     -14.211  11.160  25.199  1.00  0.00     0.183 C 
BRANCH  37  38
HETATM   38  O3  UNL     1     -13.437  11.232  26.388  1.00  0.00    -0.399 OA
HETATM   39  H18 UNL     1     -13.667  12.074  26.815  1.00  0.00     0.209 HD
ENDBRANCH  37  38
ENDBRANCH  36  37
ENDBRANCH  34  36
ENDBRANCH   4  33
BRANCH  13  40
HETATM   40  O6  UNL     1     -16.238   5.396  22.816  1.00  0.00    -0.389 OA
HETATM   41  H35 UNL     1     -16.706   5.497  21.972  1.00  0.00     0.210 HD
ENDBRANCH  13  40
BRANCH  10  42
HETATM   42  C18 UNL     1     -13.354   2.938  24.852  1.00  0.00    -0.045 A 
HETATM   43  C19 UNL     1     -13.469   2.817  26.174  1.00  0.00     0.087 A 
HETATM   44  C20 UNL     1     -12.339   2.006  26.636  1.00  0.00     0.283 A 
HETATM   45  O4  UNL     1     -12.139   1.695  27.795  1.00  0.00    -0.260 OA
HETATM   46  O5  UNL     1     -11.555   1.681  25.574  1.00  0.00    -0.314 OA
HETATM   47  C21 UNL     1     -12.128   2.234  24.388  1.00  0.00     0.213 A 
ENDBRANCH  10  42
TORSDOF 11
ENDMDL
MODEL 7
REMARK minimizedAffinity -6.84342718
REMARK CNNscore 0.263740689
REMARK CNNaffinity 5.4571414
REMARK  11 active torsions:
REMARK  status: ('A' for Active; 'I' for Inactive)
REMARK    1  A    between atoms: O1_2  and  C2_3 
REMARK    2  A    between atoms: C4_5  and  O2_6 
REMARK    3  A    between atoms: O2_6  and  C5_7 
REMARK    4  A    between atoms: C8_10  and  C9_11 
REMARK    5  A    between atoms: N1_12  and  C10_14 
REMARK    6  A    between atoms: C10_14  and  C11_15 
REMARK    7  A    between atoms: C11_15  and  O3_16 
REMARK    8  A    between atoms: C17_22  and  C18_23 
REMARK    9  A    between atoms: C24_31  and  O6_32 
REMARK   10  A    between atoms: C28_36  and  O7_37 
REMARK   11  A    between atoms: C32_42  and  O9_43 
ROOT
HETATM    1  C5  UNL     1     -13.040  10.394  19.043  1.00  0.00     0.127 C 
HETATM    2  C6  UNL     1     -11.885  10.427  20.054  1.00  0.00     0.033 C 
HETATM    3  C7  UNL     1     -11.988   9.342  21.126  1.00  0.00     0.021 C 
HETATM    4  C8  UNL     1     -13.346   9.322  21.918  1.00  0.00     0.026 C 
HETATM    5  C12 UNL     1     -13.603   7.816  22.349  1.00  0.00     0.009 C 
HETATM    6  C13 UNL     1     -12.581   7.302  23.398  1.00  0.00     0.007 C 
HETATM    7  C14 UNL     1     -12.788   5.834  23.760  1.00  0.00     0.013 C 
HETATM    8  C15 UNL     1     -14.225   5.520  24.242  1.00  0.00    -0.005 C 
HETATM    9  C16 UNL     1     -14.452   6.126  25.642  1.00  0.00     0.019 C 
HETATM   10  C17 UNL     1     -14.527   3.982  24.235  1.00  0.00     0.028 C 
HETATM   11  C22 UNL     1     -14.843   3.662  22.749  1.00  0.00     0.013 C 
HETATM   12  C23 UNL     1     -15.173   5.005  22.070  1.00  0.00     0.040 C 
HETATM   13  C24 UNL     1     -15.272   6.033  23.207  1.00  0.00     0.070 C 
HETATM   14  C25 UNL     1     -15.054   7.514  22.794  1.00  0.00     0.026 C 
HETATM   15  C26 UNL     1     -16.034   7.988  21.706  1.00  0.00     0.011 C 
HETATM   16  C27 UNL     1     -15.902   9.485  21.498  1.00  0.00     0.039 C 
HETATM   17  C28 UNL     1     -14.506   9.930  21.044  1.00  0.00     0.073 C 
HETATM   18  C29 UNL     1     -14.265   9.628  19.560  1.00  0.00     0.071 C 
ENDROOT
BRANCH   1  19
HETATM   19  O2  UNL     1     -12.617   9.803  17.805  1.00  0.00    -0.356 OA
BRANCH  19  20
HETATM   20  C4  UNL     1     -11.354  10.307  17.360  1.00  0.00     0.263 C 
HETATM   21  C3  UNL     1     -10.684   9.260  16.470  1.00  0.00     0.095 C 
HETATM   22  C2  UNL     1      -9.555   9.891  15.671  1.00  0.00     0.156 C 
HETATM   23  C32 UNL     1     -10.091  11.079  14.826  1.00  0.00     0.175 C 
HETATM   24  C30 UNL     1     -11.502  11.515  15.297  1.00  0.00     0.151 C 
HETATM   25  O8  UNL     1     -11.518  11.577  16.723  1.00  0.00    -0.354 OA
HETATM   26  C31 UNL     1     -11.894  12.882  14.760  1.00  0.00     0.042 C 
BRANCH  22  27
HETATM   27  O1  UNL     1      -8.990   8.865  14.838  1.00  0.00    -0.388 OA
HETATM   28  C1  UNL     1      -7.636   8.557  15.175  1.00  0.00     0.202 C 
ENDBRANCH  22  27
BRANCH  23  29
HETATM   29  O9  UNL     1      -9.152  12.165  14.958  1.00  0.00    -0.390 OA
HETATM   30  H49 UNL     1      -9.294  12.580  15.833  1.00  0.00     0.210 HD
ENDBRANCH  23  29
ENDBRANCH  19  20
ENDBRANCH   1  19
BRANCH  17  31
HETATM   31  O7  UNL     1     -14.498  11.369  21.141  1.00  0.00    -0.389 OA
HETATM   32  H41 UNL     1     -15.305  11.707  20.705  1.00  0.00     0.210 HD
ENDBRANCH  17  31
BRANCH   4  33
HETATM   33  C9  UNL     1     -13.187  10.248  23.138  1.00  0.00     0.068 C 
HETATM   34  N1  UNL     1     -12.274  11.162  23.198  1.00  0.00    -0.399 N 
ATOM     35  H1  UNL     1     -11.653  11.381  22.419  1.00  0.00     0.158 HD
BRANCH  34  36
HETATM   36  C10 UNL     1     -12.213  11.856  24.489  1.00  0.00     0.144 C 
BRANCH  36  37
HETATM   37  C11 UNL     1     -10.942  12.709  24.538  1.00  0.00     0.183 C 
BRANCH  37  38
HETATM   38  O3  UNL     1      -9.846  11.957  25.042  1.00  0.00    -0.399 OA
HETATM   39  H18 UNL     1      -9.580  11.349  24.331  1.00  0.00     0.209 HD
ENDBRANCH  37  38
ENDBRANCH  36  37
ENDBRANCH  34  36
ENDBRANCH   4  33
BRANCH  13  40
HETATM   40  O6  UNL     1     -16.579   5.898  23.787  1.00  0.00    -0.389 OA
HETATM   41  H35 UNL     1     -17.254   6.076  23.113  1.00  0.00     0.210 HD
ENDBRANCH  13  40
BRANCH  10  42
HETATM   42  C18 UNL     1     -13.533   3.076  24.909  1.00  0.00    -0.045 A 
HETATM   43  C19 UNL     1     -13.423   2.760  26.199  1.00  0.00     0.087 A 
HETATM   44  C20 UNL     1     -12.238   1.909  26.339  1.00  0.00     0.283 A 
HETATM   45  O4  UNL     1     -11.848   1.433  27.389  1.00  0.00    -0.260 OA
HETATM   46  O5  UNL     1     -11.648   1.756  25.124  1.00  0.00    -0.314 OA
HETATM   47  C21 UNL     1     -12.409   2.468  24.147  1.00  0.00     0.213 A 
ENDBRANCH  10  42
TORSDOF 11
ENDMDL
MODEL 8
REMARK minimizedAffinity -8.49401665
REMARK CNNscore 0.218813375
REMARK CNNaffinity 6.54488897
REMARK  11 active torsions:
REMARK  status: ('A' for Active; 'I' for Inactive)
REMARK    1  A    between atoms: O1_2  and  C2_3 
REMARK    2  A    between atoms: C4_5  and  O2_6 
REMARK    3  A    between atoms: O2_6  and  C5_7 
REMARK    4  A    between atoms: C8_10  and  C9_11 
REMARK    5  A    between atoms: N1_12  and  C10_14 
REMARK    6  A    between atoms: C10_14  and  C11_15 
REMARK    7  A    between atoms: C11_15  and  O3_16 
REMARK    8  A    between atoms: C17_22  and  C18_23 
REMARK    9  A    between atoms: C24_31  and  O6_32 
REMARK   10  A    between atoms: C28_36  and  O7_37 
REMARK   11  A    between atoms: C32_42  and  O9_43 
ROOT
HETATM    1  C5  UNL     1      -4.777   9.507  15.762  1.00  0.00     0.127 C 
HETATM    2  C6  UNL     1      -4.030  10.718  15.188  1.00  0.00     0.033 C 
HETATM    3  C7  UNL     1      -2.804  10.335  14.357  1.00  0.00     0.021 C 
HETATM    4  C8  UNL     1      -1.768   9.411  15.093  1.00  0.00     0.026 C 
HETATM    5  C12 UNL     1      -1.069   8.524  13.977  1.00  0.00     0.009 C 
HETATM    6  C13 UNL     1      -0.175   9.353  13.016  1.00  0.00     0.007 C 
HETATM    7  C14 UNL     1       0.441   8.510  11.903  1.00  0.00     0.013 C 
HETATM    8  C15 UNL     1       1.238   7.292  12.428  1.00  0.00    -0.005 C 
HETATM    9  C16 UNL     1       2.545   7.769  13.093  1.00  0.00     0.019 C 
HETATM   10  C17 UNL     1       1.526   6.243  11.299  1.00  0.00     0.028 C 
HETATM   11  C22 UNL     1       0.198   5.450  11.167  1.00  0.00     0.013 C 
HETATM   12  C23 UNL     1      -0.601   5.710  12.459  1.00  0.00     0.040 C 
HETATM   13  C24 UNL     1       0.362   6.446  13.403  1.00  0.00     0.070 C 
HETATM   14  C25 UNL     1      -0.307   7.292  14.519  1.00  0.00     0.026 C 
HETATM   15  C26 UNL     1      -1.241   6.468  15.424  1.00  0.00     0.011 C 
HETATM   16  C27 UNL     1      -1.698   7.302  16.605  1.00  0.00     0.039 C 
HETATM   17  C28 UNL     1      -2.480   8.563  16.212  1.00  0.00     0.073 C 
HETATM   18  C29 UNL     1      -3.918   8.235  15.794  1.00  0.00     0.071 C 
ENDROOT
BRANCH   1  19
HETATM   19  O2  UNL     1      -5.968   9.237  15.008  1.00  0.00    -0.356 OA
BRANCH  19  20
HETATM   20  C4  UNL     1      -6.676   8.092  15.493  1.00  0.00     0.263 C 
HETATM   21  C3  UNL     1      -8.168   8.270  15.209  1.00  0.00     0.095 C 
HETATM   22  C2  UNL     1      -8.892   6.940  15.340  1.00  0.00     0.156 C 
HETATM   23  C32 UNL     1      -8.265   5.888  14.385  1.00  0.00     0.175 C 
HETATM   24  C30 UNL     1      -6.887   6.359  13.854  1.00  0.00     0.151 C 
HETATM   25  O8  UNL     1      -6.128   6.893  14.939  1.00  0.00    -0.354 OA
HETATM   26  C31 UNL     1      -6.088   5.224  13.233  1.00  0.00     0.042 C 
BRANCH  22  27
HETATM   27  O1  UNL     1     -10.277   7.171  15.032  1.00  0.00    -0.388 OA
HETATM   28  C1  UNL     1     -10.530   8.498  14.567  1.00  0.00     0.202 C 
ENDBRANCH  22  27
BRANCH  23  29
HETATM   29  O9  UNL     1      -8.134   4.656  15.122  1.00  0.00    -0.390 OA
HETATM   30  H49 UNL     1      -7.359   4.742  15.714  1.00  0.00     0.210 HD
ENDBRANCH  23  29
ENDBRANCH  19  20
ENDBRANCH   1  19
BRANCH  17  31
HETATM   31  O7  UNL     1      -2.608   9.341  17.420  1.00  0.00    -0.389 OA
HETATM   32  H41 UNL     1      -2.923   8.750  18.131  1.00  0.00     0.210 HD
ENDBRANCH  17  31
BRANCH   4  33
HETATM   33  C9  UNL     1      -0.760  10.325  15.814  1.00  0.00     0.068 C 
HETATM   34  N1  UNL     1       0.136   9.864  16.624  1.00  0.00    -0.399 N 
ATOM     35  H1  UNL     1       0.284   8.867  16.781  1.00  0.00     0.158 HD
BRANCH  34  36
HETATM   36  C10 UNL     1       0.921  10.905  17.297  1.00  0.00     0.144 C 
BRANCH  36  37
HETATM   37  C11 UNL     1       2.011  10.240  18.144  1.00  0.00     0.183 C 
BRANCH  37  38
HETATM   38  O3  UNL     1       2.972  11.195  18.573  1.00  0.00    -0.399 OA
HETATM   39  H18 UNL     1       2.547  11.716  19.276  1.00  0.00     0.209 HD
ENDBRANCH  37  38
ENDBRANCH  36  37
ENDBRANCH  34  36
ENDBRANCH   4  33
BRANCH  13  40
HETATM   40  O6  UNL     1       1.201   5.451  14.011  1.00  0.00    -0.389 OA
HETATM   41  H35 UNL     1       0.653   4.825  14.510  1.00  0.00     0.210 HD
ENDBRANCH  13  40
BRANCH  10  42
HETATM   42  C18 UNL     1       2.123   6.752  10.015  1.00  0.00    -0.045 A 
HETATM   43  C19 UNL     1       2.029   7.963   9.466  1.00  0.00     0.087 A 
HETATM   44  C20 UNL     1       2.722   7.909   8.176  1.00  0.00     0.283 A 
HETATM   45  O4  UNL     1       2.834   8.849   7.411  1.00  0.00    -0.260 OA
HETATM   46  O5  UNL     1       3.195   6.651   7.971  1.00  0.00    -0.314 OA
HETATM   47  C21 UNL     1       2.859   5.840   9.098  1.00  0.00     0.213 A 
ENDBRANCH  10  42
TORSDOF 11
ENDMDL
MODEL 9
REMARK minimizedAffinity -7.87708473
REMARK CNNscore 0.214763269
REMARK CNNaffinity 5.79722595
REMARK  11 active torsions:
REMARK  status: ('A' for Active; 'I' for Inactive)
REMARK    1  A    between atoms: O1_2  and  C2_3 
REMARK    2  A    between atoms: C4_5  and  O2_6 
REMARK    3  A    between atoms: O2_6  and  C5_7 
REMARK    4  A    between atoms: C8_10  and  C9_11 
REMARK    5  A    between atoms: N1_12  and  C10_14 
REMARK    6  A    between atoms: C10_14  and  C11_15 
REMARK    7  A    between atoms: C11_15  and  O3_16 
REMARK    8  A    between atoms: C17_22  and  C18_23 
REMARK    9  A    between atoms: C24_31  and  O6_32 
REMARK   10  A    between atoms: C28_36  and  O7_37 
REMARK   11  A    between atoms: C32_42  and  O9_43 
ROOT
HETATM    1  C5  UNL     1       0.079   7.864  12.159  1.00  0.00     0.127 C 
HETATM    2  C6  UNL     1      -1.452   7.927  12.068  1.00  0.00     0.033 C 
HETATM    3  C7  UNL     1      -2.086   8.815  13.140  1.00  0.00     0.021 C 
HETATM    4  C8  UNL     1      -1.686   8.456  14.617  1.00  0.00     0.026 C 
HETATM    5  C12 UNL     1      -1.738   9.808  15.448  1.00  0.00     0.009 C 
HETATM    6  C13 UNL     1      -3.177  10.370  15.603  1.00  0.00     0.007 C 
HETATM    7  C14 UNL     1      -3.216  11.705  16.343  1.00  0.00     0.013 C 
HETATM    8  C15 UNL     1      -2.528  11.656  17.729  1.00  0.00    -0.005 C 
HETATM    9  C16 UNL     1      -3.387  10.834  18.711  1.00  0.00     0.019 C 
HETATM   10  C17 UNL     1      -2.237  13.089  18.294  1.00  0.00     0.028 C 
HETATM   11  C22 UNL     1      -0.949  13.536  17.553  1.00  0.00     0.013 C 
HETATM   12  C23 UNL     1      -0.299  12.258  16.988  1.00  0.00     0.040 C 
HETATM   13  C24 UNL     1      -1.082  11.088  17.601  1.00  0.00     0.070 C 
HETATM   14  C25 UNL     1      -1.015   9.750  16.815  1.00  0.00     0.026 C 
HETATM   15  C26 UNL     1       0.423   9.240  16.614  1.00  0.00     0.011 C 
HETATM   16  C27 UNL     1       0.407   7.842  16.025  1.00  0.00     0.039 C 
HETATM   17  C28 UNL     1      -0.279   7.751  14.655  1.00  0.00     0.073 C 
HETATM   18  C29 UNL     1       0.615   8.292  13.532  1.00  0.00     0.071 C 
ENDROOT
BRANCH   1  19
HETATM   19  O2  UNL     1       0.685   8.690  11.153  1.00  0.00    -0.356 OA
BRANCH  19  20
HETATM   20  C4  UNL     1       1.458   7.932  10.217  1.00  0.00     0.263 C 
HETATM   21  C3  UNL     1       2.943   8.122  10.527  1.00  0.00     0.095 C 
HETATM   22  C2  UNL     1       3.768   7.049   9.833  1.00  0.00     0.156 C 
HETATM   23  C32 UNL     1       3.286   5.637  10.261  1.00  0.00     0.175 C 
HETATM   24  C30 UNL     1       1.906   5.700  10.962  1.00  0.00     0.151 C 
HETATM   25  O8  UNL     1       1.044   6.563  10.218  1.00  0.00    -0.354 OA
HETATM   26  C31 UNL     1       1.240   4.336  11.055  1.00  0.00     0.042 C 
BRANCH  22  27
HETATM   27  O1  UNL     1       5.144   7.266  10.188  1.00  0.00    -0.388 OA
HETATM   28  C1  UNL     1       5.547   6.515  11.335  1.00  0.00     0.202 C 
ENDBRANCH  22  27
BRANCH  23  29
HETATM   29  O9  UNL     1       3.217   4.823   9.073  1.00  0.00    -0.390 OA
HETATM   30  H49 UNL     1       2.406   5.072   8.585  1.00  0.00     0.210 HD
ENDBRANCH  23  29
ENDBRANCH  19  20
ENDBRANCH   1  19
BRANCH  17  31
HETATM   31  O7  UNL     1      -0.422   6.343  14.376  1.00  0.00    -0.389 OA
HETATM   32  H41 UNL     1       0.440   5.912  14.542  1.00  0.00     0.210 HD
ENDBRANCH  17  31
BRANCH   4  33
HETATM   33  C9  UNL     1      -2.705   7.425  15.137  1.00  0.00     0.068 C 
HETATM   34  N1  UNL     1      -3.844   7.224  14.557  1.00  0.00    -0.399 N 
ATOM     35  H1  UNL     1      -4.109   7.676  13.681  1.00  0.00     0.158 HD
BRANCH  34  36
HETATM   36  C10 UNL     1      -4.718   6.288  15.273  1.00  0.00     0.144 C 
BRANCH  36  37
HETATM   37  C11 UNL     1      -6.084   6.947  15.488  1.00  0.00     0.183 C 
BRANCH  37  38
HETATM   38  O3  UNL     1      -6.683   6.488  16.692  1.00  0.00    -0.399 OA
HETATM   39  H18 UNL     1      -6.204   6.919  17.420  1.00  0.00     0.209 HD
ENDBRANCH  37  38
ENDBRANCH  36  37
ENDBRANCH  34  36
ENDBRANCH   4  33
BRANCH  13  40
HETATM   40  O6  UNL     1      -0.564  10.878  18.924  1.00  0.00    -0.389 OA
HETATM   41  H35 UNL     1       0.381  10.661  18.872  1.00  0.00     0.210 HD
ENDBRANCH  13  40
BRANCH  10  42
HETATM   42  C18 UNL     1      -3.372  14.076  18.301  1.00  0.00    -0.045 A 
HETATM   43  C19 UNL     1      -3.726  14.958  17.366  1.00  0.00     0.087 A 
HETATM   44  C20 UNL     1      -4.847  15.735  17.902  1.00  0.00     0.283 A 
HETATM   45  O4  UNL     1      -5.420  16.626  17.304  1.00  0.00    -0.260 OA
HETATM   46  O5  UNL     1      -5.123  15.313  19.165  1.00  0.00    -0.314 OA
HETATM   47  C21 UNL     1      -4.229  14.252  19.505  1.00  0.00     0.213 A 
ENDBRANCH  10  42
TORSDOF 11
ENDMDL
