MODEL 1
REMARK minimizedAffinity -6.77058029
REMARK CNNscore 0.750443518
REMARK CNNaffinity 6.39588308
REMARK  6 active torsions:
REMARK  status: ('A' for Active; 'I' for Inactive)
REMARK    1  A    between atoms: O1_2  and  C2_3 
REMARK    2  A    between atoms: C2_3  and  C3_5 
REMARK    3  A    between atoms: C9_11  and  O3_12 
REMARK    4  A    between atoms: C11_14  and  C12_15 
REMARK    5  A    between atoms: C12_15  and  O4_17 
REMARK    6  A    between atoms: C30_36  and  O7_37 
ROOT
HETATM    1  C3  UNL     1      -0.883  52.728  -9.219  1.00  0.00     0.087 C 
HETATM    2  C4  UNL     1      -1.149  53.440  -7.844  1.00  0.00     0.024 C 
HETATM    3  C5  UNL     1       0.126  53.979  -7.177  1.00  0.00     0.011 C 
HETATM    4  C6  UNL     1       0.969  55.009  -7.995  1.00  0.00    -0.033 C 
HETATM    5  C7  UNL     1       0.237  56.368  -7.880  1.00  0.00     0.016 C 
HETATM    6  C8  UNL     1       1.058  54.567  -9.519  1.00  0.00     0.032 C 
HETATM    7  C9  UNL     1       2.406  53.894  -9.832  1.00  0.00     0.124 C 
HETATM    8  C10 UNL     1       3.533  54.904  -9.637  1.00  0.00     0.046 C 
HETATM    9  C11 UNL     1       3.673  55.491  -8.193  1.00  0.00     0.014 C 
HETATM   10  C14 UNL     1       3.795  57.040  -8.352  1.00  0.00     0.191 C 
HETATM   11  O5  UNL     1       4.455  57.711  -7.259  1.00  0.00    -0.321 OA
HETATM   12  C15 UNL     1       3.930  57.815  -6.026  1.00  0.00     0.258 C 
HETATM   13  O6  UNL     1       4.569  58.297  -5.096  1.00  0.00    -0.265 OA
HETATM   14  C16 UNL     1       2.533  57.306  -5.842  1.00  0.00     0.111 C 
HETATM   15  C17 UNL     1       2.445  55.785  -5.892  1.00  0.00     0.016 C 
HETATM   16  C18 UNL     1       2.434  55.101  -7.291  1.00  0.00     0.008 C 
HETATM   17  C19 UNL     1      -0.242  53.848 -10.158  1.00  0.00    -0.017 C 
HETATM   18  C20 UNL     1      -1.244  55.038 -10.457  1.00  0.00     0.017 C 
HETATM   19  C21 UNL     1       0.015  53.247 -11.573  1.00  0.00     0.012 C 
HETATM   20  C22 UNL     1      -1.233  52.663 -12.255  1.00  0.00     0.013 C 
HETATM   21  C23 UNL     1      -2.097  51.695 -11.399  1.00  0.00    -0.008 C 
HETATM   22  C24 UNL     1      -3.500  51.647 -12.091  1.00  0.00     0.018 C 
HETATM   23  C25 UNL     1      -1.504  50.263 -11.563  1.00  0.00     0.039 C 
HETATM   24  C26 UNL     1      -1.886  49.272 -10.510  1.00  0.00    -0.023 C 
HETATM   25  C27 UNL     1      -2.505  49.588  -9.365  1.00  0.00    -0.085 C 
HETATM   26  C28 UNL     1      -2.846  48.552  -8.331  1.00  0.00     0.043 C 
HETATM   27  C29 UNL     1      -2.902  50.999  -9.031  1.00  0.00     0.073 C 
HETATM   28  C30 UNL     1      -2.235  52.141  -9.870  1.00  0.00     0.086 C 
ENDROOT
BRANCH   1  29
HETATM   29  C2  UNL     1      -0.003  51.500  -8.832  1.00  0.00     0.271 C 
HETATM   30  O2  UNL     1       0.930  51.089  -9.522  1.00  0.00    -0.264 OA
BRANCH  29  31
HETATM   31  O1  UNL     1      -0.301  50.963  -7.624  1.00  0.00    -0.326 OA
HETATM   32  C1  UNL     1      -0.973  51.859  -6.732  1.00  0.00     0.213 C 
ENDBRANCH  29  31
ENDBRANCH   1  29
BRANCH  28  33
HETATM   33  O7  UNL     1      -3.200  53.228  -9.794  1.00  0.00    -0.387 OA
HETATM   34  H46 UNL     1      -4.073  52.906 -10.068  1.00  0.00     0.210 HD
ENDBRANCH  28  33
BRANCH   7  35
HETATM   35  O3  UNL     1       2.635  52.761  -9.021  1.00  0.00    -0.395 OA
HETATM   36  H13 UNL     1       3.390  52.281  -9.407  1.00  0.00     0.210 HD
ENDBRANCH   7  35
BRANCH   9  37
HETATM   37  C12 UNL     1       5.039  54.980  -7.565  1.00  0.00     0.125 C 
HETATM   38  C13 UNL     1       6.332  55.533  -8.164  1.00  0.00     0.040 C 
BRANCH  37  39
HETATM   39  O4  UNL     1       5.043  55.303  -6.166  1.00  0.00    -0.395 OA
HETATM   40  H20 UNL     1       5.928  55.113  -5.804  1.00  0.00     0.210 HD
ENDBRANCH  37  39
ENDBRANCH   9  37
TORSDOF 6
ENDMDL
MODEL 2
REMARK minimizedAffinity -6.86341095
REMARK CNNscore 0.726826608
REMARK CNNaffinity 6.99155951
REMARK  6 active torsions:
REMARK  status: ('A' for Active; 'I' for Inactive)
REMARK    1  A    between atoms: O1_2  and  C2_3 
REMARK    2  A    between atoms: C2_3  and  C3_5 
REMARK    3  A    between atoms: C9_11  and  O3_12 
REMARK    4  A    between atoms: C11_14  and  C12_15 
REMARK    5  A    between atoms: C12_15  and  O4_17 
REMARK    6  A    between atoms: C30_36  and  O7_37 
ROOT
HETATM    1  C3  UNL     1       2.112  54.689  -7.477  1.00  0.00     0.087 C 
HETATM    2  C4  UNL     1       1.820  53.265  -6.881  1.00  0.00     0.024 C 
HETATM    3  C5  UNL     1       0.605  52.572  -7.517  1.00  0.00     0.011 C 
HETATM    4  C6  UNL     1       0.648  52.349  -9.064  1.00  0.00    -0.033 C 
HETATM    5  C7  UNL     1       1.572  51.132  -9.308  1.00  0.00     0.016 C 
HETATM    6  C8  UNL     1       1.236  53.633  -9.792  1.00  0.00     0.032 C 
HETATM    7  C9  UNL     1       0.119  54.498 -10.400  1.00  0.00     0.124 C 
HETATM    8  C10 UNL     1      -0.597  53.705 -11.491  1.00  0.00     0.046 C 
HETATM    9  C11 UNL     1      -1.287  52.381 -11.022  1.00  0.00     0.014 C 
HETATM   10  C14 UNL     1      -0.854  51.272 -12.033  1.00  0.00     0.191 C 
HETATM   11  O5  UNL     1      -1.756  50.151 -12.126  1.00  0.00    -0.321 OA
HETATM   12  C15 UNL     1      -1.942  49.263 -11.134  1.00  0.00     0.258 C 
HETATM   13  O6  UNL     1      -2.798  48.387 -11.209  1.00  0.00    -0.265 OA
HETATM   14  C16 UNL     1      -1.060  49.402  -9.931  1.00  0.00     0.111 C 
HETATM   15  C17 UNL     1      -1.404  50.619  -9.080  1.00  0.00     0.016 C 
HETATM   16  C18 UNL     1      -0.869  52.006  -9.544  1.00  0.00     0.008 C 
HETATM   17  C19 UNL     1       2.406  54.447  -9.027  1.00  0.00    -0.017 C 
HETATM   18  C20 UNL     1       3.712  53.585  -9.272  1.00  0.00     0.017 C 
HETATM   19  C21 UNL     1       2.757  55.808  -9.702  1.00  0.00     0.012 C 
HETATM   20  C22 UNL     1       3.946  56.547  -9.066  1.00  0.00     0.013 C 
HETATM   21  C23 UNL     1       3.918  56.695  -7.519  1.00  0.00    -0.008 C 
HETATM   22  C24 UNL     1       5.391  57.003  -7.091  1.00  0.00     0.018 C 
HETATM   23  C25 UNL     1       3.110  57.986  -7.183  1.00  0.00     0.039 C 
HETATM   24  C26 UNL     1       2.585  58.085  -5.786  1.00  0.00    -0.023 C 
HETATM   25  C27 UNL     1       2.583  57.073  -4.908  1.00  0.00    -0.085 C 
HETATM   26  C28 UNL     1       2.023  57.223  -3.522  1.00  0.00     0.043 C 
HETATM   27  C29 UNL     1       3.138  55.718  -5.244  1.00  0.00     0.073 C 
HETATM   28  C30 UNL     1       3.367  55.401  -6.760  1.00  0.00     0.086 C 
ENDROOT
BRANCH   1  29
HETATM   29  C2  UNL     1       0.846  55.514  -7.088  1.00  0.00     0.271 C 
HETATM   30  O2  UNL     1       0.151  55.266  -6.104  1.00  0.00    -0.264 OA
BRANCH  29  31
HETATM   31  O1  UNL     1       0.617  56.585  -7.887  1.00  0.00    -0.326 OA
HETATM   32  C1  UNL     1      -0.475  57.409  -7.466  1.00  0.00     0.213 C 
ENDBRANCH  29  31
ENDBRANCH   1  29
BRANCH  28  33
HETATM   33  O7  UNL     1       4.419  54.395  -6.744  1.00  0.00    -0.387 OA
HETATM   34  H46 UNL     1       5.170  54.722  -6.224  1.00  0.00     0.210 HD
ENDBRANCH  28  33
BRANCH   7  35
HETATM   35  O3  UNL     1      -0.813  54.921  -9.428  1.00  0.00    -0.395 OA
HETATM   36  H13 UNL     1      -1.361  55.614  -9.839  1.00  0.00     0.210 HD
ENDBRANCH   7  35
BRANCH   9  37
HETATM   37  C12 UNL     1      -2.860  52.548 -11.162  1.00  0.00     0.125 C 
HETATM   38  C13 UNL     1      -3.533  53.587 -10.265  1.00  0.00     0.040 C 
BRANCH  37  39
HETATM   39  O4  UNL     1      -3.159  52.898 -12.522  1.00  0.00    -0.395 OA
HETATM   40  H20 UNL     1      -4.103  53.131 -12.584  1.00  0.00     0.210 HD
ENDBRANCH  37  39
ENDBRANCH   9  37
TORSDOF 6
ENDMDL
MODEL 3
REMARK minimizedAffinity -6.58663225
REMARK CNNscore 0.706036925
REMARK CNNaffinity 6.70702124
REMARK  6 active torsions:
REMARK  status: ('A' for Active; 'I' for Inactive)
REMARK    1  A    between atoms: O1_2  and  C2_3 
REMARK    2  A    between atoms: C2_3  and  C3_5 
REMARK    3  A    between atoms: C9_11  and  O3_12 
REMARK    4  A    between atoms: C11_14  and  C12_15 
REMARK    5  A    between atoms: C12_15  and  O4_17 
REMARK    6  A    between atoms: C30_36  and  O7_37 
ROOT
HETATM    1  C3  UNL     1       3.296  53.214  -8.772  1.00  0.00     0.087 C 
HETATM    2  C4  UNL     1       2.997  51.672  -8.779  1.00  0.00     0.024 C 
HETATM    3  C5  UNL     1       1.506  51.339  -8.950  1.00  0.00     0.011 C 
HETATM    4  C6  UNL     1       0.804  51.881 -10.236  1.00  0.00    -0.033 C 
HETATM    5  C7  UNL     1       1.229  50.947 -11.396  1.00  0.00     0.016 C 
HETATM    6  C8  UNL     1       1.272  53.369 -10.537  1.00  0.00     0.032 C 
HETATM    7  C9  UNL     1       0.221  54.394 -10.076  1.00  0.00     0.124 C 
HETATM    8  C10 UNL     1      -1.061  54.201 -10.882  1.00  0.00     0.046 C 
HETATM    9  C11 UNL     1      -1.742  52.798 -10.745  1.00  0.00     0.014 C 
HETATM   10  C14 UNL     1      -2.061  52.315 -12.195  1.00  0.00     0.191 C 
HETATM   11  O5  UNL     1      -3.131  51.353 -12.292  1.00  0.00    -0.321 OA
HETATM   12  C15 UNL     1      -3.045  50.096 -11.823  1.00  0.00     0.258 C 
HETATM   13  O6  UNL     1      -4.013  49.343 -11.826  1.00  0.00    -0.265 OA
HETATM   14  C16 UNL     1      -1.712  49.665 -11.292  1.00  0.00     0.111 C 
HETATM   15  C17 UNL     1      -1.363  50.321  -9.961  1.00  0.00     0.016 C 
HETATM   16  C18 UNL     1      -0.802  51.774  -9.992  1.00  0.00     0.008 C 
HETATM   17  C19 UNL     1       2.807  53.746 -10.194  1.00  0.00    -0.017 C 
HETATM   18  C20 UNL     1       3.641  53.135 -11.394  1.00  0.00     0.017 C 
HETATM   19  C21 UNL     1       3.109  55.272 -10.304  1.00  0.00     0.012 C 
HETATM   20  C22 UNL     1       4.586  55.646 -10.100  1.00  0.00     0.013 C 
HETATM   21  C23 UNL     1       5.285  55.038  -8.852  1.00  0.00    -0.008 C 
HETATM   22  C24 UNL     1       6.822  55.138  -9.130  1.00  0.00     0.018 C 
HETATM   23  C25 UNL     1       5.018  55.994  -7.650  1.00  0.00     0.039 C 
HETATM   24  C26 UNL     1       5.208  55.404  -6.289  1.00  0.00    -0.023 C 
HETATM   25  C27 UNL     1       5.376  54.096  -6.050  1.00  0.00    -0.085 C 
HETATM   26  C28 UNL     1       5.541  53.555  -4.658  1.00  0.00     0.043 C 
HETATM   27  C29 UNL     1       5.410  53.078  -7.155  1.00  0.00     0.073 C 
HETATM   28  C30 UNL     1       4.862  53.526  -8.551  1.00  0.00     0.086 C 
ENDROOT
BRANCH   1  29
HETATM   29  C2  UNL     1       2.554  53.726  -7.499  1.00  0.00     0.271 C 
HETATM   30  O2  UNL     1       2.323  53.019  -6.518  1.00  0.00    -0.264 OA
BRANCH  29  31
HETATM   31  O1  UNL     1       2.248  55.046  -7.530  1.00  0.00    -0.326 OA
HETATM   32  C1  UNL     1       1.663  55.542  -6.321  1.00  0.00     0.213 C 
ENDBRANCH  29  31
ENDBRANCH   1  29
BRANCH  28  33
HETATM   33  O7  UNL     1       5.561  52.659  -9.488  1.00  0.00    -0.387 OA
HETATM   34  H46 UNL     1       6.516  52.715  -9.329  1.00  0.00     0.210 HD
ENDBRANCH  28  33
BRANCH   7  35
HETATM   35  O3  UNL     1      -0.061  54.282  -8.698  1.00  0.00    -0.395 OA
HETATM   36  H13 UNL     1      -0.567  55.075  -8.443  1.00  0.00     0.210 HD
ENDBRANCH   7  35
BRANCH   9  37
HETATM   37  C12 UNL     1      -3.131  52.976  -9.999  1.00  0.00     0.125 C 
HETATM   38  C13 UNL     1      -4.240  53.709 -10.754  1.00  0.00     0.040 C 
BRANCH  37  39
HETATM   39  O4  UNL     1      -3.633  51.675  -9.659  1.00  0.00    -0.395 OA
HETATM   40  H20 UNL     1      -4.543  51.769  -9.321  1.00  0.00     0.210 HD
ENDBRANCH  37  39
ENDBRANCH   9  37
TORSDOF 6
ENDMDL
MODEL 4
REMARK minimizedAffinity -6.36435652
REMARK CNNscore 0.648898125
REMARK CNNaffinity 6.46838522
REMARK  6 active torsions:
REMARK  status: ('A' for Active; 'I' for Inactive)
REMARK    1  A    between atoms: O1_2  and  C2_3 
REMARK    2  A    between atoms: C2_3  and  C3_5 
REMARK    3  A    between atoms: C9_11  and  O3_12 
REMARK    4  A    between atoms: C11_14  and  C12_15 
REMARK    5  A    between atoms: C12_15  and  O4_17 
REMARK    6  A    between atoms: C30_36  and  O7_37 
ROOT
HETATM    1  C3  UNL     1       0.467  53.047 -10.671  1.00  0.00     0.087 C 
HETATM    2  C4  UNL     1       0.687  54.597 -10.805  1.00  0.00     0.024 C 
HETATM    3  C5  UNL     1       1.400  55.221  -9.595  1.00  0.00     0.011 C 
HETATM    4  C6  UNL     1       2.812  54.655  -9.238  1.00  0.00    -0.033 C 
HETATM    5  C7  UNL     1       3.805  55.278 -10.248  1.00  0.00     0.016 C 
HETATM    6  C8  UNL     1       2.823  53.071  -9.371  1.00  0.00     0.032 C 
HETATM    7  C9  UNL     1       2.698  52.390  -7.998  1.00  0.00     0.124 C 
HETATM    8  C10 UNL     1       3.919  52.734  -7.148  1.00  0.00     0.046 C 
HETATM    9  C11 UNL     1       4.130  54.256  -6.854  1.00  0.00     0.014 C 
HETATM   10  C14 UNL     1       5.628  54.566  -7.166  1.00  0.00     0.191 C 
HETATM   11  O5  UNL     1       6.166  55.714  -6.478  1.00  0.00    -0.321 OA
HETATM   12  C15 UNL     1       5.785  56.978  -6.732  1.00  0.00     0.258 C 
HETATM   13  O6  UNL     1       6.185  57.917  -6.051  1.00  0.00    -0.265 OA
HETATM   14  C16 UNL     1       4.845  57.181  -7.881  1.00  0.00     0.111 C 
HETATM   15  C17 UNL     1       3.436  56.678  -7.589  1.00  0.00     0.016 C 
HETATM   16  C18 UNL     1       3.164  55.151  -7.728  1.00  0.00     0.008 C 
HETATM   17  C19 UNL     1       1.931  52.422 -10.553  1.00  0.00    -0.017 C 
HETATM   18  C20 UNL     1       2.793  52.639 -11.864  1.00  0.00     0.017 C 
HETATM   19  C21 UNL     1       1.820  50.869 -10.464  1.00  0.00     0.012 C 
HETATM   20  C22 UNL     1       1.078  50.213 -11.640  1.00  0.00     0.013 C 
HETATM   21  C23 UNL     1      -0.292  50.838 -12.025  1.00  0.00    -0.008 C 
HETATM   22  C24 UNL     1      -0.588  50.358 -13.484  1.00  0.00     0.018 C 
HETATM   23  C25 UNL     1      -1.383  50.164 -11.137  1.00  0.00     0.039 C 
HETATM   24  C26 UNL     1      -2.678  50.902 -11.019  1.00  0.00    -0.023 C 
HETATM   25  C27 UNL     1      -2.870  52.161 -11.435  1.00  0.00    -0.085 C 
HETATM   26  C28 UNL     1      -4.189  52.862 -11.271  1.00  0.00     0.043 C 
HETATM   27  C29 UNL     1      -1.783  52.962 -12.095  1.00  0.00     0.073 C 
HETATM   28  C30 UNL     1      -0.318  52.434 -11.937  1.00  0.00     0.086 C 
ENDROOT
BRANCH   1  29
HETATM   29  C2  UNL     1      -0.489  52.917  -9.445  1.00  0.00     0.271 C 
HETATM   30  O2  UNL     1      -1.272  53.802  -9.099  1.00  0.00    -0.264 OA
BRANCH  29  31
HETATM   31  O1  UNL     1      -0.443  51.709  -8.833  1.00  0.00    -0.326 OA
HETATM   32  C1  UNL     1      -1.409  51.541  -7.790  1.00  0.00     0.213 C 
ENDBRANCH  29  31
ENDBRANCH   1  29
BRANCH  28  33
HETATM   33  O7  UNL     1       0.366  52.969 -13.106  1.00  0.00    -0.387 OA
HETATM   34  H46 UNL     1      -0.127  52.728 -13.907  1.00  0.00     0.210 HD
ENDBRANCH  28  33
BRANCH   7  35
HETATM   35  O3  UNL     1       1.521  52.775  -7.319  1.00  0.00    -0.395 OA
HETATM   36  H13 UNL     1       1.410  52.163  -6.569  1.00  0.00     0.210 HD
ENDBRANCH   7  35
BRANCH   9  37
HETATM   37  C12 UNL     1       3.918  54.509  -5.301  1.00  0.00     0.125 C 
HETATM   38  C13 UNL     1       2.513  54.279  -4.742  1.00  0.00     0.040 C 
BRANCH  37  39
HETATM   39  O4  UNL     1       4.812  53.652  -4.576  1.00  0.00    -0.395 OA
HETATM   40  H20 UNL     1       4.595  53.705  -3.627  1.00  0.00     0.210 HD
ENDBRANCH  37  39
ENDBRANCH   9  37
TORSDOF 6
ENDMDL
MODEL 5
REMARK minimizedAffinity -5.76169729
REMARK CNNscore 0.599609733
REMARK CNNaffinity 6.02784491
REMARK  6 active torsions:
REMARK  status: ('A' for Active; 'I' for Inactive)
REMARK    1  A    between atoms: O1_2  and  C2_3 
REMARK    2  A    between atoms: C2_3  and  C3_5 
REMARK    3  A    between atoms: C9_11  and  O3_12 
REMARK    4  A    between atoms: C11_14  and  C12_15 
REMARK    5  A    between atoms: C12_15  and  O4_17 
REMARK    6  A    between atoms: C30_36  and  O7_37 
ROOT
HETATM    1  C3  UNL     1       3.439  56.386  -6.471  1.00  0.00     0.087 C 
HETATM    2  C4  UNL     1       2.821  57.812  -6.243  1.00  0.00     0.024 C 
HETATM    3  C5  UNL     1       1.611  57.811  -5.295  1.00  0.00     0.011 C 
HETATM    4  C6  UNL     1       1.843  57.250  -3.855  1.00  0.00    -0.033 C 
HETATM    5  C7  UNL     1       2.568  58.362  -3.060  1.00  0.00     0.016 C 
HETATM    6  C8  UNL     1       2.746  55.943  -3.909  1.00  0.00     0.032 C 
HETATM    7  C9  UNL     1       1.897  54.666  -3.784  1.00  0.00     0.124 C 
HETATM    8  C10 UNL     1       1.224  54.638  -2.414  1.00  0.00     0.046 C 
HETATM    9  C11 UNL     1       0.254  55.828  -2.112  1.00  0.00     0.014 C 
HETATM   10  C14 UNL     1       0.634  56.362  -0.695  1.00  0.00     0.191 C 
HETATM   11  O5  UNL     1      -0.425  57.059  -0.007  1.00  0.00    -0.321 OA
HETATM   12  C15 UNL     1      -0.906  58.252  -0.398  1.00  0.00     0.258 C 
HETATM   13  O6  UNL     1      -1.880  58.761   0.149  1.00  0.00    -0.265 OA
HETATM   14  C16 UNL     1      -0.201  58.923  -1.536  1.00  0.00     0.111 C 
HETATM   15  C17 UNL     1      -0.452  58.239  -2.875  1.00  0.00     0.016 C 
HETATM   16  C18 UNL     1       0.378  56.963  -3.207  1.00  0.00     0.008 C 
HETATM   17  C19 UNL     1       3.912  55.895  -5.028  1.00  0.00    -0.017 C 
HETATM   18  C20 UNL     1       5.072  56.793  -4.429  1.00  0.00     0.017 C 
HETATM   19  C21 UNL     1       4.589  54.497  -5.158  1.00  0.00     0.012 C 
HETATM   20  C22 UNL     1       5.781  54.452  -6.128  1.00  0.00     0.013 C 
HETATM   21  C23 UNL     1       5.551  55.081  -7.532  1.00  0.00    -0.008 C 
HETATM   22  C24 UNL     1       6.976  55.361  -8.114  1.00  0.00     0.018 C 
HETATM   23  C25 UNL     1       4.937  53.978  -8.447  1.00  0.00     0.039 C 
HETATM   24  C26 UNL     1       4.237  54.462  -9.677  1.00  0.00    -0.023 C 
HETATM   25  C27 UNL     1       3.930  55.745  -9.914  1.00  0.00    -0.085 C 
HETATM   26  C28 UNL     1       3.205  56.173 -11.159  1.00  0.00     0.043 C 
HETATM   27  C29 UNL     1       4.286  56.845  -8.955  1.00  0.00     0.073 C 
HETATM   28  C30 UNL     1       4.678  56.420  -7.500  1.00  0.00     0.086 C 
ENDROOT
BRANCH   1  29
HETATM   29  C2  UNL     1       2.292  55.598  -7.176  1.00  0.00     0.271 C 
HETATM   30  O2  UNL     1       2.177  54.374  -7.123  1.00  0.00    -0.264 OA
BRANCH  29  31
HETATM   31  O1  UNL     1       1.379  56.386  -7.795  1.00  0.00    -0.326 OA
HETATM   32  C1  UNL     1       0.369  55.665  -8.510  1.00  0.00     0.213 C 
ENDBRANCH  29  31
ENDBRANCH   1  29
BRANCH  28  33
HETATM   33  O7  UNL     1       5.527  57.510  -7.042  1.00  0.00    -0.387 OA
HETATM   34  H46 UNL     1       6.237  57.659  -7.685  1.00  0.00     0.210 HD
ENDBRANCH  28  33
BRANCH   7  35
HETATM   35  O3  UNL     1       0.919  54.578  -4.798  1.00  0.00    -0.395 OA
HETATM   36  H13 UNL     1       0.566  53.670  -4.778  1.00  0.00     0.210 HD
ENDBRANCH   7  35
BRANCH   9  37
HETATM   37  C12 UNL     1      -1.228  55.267  -2.015  1.00  0.00     0.125 C 
HETATM   38  C13 UNL     1      -2.052  55.249  -3.302  1.00  0.00     0.040 C 
BRANCH  37  39
HETATM   39  O4  UNL     1      -1.170  53.919  -1.525  1.00  0.00    -0.395 OA
HETATM   40  H20 UNL     1      -2.059  53.525  -1.589  1.00  0.00     0.210 HD
ENDBRANCH  37  39
ENDBRANCH   9  37
TORSDOF 6
ENDMDL
MODEL 6
REMARK minimizedAffinity -6.33653402
REMARK CNNscore 0.591992199
REMARK CNNaffinity 5.85433435
REMARK  6 active torsions:
REMARK  status: ('A' for Active; 'I' for Inactive)
REMARK    1  A    between atoms: O1_2  and  C2_3 
REMARK    2  A    between atoms: C2_3  and  C3_5 
REMARK    3  A    between atoms: C9_11  and  O3_12 
REMARK    4  A    between atoms: C11_14  and  C12_15 
REMARK    5  A    between atoms: C12_15  and  O4_17 
REMARK    6  A    between atoms: C30_36  and  O7_37 
ROOT
HETATM    1  C3  UNL     1       3.743  55.035  -6.989  1.00  0.00     0.087 C 
HETATM    2  C4  UNL     1       2.937  54.224  -5.911  1.00  0.00     0.024 C 
HETATM    3  C5  UNL     1       2.905  54.903  -4.533  1.00  0.00     0.011 C 
HETATM    4  C6  UNL     1       2.305  56.345  -4.469  1.00  0.00    -0.033 C 
HETATM    5  C7  UNL     1       0.766  56.184  -4.516  1.00  0.00     0.016 C 
HETATM    6  C8  UNL     1       2.799  57.206  -5.709  1.00  0.00     0.032 C 
HETATM    7  C9  UNL     1       3.947  58.152  -5.316  1.00  0.00     0.124 C 
HETATM    8  C10 UNL     1       3.439  59.166  -4.295  1.00  0.00     0.046 C 
HETATM    9  C11 UNL     1       2.902  58.565  -2.954  1.00  0.00     0.014 C 
HETATM   10  C14 UNL     1       1.525  59.248  -2.681  1.00  0.00     0.191 C 
HETATM   11  O5  UNL     1       1.120  59.264  -1.297  1.00  0.00    -0.321 OA
HETATM   12  C15 UNL     1       0.781  58.160  -0.609  1.00  0.00     0.258 C 
HETATM   13  O6  UNL     1       0.549  58.201   0.595  1.00  0.00    -0.265 OA
HETATM   14  C16 UNL     1       0.710  56.879  -1.382  1.00  0.00     0.111 C 
HETATM   15  C17 UNL     1       2.082  56.358  -1.794  1.00  0.00     0.016 C 
HETATM   16  C18 UNL     1       2.756  56.993  -3.046  1.00  0.00     0.008 C 
HETATM   17  C19 UNL     1       2.986  56.434  -7.118  1.00  0.00    -0.017 C 
HETATM   18  C20 UNL     1       1.515  56.281  -7.683  1.00  0.00     0.017 C 
HETATM   19  C21 UNL     1       3.689  57.299  -8.209  1.00  0.00     0.012 C 
HETATM   20  C22 UNL     1       3.773  56.635  -9.594  1.00  0.00     0.013 C 
HETATM   21  C23 UNL     1       4.306  55.174  -9.626  1.00  0.00    -0.008 C 
HETATM   22  C24 UNL     1       3.837  54.577 -10.994  1.00  0.00     0.018 C 
HETATM   23  C25 UNL     1       5.861  55.242  -9.714  1.00  0.00     0.039 C 
HETATM   24  C26 UNL     1       6.594  54.000  -9.317  1.00  0.00    -0.023 C 
HETATM   25  C27 UNL     1       6.025  52.951  -8.708  1.00  0.00    -0.085 C 
HETATM   26  C28 UNL     1       6.815  51.736  -8.312  1.00  0.00     0.043 C 
HETATM   27  C29 UNL     1       4.560  52.913  -8.378  1.00  0.00     0.073 C 
HETATM   28  C30 UNL     1       3.789  54.275  -8.409  1.00  0.00     0.086 C 
ENDROOT
BRANCH   1  29
HETATM   29  C2  UNL     1       5.201  55.035  -6.433  1.00  0.00     0.271 C 
HETATM   30  O2  UNL     1       5.644  54.158  -5.692  1.00  0.00    -0.264 OA
BRANCH  29  31
HETATM   31  O1  UNL     1       5.971  56.048  -6.899  1.00  0.00    -0.326 OA
HETATM   32  C1  UNL     1       7.339  55.985  -6.485  1.00  0.00     0.213 C 
ENDBRANCH  29  31
ENDBRANCH   1  29
BRANCH  28  33
HETATM   33  O7  UNL     1       2.413  53.884  -8.679  1.00  0.00    -0.387 OA
HETATM   34  H46 UNL     1       2.386  53.322  -9.469  1.00  0.00     0.210 HD
ENDBRANCH  28  33
BRANCH   7  35
HETATM   35  O3  UNL     1       5.053  57.453  -4.786  1.00  0.00    -0.395 OA
HETATM   36  H13 UNL     1       5.799  58.079  -4.752  1.00  0.00     0.210 HD
ENDBRANCH   7  35
BRANCH   9  37
HETATM   37  C12 UNL     1       3.875  58.995  -1.776  1.00  0.00     0.125 C 
HETATM   38  C13 UNL     1       5.063  58.078  -1.482  1.00  0.00     0.040 C 
BRANCH  37  39
HETATM   39  O4  UNL     1       4.403  60.296  -2.076  1.00  0.00    -0.395 OA
HETATM   40  H20 UNL     1       5.099  60.508  -1.428  1.00  0.00     0.210 HD
ENDBRANCH  37  39
ENDBRANCH   9  37
TORSDOF 6
ENDMDL
MODEL 7
REMARK minimizedAffinity -7.55572557
REMARK CNNscore 0.532198966
REMARK CNNaffinity 6.6842494
REMARK  6 active torsions:
REMARK  status: ('A' for Active; 'I' for Inactive)
REMARK    1  A    between atoms: O1_2  and  C2_3 
REMARK    2  A    between atoms: C2_3  and  C3_5 
REMARK    3  A    between atoms: C9_11  and  O3_12 
REMARK    4  A    between atoms: C11_14  and  C12_15 
REMARK    5  A    between atoms: C12_15  and  O4_17 
REMARK    6  A    between atoms: C30_36  and  O7_37 
ROOT
HETATM    1  C3  UNL     1       1.910  53.738  -8.660  1.00  0.00     0.087 C 
HETATM    2  C4  UNL     1       1.046  52.904  -7.647  1.00  0.00     0.024 C 
HETATM    3  C5  UNL     1      -0.355  52.559  -8.177  1.00  0.00     0.011 C 
HETATM    4  C6  UNL     1      -0.426  51.749  -9.512  1.00  0.00    -0.033 C 
HETATM    5  C7  UNL     1      -0.110  50.277  -9.151  1.00  0.00     0.016 C 
HETATM    6  C8  UNL     1       0.647  52.297 -10.549  1.00  0.00     0.032 C 
HETATM    7  C9  UNL     1      -0.002  53.217 -11.597  1.00  0.00     0.124 C 
HETATM    8  C10 UNL     1      -0.998  52.412 -12.429  1.00  0.00     0.046 C 
HETATM    9  C11 UNL     1      -2.181  51.769 -11.633  1.00  0.00     0.014 C 
HETATM   10  C14 UNL     1      -2.270  50.280 -12.095  1.00  0.00     0.191 C 
HETATM   11  O5  UNL     1      -3.565  49.669 -11.921  1.00  0.00    -0.321 OA
HETATM   12  C15 UNL     1      -4.102  49.395 -10.719  1.00  0.00     0.258 C 
HETATM   13  O6  UNL     1      -5.250  48.976 -10.611  1.00  0.00    -0.265 OA
HETATM   14  C16 UNL     1      -3.233  49.635  -9.522  1.00  0.00     0.111 C 
HETATM   15  C17 UNL     1      -3.019  51.116  -9.232  1.00  0.00     0.016 C 
HETATM   16  C18 UNL     1      -1.949  51.874 -10.072  1.00  0.00     0.008 C 
HETATM   17  C19 UNL     1       2.058  52.812  -9.951  1.00  0.00    -0.017 C 
HETATM   18  C20 UNL     1       2.871  51.484  -9.658  1.00  0.00     0.017 C 
HETATM   19  C21 UNL     1       2.949  53.538 -11.004  1.00  0.00     0.012 C 
HETATM   20  C22 UNL     1       4.346  53.933 -10.497  1.00  0.00     0.013 C 
HETATM   21  C23 UNL     1       4.398  54.675  -9.131  1.00  0.00    -0.008 C 
HETATM   22  C24 UNL     1       5.866  54.517  -8.614  1.00  0.00     0.018 C 
HETATM   23  C25 UNL     1       4.219  56.197  -9.416  1.00  0.00     0.039 C 
HETATM   24  C26 UNL     1       3.800  57.036  -8.250  1.00  0.00    -0.023 C 
HETATM   25  C27 UNL     1       3.375  56.542  -7.079  1.00  0.00    -0.085 C 
HETATM   26  C28 UNL     1       2.945  57.433  -5.948  1.00  0.00     0.043 C 
HETATM   27  C29 UNL     1       3.298  55.065  -6.813  1.00  0.00     0.073 C 
HETATM   28  C30 UNL     1       3.355  54.115  -8.056  1.00  0.00     0.086 C 
ENDROOT
BRANCH   1  29
HETATM   29  C2  UNL     1       1.120  55.076  -8.801  1.00  0.00     0.271 C 
HETATM   30  O2  UNL     1       1.186  55.801  -9.793  1.00  0.00    -0.264 OA
BRANCH  29  31
HETATM   31  O1  UNL     1       0.287  55.339  -7.765  1.00  0.00    -0.326 OA
HETATM   32  C1  UNL     1      -0.206  56.682  -7.733  1.00  0.00     0.213 C 
ENDBRANCH  29  31
ENDBRANCH   1  29
BRANCH  28  33
HETATM   33  O7  UNL     1       3.880  52.871  -7.512  1.00  0.00    -0.387 OA
HETATM   34  H46 UNL     1       4.703  53.050  -7.032  1.00  0.00     0.210 HD
ENDBRANCH  28  33
BRANCH   7  35
HETATM   35  O3  UNL     1      -0.657  54.318 -11.004  1.00  0.00    -0.395 OA
HETATM   36  H13 UNL     1      -0.861  54.949 -11.718  1.00  0.00     0.210 HD
ENDBRANCH   7  35
BRANCH   9  37
HETATM   37  C12 UNL     1      -3.534  52.474 -12.072  1.00  0.00     0.125 C 
HETATM   38  C13 UNL     1      -3.977  53.697 -11.268  1.00  0.00     0.040 C 
BRANCH  37  39
HETATM   39  O4  UNL     1      -3.407  52.885 -13.441  1.00  0.00    -0.395 OA
HETATM   40  H20 UNL     1      -4.179  53.432 -13.676  1.00  0.00     0.210 HD
ENDBRANCH  37  39
ENDBRANCH   9  37
TORSDOF 6
ENDMDL
MODEL 8
REMARK minimizedAffinity -6.33475924
REMARK CNNscore 0.464379698
REMARK CNNaffinity 6.16314173
REMARK  6 active torsions:
REMARK  status: ('A' for Active; 'I' for Inactive)
REMARK    1  A    between atoms: O1_2  and  C2_3 
REMARK    2  A    between atoms: C2_3  and  C3_5 
REMARK    3  A    between atoms: C9_11  and  O3_12 
REMARK    4  A    between atoms: C11_14  and  C12_15 
REMARK    5  A    between atoms: C12_15  and  O4_17 
REMARK    6  A    between atoms: C30_36  and  O7_37 
ROOT
HETATM    1  C3  UNL     1      -7.246  46.448 -20.034  1.00  0.00     0.087 C 
HETATM    2  C4  UNL     1      -5.753  45.962 -20.063  1.00  0.00     0.024 C 
HETATM    3  C5  UNL     1      -4.879  46.729 -21.067  1.00  0.00     0.011 C 
HETATM    4  C6  UNL     1      -4.783  48.278 -20.882  1.00  0.00    -0.033 C 
HETATM    5  C7  UNL     1      -3.797  48.522 -19.714  1.00  0.00     0.016 C 
HETATM    6  C8  UNL     1      -6.209  48.882 -20.525  1.00  0.00     0.032 C 
HETATM    7  C9  UNL     1      -6.873  49.522 -21.756  1.00  0.00     0.124 C 
HETATM    8  C10 UNL     1      -6.035  50.710 -22.223  1.00  0.00     0.046 C 
HETATM    9  C11 UNL     1      -4.568  50.375 -22.654  1.00  0.00     0.014 C 
HETATM   10  C14 UNL     1      -3.647  51.413 -21.939  1.00  0.00     0.191 C 
HETATM   11  O5  UNL     1      -2.377  51.640 -22.584  1.00  0.00    -0.321 OA
HETATM   12  C15 UNL     1      -1.400  50.719 -22.646  1.00  0.00     0.258 C 
HETATM   13  O6  UNL     1      -0.377  50.912 -23.296  1.00  0.00    -0.265 OA
HETATM   14  C16 UNL     1      -1.624  49.446 -21.889  1.00  0.00     0.111 C 
HETATM   15  C17 UNL     1      -2.681  48.554 -22.529  1.00  0.00     0.016 C 
HETATM   16  C18 UNL     1      -4.178  48.893 -22.262  1.00  0.00     0.008 C 
HETATM   17  C19 UNL     1      -7.183  47.983 -19.599  1.00  0.00    -0.017 C 
HETATM   18  C20 UNL     1      -6.621  48.177 -18.130  1.00  0.00     0.017 C 
HETATM   19  C21 UNL     1      -8.632  48.547 -19.494  1.00  0.00     0.012 C 
HETATM   20  C22 UNL     1      -9.547  47.780 -18.525  1.00  0.00     0.013 C 
HETATM   21  C23 UNL     1      -9.572  46.233 -18.680  1.00  0.00    -0.008 C 
HETATM   22  C24 UNL     1     -10.138  45.676 -17.331  1.00  0.00     0.018 C 
HETATM   23  C25 UNL     1     -10.646  45.885 -19.756  1.00  0.00     0.039 C 
HETATM   24  C26 UNL     1     -10.535  44.529 -20.377  1.00  0.00    -0.023 C 
HETATM   25  C27 UNL     1      -9.481  43.714 -20.227  1.00  0.00    -0.085 C 
HETATM   26  C28 UNL     1      -9.414  42.369 -20.892  1.00  0.00     0.043 C 
HETATM   27  C29 UNL     1      -8.294  44.087 -19.384  1.00  0.00     0.073 C 
HETATM   28  C30 UNL     1      -8.141  45.596 -19.000  1.00  0.00     0.086 C 
ENDROOT
BRANCH   1  29
HETATM   29  C2  UNL     1      -7.770  46.110 -21.464  1.00  0.00     0.271 C 
HETATM   30  O2  UNL     1      -8.718  46.688 -21.993  1.00  0.00    -0.264 OA
BRANCH  29  31
HETATM   31  O1  UNL     1      -7.039  45.171 -22.113  1.00  0.00    -0.326 OA
HETATM   32  C1  UNL     1      -7.625  44.712 -23.335  1.00  0.00     0.213 C 
ENDBRANCH  29  31
ENDBRANCH   1  29
BRANCH  28  33
HETATM   33  O7  UNL     1      -7.369  45.559 -17.766  1.00  0.00    -0.387 OA
HETATM   34  H46 UNL     1      -7.801  44.964 -17.133  1.00  0.00     0.210 HD
ENDBRANCH  28  33
BRANCH   7  35
HETATM   35  O3  UNL     1      -7.028  48.601 -22.815  1.00  0.00    -0.395 OA
HETATM   36  H13 UNL     1      -7.625  49.012 -23.466  1.00  0.00     0.210 HD
ENDBRANCH   7  35
BRANCH   9  37
HETATM   37  C12 UNL     1      -4.426  50.625 -24.215  1.00  0.00     0.125 C 
HETATM   38  C13 UNL     1      -4.405  49.392 -25.120  1.00  0.00     0.040 C 
BRANCH  37  39
HETATM   39  O4  UNL     1      -5.518  51.451 -24.643  1.00  0.00    -0.395 OA
HETATM   40  H20 UNL     1      -5.511  51.499 -25.617  1.00  0.00     0.210 HD
ENDBRANCH  37  39
ENDBRANCH   9  37
TORSDOF 6
ENDMDL
MODEL 9
REMARK minimizedAffinity -6.60220623
REMARK CNNscore 0.399054587
REMARK CNNaffinity 6.1238265
REMARK  6 active torsions:
REMARK  status: ('A' for Active; 'I' for Inactive)
REMARK    1  A    between atoms: O1_2  and  C2_3 
REMARK    2  A    between atoms: C2_3  and  C3_5 
REMARK    3  A    between atoms: C9_11  and  O3_12 
REMARK    4  A    between atoms: C11_14  and  C12_15 
REMARK    5  A    between atoms: C12_15  and  O4_17 
REMARK    6  A    between atoms: C30_36  and  O7_37 
ROOT
HETATM    1  C3  UNL     1       3.485  54.542  -7.486  1.00  0.00     0.087 C 
HETATM    2  C4  UNL     1       3.789  53.026  -7.760  1.00  0.00     0.024 C 
HETATM    3  C5  UNL     1       2.644  52.290  -8.473  1.00  0.00     0.011 C 
HETATM    4  C6  UNL     1       2.195  52.856  -9.859  1.00  0.00    -0.033 C 
HETATM    5  C7  UNL     1       3.249  52.383 -10.889  1.00  0.00     0.016 C 
HETATM    6  C8  UNL     1       2.147  54.444  -9.820  1.00  0.00     0.032 C 
HETATM    7  C9  UNL     1       0.709  54.960  -9.648  1.00  0.00     0.124 C 
HETATM    8  C10 UNL     1      -0.121  54.559 -10.865  1.00  0.00     0.046 C 
HETATM    9  C11 UNL     1      -0.246  53.021 -11.122  1.00  0.00     0.014 C 
HETATM   10  C14 UNL     1       0.069  52.796 -12.635  1.00  0.00     0.191 C 
HETATM   11  O5  UNL     1      -0.496  51.594 -13.199  1.00  0.00    -0.321 OA
HETATM   12  C15 UNL     1      -0.092  50.356 -12.865  1.00  0.00     0.258 C 
HETATM   13  O6  UNL     1      -0.670  49.358 -13.284  1.00  0.00    -0.265 OA
HETATM   14  C16 UNL     1       1.092  50.256 -11.952  1.00  0.00     0.111 C 
HETATM   15  C17 UNL     1       0.774  50.678 -10.522  1.00  0.00     0.016 C 
HETATM   16  C18 UNL     1       0.745  52.202 -10.201  1.00  0.00     0.008 C 
HETATM   17  C19 UNL     1       3.266  55.196  -8.926  1.00  0.00    -0.017 C 
HETATM   18  C20 UNL     1       4.575  55.157  -9.818  1.00  0.00     0.017 C 
HETATM   19  C21 UNL     1       3.004  56.724  -8.762  1.00  0.00     0.012 C 
HETATM   20  C22 UNL     1       4.113  57.486  -8.019  1.00  0.00     0.013 C 
HETATM   21  C23 UNL     1       4.595  56.867  -6.677  1.00  0.00    -0.008 C 
HETATM   22  C24 UNL     1       5.996  57.501  -6.391  1.00  0.00     0.018 C 
HETATM   23  C25 UNL     1       3.659  57.401  -5.550  1.00  0.00     0.039 C 
HETATM   24  C26 UNL     1       3.652  56.614  -4.277  1.00  0.00    -0.023 C 
HETATM   25  C27 UNL     1       4.213  55.405  -4.135  1.00  0.00    -0.085 C 
HETATM   26  C28 UNL     1       4.156  54.649  -2.838  1.00  0.00     0.043 C 
HETATM   27  C29 UNL     1       4.936  54.720  -5.259  1.00  0.00     0.073 C 
HETATM   28  C30 UNL     1       4.690  55.271  -6.703  1.00  0.00     0.086 C 
ENDROOT
BRANCH   1  29
HETATM   29  C2  UNL     1       2.273  54.502  -6.505  1.00  0.00     0.271 C 
HETATM   30  O2  UNL     1       2.046  53.560  -5.746  1.00  0.00    -0.264 OA
BRANCH  29  31
HETATM   31  O1  UNL     1       1.525  55.632  -6.502  1.00  0.00    -0.326 OA
HETATM   32  C1  UNL     1       0.469  55.636  -5.536  1.00  0.00     0.213 C 
ENDBRANCH  29  31
ENDBRANCH   1  29
BRANCH  28  33
HETATM   33  O7  UNL     1       5.897  54.895  -7.424  1.00  0.00    -0.387 OA
HETATM   34  H46 UNL     1       6.675  55.210  -6.938  1.00  0.00     0.210 HD
ENDBRANCH  28  33
BRANCH   7  35
HETATM   35  O3  UNL     1       0.103  54.463  -8.473  1.00  0.00    -0.395 OA
HETATM   36  H13 UNL     1      -0.710  54.982  -8.329  1.00  0.00     0.210 HD
ENDBRANCH   7  35
BRANCH   9  37
HETATM   37  C12 UNL     1      -1.755  52.586 -10.892  1.00  0.00     0.125 C 
HETATM   38  C13 UNL     1      -2.333  52.787  -9.491  1.00  0.00     0.040 C 
BRANCH  37  39
HETATM   39  O4  UNL     1      -2.583  53.320 -11.806  1.00  0.00    -0.395 OA
HETATM   40  H20 UNL     1      -3.517  53.158 -11.581  1.00  0.00     0.210 HD
ENDBRANCH  37  39
ENDBRANCH   9  37
TORSDOF 6
ENDMDL
