MODEL 1
REMARK minimizedAffinity -9.13301849
REMARK CNNscore 0.379733294
REMARK CNNaffinity 7.37195063
REMARK  19 active torsions:
REMARK  status: ('A' for Active; 'I' for Inactive)
REMARK    1  A    between atoms: C19_20  and  O2_21 
REMARK    2  A    between atoms: C19_20  and  C20_22 
REMARK    3  A    between atoms: C20_22  and  C21_24 
REMARK    4  A    between atoms: C21_24  and  O4_25 
REMARK    5  A    between atoms: O4_25  and  C22_26 
REMARK    6  A    between atoms: C22_26  and  C23_28 
REMARK    7  A    between atoms: C23_28  and  C24_29 
REMARK    8  A    between atoms: C24_29  and  C25_30 
REMARK       I    between atoms: C25_30  and  N1_32 
REMARK    9  A    between atoms: N1_32  and  C26_33 
REMARK   10  A    between atoms: C26_33  and  C27_34 
REMARK   11  A    between atoms: C27_34  and  C28_35 
REMARK   12  A    between atoms: C28_35  and  C29_36 
REMARK   13  A    between atoms: C29_36  and  C30_37 
REMARK   14  A    between atoms: C30_37  and  C31_38 
REMARK       I    between atoms: C31_38  and  N2_40 
REMARK   15  A    between atoms: N2_40  and  C32_41 
REMARK   16  A    between atoms: C32_41  and  C33_42 
REMARK   17  A    between atoms: C33_42  and  C34_43 
REMARK   18  A    between atoms: C37_46  and  O8_47 
REMARK   19  A    between atoms: C38_48  and  O9_49 
ROOT
HETATM    1  C22 UNL     1       5.314   7.694  10.684  1.00  0.00     0.259 C 
HETATM    2  O5  UNL     1       5.254   8.901  10.487  1.00  0.00    -0.265 OA
ENDROOT
BRANCH   1   3
HETATM    3  O4  UNL     1       4.312   6.815  10.410  1.00  0.00    -0.314 OA
BRANCH   3   4
HETATM    4  C21 UNL     1       3.275   6.732  11.382  1.00  0.00     0.260 C 
BRANCH   4   5
HETATM    5  C20 UNL     1       1.916   7.435  11.204  1.00  0.00     0.185 C 
HETATM    6  O3  UNL     1       1.882   8.647  10.975  1.00  0.00    -0.292 OA
BRANCH   5   7
HETATM    7  C19 UNL     1       0.629   6.574  11.217  1.00  0.00     0.128 C 
HETATM    8  C14 UNL     1      -0.325   6.873  12.416  1.00  0.00    -0.002 C 
HETATM    9  C13 UNL     1      -1.220   8.122  12.275  1.00  0.00     0.013 C 
HETATM   10  C15 UNL     1       0.484   6.963  13.739  1.00  0.00     0.019 C 
HETATM   11  C16 UNL     1      -1.234   5.628  12.357  1.00  0.00     0.002 C 
HETATM   12  C12 UNL     1      -2.679   7.914  12.740  1.00  0.00     0.007 C 
HETATM   13  C11 UNL     1      -2.841   6.908  13.907  1.00  0.00     0.002 C 
HETATM   14  C2  UNL     1      -4.297   6.786  14.493  1.00  0.00    -0.016 C 
HETATM   15  C10 UNL     1      -2.214   5.508  13.541  1.00  0.00    -0.004 C 
HETATM   16  C1  UNL     1      -4.213   6.090  15.880  1.00  0.00     0.020 C 
HETATM   17  C3  UNL     1      -4.956   8.179  14.704  1.00  0.00     0.022 C 
HETATM   18  C7  UNL     1      -5.201   5.975  13.571  1.00  0.00    -0.068 C 
HETATM   19  C4  UNL     1      -6.390   8.088  15.222  1.00  0.00     0.084 C 
HETATM   20  C5  UNL     1      -7.225   7.141  14.393  1.00  0.00     0.149 C 
HETATM   21  O1  UNL     1      -8.453   7.153  14.430  1.00  0.00    -0.293 OA
HETATM   22  C6  UNL     1      -6.536   6.143  13.537  1.00  0.00     0.053 C 
HETATM   23  C8  UNL     1      -4.551   4.966  12.659  1.00  0.00     0.035 C 
HETATM   24  C9  UNL     1      -3.261   4.409  13.247  1.00  0.00     0.010 C 
HETATM   25  C17 UNL     1      -0.264   4.462  12.146  1.00  0.00     0.009 C 
HETATM   26  C18 UNL     1       0.933   5.061  11.385  1.00  0.00     0.047 C 
BRANCH   7  27
HETATM   27  O2  UNL     1      -0.072   6.697   9.975  1.00  0.00    -0.381 OA
HETATM   28  H27 UNL     1       0.557   6.417   9.280  1.00  0.00     0.211 HD
ENDBRANCH   7  27
ENDBRANCH   5   7
ENDBRANCH   4   5
ENDBRANCH   3   4
ENDBRANCH   1   3
BRANCH   1  29
HETATM   29  C23 UNL     1       6.492   6.985  11.297  1.00  0.00     0.120 C 
BRANCH  29  30
HETATM   30  C24 UNL     1       6.438   7.095  12.816  1.00  0.00     0.112 C 
BRANCH  30  31
HETATM   31  C25 UNL     1       7.567   7.925  13.383  1.00  0.00     0.217 C 
HETATM   32  O6  UNL     1       7.920   9.000  12.917  1.00  0.00    -0.274 OA
HETATM   33  N1  UNL     1       8.139   7.335  14.493  1.00  0.00    -0.361 N 
HETATM   34  H34 UNL     1       7.939   6.357  14.657  1.00  0.00     0.162 HD
BRANCH  33  35
HETATM   35  C26 UNL     1       9.314   7.895  15.127  1.00  0.00     0.122 C 
BRANCH  35  36
HETATM   36  C27 UNL     1       9.030   8.314  16.568  1.00  0.00     0.020 C 
BRANCH  36  37
HETATM   37  C28 UNL     1       8.348   9.682  16.712  1.00  0.00     0.002 C 
BRANCH  37  38
HETATM   38  C29 UNL     1       8.639  10.429  18.022  1.00  0.00     0.009 C 
BRANCH  38  39
HETATM   39  C30 UNL     1       7.496  11.329  18.495  1.00  0.00     0.103 C 
BRANCH  39  40
HETATM   40  C31 UNL     1       7.665  11.781  19.934  1.00  0.00     0.217 C 
HETATM   41  O7  UNL     1       8.754  11.894  20.486  1.00  0.00    -0.274 OA
HETATM   42  N2  UNL     1       6.470  12.014  20.579  1.00  0.00    -0.361 N 
HETATM   43  H45 UNL     1       5.631  12.116  20.022  1.00  0.00     0.162 HD
BRANCH  42  44
HETATM   44  C32 UNL     1       6.438  12.527  21.938  1.00  0.00     0.127 C 
BRANCH  44  45
HETATM   45  C33 UNL     1       5.016  12.707  22.485  1.00  0.00     0.058 C 
BRANCH  45  46
HETATM   46  C34 UNL     1       4.181  11.450  22.365  1.00  0.00    -0.054 A 
HETATM   47  C35 UNL     1       4.528  10.299  23.097  1.00  0.00     0.010 A 
HETATM   48  C36 UNL     1       3.754   9.141  23.009  1.00  0.00     0.040 A 
HETATM   49  C37 UNL     1       2.634   9.136  22.191  1.00  0.00     0.098 A 
HETATM   50  C38 UNL     1       2.280  10.266  21.459  1.00  0.00     0.099 A 
HETATM   51  C39 UNL     1       3.043  11.427  21.541  1.00  0.00     0.046 A 
BRANCH  49  52
HETATM   52  O8  UNL     1       1.877   8.002  22.110  1.00  0.00    -0.358 OA
HETATM   53  H52 UNL     1       1.162   8.229  21.482  1.00  0.00     0.217 HD
ENDBRANCH  49  52
BRANCH  50  54
HETATM   54  O9  UNL     1       1.165  10.187  20.669  1.00  0.00    -0.358 OA
HETATM   55  H53 UNL     1       1.071  11.029  20.192  1.00  0.00     0.217 HD
ENDBRANCH  50  54
ENDBRANCH  45  46
ENDBRANCH  44  45
ENDBRANCH  42  44
ENDBRANCH  39  40
ENDBRANCH  38  39
ENDBRANCH  37  38
ENDBRANCH  36  37
ENDBRANCH  35  36
ENDBRANCH  33  35
ENDBRANCH  30  31
ENDBRANCH  29  30
ENDBRANCH   1  29
TORSDOF 19
ENDMDL
MODEL 2
REMARK minimizedAffinity -9.08961487
REMARK CNNscore 0.357627243
REMARK CNNaffinity 7.04980469
REMARK  19 active torsions:
REMARK  status: ('A' for Active; 'I' for Inactive)
REMARK    1  A    between atoms: C19_20  and  O2_21 
REMARK    2  A    between atoms: C19_20  and  C20_22 
REMARK    3  A    between atoms: C20_22  and  C21_24 
REMARK    4  A    between atoms: C21_24  and  O4_25 
REMARK    5  A    between atoms: O4_25  and  C22_26 
REMARK    6  A    between atoms: C22_26  and  C23_28 
REMARK    7  A    between atoms: C23_28  and  C24_29 
REMARK    8  A    between atoms: C24_29  and  C25_30 
REMARK       I    between atoms: C25_30  and  N1_32 
REMARK    9  A    between atoms: N1_32  and  C26_33 
REMARK   10  A    between atoms: C26_33  and  C27_34 
REMARK   11  A    between atoms: C27_34  and  C28_35 
REMARK   12  A    between atoms: C28_35  and  C29_36 
REMARK   13  A    between atoms: C29_36  and  C30_37 
REMARK   14  A    between atoms: C30_37  and  C31_38 
REMARK       I    between atoms: C31_38  and  N2_40 
REMARK   15  A    between atoms: N2_40  and  C32_41 
REMARK   16  A    between atoms: C32_41  and  C33_42 
REMARK   17  A    between atoms: C33_42  and  C34_43 
REMARK   18  A    between atoms: C37_46  and  O8_47 
REMARK   19  A    between atoms: C38_48  and  O9_49 
ROOT
HETATM    1  C22 UNL     1      -3.506   3.183  11.508  1.00  0.00     0.259 C 
HETATM    2  O5  UNL     1      -3.113   2.199  12.123  1.00  0.00    -0.265 OA
ENDROOT
BRANCH   1   3
HETATM    3  O4  UNL     1      -2.794   4.333  11.355  1.00  0.00    -0.314 OA
BRANCH   3   4
HETATM    4  C21 UNL     1      -2.437   5.009  12.555  1.00  0.00     0.260 C 
BRANCH   4   5
HETATM    5  C20 UNL     1      -1.416   6.161  12.584  1.00  0.00     0.185 C 
HETATM    6  O3  UNL     1      -1.809   7.322  12.737  1.00  0.00    -0.292 OA
BRANCH   5   7
HETATM    7  C19 UNL     1       0.092   5.816  12.522  1.00  0.00     0.128 C 
HETATM    8  C14 UNL     1       0.990   6.980  11.995  1.00  0.00    -0.002 C 
HETATM    9  C13 UNL     1       1.334   8.087  13.014  1.00  0.00     0.013 C 
HETATM   10  C15 UNL     1       0.355   7.621  10.730  1.00  0.00     0.019 C 
HETATM   11  C16 UNL     1       2.286   6.204  11.681  1.00  0.00     0.002 C 
HETATM   12  C12 UNL     1       2.807   8.554  12.972  1.00  0.00     0.007 C 
HETATM   13  C11 UNL     1       3.457   8.492  11.567  1.00  0.00     0.002 C 
HETATM   14  C2  UNL     1       4.908   9.095  11.471  1.00  0.00    -0.016 C 
HETATM   15  C10 UNL     1       3.362   7.040  10.961  1.00  0.00    -0.004 C 
HETATM   16  C1  UNL     1       5.241   9.343   9.973  1.00  0.00     0.020 C 
HETATM   17  C3  UNL     1       5.019  10.460  12.209  1.00  0.00     0.022 C 
HETATM   18  C7  UNL     1       5.943   8.152  12.073  1.00  0.00    -0.068 C 
HETATM   19  C4  UNL     1       6.430  11.042  12.176  1.00  0.00     0.084 C 
HETATM   20  C5  UNL     1       7.463  10.031  12.613  1.00  0.00     0.149 C 
HETATM   21  O1  UNL     1       8.595  10.364  12.959  1.00  0.00    -0.293 OA
HETATM   22  C6  UNL     1       7.108   8.590  12.587  1.00  0.00     0.053 C 
HETATM   23  C8  UNL     1       5.622   6.679  12.098  1.00  0.00     0.035 C 
HETATM   24  C9  UNL     1       4.704   6.274  10.952  1.00  0.00     0.010 C 
HETATM   25  C17 UNL     1       1.803   4.939  10.965  1.00  0.00     0.009 C 
HETATM   26  C18 UNL     1       0.394   4.667  11.524  1.00  0.00     0.047 C 
BRANCH   7  27
HETATM   27  O2  UNL     1       0.558   5.362  13.796  1.00  0.00    -0.381 OA
HETATM   28  H27 UNL     1       0.008   4.587  14.025  1.00  0.00     0.211 HD
ENDBRANCH   7  27
ENDBRANCH   5   7
ENDBRANCH   4   5
ENDBRANCH   3   4
ENDBRANCH   1   3
BRANCH   1  29
HETATM   29  C23 UNL     1      -4.856   3.300  10.855  1.00  0.00     0.120 C 
BRANCH  29  30
HETATM   30  C24 UNL     1      -5.840   2.334  11.502  1.00  0.00     0.112 C 
BRANCH  30  31
HETATM   31  C25 UNL     1      -6.710   2.996  12.546  1.00  0.00     0.217 C 
HETATM   32  O6  UNL     1      -7.776   2.534  12.933  1.00  0.00    -0.274 OA
HETATM   33  N1  UNL     1      -6.157   4.169  13.016  1.00  0.00    -0.361 N 
HETATM   34  H34 UNL     1      -5.405   4.581  12.478  1.00  0.00     0.162 HD
BRANCH  33  35
HETATM   35  C26 UNL     1      -6.874   5.031  13.934  1.00  0.00     0.122 C 
BRANCH  35  36
HETATM   36  C27 UNL     1      -5.923   5.925  14.726  1.00  0.00     0.020 C 
BRANCH  36  37
HETATM   37  C28 UNL     1      -6.527   6.527  16.002  1.00  0.00     0.002 C 
BRANCH  37  38
HETATM   38  C29 UNL     1      -8.008   6.199  16.247  1.00  0.00     0.009 C 
BRANCH  38  39
HETATM   39  C30 UNL     1      -8.926   7.423  16.244  1.00  0.00     0.103 C 
BRANCH  39  40
HETATM   40  C31 UNL     1      -9.934   7.394  15.109  1.00  0.00     0.217 C 
HETATM   41  O7  UNL     1      -9.658   7.047  13.966  1.00  0.00    -0.274 OA
HETATM   42  N2  UNL     1     -11.185   7.837  15.477  1.00  0.00    -0.361 N 
HETATM   43  H45 UNL     1     -11.407   7.899  16.462  1.00  0.00     0.162 HD
BRANCH  42  44
HETATM   44  C32 UNL     1     -12.297   7.807  14.542  1.00  0.00     0.127 C 
BRANCH  44  45
HETATM   45  C33 UNL     1     -12.947   6.423  14.414  1.00  0.00     0.058 C 
BRANCH  45  46
HETATM   46  C34 UNL     1     -14.307   6.477  13.753  1.00  0.00    -0.054 A 
HETATM   47  C35 UNL     1     -15.366   5.694  14.250  1.00  0.00     0.010 A 
HETATM   48  C36 UNL     1     -16.630   5.751  13.660  1.00  0.00     0.040 A 
HETATM   49  C37 UNL     1     -16.833   6.590  12.575  1.00  0.00     0.098 A 
HETATM   50  C38 UNL     1     -15.795   7.368  12.070  1.00  0.00     0.099 A 
HETATM   51  C39 UNL     1     -14.531   7.321  12.652  1.00  0.00     0.046 A 
BRANCH  49  52
HETATM   52  O8  UNL     1     -18.072   6.645  12.003  1.00  0.00    -0.358 OA
HETATM   53  H52 UNL     1     -17.974   7.284  11.269  1.00  0.00     0.217 HD
ENDBRANCH  49  52
BRANCH  50  54
HETATM   54  O9  UNL     1     -16.067   8.169  10.995  1.00  0.00    -0.358 OA
HETATM   55  H53 UNL     1     -15.243   8.614  10.732  1.00  0.00     0.217 HD
ENDBRANCH  50  54
ENDBRANCH  45  46
ENDBRANCH  44  45
ENDBRANCH  42  44
ENDBRANCH  39  40
ENDBRANCH  38  39
ENDBRANCH  37  38
ENDBRANCH  36  37
ENDBRANCH  35  36
ENDBRANCH  33  35
ENDBRANCH  30  31
ENDBRANCH  29  30
ENDBRANCH   1  29
TORSDOF 19
ENDMDL
MODEL 3
REMARK minimizedAffinity -8.48408699
REMARK CNNscore 0.353920132
REMARK CNNaffinity 7.67604876
REMARK  19 active torsions:
REMARK  status: ('A' for Active; 'I' for Inactive)
REMARK    1  A    between atoms: C19_20  and  O2_21 
REMARK    2  A    between atoms: C19_20  and  C20_22 
REMARK    3  A    between atoms: C20_22  and  C21_24 
REMARK    4  A    between atoms: C21_24  and  O4_25 
REMARK    5  A    between atoms: O4_25  and  C22_26 
REMARK    6  A    between atoms: C22_26  and  C23_28 
REMARK    7  A    between atoms: C23_28  and  C24_29 
REMARK    8  A    between atoms: C24_29  and  C25_30 
REMARK       I    between atoms: C25_30  and  N1_32 
REMARK    9  A    between atoms: N1_32  and  C26_33 
REMARK   10  A    between atoms: C26_33  and  C27_34 
REMARK   11  A    between atoms: C27_34  and  C28_35 
REMARK   12  A    between atoms: C28_35  and  C29_36 
REMARK   13  A    between atoms: C29_36  and  C30_37 
REMARK   14  A    between atoms: C30_37  and  C31_38 
REMARK       I    between atoms: C31_38  and  N2_40 
REMARK   15  A    between atoms: N2_40  and  C32_41 
REMARK   16  A    between atoms: C32_41  and  C33_42 
REMARK   17  A    between atoms: C33_42  and  C34_43 
REMARK   18  A    between atoms: C37_46  and  O8_47 
REMARK   19  A    between atoms: C38_48  and  O9_49 
ROOT
HETATM    1  C22 UNL     1     -10.073   9.954  14.762  1.00  0.00     0.259 C 
HETATM    2  O5  UNL     1     -10.161  11.168  14.622  1.00  0.00    -0.265 OA
ENDROOT
BRANCH   1   3
HETATM    3  O4  UNL     1      -8.962   9.306  15.205  1.00  0.00    -0.314 OA
BRANCH   3   4
HETATM    4  C21 UNL     1      -8.971   7.890  15.066  1.00  0.00     0.260 C 
BRANCH   4   5
HETATM    5  C20 UNL     1      -7.749   7.017  15.410  1.00  0.00     0.185 C 
HETATM    6  O3  UNL     1      -7.007   7.344  16.340  1.00  0.00    -0.292 OA
BRANCH   5   7
HETATM    7  C19 UNL     1      -7.547   5.689  14.638  1.00  0.00     0.128 C 
HETATM    8  C14 UNL     1      -6.255   5.654  13.761  1.00  0.00    -0.002 C 
HETATM    9  C13 UNL     1      -4.936   5.366  14.507  1.00  0.00     0.013 C 
HETATM   10  C15 UNL     1      -6.116   6.975  12.953  1.00  0.00     0.019 C 
HETATM   11  C16 UNL     1      -6.570   4.439  12.863  1.00  0.00     0.002 C 
HETATM   12  C12 UNL     1      -3.996   4.379  13.777  1.00  0.00     0.007 C 
HETATM   13  C11 UNL     1      -4.075   4.445  12.231  1.00  0.00     0.002 C 
HETATM   14  C2  UNL     1      -3.027   3.554  11.466  1.00  0.00    -0.016 C 
HETATM   15  C10 UNL     1      -5.551   4.215  11.728  1.00  0.00    -0.004 C 
HETATM   16  C1  UNL     1      -2.951   4.039   9.991  1.00  0.00     0.020 C 
HETATM   17  C3  UNL     1      -1.603   3.679  12.077  1.00  0.00     0.022 C 
HETATM   18  C7  UNL     1      -3.423   2.082  11.497  1.00  0.00    -0.068 C 
HETATM   19  C4  UNL     1      -0.577   2.783  11.386  1.00  0.00     0.084 C 
HETATM   20  C5  UNL     1      -1.065   1.359  11.272  1.00  0.00     0.149 C 
HETATM   21  O1  UNL     1      -0.299   0.424  11.044  1.00  0.00    -0.293 OA
HETATM   22  C6  UNL     1      -2.519   1.088  11.403  1.00  0.00     0.053 C 
HETATM   23  C8  UNL     1      -4.885   1.750  11.656  1.00  0.00     0.035 C 
HETATM   24  C9  UNL     1      -5.785   2.833  11.077  1.00  0.00     0.010 C 
HETATM   25  C17 UNL     1      -8.029   4.644  12.449  1.00  0.00     0.009 C 
HETATM   26  C18 UNL     1      -8.675   5.429  13.605  1.00  0.00     0.047 C 
BRANCH   7  27
HETATM   27  O2  UNL     1      -7.573   4.575  15.536  1.00  0.00    -0.381 OA
HETATM   28  H27 UNL     1      -8.438   4.614  15.990  1.00  0.00     0.211 HD
ENDBRANCH   7  27
ENDBRANCH   5   7
ENDBRANCH   4   5
ENDBRANCH   3   4
ENDBRANCH   1   3
BRANCH   1  29
HETATM   29  C23 UNL     1     -11.164   8.974  14.428  1.00  0.00     0.120 C 
BRANCH  29  30
HETATM   30  C24 UNL     1     -11.749   9.285  13.056  1.00  0.00     0.112 C 
BRANCH  30  31
HETATM   31  C25 UNL     1     -13.252   9.132  13.012  1.00  0.00     0.217 C 
HETATM   32  O6  UNL     1     -14.035  10.026  13.305  1.00  0.00    -0.274 OA
HETATM   33  N1  UNL     1     -13.635   7.874  12.591  1.00  0.00    -0.361 N 
HETATM   34  H34 UNL     1     -12.933   7.145  12.598  1.00  0.00     0.162 HD
BRANCH  33  35
HETATM   35  C26 UNL     1     -15.025   7.467  12.586  1.00  0.00     0.122 C 
BRANCH  35  36
HETATM   36  C27 UNL     1     -15.395   6.714  13.863  1.00  0.00     0.020 C 
BRANCH  36  37
HETATM   37  C28 UNL     1     -16.622   5.801  13.732  1.00  0.00     0.002 C 
BRANCH  37  38
HETATM   38  C29 UNL     1     -16.564   4.499  14.544  1.00  0.00     0.009 C 
BRANCH  38  39
HETATM   39  C30 UNL     1     -17.132   3.282  13.813  1.00  0.00     0.103 C 
BRANCH  39  40
HETATM   40  C31 UNL     1     -16.889   1.984  14.563  1.00  0.00     0.217 C 
HETATM   41  O7  UNL     1     -17.779   1.335  15.101  1.00  0.00    -0.274 OA
HETATM   42  N2  UNL     1     -15.561   1.623  14.617  1.00  0.00    -0.361 N 
HETATM   43  H45 UNL     1     -14.912   2.069  13.981  1.00  0.00     0.162 HD
BRANCH  42  44
HETATM   44  C32 UNL     1     -15.147   0.372  15.227  1.00  0.00     0.127 C 
BRANCH  44  45
HETATM   45  C33 UNL     1     -15.799  -0.861  14.587  1.00  0.00     0.058 C 
BRANCH  45  46
HETATM   46  C34 UNL     1     -16.224  -1.892  15.611  1.00  0.00    -0.054 A 
HETATM   47  C35 UNL     1     -16.689  -3.153  15.191  1.00  0.00     0.010 A 
HETATM   48  C36 UNL     1     -17.065  -4.119  16.127  1.00  0.00     0.040 A 
HETATM   49  C37 UNL     1     -16.974  -3.823  17.478  1.00  0.00     0.098 A 
HETATM   50  C38 UNL     1     -16.520  -2.580  17.908  1.00  0.00     0.099 A 
HETATM   51  C39 UNL     1     -16.140  -1.610  16.984  1.00  0.00     0.046 A 
BRANCH  49  52
HETATM   52  O8  UNL     1     -17.340  -4.771  18.391  1.00  0.00    -0.358 OA
HETATM   53  H52 UNL     1     -17.201  -4.343  19.258  1.00  0.00     0.217 HD
ENDBRANCH  49  52
BRANCH  50  54
HETATM   54  O9  UNL     1     -16.461  -2.356  19.257  1.00  0.00    -0.358 OA
HETATM   55  H53 UNL     1     -16.169  -1.440  19.400  1.00  0.00     0.217 HD
ENDBRANCH  50  54
ENDBRANCH  45  46
ENDBRANCH  44  45
ENDBRANCH  42  44
ENDBRANCH  39  40
ENDBRANCH  38  39
ENDBRANCH  37  38
ENDBRANCH  36  37
ENDBRANCH  35  36
ENDBRANCH  33  35
ENDBRANCH  30  31
ENDBRANCH  29  30
ENDBRANCH   1  29
TORSDOF 19
ENDMDL
MODEL 4
REMARK minimizedAffinity -8.51183414
REMARK CNNscore 0.313382775
REMARK CNNaffinity 6.9748702
REMARK  19 active torsions:
REMARK  status: ('A' for Active; 'I' for Inactive)
REMARK    1  A    between atoms: C19_20  and  O2_21 
REMARK    2  A    between atoms: C19_20  and  C20_22 
REMARK    3  A    between atoms: C20_22  and  C21_24 
REMARK    4  A    between atoms: C21_24  and  O4_25 
REMARK    5  A    between atoms: O4_25  and  C22_26 
REMARK    6  A    between atoms: C22_26  and  C23_28 
REMARK    7  A    between atoms: C23_28  and  C24_29 
REMARK    8  A    between atoms: C24_29  and  C25_30 
REMARK       I    between atoms: C25_30  and  N1_32 
REMARK    9  A    between atoms: N1_32  and  C26_33 
REMARK   10  A    between atoms: C26_33  and  C27_34 
REMARK   11  A    between atoms: C27_34  and  C28_35 
REMARK   12  A    between atoms: C28_35  and  C29_36 
REMARK   13  A    between atoms: C29_36  and  C30_37 
REMARK   14  A    between atoms: C30_37  and  C31_38 
REMARK       I    between atoms: C31_38  and  N2_40 
REMARK   15  A    between atoms: N2_40  and  C32_41 
REMARK   16  A    between atoms: C32_41  and  C33_42 
REMARK   17  A    between atoms: C33_42  and  C34_43 
REMARK   18  A    between atoms: C37_46  and  O8_47 
REMARK   19  A    between atoms: C38_48  and  O9_49 
ROOT
HETATM    1  C22 UNL     1      -3.617   4.286  12.933  1.00  0.00     0.259 C 
HETATM    2  O5  UNL     1      -3.615   4.429  14.149  1.00  0.00    -0.265 OA
ENDROOT
BRANCH   1   3
HETATM    3  O4  UNL     1      -2.982   5.110  12.056  1.00  0.00    -0.314 OA
BRANCH   3   4
HETATM    4  C21 UNL     1      -2.092   6.061  12.630  1.00  0.00     0.260 C 
BRANCH   4   5
HETATM    5  C20 UNL     1      -2.505   7.517  12.913  1.00  0.00     0.185 C 
HETATM    6  O3  UNL     1      -3.701   7.798  13.039  1.00  0.00    -0.292 OA
BRANCH   5   7
HETATM    7  C19 UNL     1      -1.395   8.573  13.135  1.00  0.00     0.128 C 
HETATM    8  C14 UNL     1       0.055   8.010  13.001  1.00  0.00    -0.002 C 
HETATM    9  C13 UNL     1       0.582   7.828  11.562  1.00  0.00     0.013 C 
HETATM   10  C15 UNL     1       0.186   6.667  13.773  1.00  0.00     0.019 C 
HETATM   11  C16 UNL     1       0.854   9.154  13.659  1.00  0.00     0.002 C 
HETATM   12  C12 UNL     1       2.043   8.288  11.357  1.00  0.00     0.007 C 
HETATM   13  C11 UNL     1       2.951   8.104  12.600  1.00  0.00     0.002 C 
HETATM   14  C2  UNL     1       4.474   8.430  12.374  1.00  0.00    -0.016 C 
HETATM   15  C10 UNL     1       2.351   8.845  13.855  1.00  0.00    -0.004 C 
HETATM   16  C1  UNL     1       5.290   7.809  13.542  1.00  0.00     0.020 C 
HETATM   17  C3  UNL     1       5.009   7.816  11.048  1.00  0.00     0.022 C 
HETATM   18  C7  UNL     1       4.719   9.934  12.325  1.00  0.00    -0.068 C 
HETATM   19  C4  UNL     1       6.471   8.163  10.778  1.00  0.00     0.084 C 
HETATM   20  C5  UNL     1       6.729   9.645  10.907  1.00  0.00     0.149 C 
HETATM   21  O1  UNL     1       7.733  10.175  10.437  1.00  0.00    -0.293 OA
HETATM   22  C6  UNL     1       5.754  10.477  11.656  1.00  0.00     0.053 C 
HETATM   23  C8  UNL     1       3.744  10.829  13.047  1.00  0.00     0.035 C 
HETATM   24  C9  UNL     1       3.108  10.135  14.244  1.00  0.00     0.010 C 
HETATM   25  C17 UNL     1       0.051   9.500  14.916  1.00  0.00     0.009 C 
HETATM   26  C18 UNL     1      -1.409   9.151  14.575  1.00  0.00     0.047 C 
BRANCH   7  27
HETATM   27  O2  UNL     1      -1.581   9.691  12.262  1.00  0.00    -0.381 OA
HETATM   28  H27 UNL     1      -2.473  10.042  12.457  1.00  0.00     0.211 HD
ENDBRANCH   7  27
ENDBRANCH   5   7
ENDBRANCH   4   5
ENDBRANCH   3   4
ENDBRANCH   1   3
BRANCH   1  29
HETATM   29  C23 UNL     1      -4.355   3.198  12.201  1.00  0.00     0.120 C 
BRANCH  29  30
HETATM   30  C24 UNL     1      -5.752   3.674  11.820  1.00  0.00     0.112 C 
BRANCH  30  31
HETATM   31  C25 UNL     1      -6.714   3.659  12.985  1.00  0.00     0.217 C 
HETATM   32  O6  UNL     1      -7.438   2.710  13.256  1.00  0.00    -0.274 OA
HETATM   33  N1  UNL     1      -6.670   4.833  13.711  1.00  0.00    -0.361 N 
HETATM   34  H34 UNL     1      -6.222   5.632  13.280  1.00  0.00     0.162 HD
BRANCH  33  35
HETATM   35  C26 UNL     1      -7.591   5.086  14.799  1.00  0.00     0.122 C 
BRANCH  35  36
HETATM   36  C27 UNL     1      -6.867   5.596  16.043  1.00  0.00     0.020 C 
BRANCH  36  37
HETATM   37  C28 UNL     1      -6.887   7.121  16.212  1.00  0.00     0.002 C 
BRANCH  37  38
HETATM   38  C29 UNL     1      -7.984   7.857  15.427  1.00  0.00     0.009 C 
BRANCH  38  39
HETATM   39  C30 UNL     1      -9.290   8.039  16.202  1.00  0.00     0.103 C 
BRANCH  39  40
HETATM   40  C31 UNL     1     -10.502   8.128  15.292  1.00  0.00     0.217 C 
HETATM   41  O7  UNL     1     -11.039   9.185  14.980  1.00  0.00    -0.274 OA
HETATM   42  N2  UNL     1     -10.969   6.899  14.880  1.00  0.00    -0.361 N 
HETATM   43  H45 UNL     1     -10.368   6.092  14.986  1.00  0.00     0.162 HD
BRANCH  42  44
HETATM   44  C32 UNL     1     -12.074   6.791  13.944  1.00  0.00     0.127 C 
BRANCH  44  45
HETATM   45  C33 UNL     1     -13.235   5.937  14.469  1.00  0.00     0.058 C 
BRANCH  45  46
HETATM   46  C34 UNL     1     -14.545   6.244  13.776  1.00  0.00    -0.054 A 
HETATM   47  C35 UNL     1     -15.748   5.704  14.269  1.00  0.00     0.010 A 
HETATM   48  C36 UNL     1     -16.964   5.997  13.650  1.00  0.00     0.040 A 
HETATM   49  C37 UNL     1     -16.977   6.830  12.542  1.00  0.00     0.098 A 
HETATM   50  C38 UNL     1     -15.794   7.369  12.041  1.00  0.00     0.099 A 
HETATM   51  C39 UNL     1     -14.576   7.086  12.652  1.00  0.00     0.046 A 
BRANCH  49  52
HETATM   52  O8  UNL     1     -18.169   7.117  11.941  1.00  0.00    -0.358 OA
HETATM   53  H52 UNL     1     -17.932   7.703  11.194  1.00  0.00     0.217 HD
ENDBRANCH  49  52
BRANCH  50  54
HETATM   54  O9  UNL     1     -15.882   8.179  10.941  1.00  0.00    -0.358 OA
HETATM   55  H53 UNL     1     -14.981   8.441  10.686  1.00  0.00     0.217 HD
ENDBRANCH  50  54
ENDBRANCH  45  46
ENDBRANCH  44  45
ENDBRANCH  42  44
ENDBRANCH  39  40
ENDBRANCH  38  39
ENDBRANCH  37  38
ENDBRANCH  36  37
ENDBRANCH  35  36
ENDBRANCH  33  35
ENDBRANCH  30  31
ENDBRANCH  29  30
ENDBRANCH   1  29
TORSDOF 19
ENDMDL
MODEL 5
REMARK minimizedAffinity -8.78307533
REMARK CNNscore 0.282894403
REMARK CNNaffinity 7.32012033
REMARK  19 active torsions:
REMARK  status: ('A' for Active; 'I' for Inactive)
REMARK    1  A    between atoms: C19_20  and  O2_21 
REMARK    2  A    between atoms: C19_20  and  C20_22 
REMARK    3  A    between atoms: C20_22  and  C21_24 
REMARK    4  A    between atoms: C21_24  and  O4_25 
REMARK    5  A    between atoms: O4_25  and  C22_26 
REMARK    6  A    between atoms: C22_26  and  C23_28 
REMARK    7  A    between atoms: C23_28  and  C24_29 
REMARK    8  A    between atoms: C24_29  and  C25_30 
REMARK       I    between atoms: C25_30  and  N1_32 
REMARK    9  A    between atoms: N1_32  and  C26_33 
REMARK   10  A    between atoms: C26_33  and  C27_34 
REMARK   11  A    between atoms: C27_34  and  C28_35 
REMARK   12  A    between atoms: C28_35  and  C29_36 
REMARK   13  A    between atoms: C29_36  and  C30_37 
REMARK   14  A    between atoms: C30_37  and  C31_38 
REMARK       I    between atoms: C31_38  and  N2_40 
REMARK   15  A    between atoms: N2_40  and  C32_41 
REMARK   16  A    between atoms: C32_41  and  C33_42 
REMARK   17  A    between atoms: C33_42  and  C34_43 
REMARK   18  A    between atoms: C37_46  and  O8_47 
REMARK   19  A    between atoms: C38_48  and  O9_49 
ROOT
HETATM    1  C22 UNL     1       1.725   6.619  10.594  1.00  0.00     0.259 C 
HETATM    2  O5  UNL     1       1.312   5.845   9.739  1.00  0.00    -0.265 OA
ENDROOT
BRANCH   1   3
HETATM    3  O4  UNL     1       1.118   7.788  10.936  1.00  0.00    -0.314 OA
BRANCH   3   4
HETATM    4  C21 UNL     1       1.148   8.123  12.319  1.00  0.00     0.260 C 
BRANCH   4   5
HETATM    5  C20 UNL     1      -0.092   8.014  13.225  1.00  0.00     0.185 C 
HETATM    6  O3  UNL     1      -0.163   8.700  14.248  1.00  0.00    -0.292 OA
BRANCH   5   7
HETATM    7  C19 UNL     1      -1.267   7.115  12.766  1.00  0.00     0.128 C 
HETATM    8  C14 UNL     1      -2.508   7.157  13.714  1.00  0.00    -0.002 C 
HETATM    9  C13 UNL     1      -3.441   8.376  13.556  1.00  0.00     0.013 C 
HETATM   10  C15 UNL     1      -2.058   7.038  15.196  1.00  0.00     0.019 C 
HETATM   11  C16 UNL     1      -3.269   5.909  13.221  1.00  0.00     0.002 C 
HETATM   12  C12 UNL     1      -4.947   8.032  13.591  1.00  0.00     0.007 C 
HETATM   13  C11 UNL     1      -5.307   6.826  14.497  1.00  0.00     0.002 C 
HETATM   14  C2  UNL     1      -6.847   6.546  14.662  1.00  0.00    -0.016 C 
HETATM   15  C10 UNL     1      -4.496   5.541  14.078  1.00  0.00    -0.004 C 
HETATM   16  C1  UNL     1      -7.048   5.615  15.891  1.00  0.00     0.020 C 
HETATM   17  C3  UNL     1      -7.650   7.851  14.923  1.00  0.00     0.022 C 
HETATM   18  C7  UNL     1      -7.426   5.879  13.419  1.00  0.00    -0.068 C 
HETATM   19  C4  UNL     1      -9.154   7.613  15.035  1.00  0.00     0.084 C 
HETATM   20  C5  UNL     1      -9.680   6.800  13.877  1.00  0.00     0.149 C 
HETATM   21  O1  UNL     1     -10.877   6.758  13.600  1.00  0.00    -0.293 OA
HETATM   22  C6  UNL     1      -8.722   5.999  13.073  1.00  0.00     0.053 C 
HETATM   23  C8  UNL     1      -6.492   5.076  12.552  1.00  0.00     0.035 C 
HETATM   24  C9  UNL     1      -5.344   4.473  13.351  1.00  0.00     0.010 C 
HETATM   25  C17 UNL     1      -2.184   4.838  13.076  1.00  0.00     0.009 C 
HETATM   26  C18 UNL     1      -0.890   5.610  12.756  1.00  0.00     0.047 C 
BRANCH   7  27
HETATM   27  O2  UNL     1      -1.651   7.432  11.424  1.00  0.00    -0.381 OA
HETATM   28  H27 UNL     1      -0.850   7.307  10.877  1.00  0.00     0.211 HD
ENDBRANCH   7  27
ENDBRANCH   5   7
ENDBRANCH   4   5
ENDBRANCH   3   4
ENDBRANCH   1   3
BRANCH   1  29
HETATM   29  C23 UNL     1       2.992   6.426  11.380  1.00  0.00     0.120 C 
BRANCH  29  30
HETATM   30  C24 UNL     1       4.188   6.348  10.440  1.00  0.00     0.112 C 
BRANCH  30  31
HETATM   31  C25 UNL     1       5.504   6.586  11.144  1.00  0.00     0.217 C 
HETATM   32  O6  UNL     1       6.596   6.464  10.603  1.00  0.00    -0.274 OA
HETATM   33  N1  UNL     1       5.329   6.969  12.458  1.00  0.00    -0.361 N 
HETATM   34  H34 UNL     1       4.418   6.816  12.872  1.00  0.00     0.162 HD
BRANCH  33  35
HETATM   35  C26 UNL     1       6.454   7.135  13.356  1.00  0.00     0.122 C 
BRANCH  35  36
HETATM   36  C27 UNL     1       6.456   8.516  14.006  1.00  0.00     0.020 C 
BRANCH  36  37
HETATM   37  C28 UNL     1       7.796   9.259  13.921  1.00  0.00     0.002 C 
BRANCH  37  38
HETATM   38  C29 UNL     1       8.552   9.409  15.250  1.00  0.00     0.009 C 
BRANCH  38  39
HETATM   39  C30 UNL     1       8.329  10.752  15.947  1.00  0.00     0.103 C 
BRANCH  39  40
HETATM   40  C31 UNL     1       8.192  10.614  17.453  1.00  0.00     0.217 C 
HETATM   41  O7  UNL     1       9.018  10.047  18.159  1.00  0.00    -0.274 OA
HETATM   42  N2  UNL     1       7.025  11.152  17.949  1.00  0.00    -0.361 N 
HETATM   43  H45 UNL     1       6.498  11.788  17.364  1.00  0.00     0.162 HD
BRANCH  42  44
HETATM   44  C32 UNL     1       6.759  11.180  19.376  1.00  0.00     0.127 C 
BRANCH  44  45
HETATM   45  C33 UNL     1       5.426  11.852  19.733  1.00  0.00     0.058 C 
BRANCH  45  46
HETATM   46  C34 UNL     1       4.734  11.190  20.905  1.00  0.00    -0.054 A 
HETATM   47  C35 UNL     1       5.150  11.468  22.220  1.00  0.00     0.010 A 
HETATM   48  C36 UNL     1       4.506  10.878  23.309  1.00  0.00     0.040 A 
HETATM   49  C37 UNL     1       3.447  10.012  23.081  1.00  0.00     0.098 A 
HETATM   50  C38 UNL     1       3.027   9.724  21.785  1.00  0.00     0.099 A 
HETATM   51  C39 UNL     1       3.660  10.309  20.692  1.00  0.00     0.046 A 
BRANCH  49  52
HETATM   52  O8  UNL     1       2.818   9.439  24.149  1.00  0.00    -0.358 OA
HETATM   53  H52 UNL     1       2.125   8.875  23.751  1.00  0.00     0.217 HD
ENDBRANCH  49  52
BRANCH  50  54
HETATM   54  O9  UNL     1       1.978   8.858  21.636  1.00  0.00    -0.358 OA
HETATM   55  H53 UNL     1       1.830   8.723  20.684  1.00  0.00     0.217 HD
ENDBRANCH  50  54
ENDBRANCH  45  46
ENDBRANCH  44  45
ENDBRANCH  42  44
ENDBRANCH  39  40
ENDBRANCH  38  39
ENDBRANCH  37  38
ENDBRANCH  36  37
ENDBRANCH  35  36
ENDBRANCH  33  35
ENDBRANCH  30  31
ENDBRANCH  29  30
ENDBRANCH   1  29
TORSDOF 19
ENDMDL
MODEL 6
REMARK minimizedAffinity -8.93517494
REMARK CNNscore 0.248053804
REMARK CNNaffinity 7.24961853
REMARK  19 active torsions:
REMARK  status: ('A' for Active; 'I' for Inactive)
REMARK    1  A    between atoms: C19_20  and  O2_21 
REMARK    2  A    between atoms: C19_20  and  C20_22 
REMARK    3  A    between atoms: C20_22  and  C21_24 
REMARK    4  A    between atoms: C21_24  and  O4_25 
REMARK    5  A    between atoms: O4_25  and  C22_26 
REMARK    6  A    between atoms: C22_26  and  C23_28 
REMARK    7  A    between atoms: C23_28  and  C24_29 
REMARK    8  A    between atoms: C24_29  and  C25_30 
REMARK       I    between atoms: C25_30  and  N1_32 
REMARK    9  A    between atoms: N1_32  and  C26_33 
REMARK   10  A    between atoms: C26_33  and  C27_34 
REMARK   11  A    between atoms: C27_34  and  C28_35 
REMARK   12  A    between atoms: C28_35  and  C29_36 
REMARK   13  A    between atoms: C29_36  and  C30_37 
REMARK   14  A    between atoms: C30_37  and  C31_38 
REMARK       I    between atoms: C31_38  and  N2_40 
REMARK   15  A    between atoms: N2_40  and  C32_41 
REMARK   16  A    between atoms: C32_41  and  C33_42 
REMARK   17  A    between atoms: C33_42  and  C34_43 
REMARK   18  A    between atoms: C37_46  and  O8_47 
REMARK   19  A    between atoms: C38_48  and  O9_49 
ROOT
HETATM    1  C22 UNL     1       0.966   6.969  10.773  1.00  0.00     0.259 C 
HETATM    2  O5  UNL     1       0.337   7.062   9.726  1.00  0.00    -0.265 OA
ENDROOT
BRANCH   1   3
HETATM    3  O4  UNL     1       0.829   7.808  11.835  1.00  0.00    -0.314 OA
BRANCH   3   4
HETATM    4  C21 UNL     1      -0.097   7.399  12.835  1.00  0.00     0.260 C 
BRANCH   4   5
HETATM    5  C20 UNL     1      -0.472   5.922  13.062  1.00  0.00     0.185 C 
HETATM    6  O3  UNL     1       0.275   5.198  13.727  1.00  0.00    -0.292 OA
BRANCH   5   7
HETATM    7  C19 UNL     1      -1.835   5.414  12.532  1.00  0.00     0.128 C 
HETATM    8  C14 UNL     1      -3.027   5.648  13.513  1.00  0.00    -0.002 C 
HETATM    9  C13 UNL     1      -3.620   7.072  13.533  1.00  0.00     0.013 C 
HETATM   10  C15 UNL     1      -2.626   5.233  14.956  1.00  0.00     0.019 C 
HETATM   11  C16 UNL     1      -4.079   4.704  12.893  1.00  0.00     0.002 C 
HETATM   12  C12 UNL     1      -5.165   7.117  13.570  1.00  0.00     0.007 C 
HETATM   13  C11 UNL     1      -5.820   5.937  14.331  1.00  0.00     0.002 C 
HETATM   14  C2  UNL     1      -7.382   6.035  14.506  1.00  0.00    -0.016 C 
HETATM   15  C10 UNL     1      -5.361   4.552  13.735  1.00  0.00    -0.004 C 
HETATM   16  C1  UNL     1      -7.816   5.038  15.618  1.00  0.00     0.020 C 
HETATM   17  C3  UNL     1      -7.828   7.457  14.949  1.00  0.00     0.022 C 
HETATM   18  C7  UNL     1      -8.108   5.698  13.209  1.00  0.00    -0.068 C 
HETATM   19  C4  UNL     1      -9.344   7.594  15.075  1.00  0.00     0.084 C 
HETATM   20  C5  UNL     1     -10.055   7.091  13.842  1.00  0.00     0.149 C 
HETATM   21  O1  UNL     1     -11.223   7.388  13.597  1.00  0.00    -0.293 OA
HETATM   22  C6  UNL     1      -9.330   6.183  12.918  1.00  0.00     0.053 C 
HETATM   23  C8  UNL     1      -7.406   4.801  12.222  1.00  0.00     0.035 C 
HETATM   24  C9  UNL     1      -6.450   3.833  12.907  1.00  0.00     0.010 C 
HETATM   25  C17 UNL     1      -3.300   3.421  12.587  1.00  0.00     0.009 C 
HETATM   26  C18 UNL     1      -1.853   3.876  12.326  1.00  0.00     0.047 C 
BRANCH   7  27
HETATM   27  O2  UNL     1      -2.122   5.984  11.251  1.00  0.00    -0.381 OA
HETATM   28  H27 UNL     1      -1.378   5.731  10.669  1.00  0.00     0.211 HD
ENDBRANCH   7  27
ENDBRANCH   5   7
ENDBRANCH   4   5
ENDBRANCH   3   4
ENDBRANCH   1   3
BRANCH   1  29
HETATM   29  C23 UNL     1       2.025   5.935  11.044  1.00  0.00     0.120 C 
BRANCH  29  30
HETATM   30  C24 UNL     1       3.101   5.989   9.966  1.00  0.00     0.112 C 
BRANCH  30  31
HETATM   31  C25 UNL     1       4.290   6.831  10.367  1.00  0.00     0.217 C 
HETATM   32  O6  UNL     1       4.508   7.953   9.927  1.00  0.00    -0.274 OA
HETATM   33  N1  UNL     1       5.090   6.194  11.294  1.00  0.00    -0.361 N 
HETATM   34  H34 UNL     1       4.961   5.198  11.417  1.00  0.00     0.162 HD
BRANCH  33  35
HETATM   35  C26 UNL     1       6.347   6.766  11.731  1.00  0.00     0.122 C 
BRANCH  35  36
HETATM   36  C27 UNL     1       6.209   7.462  13.083  1.00  0.00     0.020 C 
BRANCH  36  37
HETATM   37  C28 UNL     1       7.403   7.263  14.027  1.00  0.00     0.002 C 
BRANCH  37  38
HETATM   38  C29 UNL     1       8.431   8.405  14.040  1.00  0.00     0.009 C 
BRANCH  38  39
HETATM   39  C30 UNL     1       9.671   8.118  14.887  1.00  0.00     0.103 C 
BRANCH  39  40
HETATM   40  C31 UNL     1       9.479   8.483  16.348  1.00  0.00     0.217 C 
HETATM   41  O7  UNL     1       8.920   7.756  17.161  1.00  0.00    -0.274 OA
HETATM   42  N2  UNL     1       9.957   9.736  16.666  1.00  0.00    -0.361 N 
HETATM   43  H45 UNL     1      10.591  10.190  16.023  1.00  0.00     0.162 HD
BRANCH  42  44
HETATM   44  C32 UNL     1       9.928  10.224  18.034  1.00  0.00     0.127 C 
BRANCH  44  45
HETATM   45  C33 UNL     1       9.371  11.648  18.159  1.00  0.00     0.058 C 
BRANCH  45  46
HETATM   46  C34 UNL     1       9.028  12.017  19.587  1.00  0.00    -0.054 A 
HETATM   47  C35 UNL     1      10.051  12.353  20.494  1.00  0.00     0.010 A 
HETATM   48  C36 UNL     1       9.745  12.714  21.808  1.00  0.00     0.040 A 
HETATM   49  C37 UNL     1       8.418  12.740  22.211  1.00  0.00     0.098 A 
HETATM   50  C38 UNL     1       7.397  12.406  21.326  1.00  0.00     0.099 A 
HETATM   51  C39 UNL     1       7.690  12.048  20.013  1.00  0.00     0.046 A 
BRANCH  49  52
HETATM   52  O8  UNL     1       8.122  13.096  23.495  1.00  0.00    -0.358 OA
HETATM   53  H52 UNL     1       7.148  13.035  23.548  1.00  0.00     0.217 HD
ENDBRANCH  49  52
BRANCH  50  54
HETATM   54  O9  UNL     1       6.111  12.449  21.794  1.00  0.00    -0.358 OA
HETATM   55  H53 UNL     1       5.519  12.153  21.082  1.00  0.00     0.217 HD
ENDBRANCH  50  54
ENDBRANCH  45  46
ENDBRANCH  44  45
ENDBRANCH  42  44
ENDBRANCH  39  40
ENDBRANCH  38  39
ENDBRANCH  37  38
ENDBRANCH  36  37
ENDBRANCH  35  36
ENDBRANCH  33  35
ENDBRANCH  30  31
ENDBRANCH  29  30
ENDBRANCH   1  29
TORSDOF 19
ENDMDL
MODEL 7
REMARK minimizedAffinity -9.37830734
REMARK CNNscore 0.242780626
REMARK CNNaffinity 7.14430809
REMARK  19 active torsions:
REMARK  status: ('A' for Active; 'I' for Inactive)
REMARK    1  A    between atoms: C19_20  and  O2_21 
REMARK    2  A    between atoms: C19_20  and  C20_22 
REMARK    3  A    between atoms: C20_22  and  C21_24 
REMARK    4  A    between atoms: C21_24  and  O4_25 
REMARK    5  A    between atoms: O4_25  and  C22_26 
REMARK    6  A    between atoms: C22_26  and  C23_28 
REMARK    7  A    between atoms: C23_28  and  C24_29 
REMARK    8  A    between atoms: C24_29  and  C25_30 
REMARK       I    between atoms: C25_30  and  N1_32 
REMARK    9  A    between atoms: N1_32  and  C26_33 
REMARK   10  A    between atoms: C26_33  and  C27_34 
REMARK   11  A    between atoms: C27_34  and  C28_35 
REMARK   12  A    between atoms: C28_35  and  C29_36 
REMARK   13  A    between atoms: C29_36  and  C30_37 
REMARK   14  A    between atoms: C30_37  and  C31_38 
REMARK       I    between atoms: C31_38  and  N2_40 
REMARK   15  A    between atoms: N2_40  and  C32_41 
REMARK   16  A    between atoms: C32_41  and  C33_42 
REMARK   17  A    between atoms: C33_42  and  C34_43 
REMARK   18  A    between atoms: C37_46  and  O8_47 
REMARK   19  A    between atoms: C38_48  and  O9_49 
ROOT
HETATM    1  C22 UNL     1       0.806   8.046   9.776  1.00  0.00     0.259 C 
HETATM    2  O5  UNL     1      -0.234   8.688   9.681  1.00  0.00    -0.265 OA
ENDROOT
BRANCH   1   3
HETATM    3  O4  UNL     1       1.042   7.092  10.716  1.00  0.00    -0.314 OA
BRANCH   3   4
HETATM    4  C21 UNL     1       0.529   7.359  12.016  1.00  0.00     0.260 C 
BRANCH   4   5
HETATM    5  C20 UNL     1      -0.156   6.278  12.874  1.00  0.00     0.185 C 
HETATM    6  O3  UNL     1       0.311   5.991  13.980  1.00  0.00    -0.292 OA
BRANCH   5   7
HETATM    7  C19 UNL     1      -1.477   5.652  12.362  1.00  0.00     0.128 C 
HETATM    8  C14 UNL     1      -2.685   5.834  13.334  1.00  0.00    -0.002 C 
HETATM    9  C13 UNL     1      -3.380   7.211  13.302  1.00  0.00     0.013 C 
HETATM   10  C15 UNL     1      -2.260   5.504  14.791  1.00  0.00     0.019 C 
HETATM   11  C16 UNL     1      -3.664   4.794  12.749  1.00  0.00     0.002 C 
HETATM   12  C12 UNL     1      -4.924   7.145  13.337  1.00  0.00     0.007 C 
HETATM   13  C11 UNL     1      -5.494   5.949  14.141  1.00  0.00     0.002 C 
HETATM   14  C2  UNL     1      -7.059   5.939  14.311  1.00  0.00    -0.016 C 
HETATM   15  C10 UNL     1      -4.934   4.580  13.595  1.00  0.00    -0.004 C 
HETATM   16  C1  UNL     1      -7.423   4.955  15.459  1.00  0.00     0.020 C 
HETATM   17  C3  UNL     1      -7.609   7.340  14.702  1.00  0.00     0.022 C 
HETATM   18  C7  UNL     1      -7.756   5.503  13.027  1.00  0.00    -0.068 C 
HETATM   19  C4  UNL     1      -9.132   7.371  14.822  1.00  0.00     0.084 C 
HETATM   20  C5  UNL     1      -9.801   6.773  13.608  1.00  0.00     0.149 C 
HETATM   21  O1  UNL     1     -10.987   6.974  13.352  1.00  0.00    -0.293 OA
HETATM   22  C6  UNL     1      -9.009   5.886  12.719  1.00  0.00     0.053 C 
HETATM   23  C8  UNL     1      -6.987   4.624  12.074  1.00  0.00     0.035 C 
HETATM   24  C9  UNL     1      -5.966   3.754  12.794  1.00  0.00     0.010 C 
HETATM   25  C17 UNL     1      -2.793   3.562  12.491  1.00  0.00     0.009 C 
HETATM   26  C18 UNL     1      -1.381   4.111  12.213  1.00  0.00     0.047 C 
BRANCH   7  27
HETATM   27  O2  UNL     1      -1.801   6.153  11.061  1.00  0.00    -0.381 OA
HETATM   28  H27 UNL     1      -1.038   5.933  10.489  1.00  0.00     0.211 HD
ENDBRANCH   7  27
ENDBRANCH   5   7
ENDBRANCH   4   5
ENDBRANCH   3   4
ENDBRANCH   1   3
BRANCH   1  29
HETATM   29  C23 UNL     1       2.009   8.235   8.893  1.00  0.00     0.120 C 
BRANCH  29  30
HETATM   30  C24 UNL     1       2.326   6.942   8.152  1.00  0.00     0.112 C 
BRANCH  30  31
HETATM   31  C25 UNL     1       3.308   6.066   8.895  1.00  0.00     0.217 C 
HETATM   32  O6  UNL     1       3.460   4.873   8.669  1.00  0.00    -0.274 OA
HETATM   33  N1  UNL     1       4.018   6.771   9.845  1.00  0.00    -0.361 N 
HETATM   34  H34 UNL     1       3.663   7.680  10.115  1.00  0.00     0.162 HD
BRANCH  33  35
HETATM   35  C26 UNL     1       4.929   6.110  10.756  1.00  0.00     0.122 C 
BRANCH  35  36
HETATM   36  C27 UNL     1       6.078   7.027  11.170  1.00  0.00     0.020 C 
BRANCH  36  37
HETATM   37  C28 UNL     1       6.283   7.148  12.686  1.00  0.00     0.002 C 
BRANCH  37  38
HETATM   38  C29 UNL     1       5.788   8.459  13.316  1.00  0.00     0.009 C 
BRANCH  38  39
HETATM   39  C30 UNL     1       5.616   8.396  14.835  1.00  0.00     0.103 C 
BRANCH  39  40
HETATM   40  C31 UNL     1       6.848   8.877  15.582  1.00  0.00     0.217 C 
HETATM   41  O7  UNL     1       7.827   8.173  15.798  1.00  0.00    -0.274 OA
HETATM   42  N2  UNL     1       6.742  10.174  16.033  1.00  0.00    -0.361 N 
HETATM   43  H45 UNL     1       6.019  10.765  15.643  1.00  0.00     0.162 HD
BRANCH  42  44
HETATM   44  C32 UNL     1       7.853  10.829  16.702  1.00  0.00     0.127 C 
BRANCH  44  45
HETATM   45  C33 UNL     1       7.811  10.688  18.229  1.00  0.00     0.058 C 
BRANCH  45  46
HETATM   46  C34 UNL     1       9.126  11.055  18.884  1.00  0.00    -0.054 A 
HETATM   47  C35 UNL     1       9.141  11.897  20.012  1.00  0.00     0.010 A 
HETATM   48  C36 UNL     1      10.346  12.226  20.636  1.00  0.00     0.040 A 
HETATM   49  C37 UNL     1      11.531  11.712  20.133  1.00  0.00     0.098 A 
HETATM   50  C38 UNL     1      11.532  10.882  19.016  1.00  0.00     0.099 A 
HETATM   51  C39 UNL     1      10.337  10.544  18.388  1.00  0.00     0.046 A 
BRANCH  49  52
HETATM   52  O8  UNL     1      12.707  12.034  20.748  1.00  0.00    -0.358 OA
HETATM   53  H52 UNL     1      13.392  11.573  20.224  1.00  0.00     0.217 HD
ENDBRANCH  49  52
BRANCH  50  54
HETATM   54  O9  UNL     1      12.740  10.415  18.573  1.00  0.00    -0.358 OA
HETATM   55  H53 UNL     1      12.585   9.889  17.769  1.00  0.00     0.217 HD
ENDBRANCH  50  54
ENDBRANCH  45  46
ENDBRANCH  44  45
ENDBRANCH  42  44
ENDBRANCH  39  40
ENDBRANCH  38  39
ENDBRANCH  37  38
ENDBRANCH  36  37
ENDBRANCH  35  36
ENDBRANCH  33  35
ENDBRANCH  30  31
ENDBRANCH  29  30
ENDBRANCH   1  29
TORSDOF 19
ENDMDL
MODEL 8
REMARK minimizedAffinity -8.33543587
REMARK CNNscore 0.240873635
REMARK CNNaffinity 6.7505908
REMARK  19 active torsions:
REMARK  status: ('A' for Active; 'I' for Inactive)
REMARK    1  A    between atoms: C19_20  and  O2_21 
REMARK    2  A    between atoms: C19_20  and  C20_22 
REMARK    3  A    between atoms: C20_22  and  C21_24 
REMARK    4  A    between atoms: C21_24  and  O4_25 
REMARK    5  A    between atoms: O4_25  and  C22_26 
REMARK    6  A    between atoms: C22_26  and  C23_28 
REMARK    7  A    between atoms: C23_28  and  C24_29 
REMARK    8  A    between atoms: C24_29  and  C25_30 
REMARK       I    between atoms: C25_30  and  N1_32 
REMARK    9  A    between atoms: N1_32  and  C26_33 
REMARK   10  A    between atoms: C26_33  and  C27_34 
REMARK   11  A    between atoms: C27_34  and  C28_35 
REMARK   12  A    between atoms: C28_35  and  C29_36 
REMARK   13  A    between atoms: C29_36  and  C30_37 
REMARK   14  A    between atoms: C30_37  and  C31_38 
REMARK       I    between atoms: C31_38  and  N2_40 
REMARK   15  A    between atoms: N2_40  and  C32_41 
REMARK   16  A    between atoms: C32_41  and  C33_42 
REMARK   17  A    between atoms: C33_42  and  C34_43 
REMARK   18  A    between atoms: C37_46  and  O8_47 
REMARK   19  A    between atoms: C38_48  and  O9_49 
ROOT
HETATM    1  C22 UNL     1       1.168  11.897  18.260  1.00  0.00     0.259 C 
HETATM    2  O5  UNL     1       1.655  12.779  17.564  1.00  0.00    -0.265 OA
ENDROOT
BRANCH   1   3
HETATM    3  O4  UNL     1       0.840  10.653  17.816  1.00  0.00    -0.314 OA
BRANCH   3   4
HETATM    4  C21 UNL     1      -0.189  10.594  16.836  1.00  0.00     0.260 C 
BRANCH   4   5
HETATM    5  C20 UNL     1       0.102  10.348  15.343  1.00  0.00     0.185 C 
HETATM    6  O3  UNL     1       0.968  11.018  14.773  1.00  0.00    -0.292 OA
BRANCH   5   7
HETATM    7  C19 UNL     1      -0.634   9.191  14.625  1.00  0.00     0.128 C 
HETATM    8  C14 UNL     1      -2.030   8.849  15.235  1.00  0.00    -0.002 C 
HETATM    9  C13 UNL     1      -3.194   9.777  14.829  1.00  0.00     0.013 C 
HETATM   10  C15 UNL     1      -1.939   8.781  16.785  1.00  0.00     0.019 C 
HETATM   11  C16 UNL     1      -2.277   7.468  14.592  1.00  0.00     0.002 C 
HETATM   12  C12 UNL     1      -4.510   9.039  14.498  1.00  0.00     0.007 C 
HETATM   13  C11 UNL     1      -4.734   7.737  15.308  1.00  0.00     0.002 C 
HETATM   14  C2  UNL     1      -6.131   7.043  15.092  1.00  0.00    -0.016 C 
HETATM   15  C10 UNL     1      -3.527   6.740  15.126  1.00  0.00    -0.004 C 
HETATM   16  C1  UNL     1      -6.363   6.032  16.250  1.00  0.00     0.020 C 
HETATM   17  C3  UNL     1      -7.299   8.070  15.123  1.00  0.00     0.022 C 
HETATM   18  C7  UNL     1      -6.187   6.309  13.757  1.00  0.00    -0.068 C 
HETATM   19  C4  UNL     1      -8.662   7.429  14.864  1.00  0.00     0.084 C 
HETATM   20  C5  UNL     1      -8.647   6.564  13.627  1.00  0.00     0.149 C 
HETATM   21  O1  UNL     1      -9.682   6.215  13.063  1.00  0.00    -0.293 OA
HETATM   22  C6  UNL     1      -7.341   6.093  13.099  1.00  0.00     0.053 C 
HETATM   23  C8  UNL     1      -4.887   5.833  13.162  1.00  0.00     0.035 C 
HETATM   24  C9  UNL     1      -3.847   5.522  14.231  1.00  0.00     0.010 C 
HETATM   25  C17 UNL     1      -0.939   6.739  14.740  1.00  0.00     0.009 C 
HETATM   26  C18 UNL     1       0.131   7.845  14.736  1.00  0.00     0.047 C 
BRANCH   7  27
HETATM   27  O2  UNL     1      -0.752   9.461  13.225  1.00  0.00    -0.381 OA
HETATM   28  H27 UNL     1       0.160   9.583  12.895  1.00  0.00     0.211 HD
ENDBRANCH   7  27
ENDBRANCH   5   7
ENDBRANCH   4   5
ENDBRANCH   3   4
ENDBRANCH   1   3
BRANCH   1  29
HETATM   29  C23 UNL     1       0.812  12.055  19.714  1.00  0.00     0.120 C 
BRANCH  29  30
HETATM   30  C24 UNL     1       0.727  10.690  20.385  1.00  0.00     0.112 C 
BRANCH  30  31
HETATM   31  C25 UNL     1       1.996  10.318  21.118  1.00  0.00     0.217 C 
HETATM   32  O6  UNL     1       2.497   9.202  21.084  1.00  0.00    -0.274 OA
HETATM   33  N1  UNL     1       2.525  11.385  21.816  1.00  0.00    -0.361 N 
HETATM   34  H34 UNL     1       1.926  12.185  21.971  1.00  0.00     0.162 HD
BRANCH  33  35
HETATM   35  C26 UNL     1       3.673  11.227  22.685  1.00  0.00     0.122 C 
BRANCH  35  36
HETATM   36  C27 UNL     1       4.772  12.236  22.355  1.00  0.00     0.020 C 
BRANCH  36  37
HETATM   37  C28 UNL     1       6.136  11.921  22.985  1.00  0.00     0.002 C 
BRANCH  37  38
HETATM   38  C29 UNL     1       7.120  13.098  23.047  1.00  0.00     0.009 C 
BRANCH  38  39
HETATM   39  C30 UNL     1       8.591  12.687  22.968  1.00  0.00     0.103 C 
BRANCH  39  40
HETATM   40  C31 UNL     1       9.016  12.302  21.562  1.00  0.00     0.217 C 
HETATM   41  O7  UNL     1       9.880  11.467  21.319  1.00  0.00    -0.274 OA
HETATM   42  N2  UNL     1       8.363  13.014  20.580  1.00  0.00    -0.361 N 
HETATM   43  H45 UNL     1       7.522  13.520  20.825  1.00  0.00     0.162 HD
BRANCH  42  44
HETATM   44  C32 UNL     1       8.585  12.727  19.172  1.00  0.00     0.127 C 
BRANCH  44  45
HETATM   45  C33 UNL     1       9.434  11.472  18.934  1.00  0.00     0.058 C 
BRANCH  45  46
HETATM   46  C34 UNL     1       8.805  10.525  17.935  1.00  0.00    -0.054 A 
HETATM   47  C35 UNL     1       9.573   9.494  17.360  1.00  0.00     0.010 A 
HETATM   48  C36 UNL     1       8.999   8.602  16.452  1.00  0.00     0.040 A 
HETATM   49  C37 UNL     1       7.659   8.741  16.122  1.00  0.00     0.098 A 
HETATM   50  C38 UNL     1       6.889   9.758  16.680  1.00  0.00     0.099 A 
HETATM   51  C39 UNL     1       7.450  10.651  17.588  1.00  0.00     0.046 A 
BRANCH  49  52
HETATM   52  O8  UNL     1       7.100   7.866  15.236  1.00  0.00    -0.358 OA
HETATM   53  H52 UNL     1       6.171   8.159  15.155  1.00  0.00     0.217 HD
ENDBRANCH  49  52
BRANCH  50  54
HETATM   54  O9  UNL     1       5.575   9.837  16.305  1.00  0.00    -0.358 OA
HETATM   55  H53 UNL     1       5.182  10.613  16.739  1.00  0.00     0.217 HD
ENDBRANCH  50  54
ENDBRANCH  45  46
ENDBRANCH  44  45
ENDBRANCH  42  44
ENDBRANCH  39  40
ENDBRANCH  38  39
ENDBRANCH  37  38
ENDBRANCH  36  37
ENDBRANCH  35  36
ENDBRANCH  33  35
ENDBRANCH  30  31
ENDBRANCH  29  30
ENDBRANCH   1  29
TORSDOF 19
ENDMDL
MODEL 9
REMARK minimizedAffinity -7.7111001
REMARK CNNscore 0.238514051
REMARK CNNaffinity 6.47301722
REMARK  19 active torsions:
REMARK  status: ('A' for Active; 'I' for Inactive)
REMARK    1  A    between atoms: C19_20  and  O2_21 
REMARK    2  A    between atoms: C19_20  and  C20_22 
REMARK    3  A    between atoms: C20_22  and  C21_24 
REMARK    4  A    between atoms: C21_24  and  O4_25 
REMARK    5  A    between atoms: O4_25  and  C22_26 
REMARK    6  A    between atoms: C22_26  and  C23_28 
REMARK    7  A    between atoms: C23_28  and  C24_29 
REMARK    8  A    between atoms: C24_29  and  C25_30 
REMARK       I    between atoms: C25_30  and  N1_32 
REMARK    9  A    between atoms: N1_32  and  C26_33 
REMARK   10  A    between atoms: C26_33  and  C27_34 
REMARK   11  A    between atoms: C27_34  and  C28_35 
REMARK   12  A    between atoms: C28_35  and  C29_36 
REMARK   13  A    between atoms: C29_36  and  C30_37 
REMARK   14  A    between atoms: C30_37  and  C31_38 
REMARK       I    between atoms: C31_38  and  N2_40 
REMARK   15  A    between atoms: N2_40  and  C32_41 
REMARK   16  A    between atoms: C32_41  and  C33_42 
REMARK   17  A    between atoms: C33_42  and  C34_43 
REMARK   18  A    between atoms: C37_46  and  O8_47 
REMARK   19  A    between atoms: C38_48  and  O9_49 
ROOT
HETATM    1  C22 UNL     1       0.260   8.505  11.762  1.00  0.00     0.259 C 
HETATM    2  O5  UNL     1       0.564   8.713  10.594  1.00  0.00    -0.265 OA
ENDROOT
BRANCH   1   3
HETATM    3  O4  UNL     1       1.073   8.743  12.827  1.00  0.00    -0.314 OA
BRANCH   3   4
HETATM    4  C21 UNL     1       0.504   9.500  13.888  1.00  0.00     0.260 C 
BRANCH   4   5
HETATM    5  C20 UNL     1       0.912   9.300  15.360  1.00  0.00     0.185 C 
HETATM    6  O3  UNL     1       0.102   8.818  16.158  1.00  0.00    -0.292 OA
BRANCH   5   7
HETATM    7  C19 UNL     1       2.371   9.615  15.774  1.00  0.00     0.128 C 
HETATM    8  C14 UNL     1       2.498  10.748  16.841  1.00  0.00    -0.002 C 
HETATM    9  C13 UNL     1       2.222  10.338  18.302  1.00  0.00     0.013 C 
HETATM   10  C15 UNL     1       1.591  11.951  16.461  1.00  0.00     0.019 C 
HETATM   11  C16 UNL     1       4.001  11.073  16.713  1.00  0.00     0.002 C 
HETATM   12  C12 UNL     1       3.219  10.928  19.326  1.00  0.00     0.007 C 
HETATM   13  C11 UNL     1       3.770  12.326  18.949  1.00  0.00     0.002 C 
HETATM   14  C2  UNL     1       4.674  13.009  20.043  1.00  0.00    -0.016 C 
HETATM   15  C10 UNL     1       4.450  12.303  17.527  1.00  0.00    -0.004 C 
HETATM   16  C1  UNL     1       4.790  14.523  19.710  1.00  0.00     0.020 C 
HETATM   17  C3  UNL     1       4.057  12.885  21.465  1.00  0.00     0.022 C 
HETATM   18  C7  UNL     1       6.066  12.388  20.080  1.00  0.00    -0.068 C 
HETATM   19  C4  UNL     1       4.941  13.494  22.552  1.00  0.00     0.084 C 
HETATM   20  C5  UNL     1       6.363  12.995  22.462  1.00  0.00     0.149 C 
HETATM   21  O1  UNL     1       7.151  13.101  23.400  1.00  0.00    -0.293 OA
HETATM   22  C6  UNL     1       6.830  12.392  21.189  1.00  0.00     0.053 C 
HETATM   23  C8  UNL     1       6.579  11.737  18.821  1.00  0.00     0.035 C 
HETATM   24  C9  UNL     1       5.993  12.372  17.567  1.00  0.00     0.010 C 
HETATM   25  C17 UNL     1       4.250  11.119  15.203  1.00  0.00     0.009 C 
HETATM   26  C18 UNL     1       3.216  10.157  14.591  1.00  0.00     0.047 C 
BRANCH   7  27
HETATM   27  O2  UNL     1       3.036   8.429  16.221  1.00  0.00    -0.381 OA
HETATM   28  H27 UNL     1       2.988   7.796  15.477  1.00  0.00     0.211 HD
ENDBRANCH   7  27
ENDBRANCH   5   7
ENDBRANCH   4   5
ENDBRANCH   3   4
ENDBRANCH   1   3
BRANCH   1  29
HETATM   29  C23 UNL     1      -1.049   7.916  12.212  1.00  0.00     0.120 C 
BRANCH  29  30
HETATM   30  C24 UNL     1      -2.049   9.025  12.516  1.00  0.00     0.112 C 
BRANCH  30  31
HETATM   31  C25 UNL     1      -3.359   8.500  13.057  1.00  0.00     0.217 C 
HETATM   32  O6  UNL     1      -4.421   8.573  12.453  1.00  0.00    -0.274 OA
HETATM   33  N1  UNL     1      -3.213   7.920  14.301  1.00  0.00    -0.361 N 
HETATM   34  H34 UNL     1      -2.360   8.114  14.810  1.00  0.00     0.162 HD
BRANCH  33  35
HETATM   35  C26 UNL     1      -4.357   7.457  15.060  1.00  0.00     0.122 C 
BRANCH  35  36
HETATM   36  C27 UNL     1      -5.188   8.622  15.592  1.00  0.00     0.020 C 
BRANCH  36  37
HETATM   37  C28 UNL     1      -6.684   8.544  15.258  1.00  0.00     0.002 C 
BRANCH  37  38
HETATM   38  C29 UNL     1      -7.473   7.467  16.016  1.00  0.00     0.009 C 
BRANCH  38  39
HETATM   39  C30 UNL     1      -8.976   7.475  15.729  1.00  0.00     0.103 C 
BRANCH  39  40
HETATM   40  C31 UNL     1      -9.338   6.676  14.489  1.00  0.00     0.217 C 
HETATM   41  O7  UNL     1     -10.420   6.762  13.920  1.00  0.00    -0.274 OA
HETATM   42  N2  UNL     1      -8.345   5.810  14.088  1.00  0.00    -0.361 N 
HETATM   43  H45 UNL     1      -7.411   5.939  14.455  1.00  0.00     0.162 HD
BRANCH  42  44
HETATM   44  C32 UNL     1      -8.484   5.020  12.876  1.00  0.00     0.127 C 
BRANCH  44  45
HETATM   45  C33 UNL     1      -7.995   3.574  13.035  1.00  0.00     0.058 C 
BRANCH  45  46
HETATM   46  C34 UNL     1      -6.608   3.362  12.469  1.00  0.00    -0.054 A 
HETATM   47  C35 UNL     1      -6.316   2.198  11.733  1.00  0.00     0.010 A 
HETATM   48  C36 UNL     1      -5.046   2.001  11.188  1.00  0.00     0.040 A 
HETATM   49  C37 UNL     1      -4.070   2.968  11.380  1.00  0.00     0.098 A 
HETATM   50  C38 UNL     1      -4.343   4.122  12.108  1.00  0.00     0.099 A 
HETATM   51  C39 UNL     1      -5.607   4.330  12.653  1.00  0.00     0.046 A 
BRANCH  49  52
HETATM   52  O8  UNL     1      -2.830   2.774  10.844  1.00  0.00    -0.358 OA
HETATM   53  H52 UNL     1      -2.321   3.565  11.110  1.00  0.00     0.217 HD
ENDBRANCH  49  52
BRANCH  50  54
HETATM   54  O9  UNL     1      -3.331   5.031  12.261  1.00  0.00    -0.358 OA
HETATM   55  H53 UNL     1      -3.656   5.755  12.822  1.00  0.00     0.217 HD
ENDBRANCH  50  54
ENDBRANCH  45  46
ENDBRANCH  44  45
ENDBRANCH  42  44
ENDBRANCH  39  40
ENDBRANCH  38  39
ENDBRANCH  37  38
ENDBRANCH  36  37
ENDBRANCH  35  36
ENDBRANCH  33  35
ENDBRANCH  30  31
ENDBRANCH  29  30
ENDBRANCH   1  29
TORSDOF 19
ENDMDL
