MODEL 1
REMARK minimizedAffinity -9.97597027
REMARK  5 active torsions:
REMARK  status: ('A' for Active; 'I' for Inactive)
REMARK    1  A    between atoms: C2_2  and  C4_4 
REMARK    2  A    between atoms: C7_7  and  C8_8 
REMARK    3  A    between atoms: C8_8  and  O2_10 
REMARK    4  A    between atoms: C11_13  and  C12_14 
REMARK    5  A    between atoms: C12_14  and  O4_16 
ROOT
HETATM    1  C4  UNL     1      -5.529  47.908 -25.650  1.00  0.00     0.019 C 
HETATM    2  C5  UNL     1      -7.024  47.652 -25.985  1.00  0.00     0.011 C 
HETATM    3  C6  UNL     1      -7.847  48.376 -24.905  1.00  0.00     0.021 C 
HETATM    4  C7  UNL     1      -6.882  48.492 -23.720  1.00  0.00     0.050 C 
HETATM    5  C9  UNL     1      -7.223  49.579 -22.695  1.00  0.00     0.022 C 
HETATM    6  C10 UNL     1      -6.048  49.804 -21.717  1.00  0.00     0.023 C 
HETATM    7  C11 UNL     1      -4.685  50.168 -22.418  1.00  0.00     0.057 C 
HETATM    8  C13 UNL     1      -4.391  49.043 -23.489  1.00  0.00     0.011 C 
HETATM    9  C14 UNL     1      -3.026  49.171 -24.174  1.00  0.00     0.007 C 
HETATM   10  C15 UNL     1      -1.874  49.357 -23.187  1.00  0.00     0.006 C 
HETATM   11  C16 UNL     1      -2.114  50.503 -22.180  1.00  0.00     0.003 C 
HETATM   12  C17 UNL     1      -0.824  50.918 -21.331  1.00  0.00    -0.035 C 
HETATM   13  C18 UNL     1      -0.242  49.725 -20.538  1.00  0.00     0.016 C 
HETATM   14  C19 UNL     1       0.280  51.423 -22.313  1.00  0.00     0.017 C 
HETATM   15  C20 UNL     1       1.473  52.088 -21.640  1.00  0.00     0.080 C 
HETATM   16  C21 UNL     1       1.050  53.191 -20.703  1.00  0.00     0.135 C 
HETATM   17  O5  UNL     1       1.652  54.268 -20.717  1.00  0.00    -0.297 OA
HETATM   18  C22 UNL     1      -0.059  52.880 -19.684  1.00  0.00     0.017 C 
HETATM   19  C23 UNL     1       0.558  52.105 -18.511  1.00  0.00     0.023 C 
HETATM   20  C24 UNL     1      -0.567  54.231 -19.119  1.00  0.00     0.023 C 
HETATM   21  C25 UNL     1      -1.227  52.144 -20.429  1.00  0.00     0.009 C 
HETATM   22  C26 UNL     1      -2.432  51.800 -19.533  1.00  0.00     0.007 C 
HETATM   23  C27 UNL     1      -3.660  51.454 -20.379  1.00  0.00     0.011 C 
HETATM   24  C28 UNL     1      -3.454  50.274 -21.371  1.00  0.00    -0.022 C 
HETATM   25  C29 UNL     1      -3.392  48.980 -20.510  1.00  0.00     0.017 C 
HETATM   26  C30 UNL     1      -5.585  48.897 -24.463  1.00  0.00     0.018 C 
ENDROOT
BRANCH   4  27
HETATM   27  C8  UNL     1      -6.848  47.125 -23.018  1.00  0.00     0.149 C 
HETATM   28  O1  UNL     1      -7.746  46.305 -22.938  1.00  0.00    -0.649 OA
BRANCH  27  29
HETATM   29  O2  UNL     1      -5.663  46.867 -22.428  1.00  0.00    -0.776 OA
HETATM   30  H11 UNL     1      -5.788  45.987 -22.016  1.00  0.00     0.167 HD
ENDBRANCH  27  29
ENDBRANCH   4  27
BRANCH   1  31
HETATM   31  C2  UNL     1      -4.743  48.348 -26.875  1.00  0.00    -0.088 C 
HETATM   32  C1  UNL     1      -3.611  49.061 -26.745  1.00  0.00     0.014 C 
HETATM   33  C3  UNL     1      -5.241  47.952 -28.240  1.00  0.00     0.043 C 
ENDBRANCH   1  31
BRANCH   7  34
HETATM   34  C12 UNL     1      -4.944  51.560 -23.058  1.00  0.00     0.149 C 
HETATM   35  O3  UNL     1      -4.627  52.640 -22.582  1.00  0.00    -0.649 OA
BRANCH  34  36
HETATM   36  O4  UNL     1      -5.550  51.550 -24.253  1.00  0.00    -0.776 OA
HETATM   37  H16 UNL     1      -5.607  52.499 -24.497  1.00  0.00     0.167 HD
ENDBRANCH  34  36
ENDBRANCH   7  34
TORSDOF 5
ENDMDL
MODEL 2
REMARK minimizedAffinity -9.72103786
REMARK  5 active torsions:
REMARK  status: ('A' for Active; 'I' for Inactive)
REMARK    1  A    between atoms: C2_2  and  C4_4 
REMARK    2  A    between atoms: C7_7  and  C8_8 
REMARK    3  A    between atoms: C8_8  and  O2_10 
REMARK    4  A    between atoms: C11_13  and  C12_14 
REMARK    5  A    between atoms: C12_14  and  O4_16 
ROOT
HETATM    1  C4  UNL     1       0.275  52.503 -23.201  1.00  0.00     0.019 C 
HETATM    2  C5  UNL     1       0.764  53.554 -24.236  1.00  0.00     0.011 C 
HETATM    3  C6  UNL     1      -0.332  53.655 -25.312  1.00  0.00     0.021 C 
HETATM    4  C7  UNL     1      -1.073  52.317 -25.213  1.00  0.00     0.050 C 
HETATM    5  C9  UNL     1      -2.493  52.305 -25.789  1.00  0.00     0.022 C 
HETATM    6  C10 UNL     1      -3.244  51.017 -25.380  1.00  0.00     0.023 C 
HETATM    7  C11 UNL     1      -3.317  50.779 -23.824  1.00  0.00     0.057 C 
HETATM    8  C13 UNL     1      -1.839  50.835 -23.268  1.00  0.00     0.011 C 
HETATM    9  C14 UNL     1      -1.715  50.487 -21.781  1.00  0.00     0.007 C 
HETATM   10  C15 UNL     1      -2.435  49.192 -21.406  1.00  0.00     0.006 C 
HETATM   11  C16 UNL     1      -3.905  49.153 -21.878  1.00  0.00     0.003 C 
HETATM   12  C17 UNL     1      -4.766  47.957 -21.258  1.00  0.00    -0.035 C 
HETATM   13  C18 UNL     1      -4.149  46.574 -21.566  1.00  0.00     0.016 C 
HETATM   14  C19 UNL     1      -4.809  48.125 -19.706  1.00  0.00     0.017 C 
HETATM   15  C20 UNL     1      -5.798  47.211 -18.995  1.00  0.00     0.080 C 
HETATM   16  C21 UNL     1      -7.184  47.315 -19.580  1.00  0.00     0.135 C 
HETATM   17  O5  UNL     1      -8.159  47.395 -18.828  1.00  0.00    -0.297 OA
HETATM   18  C22 UNL     1      -7.327  47.206 -21.107  1.00  0.00     0.017 C 
HETATM   19  C23 UNL     1      -7.260  45.724 -21.501  1.00  0.00     0.023 C 
HETATM   20  C24 UNL     1      -8.744  47.712 -21.481  1.00  0.00     0.023 C 
HETATM   21  C25 UNL     1      -6.244  48.123 -21.775  1.00  0.00     0.009 C 
HETATM   22  C26 UNL     1      -6.293  48.142 -23.315  1.00  0.00     0.007 C 
HETATM   23  C27 UNL     1      -5.496  49.325 -23.872  1.00  0.00     0.011 C 
HETATM   24  C28 UNL     1      -4.002  49.362 -23.443  1.00  0.00    -0.022 C 
HETATM   25  C29 UNL     1      -3.292  48.216 -24.222  1.00  0.00     0.017 C 
HETATM   26  C30 UNL     1      -1.158  52.165 -23.674  1.00  0.00     0.018 C 
ENDROOT
BRANCH   4  27
HETATM   27  C8  UNL     1      -0.221  51.264 -25.940  1.00  0.00     0.149 C 
HETATM   28  O1  UNL     1       0.994  51.175 -25.963  1.00  0.00    -0.649 OA
BRANCH  27  29
HETATM   29  O2  UNL     1      -0.963  50.372 -26.627  1.00  0.00    -0.776 OA
HETATM   30  H11 UNL     1      -0.301  49.781 -27.043  1.00  0.00     0.167 HD
ENDBRANCH  27  29
ENDBRANCH   4  27
BRANCH   1  31
HETATM   31  C2  UNL     1       0.427  53.003 -21.774  1.00  0.00    -0.088 C 
HETATM   32  C1  UNL     1      -0.307  52.475 -20.779  1.00  0.00     0.014 C 
HETATM   33  C3  UNL     1       1.433  54.087 -21.486  1.00  0.00     0.043 C 
ENDBRANCH   1  31
BRANCH   7  34
HETATM   34  C12 UNL     1      -4.206  51.942 -23.301  1.00  0.00     0.149 C 
HETATM   35  O3  UNL     1      -4.025  52.579 -22.274  1.00  0.00    -0.649 OA
BRANCH  34  36
HETATM   36  O4  UNL     1      -5.247  52.275 -24.076  1.00  0.00    -0.776 OA
HETATM   37  H16 UNL     1      -5.666  53.024 -23.600  1.00  0.00     0.167 HD
ENDBRANCH  34  36
ENDBRANCH   7  34
TORSDOF 5
ENDMDL
MODEL 3
REMARK minimizedAffinity -8.85762119
REMARK  5 active torsions:
REMARK  status: ('A' for Active; 'I' for Inactive)
REMARK    1  A    between atoms: C2_2  and  C4_4 
REMARK    2  A    between atoms: C7_7  and  C8_8 
REMARK    3  A    between atoms: C8_8  and  O2_10 
REMARK    4  A    between atoms: C11_13  and  C12_14 
REMARK    5  A    between atoms: C12_14  and  O4_16 
ROOT
HETATM    1  C4  UNL     1      -3.205  48.554 -16.816  1.00  0.00     0.019 C 
HETATM    2  C5  UNL     1      -3.767  47.304 -16.085  1.00  0.00     0.011 C 
HETATM    3  C6  UNL     1      -4.137  46.284 -17.176  1.00  0.00     0.021 C 
HETATM    4  C7  UNL     1      -4.348  47.143 -18.428  1.00  0.00     0.050 C 
HETATM    5  C9  UNL     1      -4.238  46.401 -19.764  1.00  0.00     0.022 C 
HETATM    6  C10 UNL     1      -4.175  47.396 -20.945  1.00  0.00     0.023 C 
HETATM    7  C11 UNL     1      -3.006  48.447 -20.842  1.00  0.00     0.057 C 
HETATM    8  C13 UNL     1      -3.137  49.162 -19.439  1.00  0.00     0.011 C 
HETATM    9  C14 UNL     1      -2.152  50.316 -19.229  1.00  0.00     0.007 C 
HETATM   10  C15 UNL     1      -2.132  51.308 -20.393  1.00  0.00     0.006 C 
HETATM   11  C16 UNL     1      -1.929  50.631 -21.766  1.00  0.00     0.003 C 
HETATM   12  C17 UNL     1      -1.612  51.643 -22.962  1.00  0.00    -0.035 C 
HETATM   13  C18 UNL     1      -2.721  52.706 -23.134  1.00  0.00     0.016 C 
HETATM   14  C19 UNL     1      -0.279  52.391 -22.642  1.00  0.00     0.017 C 
HETATM   15  C20 UNL     1       0.287  53.203 -23.799  1.00  0.00     0.080 C 
HETATM   16  C21 UNL     1       0.428  52.377 -25.053  1.00  0.00     0.135 C 
HETATM   17  O5  UNL     1       1.460  52.457 -25.723  1.00  0.00    -0.297 OA
HETATM   18  C22 UNL     1      -0.783  51.542 -25.501  1.00  0.00     0.017 C 
HETATM   19  C23 UNL     1      -1.780  52.469 -26.211  1.00  0.00     0.023 C 
HETATM   20  C24 UNL     1      -0.283  50.521 -26.555  1.00  0.00     0.023 C 
HETATM   21  C25 UNL     1      -1.352  50.781 -24.254  1.00  0.00     0.009 C 
HETATM   22  C26 UNL     1      -2.556  49.870 -24.563  1.00  0.00     0.007 C 
HETATM   23  C27 UNL     1      -2.801  48.883 -23.417  1.00  0.00     0.011 C 
HETATM   24  C28 UNL     1      -3.049  49.545 -22.032  1.00  0.00    -0.022 C 
HETATM   25  C29 UNL     1      -4.467  50.185 -22.097  1.00  0.00     0.017 C 
HETATM   26  C30 UNL     1      -3.151  48.116 -18.298  1.00  0.00     0.018 C 
ENDROOT
BRANCH   4  27
HETATM   27  C8  UNL     1      -5.742  47.784 -18.317  1.00  0.00     0.149 C 
HETATM   28  O1  UNL     1      -6.382  48.331 -19.198  1.00  0.00    -0.649 OA
BRANCH  27  29
HETATM   29  O2  UNL     1      -6.255  47.713 -17.073  1.00  0.00    -0.776 OA
HETATM   30  H11 UNL     1      -7.122  48.164 -17.146  1.00  0.00     0.167 HD
ENDBRANCH  27  29
ENDBRANCH   4  27
BRANCH   1  31
HETATM   31  C2  UNL     1      -1.905  49.035 -16.193  1.00  0.00    -0.088 C 
HETATM   32  C1  UNL     1      -0.903  48.174 -15.942  1.00  0.00     0.014 C 
HETATM   33  C3  UNL     1      -1.746  50.500 -15.882  1.00  0.00     0.043 C 
ENDBRANCH   1  31
BRANCH   7  34
HETATM   34  C12 UNL     1      -1.713  47.595 -20.970  1.00  0.00     0.149 C 
HETATM   35  O3  UNL     1      -0.677  47.762 -20.343  1.00  0.00    -0.649 OA
BRANCH  34  36
HETATM   36  O4  UNL     1      -1.770  46.573 -21.834  1.00  0.00    -0.776 OA
HETATM   37  H16 UNL     1      -0.887  46.152 -21.761  1.00  0.00     0.167 HD
ENDBRANCH  34  36
ENDBRANCH   7  34
TORSDOF 5
ENDMDL
MODEL 4
REMARK minimizedAffinity -8.82547092
REMARK  5 active torsions:
REMARK  status: ('A' for Active; 'I' for Inactive)
REMARK    1  A    between atoms: C2_2  and  C4_4 
REMARK    2  A    between atoms: C7_7  and  C8_8 
REMARK    3  A    between atoms: C8_8  and  O2_10 
REMARK    4  A    between atoms: C11_13  and  C12_14 
REMARK    5  A    between atoms: C12_14  and  O4_16 
ROOT
HETATM    1  C4  UNL     1      -7.013  47.447 -23.198  1.00  0.00     0.019 C 
HETATM    2  C5  UNL     1      -7.982  47.226 -22.005  1.00  0.00     0.011 C 
HETATM    3  C6  UNL     1      -7.551  48.207 -20.900  1.00  0.00     0.021 C 
HETATM    4  C7  UNL     1      -6.081  48.501 -21.219  1.00  0.00     0.050 C 
HETATM    5  C9  UNL     1      -5.522  49.794 -20.617  1.00  0.00     0.022 C 
HETATM    6  C10 UNL     1      -4.146  50.139 -21.231  1.00  0.00     0.023 C 
HETATM    7  C11 UNL     1      -4.152  50.262 -22.802  1.00  0.00     0.057 C 
HETATM    8  C13 UNL     1      -4.768  48.925 -23.377  1.00  0.00     0.011 C 
HETATM    9  C14 UNL     1      -4.724  48.822 -24.905  1.00  0.00     0.007 C 
HETATM   10  C15 UNL     1      -3.345  49.132 -25.489  1.00  0.00     0.006 C 
HETATM   11  C16 UNL     1      -2.761  50.473 -24.993  1.00  0.00     0.003 C 
HETATM   12  C17 UNL     1      -1.470  50.968 -25.795  1.00  0.00    -0.035 C 
HETATM   13  C18 UNL     1      -0.327  49.929 -25.757  1.00  0.00     0.016 C 
HETATM   14  C19 UNL     1      -1.865  51.188 -27.290  1.00  0.00     0.017 C 
HETATM   15  C20 UNL     1      -0.810  51.899 -28.127  1.00  0.00     0.080 C 
HETATM   16  C21 UNL     1      -0.369  53.196 -27.497  1.00  0.00     0.135 C 
HETATM   17  O5  UNL     1      -0.253  54.205 -28.196  1.00  0.00    -0.297 OA
HETATM   18  C22 UNL     1       0.026  53.173 -26.011  1.00  0.00     0.017 C 
HETATM   19  C23 UNL     1       1.452  52.616 -25.892  1.00  0.00     0.023 C 
HETATM   20  C24 UNL     1       0.069  54.641 -25.516  1.00  0.00     0.023 C 
HETATM   21  C25 UNL     1      -1.068  52.377 -25.218  1.00  0.00     0.009 C 
HETATM   22  C26 UNL     1      -0.820  52.302 -23.699  1.00  0.00     0.007 C 
HETATM   23  C27 UNL     1      -2.090  51.870 -22.960  1.00  0.00     0.011 C 
HETATM   24  C28 UNL     1      -2.672  50.502 -23.414  1.00  0.00    -0.022 C 
HETATM   25  C29 UNL     1      -1.704  49.410 -22.872  1.00  0.00     0.017 C 
HETATM   26  C30 UNL     1      -6.161  48.660 -22.757  1.00  0.00     0.018 C 
ENDROOT
BRANCH   4  27
HETATM   27  C8  UNL     1      -5.253  47.307 -20.715  1.00  0.00     0.149 C 
HETATM   28  O1  UNL     1      -5.335  46.745 -19.637  1.00  0.00    -0.649 OA
BRANCH  27  29
HETATM   29  O2  UNL     1      -4.335  46.890 -21.610  1.00  0.00    -0.776 OA
HETATM   30  H11 UNL     1      -3.881  46.149 -21.159  1.00  0.00     0.167 HD
ENDBRANCH  27  29
ENDBRANCH   4  27
BRANCH   1  31
HETATM   31  C2  UNL     1      -7.759  47.575 -24.516  1.00  0.00    -0.088 C 
HETATM   32  C1  UNL     1      -7.749  46.572 -25.412  1.00  0.00     0.014 C 
HETATM   33  C3  UNL     1      -8.532  48.837 -24.795  1.00  0.00     0.043 C 
ENDBRANCH   1  31
BRANCH   7  34
HETATM   34  C12 UNL     1      -5.037  51.507 -23.084  1.00  0.00     0.149 C 
HETATM   35  O3  UNL     1      -4.954  52.591 -22.524  1.00  0.00    -0.649 OA
BRANCH  34  36
HETATM   36  O4  UNL     1      -5.954  51.365 -24.051  1.00  0.00    -0.776 OA
HETATM   37  H16 UNL     1      -6.390  52.243 -24.094  1.00  0.00     0.167 HD
ENDBRANCH  34  36
ENDBRANCH   7  34
TORSDOF 5
ENDMDL
MODEL 5
REMARK minimizedAffinity -8.47693539
REMARK  5 active torsions:
REMARK  status: ('A' for Active; 'I' for Inactive)
REMARK    1  A    between atoms: C2_2  and  C4_4 
REMARK    2  A    between atoms: C7_7  and  C8_8 
REMARK    3  A    between atoms: C8_8  and  O2_10 
REMARK    4  A    between atoms: C11_13  and  C12_14 
REMARK    5  A    between atoms: C12_14  and  O4_16 
ROOT
HETATM    1  C4  UNL     1      -4.389  47.985 -20.248  1.00  0.00     0.019 C 
HETATM    2  C5  UNL     1      -5.747  47.317 -19.897  1.00  0.00     0.011 C 
HETATM    3  C6  UNL     1      -6.712  47.649 -21.048  1.00  0.00     0.021 C 
HETATM    4  C7  UNL     1      -6.121  48.918 -21.673  1.00  0.00     0.050 C 
HETATM    5  C9  UNL     1      -6.556  49.208 -23.113  1.00  0.00     0.022 C 
HETATM    6  C10 UNL     1      -5.688  50.325 -23.737  1.00  0.00     0.023 C 
HETATM    7  C11 UNL     1      -4.141  50.030 -23.716  1.00  0.00     0.057 C 
HETATM    8  C13 UNL     1      -3.744  49.702 -22.221  1.00  0.00     0.011 C 
HETATM    9  C14 UNL     1      -2.239  49.521 -21.998  1.00  0.00     0.007 C 
HETATM   10  C15 UNL     1      -1.403  50.655 -22.592  1.00  0.00     0.006 C 
HETATM   11  C16 UNL     1      -1.727  50.938 -24.075  1.00  0.00     0.003 C 
HETATM   12  C17 UNL     1      -0.685  51.904 -24.806  1.00  0.00    -0.035 C 
HETATM   13  C18 UNL     1      -0.560  53.271 -24.095  1.00  0.00     0.016 C 
HETATM   14  C19 UNL     1       0.722  51.226 -24.787  1.00  0.00     0.017 C 
HETATM   15  C20 UNL     1       1.766  51.906 -25.663  1.00  0.00     0.080 C 
HETATM   16  C21 UNL     1       1.282  52.088 -27.080  1.00  0.00     0.135 C 
HETATM   17  O5  UNL     1       2.034  51.818 -28.020  1.00  0.00    -0.297 OA
HETATM   18  C22 UNL     1      -0.107  52.712 -27.288  1.00  0.00     0.017 C 
HETATM   19  C23 UNL     1       0.010  54.234 -27.120  1.00  0.00     0.023 C 
HETATM   20  C24 UNL     1      -0.524  52.448 -28.757  1.00  0.00     0.023 C 
HETATM   21  C25 UNL     1      -1.118  52.011 -26.316  1.00  0.00     0.009 C 
HETATM   22  C26 UNL     1      -2.570  52.515 -26.440  1.00  0.00     0.007 C 
HETATM   23  C27 UNL     1      -3.544  51.542 -25.770  1.00  0.00     0.011 C 
HETATM   24  C28 UNL     1      -3.262  51.274 -24.264  1.00  0.00    -0.022 C 
HETATM   25  C29 UNL     1      -3.665  52.571 -23.503  1.00  0.00     0.017 C 
HETATM   26  C30 UNL     1      -4.617  48.548 -21.670  1.00  0.00     0.018 C 
ENDROOT
BRANCH   4  27
HETATM   27  C8  UNL     1      -6.517  50.101 -20.775  1.00  0.00     0.149 C 
HETATM   28  O1  UNL     1      -7.485  50.188 -20.039  1.00  0.00    -0.649 OA
BRANCH  27  29
HETATM   29  O2  UNL     1      -5.663  51.140 -20.868  1.00  0.00    -0.776 OA
HETATM   30  H11 UNL     1      -6.039  51.814 -20.265  1.00  0.00     0.167 HD
ENDBRANCH  27  29
ENDBRANCH   4  27
BRANCH   1  31
HETATM   31  C2  UNL     1      -3.224  47.026 -20.068  1.00  0.00    -0.088 C 
HETATM   32  C1  UNL     1      -2.611  46.480 -21.133  1.00  0.00     0.014 C 
HETATM   33  C3  UNL     1      -2.750  46.712 -18.673  1.00  0.00     0.043 C 
ENDBRANCH   1  31
BRANCH   7  34
HETATM   34  C12 UNL     1      -3.971  48.815 -24.668  1.00  0.00     0.149 C 
HETATM   35  O3  UNL     1      -4.830  48.354 -25.407  1.00  0.00    -0.649 OA
BRANCH  34  36
HETATM   36  O4  UNL     1      -2.756  48.249 -24.683  1.00  0.00    -0.776 OA
HETATM   37  H16 UNL     1      -2.838  47.529 -25.344  1.00  0.00     0.167 HD
ENDBRANCH  34  36
ENDBRANCH   7  34
TORSDOF 5
ENDMDL
MODEL 6
REMARK minimizedAffinity -8.42750359
REMARK  5 active torsions:
REMARK  status: ('A' for Active; 'I' for Inactive)
REMARK    1  A    between atoms: C2_2  and  C4_4 
REMARK    2  A    between atoms: C7_7  and  C8_8 
REMARK    3  A    between atoms: C8_8  and  O2_10 
REMARK    4  A    between atoms: C11_13  and  C12_14 
REMARK    5  A    between atoms: C12_14  and  O4_16 
ROOT
HETATM    1  C4  UNL     1      -1.106  52.247 -22.192  1.00  0.00     0.019 C 
HETATM    2  C5  UNL     1       0.266  52.698 -21.620  1.00  0.00     0.011 C 
HETATM    3  C6  UNL     1       0.663  51.659 -20.557  1.00  0.00     0.021 C 
HETATM    4  C7  UNL     1      -0.671  51.034 -20.134  1.00  0.00     0.050 C 
HETATM    5  C9  UNL     1      -0.573  49.655 -19.473  1.00  0.00     0.022 C 
HETATM    6  C10 UNL     1      -1.968  48.998 -19.356  1.00  0.00     0.023 C 
HETATM    7  C11 UNL     1      -2.733  48.860 -20.727  1.00  0.00     0.057 C 
HETATM    8  C13 UNL     1      -2.778  50.294 -21.388  1.00  0.00     0.011 C 
HETATM    9  C14 UNL     1      -3.610  50.365 -22.673  1.00  0.00     0.007 C 
HETATM   10  C15 UNL     1      -4.998  49.742 -22.525  1.00  0.00     0.006 C 
HETATM   11  C16 UNL     1      -4.965  48.310 -21.949  1.00  0.00     0.003 C 
HETATM   12  C17 UNL     1      -6.353  47.523 -22.053  1.00  0.00    -0.035 C 
HETATM   13  C18 UNL     1      -7.502  48.276 -21.344  1.00  0.00     0.016 C 
HETATM   14  C19 UNL     1      -6.734  47.379 -23.560  1.00  0.00     0.017 C 
HETATM   15  C20 UNL     1      -7.898  46.437 -23.833  1.00  0.00     0.080 C 
HETATM   16  C21 UNL     1      -7.686  45.081 -23.207  1.00  0.00     0.135 C 
HETATM   17  O5  UNL     1      -7.933  44.063 -23.858  1.00  0.00    -0.297 OA
HETATM   18  C22 UNL     1      -7.270  45.033 -21.727  1.00  0.00     0.017 C 
HETATM   19  C23 UNL     1      -8.518  45.252 -20.860  1.00  0.00     0.023 C 
HETATM   20  C24 UNL     1      -6.757  43.600 -21.432  1.00  0.00     0.023 C 
HETATM   21  C25 UNL     1      -6.112  46.067 -21.503  1.00  0.00     0.009 C 
HETATM   22  C26 UNL     1      -5.566  46.103 -20.062  1.00  0.00     0.007 C 
HETATM   23  C27 UNL     1      -4.215  46.823 -20.009  1.00  0.00     0.011 C 
HETATM   24  C28 UNL     1      -4.235  48.282 -20.546  1.00  0.00    -0.022 C 
HETATM   25  C29 UNL     1      -4.993  49.131 -19.485  1.00  0.00     0.017 C 
HETATM   26  C30 UNL     1      -1.351  50.878 -21.516  1.00  0.00     0.018 C 
ENDROOT
BRANCH   4  27
HETATM   27  C8  UNL     1      -1.352  52.014 -19.164  1.00  0.00     0.149 C 
HETATM   28  O1  UNL     1      -2.531  52.062 -18.859  1.00  0.00    -0.649 OA
BRANCH  27  29
HETATM   29  O2  UNL     1      -0.495  52.910 -18.635  1.00  0.00    -0.776 OA
HETATM   30  H11 UNL     1      -1.058  53.468 -18.059  1.00  0.00     0.167 HD
ENDBRANCH  27  29
ENDBRANCH   4  27
BRANCH   1  31
HETATM   31  C2  UNL     1      -1.121  52.275 -23.712  1.00  0.00    -0.088 C 
HETATM   32  C1  UNL     1      -0.099  51.761 -24.419  1.00  0.00     0.014 C 
HETATM   33  C3  UNL     1      -2.312  52.869 -24.416  1.00  0.00     0.043 C 
ENDBRANCH   1  31
BRANCH   7  34
HETATM   34  C12 UNL     1      -1.881  47.845 -21.539  1.00  0.00     0.149 C 
HETATM   35  O3  UNL     1      -0.990  47.135 -21.094  1.00  0.00    -0.649 OA
BRANCH  34  36
HETATM   36  O4  UNL     1      -2.183  47.737 -22.840  1.00  0.00    -0.776 OA
HETATM   37  H16 UNL     1      -1.566  47.051 -23.170  1.00  0.00     0.167 HD
ENDBRANCH  34  36
ENDBRANCH   7  34
TORSDOF 5
ENDMDL
MODEL 7
REMARK minimizedAffinity -8.41565323
REMARK  5 active torsions:
REMARK  status: ('A' for Active; 'I' for Inactive)
REMARK    1  A    between atoms: C2_2  and  C4_4 
REMARK    2  A    between atoms: C7_7  and  C8_8 
REMARK    3  A    between atoms: C8_8  and  O2_10 
REMARK    4  A    between atoms: C11_13  and  C12_14 
REMARK    5  A    between atoms: C12_14  and  O4_16 
ROOT
HETATM    1  C4  UNL     1      -1.230  51.519 -21.034  1.00  0.00     0.019 C 
HETATM    2  C5  UNL     1      -0.143  51.612 -19.927  1.00  0.00     0.011 C 
HETATM    3  C6  UNL     1      -0.376  50.423 -18.980  1.00  0.00     0.021 C 
HETATM    4  C7  UNL     1      -1.852  50.065 -19.191  1.00  0.00     0.050 C 
HETATM    5  C9  UNL     1      -2.252  48.645 -18.777  1.00  0.00     0.022 C 
HETATM    6  C10 UNL     1      -3.666  48.297 -19.297  1.00  0.00     0.023 C 
HETATM    7  C11 UNL     1      -3.837  48.447 -20.856  1.00  0.00     0.057 C 
HETATM    8  C13 UNL     1      -3.380  49.911 -21.241  1.00  0.00     0.011 C 
HETATM    9  C14 UNL     1      -3.610  50.271 -22.712  1.00  0.00     0.007 C 
HETATM   10  C15 UNL     1      -5.025  49.952 -23.195  1.00  0.00     0.006 C 
HETATM   11  C16 UNL     1      -5.459  48.501 -22.892  1.00  0.00     0.003 C 
HETATM   12  C17 UNL     1      -6.801  48.045 -23.631  1.00  0.00    -0.035 C 
HETATM   13  C18 UNL     1      -7.996  48.962 -23.286  1.00  0.00     0.016 C 
HETATM   14  C19 UNL     1      -6.572  48.119 -25.173  1.00  0.00     0.017 C 
HETATM   15  C20 UNL     1      -7.670  47.478 -26.011  1.00  0.00     0.080 C 
HETATM   16  C21 UNL     1      -7.950  46.059 -25.582  1.00  0.00     0.135 C 
HETATM   17  O5  UNL     1      -8.082  45.179 -26.437  1.00  0.00    -0.297 OA
HETATM   18  C22 UNL     1      -8.168  45.792 -24.084  1.00  0.00     0.017 C 
HETATM   19  C23 UNL     1      -9.603  46.198 -23.718  1.00  0.00     0.023 C 
HETATM   20  C24 UNL     1      -8.058  44.262 -23.860  1.00  0.00     0.023 C 
HETATM   21  C25 UNL     1      -7.041  46.529 -23.279  1.00  0.00     0.009 C 
HETATM   22  C26 UNL     1      -7.113  46.319 -21.754  1.00  0.00     0.007 C 
HETATM   23  C27 UNL     1      -5.796  46.723 -21.085  1.00  0.00     0.011 C 
HETATM   24  C28 UNL     1      -5.360  48.193 -21.343  1.00  0.00    -0.022 C 
HETATM   25  C29 UNL     1      -6.326  49.090 -20.515  1.00  0.00     0.017 C 
HETATM   26  C30 UNL     1      -1.943  50.181 -20.732  1.00  0.00     0.018 C 
ENDROOT
BRANCH   4  27
HETATM   27  C8  UNL     1      -2.690  51.081 -18.396  1.00  0.00     0.149 C 
HETATM   28  O1  UNL     1      -2.707  51.251 -17.189  1.00  0.00    -0.649 OA
BRANCH  27  29
HETATM   29  O2  UNL     1      -3.491  51.829 -19.181  1.00  0.00    -0.776 OA
HETATM   30  H11 UNL     1      -3.967  52.410 -18.552  1.00  0.00     0.167 HD
ENDBRANCH  27  29
ENDBRANCH   4  27
BRANCH   1  31
HETATM   31  C2  UNL     1      -0.636  51.683 -22.423  1.00  0.00    -0.088 C 
HETATM   32  C1  UNL     1       0.176  52.717 -22.706  1.00  0.00     0.014 C 
HETATM   33  C3  UNL     1      -0.955  50.655 -23.476  1.00  0.00     0.043 C 
ENDBRANCH   1  31
BRANCH   7  34
HETATM   34  C12 UNL     1      -2.913  47.348 -21.449  1.00  0.00     0.149 C 
HETATM   35  O3  UNL     1      -2.131  47.490 -22.378  1.00  0.00    -0.649 OA
BRANCH  34  36
HETATM   36  O4  UNL     1      -2.977  46.148 -20.856  1.00  0.00    -0.776 OA
HETATM   37  H16 UNL     1      -2.323  45.607 -21.346  1.00  0.00     0.167 HD
ENDBRANCH  34  36
ENDBRANCH   7  34
TORSDOF 5
ENDMDL
MODEL 8
REMARK minimizedAffinity -8.38790226
REMARK  5 active torsions:
REMARK  status: ('A' for Active; 'I' for Inactive)
REMARK    1  A    between atoms: C2_2  and  C4_4 
REMARK    2  A    between atoms: C7_7  and  C8_8 
REMARK    3  A    between atoms: C8_8  and  O2_10 
REMARK    4  A    between atoms: C11_13  and  C12_14 
REMARK    5  A    between atoms: C12_14  and  O4_16 
ROOT
HETATM    1  C4  UNL     1      -7.194  46.977 -20.252  1.00  0.00     0.019 C 
HETATM    2  C5  UNL     1      -7.489  46.654 -18.761  1.00  0.00     0.011 C 
HETATM    3  C6  UNL     1      -6.330  47.250 -17.944  1.00  0.00     0.021 C 
HETATM    4  C7  UNL     1      -5.178  47.344 -18.950  1.00  0.00     0.050 C 
HETATM    5  C9  UNL     1      -4.066  48.335 -18.589  1.00  0.00     0.022 C 
HETATM    6  C10 UNL     1      -3.119  48.564 -19.790  1.00  0.00     0.023 C 
HETATM    7  C11 UNL     1      -3.845  49.058 -21.098  1.00  0.00     0.057 C 
HETATM    8  C13 UNL     1      -5.003  48.029 -21.412  1.00  0.00     0.011 C 
HETATM    9  C14 UNL     1      -5.728  48.288 -22.737  1.00  0.00     0.007 C 
HETATM   10  C15 UNL     1      -4.775  48.476 -23.917  1.00  0.00     0.006 C 
HETATM   11  C16 UNL     1      -3.681  49.533 -23.653  1.00  0.00     0.003 C 
HETATM   12  C17 UNL     1      -2.854  49.967 -24.951  1.00  0.00    -0.035 C 
HETATM   13  C18 UNL     1      -2.170  48.761 -25.635  1.00  0.00     0.016 C 
HETATM   14  C19 UNL     1      -3.839  50.604 -25.981  1.00  0.00     0.017 C 
HETATM   15  C20 UNL     1      -3.167  51.293 -27.160  1.00  0.00     0.080 C 
HETATM   16  C21 UNL     1      -2.138  52.302 -26.713  1.00  0.00     0.135 C 
HETATM   17  O5  UNL     1      -2.099  53.412 -27.250  1.00  0.00    -0.297 OA
HETATM   18  C22 UNL     1      -1.103  51.855 -25.668  1.00  0.00     0.017 C 
HETATM   19  C23 UNL     1      -0.012  51.040 -26.378  1.00  0.00     0.023 C 
HETATM   20  C24 UNL     1      -0.424  53.130 -25.107  1.00  0.00     0.023 C 
HETATM   21  C25 UNL     1      -1.853  51.102 -24.516  1.00  0.00     0.009 C 
HETATM   22  C26 UNL     1      -0.938  50.623 -23.371  1.00  0.00     0.007 C 
HETATM   23  C27 UNL     1      -1.759  50.261 -22.131  1.00  0.00     0.011 C 
HETATM   24  C28 UNL     1      -2.840  49.168 -22.364  1.00  0.00    -0.022 C 
HETATM   25  C29 UNL     1      -2.075  47.823 -22.537  1.00  0.00     0.017 C 
HETATM   26  C30 UNL     1      -5.939  47.877 -20.188  1.00  0.00     0.018 C 
ENDROOT
BRANCH   4  27
HETATM   27  C8  UNL     1      -4.576  45.936 -19.093  1.00  0.00     0.149 C 
HETATM   28  O1  UNL     1      -4.352  45.323 -20.122  1.00  0.00    -0.649 OA
BRANCH  27  29
HETATM   29  O2  UNL     1      -4.299  45.360 -17.906  1.00  0.00    -0.776 OA
HETATM   30  H11 UNL     1      -3.942  44.480 -18.146  1.00  0.00     0.167 HD
ENDBRANCH  27  29
ENDBRANCH   4  27
BRANCH   1  31
HETATM   31  C2  UNL     1      -8.413  47.547 -20.958  1.00  0.00    -0.088 C 
HETATM   32  C1  UNL     1      -9.335  48.253 -20.278  1.00  0.00     0.014 C 
HETATM   33  C3  UNL     1      -8.563  47.329 -22.441  1.00  0.00     0.043 C 
ENDBRANCH   1  31
BRANCH   7  34
HETATM   34  C12 UNL     1      -4.374  50.472 -20.732  1.00  0.00     0.149 C 
HETATM   35  O3  UNL     1      -3.828  51.273 -19.986  1.00  0.00    -0.649 OA
BRANCH  34  36
HETATM   36  O4  UNL     1      -5.523  50.836 -21.316  1.00  0.00    -0.776 OA
HETATM   37  H16 UNL     1      -5.680  51.745 -20.984  1.00  0.00     0.167 HD
ENDBRANCH  34  36
ENDBRANCH   7  34
TORSDOF 5
ENDMDL
MODEL 9
REMARK minimizedAffinity -8.05632591
REMARK  5 active torsions:
REMARK  status: ('A' for Active; 'I' for Inactive)
REMARK    1  A    between atoms: C2_2  and  C4_4 
REMARK    2  A    between atoms: C7_7  and  C8_8 
REMARK    3  A    between atoms: C8_8  and  O2_10 
REMARK    4  A    between atoms: C11_13  and  C12_14 
REMARK    5  A    between atoms: C12_14  and  O4_16 
ROOT
HETATM    1  C4  UNL     1      -1.176  51.152 -23.266  1.00  0.00     0.019 C 
HETATM    2  C5  UNL     1      -1.391  52.208 -24.385  1.00  0.00     0.011 C 
HETATM    3  C6  UNL     1      -2.912  52.349 -24.570  1.00  0.00     0.021 C 
HETATM    4  C7  UNL     1      -3.474  51.026 -24.040  1.00  0.00     0.050 C 
HETATM    5  C9  UNL     1      -4.951  51.053 -23.632  1.00  0.00     0.022 C 
HETATM    6  C10 UNL     1      -5.331  49.775 -22.849  1.00  0.00     0.023 C 
HETATM    7  C11 UNL     1      -4.448  49.514 -21.571  1.00  0.00     0.057 C 
HETATM    8  C13 UNL     1      -2.936  49.531 -22.031  1.00  0.00     0.011 C 
HETATM    9  C14 UNL     1      -1.942  49.157 -20.926  1.00  0.00     0.007 C 
HETATM   10  C15 UNL     1      -2.317  47.871 -20.189  1.00  0.00     0.006 C 
HETATM   11  C16 UNL     1      -3.771  47.870 -19.668  1.00  0.00     0.003 C 
HETATM   12  C17 UNL     1      -4.108  46.684 -18.651  1.00  0.00    -0.035 C 
HETATM   13  C18 UNL     1      -3.843  45.293 -19.271  1.00  0.00     0.016 C 
HETATM   14  C19 UNL     1      -3.193  46.829 -17.394  1.00  0.00     0.017 C 
HETATM   15  C20 UNL     1      -3.568  45.925 -16.228  1.00  0.00     0.080 C 
HETATM   16  C21 UNL     1      -5.020  46.067 -15.847  1.00  0.00     0.135 C 
HETATM   17  O5  UNL     1      -5.333  46.156 -14.658  1.00  0.00    -0.297 OA
HETATM   18  C22 UNL     1      -6.067  45.985 -16.971  1.00  0.00     0.017 C 
HETATM   19  C23 UNL     1      -6.292  44.508 -17.324  1.00  0.00     0.023 C 
HETATM   20  C24 UNL     1      -7.404  46.526 -16.405  1.00  0.00     0.023 C 
HETATM   21  C25 UNL     1      -5.590  46.889 -18.161  1.00  0.00     0.009 C 
HETATM   22  C26 UNL     1      -6.566  46.933 -19.353  1.00  0.00     0.007 C 
HETATM   23  C27 UNL     1      -6.242  48.108 -20.281  1.00  0.00     0.011 C 
HETATM   24  C28 UNL     1      -4.796  48.106 -20.851  1.00  0.00    -0.022 C 
HETATM   25  C29 UNL     1      -4.737  46.958 -21.900  1.00  0.00     0.017 C 
HETATM   26  C30 UNL     1      -2.608  50.851 -22.768  1.00  0.00     0.018 C 
ENDROOT
BRANCH   4  27
HETATM   27  C8  UNL     1      -3.269  49.966 -25.135  1.00  0.00     0.149 C 
HETATM   28  O1  UNL     1      -2.734  48.877 -25.027  1.00  0.00    -0.649 OA
BRANCH  27  29
HETATM   29  O2  UNL     1      -3.744  50.353 -26.336  1.00  0.00    -0.776 OA
HETATM   30  H11 UNL     1      -3.537  49.602 -26.929  1.00  0.00     0.167 HD
ENDBRANCH  27  29
ENDBRANCH   4  27
BRANCH   1  31
HETATM   31  C2  UNL     1      -0.173  51.626 -22.227  1.00  0.00    -0.088 C 
HETATM   32  C1  UNL     1       0.082  50.891 -21.130  1.00  0.00     0.014 C 
HETATM   33  C3  UNL     1       0.552  52.927 -22.456  1.00  0.00     0.043 C 
ENDBRANCH   1  31
BRANCH   7  34
HETATM   34  C12 UNL     1      -4.804  50.687 -20.616  1.00  0.00     0.149 C 
HETATM   35  O3  UNL     1      -4.019  51.299 -19.906  1.00  0.00    -0.649 OA
BRANCH  34  36
HETATM   36  O4  UNL     1      -6.090  51.061 -20.603  1.00  0.00    -0.776 OA
HETATM   37  H16 UNL     1      -6.113  51.810 -19.970  1.00  0.00     0.167 HD
ENDBRANCH  34  36
ENDBRANCH   7  34
TORSDOF 5
ENDMDL
