MODEL 1
REMARK minimizedAffinity -7.64016581
REMARK CNNscore 0.316910237
REMARK CNNaffinity 6.41704321
REMARK  6 active torsions:
REMARK  status: ('A' for Active; 'I' for Inactive)
REMARK    1  A    between atoms: C2_2  and  O2_4 
REMARK    2  A    between atoms: O2_4  and  C3_5 
REMARK    3  A    between atoms: C13_15  and  C14_16 
REMARK    4  A    between atoms: C14_16  and  C16_18 
REMARK    5  A    between atoms: C17_19  and  C18_20 
REMARK    6  A    between atoms: C18_20  and  C20_22 
ROOT
HETATM    1  C3  UNL     1     -10.067  47.668 -18.464  1.00  0.00     0.135 C 
HETATM    2  C4  UNL     1      -9.252  48.735 -17.728  1.00  0.00     0.034 C 
HETATM    3  C5  UNL     1      -8.201  49.396 -18.625  1.00  0.00     0.015 C 
HETATM    4  C6  UNL     1      -7.239  48.372 -19.280  1.00  0.00     0.001 C 
HETATM    5  C7  UNL     1      -6.358  47.734 -18.176  1.00  0.00     0.019 C 
HETATM    6  C8  UNL     1      -6.355  49.093 -20.366  1.00  0.00     0.039 C 
HETATM    7  C9  UNL     1      -4.979  49.623 -19.948  1.00  0.00     0.010 C 
HETATM    8  C10 UNL     1      -4.328  50.480 -21.062  1.00  0.00     0.010 C 
HETATM    9  C11 UNL     1      -4.674  50.037 -22.511  1.00  0.00    -0.033 C 
HETATM   10  C12 UNL     1      -5.790  50.932 -23.101  1.00  0.00     0.016 C 
HETATM   11  C13 UNL     1      -3.446  49.979 -23.481  1.00  0.00     0.001 C 
HETATM   12  C23 UNL     1      -3.897  48.956 -24.565  1.00  0.00     0.006 C 
HETATM   13  C24 UNL     1      -4.999  48.088 -23.938  1.00  0.00     0.009 C 
HETATM   14  C25 UNL     1      -5.043  48.536 -22.483  1.00  0.00     0.036 C 
HETATM   15  C26 UNL     1      -6.258  48.159 -21.619  1.00  0.00     0.123 C 
HETATM   16  C27 UNL     1      -7.637  48.165 -22.236  1.00  0.00     0.014 C 
HETATM   17  C28 UNL     1      -8.600  47.767 -21.387  1.00  0.00     0.014 C 
HETATM   18  C29 UNL     1      -8.075  47.276 -20.045  1.00  0.00     0.124 C 
HETATM   19  C30 UNL     1      -9.171  46.645 -19.172  1.00  0.00     0.079 C 
HETATM   20  O3  UNL     1      -7.159  46.222 -20.430  1.00  0.00    -0.223 OA
HETATM   21  O4  UNL     1      -5.983  46.808 -21.140  1.00  0.00    -0.224 OA
ENDROOT
BRANCH  11  22
HETATM   22  C14 UNL     1      -2.905  51.300 -24.091  1.00  0.00     0.008 C 
HETATM   23  C15 UNL     1      -2.795  52.432 -23.062  1.00  0.00     0.014 C 
BRANCH  22  24
HETATM   24  C16 UNL     1      -1.589  51.050 -24.814  1.00  0.00    -0.026 C 
HETATM   25  C17 UNL     1      -1.368  51.116 -26.138  1.00  0.00    -0.026 C 
BRANCH  25  26
HETATM   26  C18 UNL     1      -0.026  50.835 -26.784  1.00  0.00     0.007 C 
HETATM   27  C19 UNL     1       1.060  50.995 -25.716  1.00  0.00     0.014 C 
BRANCH  26  28
HETATM   28  C20 UNL     1       0.206  51.756 -28.017  1.00  0.00    -0.015 C 
HETATM   29  C21 UNL     1       1.700  52.012 -28.260  1.00  0.00     0.010 C 
HETATM   30  C22 UNL     1      -0.508  53.105 -27.877  1.00  0.00     0.010 C 
ENDBRANCH  26  28
ENDBRANCH  25  26
ENDBRANCH  22  24
ENDBRANCH  11  22
BRANCH   1  31
HETATM   31  O2  UNL     1     -10.918  48.351 -19.407  1.00  0.00    -0.316 OA
BRANCH  31  32
HETATM   32  C2  UNL     1     -12.195  47.889 -19.511  1.00  0.00     0.255 C 
HETATM   33  C1  UNL     1     -12.683  47.426 -18.173  1.00  0.00     0.126 C 
HETATM   34  O1  UNL     1     -12.850  47.836 -20.541  1.00  0.00    -0.266 OA
ENDBRANCH  31  32
ENDBRANCH   1  31
TORSDOF 6
ENDMDL
MODEL 2
REMARK minimizedAffinity -6.65694046
REMARK CNNscore 0.276441693
REMARK CNNaffinity 5.71763611
REMARK  6 active torsions:
REMARK  status: ('A' for Active; 'I' for Inactive)
REMARK    1  A    between atoms: C2_2  and  O2_4 
REMARK    2  A    between atoms: O2_4  and  C3_5 
REMARK    3  A    between atoms: C13_15  and  C14_16 
REMARK    4  A    between atoms: C14_16  and  C16_18 
REMARK    5  A    between atoms: C17_19  and  C18_20 
REMARK    6  A    between atoms: C18_20  and  C20_22 
ROOT
HETATM    1  C3  UNL     1     -18.925  45.866 -21.984  1.00  0.00     0.135 C 
HETATM    2  C4  UNL     1     -18.610  44.373 -21.845  1.00  0.00     0.034 C 
HETATM    3  C5  UNL     1     -17.466  43.927 -22.761  1.00  0.00     0.015 C 
HETATM    4  C6  UNL     1     -17.721  44.264 -24.252  1.00  0.00     0.001 C 
HETATM    5  C7  UNL     1     -18.898  43.397 -24.768  1.00  0.00     0.019 C 
HETATM    6  C8  UNL     1     -16.413  44.001 -25.088  1.00  0.00     0.039 C 
HETATM    7  C9  UNL     1     -16.246  42.635 -25.766  1.00  0.00     0.010 C 
HETATM    8  C10 UNL     1     -14.830  42.460 -26.368  1.00  0.00     0.010 C 
HETATM    9  C11 UNL     1     -14.181  43.769 -26.901  1.00  0.00    -0.033 C 
HETATM   10  C12 UNL     1     -13.179  44.337 -25.869  1.00  0.00     0.016 C 
HETATM   11  C13 UNL     1     -13.505  43.631 -28.306  1.00  0.00     0.001 C 
HETATM   12  C23 UNL     1     -13.533  45.086 -28.859  1.00  0.00     0.006 C 
HETATM   13  C24 UNL     1     -14.646  45.834 -28.109  1.00  0.00     0.009 C 
HETATM   14  C25 UNL     1     -15.314  44.757 -27.263  1.00  0.00     0.036 C 
HETATM   15  C26 UNL     1     -16.236  45.176 -26.106  1.00  0.00     0.123 C 
HETATM   16  C27 UNL     1     -15.876  46.383 -25.271  1.00  0.00     0.014 C 
HETATM   17  C28 UNL     1     -16.790  46.670 -24.329  1.00  0.00     0.014 C 
HETATM   18  C29 UNL     1     -18.039  45.801 -24.399  1.00  0.00     0.124 C 
HETATM   19  C30 UNL     1     -19.147  46.275 -23.445  1.00  0.00     0.079 C 
HETATM   20  O3  UNL     1     -18.503  46.021 -25.753  1.00  0.00    -0.223 OA
HETATM   21  O4  UNL     1     -17.535  45.424 -26.722  1.00  0.00    -0.224 OA
ENDROOT
BRANCH  11  22
HETATM   22  C14 UNL     1     -12.099  42.980 -28.404  1.00  0.00     0.008 C 
HETATM   23  C15 UNL     1     -12.097  41.685 -29.226  1.00  0.00     0.014 C 
BRANCH  22  24
HETATM   24  C16 UNL     1     -11.082  43.989 -28.917  1.00  0.00    -0.026 C 
HETATM   25  C17 UNL     1     -10.259  44.755 -28.181  1.00  0.00    -0.026 C 
BRANCH  25  26
HETATM   26  C18 UNL     1      -9.282  45.753 -28.769  1.00  0.00     0.007 C 
HETATM   27  C19 UNL     1      -9.634  45.947 -30.248  1.00  0.00     0.014 C 
BRANCH  26  28
HETATM   28  C20 UNL     1      -7.813  45.289 -28.560  1.00  0.00    -0.015 C 
HETATM   29  C21 UNL     1      -6.845  46.479 -28.498  1.00  0.00     0.010 C 
HETATM   30  C22 UNL     1      -7.343  44.330 -29.660  1.00  0.00     0.010 C 
ENDBRANCH  26  28
ENDBRANCH  25  26
ENDBRANCH  22  24
ENDBRANCH  11  22
BRANCH   1  31
HETATM   31  O2  UNL     1     -17.824  46.594 -21.404  1.00  0.00    -0.316 OA
BRANCH  31  32
HETATM   32  C2  UNL     1     -17.843  46.738 -20.050  1.00  0.00     0.255 C 
HETATM   33  C1  UNL     1     -19.052  47.519 -19.635  1.00  0.00     0.126 C 
HETATM   34  O1  UNL     1     -16.996  46.317 -19.277  1.00  0.00    -0.266 OA
ENDBRANCH  31  32
ENDBRANCH   1  31
TORSDOF 6
ENDMDL
MODEL 3
REMARK minimizedAffinity -7.61125135
REMARK CNNscore 0.225433409
REMARK CNNaffinity 6.16448927
REMARK  6 active torsions:
REMARK  status: ('A' for Active; 'I' for Inactive)
REMARK    1  A    between atoms: C2_2  and  O2_4 
REMARK    2  A    between atoms: O2_4  and  C3_5 
REMARK    3  A    between atoms: C13_15  and  C14_16 
REMARK    4  A    between atoms: C14_16  and  C16_18 
REMARK    5  A    between atoms: C17_19  and  C18_20 
REMARK    6  A    between atoms: C18_20  and  C20_22 
ROOT
HETATM    1  C3  UNL     1     -10.491  47.502 -18.605  1.00  0.00     0.135 C 
HETATM    2  C4  UNL     1      -9.566  48.317 -17.696  1.00  0.00     0.034 C 
HETATM    3  C5  UNL     1      -8.399  48.949 -18.459  1.00  0.00     0.015 C 
HETATM    4  C6  UNL     1      -7.563  47.912 -19.250  1.00  0.00     0.001 C 
HETATM    5  C7  UNL     1      -6.823  46.993 -18.244  1.00  0.00     0.019 C 
HETATM    6  C8  UNL     1      -6.544  48.656 -20.193  1.00  0.00     0.039 C 
HETATM    7  C9  UNL     1      -5.126  48.913 -19.672  1.00  0.00     0.010 C 
HETATM    8  C10 UNL     1      -4.319  49.828 -20.626  1.00  0.00     0.010 C 
HETATM    9  C11 UNL     1      -4.665  49.667 -22.133  1.00  0.00    -0.033 C 
HETATM   10  C12 UNL     1      -5.621  50.791 -22.594  1.00  0.00     0.016 C 
HETATM   11  C13 UNL     1      -3.419  49.582 -23.077  1.00  0.00     0.001 C 
HETATM   12  C23 UNL     1      -3.964  48.813 -24.316  1.00  0.00     0.006 C 
HETATM   13  C24 UNL     1      -5.199  48.026 -23.854  1.00  0.00     0.009 C 
HETATM   14  C25 UNL     1      -5.239  48.248 -22.347  1.00  0.00     0.036 C 
HETATM   15  C26 UNL     1      -6.528  47.920 -21.575  1.00  0.00     0.123 C 
HETATM   16  C27 UNL     1      -7.867  48.218 -22.208  1.00  0.00     0.014 C 
HETATM   17  C28 UNL     1      -8.910  47.837 -21.450  1.00  0.00     0.014 C 
HETATM   18  C29 UNL     1      -8.511  47.076 -20.192  1.00  0.00     0.124 C 
HETATM   19  C30 UNL     1      -9.718  46.482 -19.449  1.00  0.00     0.079 C 
HETATM   20  O3  UNL     1      -7.736  45.974 -20.721  1.00  0.00    -0.223 OA
HETATM   21  O4  UNL     1      -6.462  46.487 -21.310  1.00  0.00    -0.224 OA
ENDROOT
BRANCH  11  22
HETATM   22  C14 UNL     1      -2.676  50.890 -23.462  1.00  0.00     0.008 C 
HETATM   23  C15 UNL     1      -3.607  51.950 -24.065  1.00  0.00     0.014 C 
BRANCH  22  24
HETATM   24  C16 UNL     1      -1.890  51.423 -22.273  1.00  0.00    -0.026 C 
HETATM   25  C17 UNL     1      -0.717  50.964 -21.806  1.00  0.00    -0.026 C 
BRANCH  25  26
HETATM   26  C18 UNL     1      -0.004  51.541 -20.601  1.00  0.00     0.007 C 
HETATM   27  C19 UNL     1      -1.065  52.021 -19.605  1.00  0.00     0.014 C 
BRANCH  26  28
HETATM   28  C20 UNL     1       0.979  52.672 -21.019  1.00  0.00    -0.015 C 
HETATM   29  C21 UNL     1       0.710  53.972 -20.248  1.00  0.00     0.010 C 
HETATM   30  C22 UNL     1       0.917  52.970 -22.522  1.00  0.00     0.010 C 
ENDBRANCH  26  28
ENDBRANCH  25  26
ENDBRANCH  22  24
ENDBRANCH  11  22
BRANCH   1  31
HETATM   31  O2  UNL     1     -11.201  48.436 -19.444  1.00  0.00    -0.316 OA
BRANCH  31  32
HETATM   32  C2  UNL     1     -12.544  48.243 -19.559  1.00  0.00     0.255 C 
HETATM   33  C1  UNL     1     -13.073  47.575 -18.327  1.00  0.00     0.126 C 
HETATM   34  O1  UNL     1     -13.226  48.547 -20.526  1.00  0.00    -0.266 OA
ENDBRANCH  31  32
ENDBRANCH   1  31
TORSDOF 6
ENDMDL
MODEL 4
REMARK minimizedAffinity -6.86860132
REMARK CNNscore 0.221854731
REMARK CNNaffinity 6.16930151
REMARK  6 active torsions:
REMARK  status: ('A' for Active; 'I' for Inactive)
REMARK    1  A    between atoms: C2_2  and  O2_4 
REMARK    2  A    between atoms: O2_4  and  C3_5 
REMARK    3  A    between atoms: C13_15  and  C14_16 
REMARK    4  A    between atoms: C14_16  and  C16_18 
REMARK    5  A    between atoms: C17_19  and  C18_20 
REMARK    6  A    between atoms: C18_20  and  C20_22 
ROOT
HETATM    1  C3  UNL     1      -0.250  51.937 -20.409  1.00  0.00     0.135 C 
HETATM    2  C4  UNL     1       0.357  50.547 -20.623  1.00  0.00     0.034 C 
HETATM    3  C5  UNL     1      -0.692  49.501 -21.013  1.00  0.00     0.015 C 
HETATM    4  C6  UNL     1      -1.856  49.405 -19.993  1.00  0.00     0.001 C 
HETATM    5  C7  UNL     1      -1.310  48.827 -18.663  1.00  0.00     0.019 C 
HETATM    6  C8  UNL     1      -3.003  48.499 -20.578  1.00  0.00     0.039 C 
HETATM    7  C9  UNL     1      -3.004  47.007 -20.222  1.00  0.00     0.010 C 
HETATM    8  C10 UNL     1      -4.063  46.221 -21.034  1.00  0.00     0.010 C 
HETATM    9  C11 UNL     1      -5.349  47.024 -21.377  1.00  0.00    -0.033 C 
HETATM   10  C12 UNL     1      -5.288  47.554 -22.829  1.00  0.00     0.016 C 
HETATM   11  C13 UNL     1      -6.684  46.242 -21.133  1.00  0.00     0.001 C 
HETATM   12  C23 UNL     1      -7.727  47.378 -20.919  1.00  0.00     0.006 C 
HETATM   13  C24 UNL     1      -6.950  48.631 -20.486  1.00  0.00     0.009 C 
HETATM   14  C25 UNL     1      -5.517  48.142 -20.323  1.00  0.00     0.036 C 
HETATM   15  C26 UNL     1      -4.377  49.172 -20.249  1.00  0.00     0.123 C 
HETATM   16  C27 UNL     1      -4.438  50.409 -21.114  1.00  0.00     0.014 C 
HETATM   17  C28 UNL     1      -3.409  51.249 -20.914  1.00  0.00     0.014 C 
HETATM   18  C29 UNL     1      -2.487  50.834 -19.776  1.00  0.00     0.124 C 
HETATM   19  C30 UNL     1      -1.437  51.905 -19.439  1.00  0.00     0.079 C 
HETATM   20  O3  UNL     1      -3.394  50.740 -18.651  1.00  0.00    -0.223 OA
HETATM   21  O4  UNL     1      -4.335  49.598 -18.854  1.00  0.00    -0.224 OA
ENDROOT
BRANCH  11  22
HETATM   22  C14 UNL     1      -7.145  45.194 -22.180  1.00  0.00     0.008 C 
HETATM   23  C15 UNL     1      -7.709  43.919 -21.541  1.00  0.00     0.014 C 
BRANCH  22  24
HETATM   24  C16 UNL     1      -8.119  45.823 -23.166  1.00  0.00    -0.026 C 
HETATM   25  C17 UNL     1      -8.012  45.849 -24.506  1.00  0.00    -0.026 C 
BRANCH  25  26
HETATM   26  C18 UNL     1      -9.021  46.513 -25.421  1.00  0.00     0.007 C 
HETATM   27  C19 UNL     1      -9.296  45.566 -26.593  1.00  0.00     0.014 C 
BRANCH  26  28
HETATM   28  C20 UNL     1      -8.521  47.911 -25.884  1.00  0.00    -0.015 C 
HETATM   29  C21 UNL     1      -8.585  48.942 -24.749  1.00  0.00     0.010 C 
HETATM   30  C22 UNL     1      -9.319  48.447 -27.079  1.00  0.00     0.010 C 
ENDBRANCH  26  28
ENDBRANCH  25  26
ENDBRANCH  22  24
ENDBRANCH  11  22
BRANCH   1  31
HETATM   31  O2  UNL     1      -0.650  52.435 -21.701  1.00  0.00    -0.316 OA
BRANCH  31  32
HETATM   32  C2  UNL     1       0.344  52.920 -22.495  1.00  0.00     0.255 C 
HETATM   33  C1  UNL     1       0.231  52.340 -23.871  1.00  0.00     0.126 C 
HETATM   34  O1  UNL     1       1.219  53.698 -22.145  1.00  0.00    -0.266 OA
ENDBRANCH  31  32
ENDBRANCH   1  31
TORSDOF 6
ENDMDL
MODEL 5
REMARK minimizedAffinity -8.50946903
REMARK CNNscore 0.220753729
REMARK CNNaffinity 6.21196556
REMARK  6 active torsions:
REMARK  status: ('A' for Active; 'I' for Inactive)
REMARK    1  A    between atoms: C2_2  and  O2_4 
REMARK    2  A    between atoms: O2_4  and  C3_5 
REMARK    3  A    between atoms: C13_15  and  C14_16 
REMARK    4  A    between atoms: C14_16  and  C16_18 
REMARK    5  A    between atoms: C17_19  and  C18_20 
REMARK    6  A    between atoms: C18_20  and  C20_22 
ROOT
HETATM    1  C3  UNL     1      -7.859  46.561 -21.782  1.00  0.00     0.135 C 
HETATM    2  C4  UNL     1      -8.283  47.983 -22.162  1.00  0.00     0.034 C 
HETATM    3  C5  UNL     1      -7.086  48.909 -22.402  1.00  0.00     0.015 C 
HETATM    4  C6  UNL     1      -6.114  48.964 -21.196  1.00  0.00     0.001 C 
HETATM    5  C7  UNL     1      -6.826  49.666 -20.011  1.00  0.00     0.019 C 
HETATM    6  C8  UNL     1      -4.801  49.731 -21.605  1.00  0.00     0.039 C 
HETATM    7  C9  UNL     1      -4.719  51.235 -21.319  1.00  0.00     0.010 C 
HETATM    8  C10 UNL     1      -3.464  51.876 -21.961  1.00  0.00     0.010 C 
HETATM    9  C11 UNL     1      -2.221  50.945 -22.034  1.00  0.00    -0.033 C 
HETATM   10  C12 UNL     1      -2.079  50.338 -23.449  1.00  0.00     0.016 C 
HETATM   11  C13 UNL     1      -0.881  51.621 -21.589  1.00  0.00     0.001 C 
HETATM   12  C23 UNL     1      -0.005  50.414 -21.143  1.00  0.00     0.006 C 
HETATM   13  C24 UNL     1      -0.962  49.261 -20.802  1.00  0.00     0.009 C 
HETATM   14  C25 UNL     1      -2.348  49.881 -20.920  1.00  0.00     0.036 C 
HETATM   15  C26 UNL     1      -3.577  48.961 -21.006  1.00  0.00     0.123 C 
HETATM   16  C27 UNL     1      -3.485  47.674 -21.792  1.00  0.00     0.014 C 
HETATM   17  C28 UNL     1      -4.610  46.940 -21.744  1.00  0.00     0.014 C 
HETATM   18  C29 UNL     1      -5.671  47.501 -20.808  1.00  0.00     0.124 C 
HETATM   19  C30 UNL     1      -6.861  46.547 -20.618  1.00  0.00     0.079 C 
HETATM   20  O3  UNL     1      -4.969  47.582 -19.544  1.00  0.00    -0.223 OA
HETATM   21  O4  UNL     1      -3.902  48.624 -19.624  1.00  0.00    -0.224 OA
ENDROOT
BRANCH  11  22
HETATM   22  C14 UNL     1      -0.145  52.561 -22.581  1.00  0.00     0.008 C 
HETATM   23  C15 UNL     1       0.918  53.433 -21.902  1.00  0.00     0.014 C 
BRANCH  22  24
HETATM   24  C16 UNL     1       0.423  51.763 -23.746  1.00  0.00    -0.026 C 
HETATM   25  C17 UNL     1       0.266  52.018 -25.056  1.00  0.00    -0.026 C 
BRANCH  25  26
HETATM   26  C18 UNL     1       0.853  51.161 -26.159  1.00  0.00     0.007 C 
HETATM   27  C19 UNL     1       2.358  51.438 -26.227  1.00  0.00     0.014 C 
BRANCH  26  28
HETATM   28  C20 UNL     1       0.134  51.422 -27.514  1.00  0.00    -0.015 C 
HETATM   29  C21 UNL     1       1.113  51.910 -28.590  1.00  0.00     0.010 C 
HETATM   30  C22 UNL     1      -1.001  52.444 -27.383  1.00  0.00     0.010 C 
ENDBRANCH  26  28
ENDBRANCH  25  26
ENDBRANCH  22  24
ENDBRANCH  11  22
BRANCH   1  31
HETATM   31  O2  UNL     1      -7.290  45.954 -22.960  1.00  0.00    -0.316 OA
BRANCH  31  32
HETATM   32  C2  UNL     1      -8.113  45.141 -23.677  1.00  0.00     0.255 C 
HETATM   33  C1  UNL     1      -7.742  43.708 -23.452  1.00  0.00     0.126 C 
HETATM   34  O1  UNL     1      -9.013  45.512 -24.416  1.00  0.00    -0.266 OA
ENDBRANCH  31  32
ENDBRANCH   1  31
TORSDOF 6
ENDMDL
MODEL 6
REMARK minimizedAffinity -8.83311367
REMARK CNNscore 0.207853988
REMARK CNNaffinity 6.50133562
REMARK  6 active torsions:
REMARK  status: ('A' for Active; 'I' for Inactive)
REMARK    1  A    between atoms: C2_2  and  O2_4 
REMARK    2  A    between atoms: O2_4  and  C3_5 
REMARK    3  A    between atoms: C13_15  and  C14_16 
REMARK    4  A    between atoms: C14_16  and  C16_18 
REMARK    5  A    between atoms: C17_19  and  C18_20 
REMARK    6  A    between atoms: C18_20  and  C20_22 
ROOT
HETATM    1  C3  UNL     1      -1.323  50.414 -12.083  1.00  0.00     0.135 C 
HETATM    2  C4  UNL     1      -0.468  51.665 -12.310  1.00  0.00     0.034 C 
HETATM    3  C5  UNL     1      -0.368  52.049 -13.789  1.00  0.00     0.015 C 
HETATM    4  C6  UNL     1       0.160  50.895 -14.678  1.00  0.00     0.001 C 
HETATM    5  C7  UNL     1       1.644  50.626 -14.319  1.00  0.00     0.019 C 
HETATM    6  C8  UNL     1       0.004  51.279 -16.197  1.00  0.00     0.039 C 
HETATM    7  C9  UNL     1       1.195  51.932 -16.908  1.00  0.00     0.010 C 
HETATM    8  C10 UNL     1       0.817  52.433 -18.324  1.00  0.00     0.010 C 
HETATM    9  C11 UNL     1      -0.256  51.577 -19.054  1.00  0.00    -0.033 C 
HETATM   10  C12 UNL     1      -1.649  52.240 -18.940  1.00  0.00     0.016 C 
HETATM   11  C13 UNL     1       0.079  51.257 -20.549  1.00  0.00     0.001 C 
HETATM   12  C23 UNL     1      -0.726  49.953 -20.823  1.00  0.00     0.006 C 
HETATM   13  C24 UNL     1      -0.990  49.290 -19.463  1.00  0.00     0.009 C 
HETATM   14  C25 UNL     1      -0.209  50.145 -18.473  1.00  0.00     0.036 C 
HETATM   15  C26 UNL     1      -0.511  50.019 -16.971  1.00  0.00     0.123 C 
HETATM   16  C27 UNL     1      -1.938  49.820 -16.515  1.00  0.00     0.014 C 
HETATM   17  C28 UNL     1      -2.055  49.673 -15.185  1.00  0.00     0.014 C 
HETATM   18  C29 UNL     1      -0.722  49.608 -14.452  1.00  0.00     0.124 C 
HETATM   19  C30 UNL     1      -0.877  49.243 -12.967  1.00  0.00     0.079 C 
HETATM   20  O3  UNL     1      -0.054  48.503 -15.108  1.00  0.00    -0.223 OA
HETATM   21  O4  UNL     1       0.272  48.874 -16.518  1.00  0.00    -0.224 OA
ENDROOT
BRANCH  11  22
HETATM   22  C14 UNL     1      -0.163  52.349 -21.626  1.00  0.00     0.008 C 
HETATM   23  C15 UNL     1       1.054  53.258 -21.839  1.00  0.00     0.014 C 
BRANCH  22  24
HETATM   24  C16 UNL     1      -0.642  51.716 -22.924  1.00  0.00    -0.026 C 
HETATM   25  C17 UNL     1      -0.421  52.161 -24.173  1.00  0.00    -0.026 C 
BRANCH  25  26
HETATM   26  C18 UNL     1      -0.950  51.480 -25.418  1.00  0.00     0.007 C 
HETATM   27  C19 UNL     1      -1.797  50.280 -24.981  1.00  0.00     0.014 C 
BRANCH  26  28
HETATM   28  C20 UNL     1       0.211  51.077 -26.373  1.00  0.00    -0.015 C 
HETATM   29  C21 UNL     1       1.563  51.605 -25.876  1.00  0.00     0.010 C 
HETATM   30  C22 UNL     1      -0.015  51.575 -27.805  1.00  0.00     0.010 C 
ENDBRANCH  26  28
ENDBRANCH  25  26
ENDBRANCH  22  24
ENDBRANCH  11  22
BRANCH   1  31
HETATM   31  O2  UNL     1      -2.692  50.775 -12.354  1.00  0.00    -0.316 OA
BRANCH  31  32
HETATM   32  C2  UNL     1      -3.381  51.341 -11.325  1.00  0.00     0.255 C 
HETATM   33  C1  UNL     1      -3.780  52.739 -11.682  1.00  0.00     0.126 C 
HETATM   34  O1  UNL     1      -3.628  50.806 -10.254  1.00  0.00    -0.266 OA
ENDBRANCH  31  32
ENDBRANCH   1  31
TORSDOF 6
ENDMDL
MODEL 7
REMARK minimizedAffinity -8.06321239
REMARK CNNscore 0.205670863
REMARK CNNaffinity 6.28246164
REMARK  6 active torsions:
REMARK  status: ('A' for Active; 'I' for Inactive)
REMARK    1  A    between atoms: C2_2  and  O2_4 
REMARK    2  A    between atoms: O2_4  and  C3_5 
REMARK    3  A    between atoms: C13_15  and  C14_16 
REMARK    4  A    between atoms: C14_16  and  C16_18 
REMARK    5  A    between atoms: C17_19  and  C18_20 
REMARK    6  A    between atoms: C18_20  and  C20_22 
ROOT
HETATM    1  C3  UNL     1      -8.671  46.582 -19.778  1.00  0.00     0.135 C 
HETATM    2  C4  UNL     1      -7.384  46.197 -19.041  1.00  0.00     0.034 C 
HETATM    3  C5  UNL     1      -6.199  47.089 -19.422  1.00  0.00     0.015 C 
HETATM    4  C6  UNL     1      -5.931  47.117 -20.948  1.00  0.00     0.001 C 
HETATM    5  C7  UNL     1      -5.433  45.718 -21.395  1.00  0.00     0.019 C 
HETATM    6  C8  UNL     1      -4.869  48.231 -21.282  1.00  0.00     0.039 C 
HETATM    7  C9  UNL     1      -3.392  47.827 -21.362  1.00  0.00     0.010 C 
HETATM    8  C10 UNL     1      -2.464  49.060 -21.490  1.00  0.00     0.010 C 
HETATM    9  C11 UNL     1      -3.072  50.256 -22.276  1.00  0.00    -0.033 C 
HETATM   10  C12 UNL     1      -3.611  51.329 -21.301  1.00  0.00     0.016 C 
HETATM   11  C13 UNL     1      -2.104  50.901 -23.324  1.00  0.00     0.001 C 
HETATM   12  C23 UNL     1      -3.075  51.556 -24.349  1.00  0.00     0.006 C 
HETATM   13  C24 UNL     1      -4.426  50.837 -24.218  1.00  0.00     0.009 C 
HETATM   14  C25 UNL     1      -4.150  49.704 -23.237  1.00  0.00     0.036 C 
HETATM   15  C26 UNL     1      -5.334  48.981 -22.574  1.00  0.00     0.123 C 
HETATM   16  C27 UNL     1      -6.553  49.775 -22.165  1.00  0.00     0.014 C 
HETATM   17  C28 UNL     1      -7.533  49.015 -21.647  1.00  0.00     0.014 C 
HETATM   18  C29 UNL     1      -7.252  47.520 -21.709  1.00  0.00     0.124 C 
HETATM   19  C30 UNL     1      -8.462  46.669 -21.295  1.00  0.00     0.079 C 
HETATM   20  O3  UNL     1      -7.023  47.299 -23.122  1.00  0.00    -0.223 OA
HETATM   21  O4  UNL     1      -5.757  47.972 -23.540  1.00  0.00    -0.224 OA
ENDROOT
BRANCH  11  22
HETATM   22  C14 UNL     1      -1.004  51.879 -22.830  1.00  0.00     0.008 C 
HETATM   23  C15 UNL     1      -0.238  51.349 -21.611  1.00  0.00     0.014 C 
BRANCH  22  24
HETATM   24  C16 UNL     1      -0.074  52.253 -23.976  1.00  0.00    -0.026 C 
HETATM   25  C17 UNL     1      -0.425  52.743 -25.177  1.00  0.00    -0.026 C 
BRANCH  25  26
HETATM   26  C18 UNL     1       0.564  53.076 -26.275  1.00  0.00     0.007 C 
HETATM   27  C19 UNL     1      -0.107  54.063 -27.236  1.00  0.00     0.014 C 
BRANCH  26  28
HETATM   28  C20 UNL     1       1.062  51.788 -26.991  1.00  0.00    -0.015 C 
HETATM   29  C21 UNL     1       0.091  50.615 -26.788  1.00  0.00     0.010 C 
HETATM   30  C22 UNL     1       2.455  51.360 -26.516  1.00  0.00     0.010 C 
ENDBRANCH  26  28
ENDBRANCH  25  26
ENDBRANCH  22  24
ENDBRANCH  11  22
BRANCH   1  31
HETATM   31  O2  UNL     1      -9.110  47.847 -19.243  1.00  0.00    -0.316 OA
BRANCH  31  32
HETATM   32  C2  UNL     1     -10.278  47.832 -18.543  1.00  0.00     0.255 C 
HETATM   33  C1  UNL     1     -11.436  48.014 -19.475  1.00  0.00     0.126 C 
HETATM   34  O1  UNL     1     -10.381  47.710 -17.332  1.00  0.00    -0.266 OA
ENDBRANCH  31  32
ENDBRANCH   1  31
TORSDOF 6
ENDMDL
MODEL 8
REMARK minimizedAffinity -6.7483077
REMARK CNNscore 0.193833888
REMARK CNNaffinity 5.34708166
REMARK  6 active torsions:
REMARK  status: ('A' for Active; 'I' for Inactive)
REMARK    1  A    between atoms: C2_2  and  O2_4 
REMARK    2  A    between atoms: O2_4  and  C3_5 
REMARK    3  A    between atoms: C13_15  and  C14_16 
REMARK    4  A    between atoms: C14_16  and  C16_18 
REMARK    5  A    between atoms: C17_19  and  C18_20 
REMARK    6  A    between atoms: C18_20  and  C20_22 
ROOT
HETATM    1  C3  UNL     1      -7.468  47.004 -31.966  1.00  0.00     0.135 C 
HETATM    2  C4  UNL     1      -8.435  48.188 -32.048  1.00  0.00     0.034 C 
HETATM    3  C5  UNL     1      -9.366  48.272 -30.835  1.00  0.00     0.015 C 
HETATM    4  C6  UNL     1     -10.168  46.967 -30.599  1.00  0.00     0.001 C 
HETATM    5  C7  UNL     1     -11.176  46.781 -31.762  1.00  0.00     0.019 C 
HETATM    6  C8  UNL     1     -10.908  47.040 -29.211  1.00  0.00     0.039 C 
HETATM    7  C9  UNL     1     -12.356  47.545 -29.186  1.00  0.00     0.010 C 
HETATM    8  C10 UNL     1     -12.868  47.754 -27.739  1.00  0.00     0.010 C 
HETATM    9  C11 UNL     1     -12.284  46.765 -26.691  1.00  0.00    -0.033 C 
HETATM   10  C12 UNL     1     -11.134  47.431 -25.898  1.00  0.00     0.016 C 
HETATM   11  C13 UNL     1     -13.345  46.156 -25.715  1.00  0.00     0.001 C 
HETATM   12  C23 UNL     1     -12.686  44.820 -25.262  1.00  0.00     0.006 C 
HETATM   13  C24 UNL     1     -11.654  44.438 -26.334  1.00  0.00     0.009 C 
HETATM   14  C25 UNL     1     -11.853  45.477 -27.430  1.00  0.00     0.036 C 
HETATM   15  C26 UNL     1     -10.769  45.650 -28.506  1.00  0.00     0.123 C 
HETATM   16  C27 UNL     1      -9.313  45.539 -28.116  1.00  0.00     0.014 C 
HETATM   17  C28 UNL     1      -8.473  45.658 -29.158  1.00  0.00     0.014 C 
HETATM   18  C29 UNL     1      -9.174  45.746 -30.507  1.00  0.00     0.124 C 
HETATM   19  C30 UNL     1      -8.196  45.682 -31.691  1.00  0.00     0.079 C 
HETATM   20  O3  UNL     1      -9.970  44.536 -30.531  1.00  0.00    -0.223 OA
HETATM   21  O4  UNL     1     -11.049  44.621 -29.502  1.00  0.00    -0.224 OA
ENDROOT
BRANCH  11  22
HETATM   22  C14 UNL     1     -13.848  47.011 -24.521  1.00  0.00     0.008 C 
HETATM   23  C15 UNL     1     -15.370  47.202 -24.522  1.00  0.00     0.014 C 
BRANCH  22  24
HETATM   24  C16 UNL     1     -13.341  46.437 -23.206  1.00  0.00    -0.026 C 
HETATM   25  C17 UNL     1     -13.140  47.101 -22.056  1.00  0.00    -0.026 C 
BRANCH  25  26
HETATM   26  C18 UNL     1     -12.614  46.457 -20.789  1.00  0.00     0.007 C 
HETATM   27  C19 UNL     1     -13.513  45.261 -20.455  1.00  0.00     0.014 C 
BRANCH  26  28
HETATM   28  C20 UNL     1     -12.533  47.488 -19.627  1.00  0.00    -0.015 C 
HETATM   29  C21 UNL     1     -13.496  48.663 -19.844  1.00  0.00     0.010 C 
HETATM   30  C22 UNL     1     -11.115  48.043 -19.440  1.00  0.00     0.010 C 
ENDBRANCH  26  28
ENDBRANCH  25  26
ENDBRANCH  22  24
ENDBRANCH  11  22
BRANCH   1  31
HETATM   31  O2  UNL     1      -6.516  47.297 -30.924  1.00  0.00    -0.316 OA
BRANCH  31  32
HETATM   32  C2  UNL     1      -5.265  47.649 -31.331  1.00  0.00     0.255 C 
HETATM   33  C1  UNL     1      -4.576  46.471 -31.947  1.00  0.00     0.126 C 
HETATM   34  O1  UNL     1      -4.759  48.753 -31.201  1.00  0.00    -0.266 OA
ENDBRANCH  31  32
ENDBRANCH   1  31
TORSDOF 6
ENDMDL
MODEL 9
REMARK minimizedAffinity -7.23595285
REMARK CNNscore 0.189999342
REMARK CNNaffinity 6.01773977
REMARK  6 active torsions:
REMARK  status: ('A' for Active; 'I' for Inactive)
REMARK    1  A    between atoms: C2_2  and  O2_4 
REMARK    2  A    between atoms: O2_4  and  C3_5 
REMARK    3  A    between atoms: C13_15  and  C14_16 
REMARK    4  A    between atoms: C14_16  and  C16_18 
REMARK    5  A    between atoms: C17_19  and  C18_20 
REMARK    6  A    between atoms: C18_20  and  C20_22 
ROOT
HETATM    1  C3  UNL     1      -9.500  45.746 -19.176  1.00  0.00     0.135 C 
HETATM    2  C4  UNL     1     -10.092  47.059 -19.698  1.00  0.00     0.034 C 
HETATM    3  C5  UNL     1      -9.151  47.785 -20.663  1.00  0.00     0.015 C 
HETATM    4  C6  UNL     1      -7.752  48.057 -20.053  1.00  0.00     0.001 C 
HETATM    5  C7  UNL     1      -7.898  49.094 -18.909  1.00  0.00     0.019 C 
HETATM    6  C8  UNL     1      -6.775  48.579 -21.172  1.00  0.00     0.039 C 
HETATM    7  C9  UNL     1      -6.625  50.093 -21.357  1.00  0.00     0.010 C 
HETATM    8  C10 UNL     1      -5.798  50.440 -22.620  1.00  0.00     0.010 C 
HETATM    9  C11 UNL     1      -4.682  49.417 -22.970  1.00  0.00    -0.033 C 
HETATM   10  C12 UNL     1      -5.152  48.463 -24.093  1.00  0.00     0.016 C 
HETATM   11  C13 UNL     1      -3.304  50.063 -23.339  1.00  0.00     0.001 C 
HETATM   12  C23 UNL     1      -2.283  48.935 -23.010  1.00  0.00     0.006 C 
HETATM   13  C24 UNL     1      -2.957  47.993 -22.001  1.00  0.00     0.009 C 
HETATM   14  C25 UNL     1      -4.275  48.682 -21.672  1.00  0.00     0.036 C 
HETATM   15  C26 UNL     1      -5.388  47.881 -20.976  1.00  0.00     0.123 C 
HETATM   16  C27 UNL     1      -5.607  46.434 -21.355  1.00  0.00     0.014 C 
HETATM   17  C28 UNL     1      -6.573  45.837 -20.637  1.00  0.00     0.014 C 
HETATM   18  C29 UNL     1      -7.137  46.706 -19.521  1.00  0.00     0.124 C 
HETATM   19  C30 UNL     1      -8.094  45.938 -18.595  1.00  0.00     0.079 C 
HETATM   20  O3  UNL     1      -5.957  47.040 -18.752  1.00  0.00    -0.223 OA
HETATM   21  O4  UNL     1      -5.066  47.932 -19.554  1.00  0.00    -0.224 OA
ENDROOT
BRANCH  11  22
HETATM   22  C14 UNL     1      -3.107  50.655 -24.760  1.00  0.00     0.008 C 
HETATM   23  C15 UNL     1      -3.946  51.916 -25.003  1.00  0.00     0.014 C 
BRANCH  22  24
HETATM   24  C16 UNL     1      -1.628  50.885 -25.038  1.00  0.00    -0.026 C 
HETATM   25  C17 UNL     1      -0.983  50.691 -26.201  1.00  0.00    -0.026 C 
BRANCH  25  26
HETATM   26  C18 UNL     1       0.501  50.927 -26.392  1.00  0.00     0.007 C 
HETATM   27  C19 UNL     1       0.996  51.806 -25.239  1.00  0.00     0.014 C 
BRANCH  26  28
HETATM   28  C20 UNL     1       0.794  51.550 -27.787  1.00  0.00    -0.015 C 
HETATM   29  C21 UNL     1       2.291  51.829 -27.982  1.00  0.00     0.010 C 
HETATM   30  C22 UNL     1       0.018  52.853 -28.017  1.00  0.00     0.010 C 
ENDBRANCH  26  28
ENDBRANCH  25  26
ENDBRANCH  22  24
ENDBRANCH  11  22
BRANCH   1  31
HETATM   31  O2  UNL     1      -9.482  44.815 -20.277  1.00  0.00    -0.316 OA
BRANCH  31  32
HETATM   32  C2  UNL     1     -10.308  43.738 -20.170  1.00  0.00     0.255 C 
HETATM   33  C1  UNL     1     -11.684  44.099 -20.636  1.00  0.00     0.126 C 
HETATM   34  O1  UNL     1      -9.992  42.639 -19.739  1.00  0.00    -0.266 OA
ENDBRANCH  31  32
ENDBRANCH   1  31
TORSDOF 6
ENDMDL
