MODEL 1
REMARK minimizedAffinity -7.89710188
REMARK CNNscore 0.423240334
REMARK CNNaffinity 6.65498972
REMARK  4 active torsions:
REMARK  status: ('A' for Active; 'I' for Inactive)
REMARK    1  A    between atoms: C7_11  and  O3_12 
REMARK    2  A    between atoms: C10_16  and  C11_17 
REMARK    3  A    between atoms: C21_28  and  C22_29 
REMARK    4  A    between atoms: C28_37  and  O8_38 
ROOT
HETATM    1  C1  UNL     1     -14.884   8.228  17.369  1.00  0.00     0.040 C 
HETATM    2  C2  UNL     1     -15.128   8.129  18.869  1.00  0.00     0.124 C 
HETATM    3  C3  UNL     1     -14.488   9.305  19.604  1.00  0.00     0.082 C 
HETATM    4  C4  UNL     1     -14.230   9.000  21.102  1.00  0.00     0.175 C 
HETATM    5  N1  UNL     1     -12.819   8.741  21.353  1.00  0.00    -0.335 N 
HETATM    6  C5  UNL     1     -12.012   9.772  21.732  1.00  0.00     0.230 C 
HETATM    7  O1  UNL     1     -10.792   9.696  21.738  1.00  0.00    -0.273 OA
HETATM    8  C6  UNL     1     -12.786  11.004  22.074  1.00  0.00     0.214 C 
HETATM    9  S1  UNL     1     -14.547  10.598  22.004  1.00  0.00     0.059 S 
HETATM   10  O2  UNL     1     -15.079  10.295  23.549  1.00  0.00    -0.255 OA
HETATM   11  C7  UNL     1     -15.139   7.844  21.620  1.00  0.00     0.252 C 
HETATM   12  O4  UNL     1     -14.910   7.553  23.003  1.00  0.00    -0.340 OA
HETATM   13  C8  UNL     1     -15.053   6.167  23.288  1.00  0.00     0.156 C 
HETATM   14  C9  UNL     1     -14.913   5.962  24.798  1.00  0.00     0.056 C 
HETATM   15  C10 UNL     1     -14.937   4.471  25.227  1.00  0.00     0.043 C 
HETATM   16  C12 UNL     1     -14.090   3.600  24.290  1.00  0.00    -0.065 C 
HETATM   17  C13 UNL     1     -13.351   2.573  24.744  1.00  0.00    -0.022 C 
HETATM   18  C14 UNL     1     -13.241   2.160  26.180  1.00  0.00     0.035 C 
HETATM   19  C15 UNL     1     -14.196   2.889  27.151  1.00  0.00     0.030 C 
HETATM   20  C16 UNL     1     -14.400   4.360  26.711  1.00  0.00     0.012 C 
HETATM   21  C17 UNL     1     -15.244   5.138  27.733  1.00  0.00     0.007 C 
HETATM   22  C18 UNL     1     -14.655   5.049  29.135  1.00  0.00     0.013 C 
HETATM   23  C19 UNL     1     -14.521   3.594  29.660  1.00  0.00    -0.005 C 
HETATM   24  C20 UNL     1     -15.931   3.040  29.943  1.00  0.00     0.019 C 
HETATM   25  C21 UNL     1     -13.585   3.636  30.930  1.00  0.00     0.028 C 
HETATM   26  C26 UNL     1     -12.198   3.159  30.439  1.00  0.00     0.013 C 
HETATM   27  C27 UNL     1     -12.277   3.103  28.918  1.00  0.00     0.040 C 
HETATM   28  C28 UNL     1     -13.738   2.718  28.633  1.00  0.00     0.070 C 
HETATM   29  C29 UNL     1     -14.104   3.920  22.806  1.00  0.00     0.069 C 
HETATM   30  C30 UNL     1     -13.949   5.416  22.550  1.00  0.00     0.158 C 
HETATM   31  O9  UNL     1     -13.900   5.687  21.145  1.00  0.00    -0.347 OA
HETATM   32  C31 UNL     1     -14.917   6.584  20.675  1.00  0.00     0.326 C 
HETATM   33  O10 UNL     1     -14.539   6.925  19.333  1.00  0.00    -0.351 OA
HETATM   34  H7  UNL     1     -12.378   7.888  21.018  1.00  0.00     0.164 HD
ENDROOT
BRANCH  11  35
HETATM   35  O3  UNL     1     -16.518   8.243  21.542  1.00  0.00    -0.359 OA
HETATM   36  H10 UNL     1     -16.642   8.748  22.382  1.00  0.00     0.213 HD
ENDBRANCH  11  35
BRANCH  15  37
HETATM   37  C11 UNL     1     -16.406   3.998  25.125  1.00  0.00     0.245 C 
HETATM   38  O5  UNL     1     -16.774   2.934  24.633  1.00  0.00    -0.306 OA
ENDBRANCH  15  37
BRANCH  28  39
HETATM   39  O8  UNL     1     -13.905   1.338  28.988  1.00  0.00    -0.389 OA
HETATM   40  H35 UNL     1     -13.199   0.821  28.557  1.00  0.00     0.210 HD
ENDBRANCH  28  39
BRANCH  25  41
HETATM   41  C22 UNL     1     -14.045   2.928  32.171  1.00  0.00    -0.045 A 
HETATM   42  C23 UNL     1     -15.280   2.588  32.546  1.00  0.00     0.087 A 
HETATM   43  C24 UNL     1     -15.164   1.885  33.822  1.00  0.00     0.283 A 
HETATM   44  O6  UNL     1     -16.092   1.413  34.447  1.00  0.00    -0.260 OA
HETATM   45  O7  UNL     1     -13.854   1.815  34.178  1.00  0.00    -0.314 OA
HETATM   46  C25 UNL     1     -13.068   2.467  33.183  1.00  0.00     0.213 A 
ENDBRANCH  25  41
TORSDOF 4
ENDMDL
MODEL 2
REMARK minimizedAffinity -8.94585609
REMARK CNNscore 0.352095515
REMARK CNNaffinity 6.42346334
REMARK  4 active torsions:
REMARK  status: ('A' for Active; 'I' for Inactive)
REMARK    1  A    between atoms: C7_11  and  O3_12 
REMARK    2  A    between atoms: C10_16  and  C11_17 
REMARK    3  A    between atoms: C21_28  and  C22_29 
REMARK    4  A    between atoms: C28_37  and  O8_38 
ROOT
HETATM    1  C1  UNL     1       9.688   9.970  14.995  1.00  0.00     0.040 C 
HETATM    2  C2  UNL     1       8.425   9.156  14.751  1.00  0.00     0.124 C 
HETATM    3  C3  UNL     1       8.321   8.737  13.286  1.00  0.00     0.082 C 
HETATM    4  C4  UNL     1       6.867   8.400  12.866  1.00  0.00     0.175 C 
HETATM    5  N1  UNL     1       6.285   9.469  12.068  1.00  0.00    -0.335 N 
HETATM    6  C5  UNL     1       6.374   9.408  10.709  1.00  0.00     0.230 C 
HETATM    7  O1  UNL     1       6.123  10.359   9.982  1.00  0.00    -0.273 OA
HETATM    8  C6  UNL     1       6.864   8.080  10.231  1.00  0.00     0.214 C 
HETATM    9  S1  UNL     1       7.005   6.985  11.664  1.00  0.00     0.059 S 
HETATM   10  O2  UNL     1       5.646   6.031  11.732  1.00  0.00    -0.255 OA
HETATM   11  C7  UNL     1       5.981   8.038  14.097  1.00  0.00     0.252 C 
HETATM   12  O4  UNL     1       4.635   7.724  13.723  1.00  0.00    -0.340 OA
HETATM   13  C8  UNL     1       3.694   8.154  14.699  1.00  0.00     0.156 C 
HETATM   14  C9  UNL     1       2.303   7.673  14.282  1.00  0.00     0.056 C 
HETATM   15  C10 UNL     1       1.167   8.177  15.210  1.00  0.00     0.043 C 
HETATM   16  C12 UNL     1       1.351   9.656  15.575  1.00  0.00    -0.065 C 
HETATM   17  C13 UNL     1       0.309  10.500  15.682  1.00  0.00    -0.022 C 
HETATM   18  C14 UNL     1      -1.125  10.130  15.452  1.00  0.00     0.035 C 
HETATM   19  C15 UNL     1      -1.393   8.623  15.247  1.00  0.00     0.030 C 
HETATM   20  C16 UNL     1      -0.220   7.962  14.481  1.00  0.00     0.012 C 
HETATM   21  C17 UNL     1      -0.523   6.492  14.153  1.00  0.00     0.007 C 
HETATM   22  C18 UNL     1      -1.839   6.341  13.400  1.00  0.00     0.013 C 
HETATM   23  C19 UNL     1      -3.063   6.904  14.174  1.00  0.00    -0.005 C 
HETATM   24  C20 UNL     1      -3.353   5.983  15.375  1.00  0.00     0.019 C 
HETATM   25  C21 UNL     1      -4.258   7.011  13.148  1.00  0.00     0.028 C 
HETATM   26  C26 UNL     1      -4.332   8.504  12.751  1.00  0.00     0.013 C 
HETATM   27  C27 UNL     1      -3.078   9.161  13.317  1.00  0.00     0.040 C 
HETATM   28  C28 UNL     1      -2.796   8.378  14.610  1.00  0.00     0.070 C 
HETATM   29  C29 UNL     1       2.760  10.164  15.823  1.00  0.00     0.069 C 
HETATM   30  C30 UNL     1       3.731   9.677  14.753  1.00  0.00     0.158 C 
HETATM   31  O9  UNL     1       5.038  10.220  14.970  1.00  0.00    -0.347 OA
HETATM   32  C31 UNL     1       6.072   9.239  15.137  1.00  0.00     0.326 C 
HETATM   33  O10 UNL     1       7.307   9.966  15.076  1.00  0.00    -0.351 OA
HETATM   34  H7  UNL     1       6.043  10.363  12.491  1.00  0.00     0.164 HD
ENDROOT
BRANCH  11  35
HETATM   35  O3  UNL     1       6.487   6.846  14.722  1.00  0.00    -0.359 OA
HETATM   36  H10 UNL     1       6.071   6.130  14.184  1.00  0.00     0.213 HD
ENDBRANCH  11  35
BRANCH  15  37
HETATM   37  C11 UNL     1       1.252   7.348  16.513  1.00  0.00     0.245 C 
HETATM   38  O5  UNL     1       2.282   7.124  17.143  1.00  0.00    -0.306 OA
ENDBRANCH  15  37
BRANCH  28  39
HETATM   39  O8  UNL     1      -3.788   8.755  15.576  1.00  0.00    -0.389 OA
HETATM   40  H35 UNL     1      -3.818   9.729  15.624  1.00  0.00     0.210 HD
ENDBRANCH  28  39
BRANCH  25  41
HETATM   41  C22 UNL     1      -5.588   6.444  13.552  1.00  0.00    -0.045 A 
HETATM   42  C23 UNL     1      -6.573   7.008  14.255  1.00  0.00     0.087 A 
HETATM   43  C24 UNL     1      -7.659   6.033  14.331  1.00  0.00     0.283 A 
HETATM   44  O6  UNL     1      -8.727   6.217  14.880  1.00  0.00    -0.260 OA
HETATM   45  O7  UNL     1      -7.298   4.906  13.662  1.00  0.00    -0.314 OA
HETATM   46  C25 UNL     1      -5.983   5.078  13.141  1.00  0.00     0.213 A 
ENDBRANCH  25  41
TORSDOF 4
ENDMDL
MODEL 3
REMARK minimizedAffinity -7.24293661
REMARK CNNscore 0.308249503
REMARK CNNaffinity 5.99194908
REMARK  4 active torsions:
REMARK  status: ('A' for Active; 'I' for Inactive)
REMARK    1  A    between atoms: C7_11  and  O3_12 
REMARK    2  A    between atoms: C10_16  and  C11_17 
REMARK    3  A    between atoms: C21_28  and  C22_29 
REMARK    4  A    between atoms: C28_37  and  O8_38 
ROOT
HETATM    1  C1  UNL     1      -2.421  18.642  21.128  1.00  0.00     0.040 C 
HETATM    2  C2  UNL     1      -2.961  17.622  20.136  1.00  0.00     0.124 C 
HETATM    3  C3  UNL     1      -4.336  17.115  20.569  1.00  0.00     0.082 C 
HETATM    4  C4  UNL     1      -4.687  15.741  19.943  1.00  0.00     0.175 C 
HETATM    5  N1  UNL     1      -4.554  14.667  20.916  1.00  0.00    -0.335 N 
HETATM    6  C5  UNL     1      -5.647  14.283  21.635  1.00  0.00     0.230 C 
HETATM    7  O1  UNL     1      -5.576  13.562  22.620  1.00  0.00    -0.273 OA
HETATM    8  C6  UNL     1      -6.910  14.888  21.116  1.00  0.00     0.214 C 
HETATM    9  S1  UNL     1      -6.517  15.796  19.602  1.00  0.00     0.059 S 
HETATM   10  O2  UNL     1      -6.893  14.834  18.300  1.00  0.00    -0.255 OA
HETATM   11  C7  UNL     1      -3.858  15.468  18.651  1.00  0.00     0.252 C 
HETATM   12  O4  UNL     1      -4.174  14.201  18.062  1.00  0.00    -0.340 OA
HETATM   13  C8  UNL     1      -3.036  13.589  17.467  1.00  0.00     0.156 C 
HETATM   14  C9  UNL     1      -3.483  12.309  16.760  1.00  0.00     0.056 C 
HETATM   15  C10 UNL     1      -2.311  11.486  16.164  1.00  0.00     0.043 C 
HETATM   16  C12 UNL     1      -1.125  11.409  17.134  1.00  0.00    -0.065 C 
HETATM   17  C13 UNL     1      -0.381  10.296  17.267  1.00  0.00    -0.022 C 
HETATM   18  C14 UNL     1      -0.609   9.016  16.524  1.00  0.00     0.035 C 
HETATM   19  C15 UNL     1      -1.681   9.079  15.413  1.00  0.00     0.030 C 
HETATM   20  C16 UNL     1      -2.831  10.032  15.822  1.00  0.00     0.012 C 
HETATM   21  C17 UNL     1      -3.969  10.011  14.789  1.00  0.00     0.007 C 
HETATM   22  C18 UNL     1      -4.476   8.597  14.536  1.00  0.00     0.013 C 
HETATM   23  C19 UNL     1      -3.375   7.626  14.030  1.00  0.00    -0.005 C 
HETATM   24  C20 UNL     1      -2.995   8.019  12.588  1.00  0.00     0.019 C 
HETATM   25  C21 UNL     1      -3.944   6.160  14.162  1.00  0.00     0.028 C 
HETATM   26  C26 UNL     1      -3.301   5.579  15.443  1.00  0.00     0.013 C 
HETATM   27  C27 UNL     1      -2.612   6.744  16.144  1.00  0.00     0.040 C 
HETATM   28  C28 UNL     1      -2.147   7.650  14.992  1.00  0.00     0.070 C 
HETATM   29  C29 UNL     1      -0.792  12.640  17.959  1.00  0.00     0.069 C 
HETATM   30  C30 UNL     1      -2.042  13.260  18.576  1.00  0.00     0.158 C 
HETATM   31  O9  UNL     1      -1.698  14.379  19.400  1.00  0.00    -0.347 OA
HETATM   32  C31 UNL     1      -2.317  15.616  19.016  1.00  0.00     0.326 C 
HETATM   33  O10 UNL     1      -2.062  16.525  20.096  1.00  0.00    -0.351 OA
HETATM   34  H7  UNL     1      -3.637  14.374  21.248  1.00  0.00     0.164 HD
ENDROOT
BRANCH  11  35
HETATM   35  O3  UNL     1      -4.191  16.443  17.649  1.00  0.00    -0.359 OA
HETATM   36  H10 UNL     1      -5.002  16.057  17.237  1.00  0.00     0.213 HD
ENDBRANCH  11  35
BRANCH  15  37
HETATM   37  C11 UNL     1      -1.842  12.229  14.892  1.00  0.00     0.245 C 
HETATM   38  O5  UNL     1      -1.605  11.698  13.809  1.00  0.00    -0.306 OA
ENDBRANCH  15  37
BRANCH  28  39
HETATM   39  O8  UNL     1      -1.044   7.003  14.342  1.00  0.00    -0.389 OA
HETATM   40  H35 UNL     1      -0.391   6.749  15.021  1.00  0.00     0.210 HD
ENDBRANCH  28  39
BRANCH  25  41
HETATM   41  C22 UNL     1      -3.823   5.245  12.978  1.00  0.00    -0.045 A 
HETATM   42  C23 UNL     1      -2.732   4.851  12.317  1.00  0.00     0.087 A 
HETATM   43  C24 UNL     1      -3.172   3.932  11.270  1.00  0.00     0.283 A 
HETATM   44  O6  UNL     1      -2.440   3.363  10.486  1.00  0.00    -0.260 OA
HETATM   45  O7  UNL     1      -4.523   3.793  11.333  1.00  0.00    -0.314 OA
HETATM   46  C25 UNL     1      -5.023   4.606  12.391  1.00  0.00     0.213 A 
ENDBRANCH  25  41
TORSDOF 4
ENDMDL
MODEL 4
REMARK minimizedAffinity -8.79506397
REMARK CNNscore 0.300877452
REMARK CNNaffinity 5.81797838
REMARK  4 active torsions:
REMARK  status: ('A' for Active; 'I' for Inactive)
REMARK    1  A    between atoms: C7_11  and  O3_12 
REMARK    2  A    between atoms: C10_16  and  C11_17 
REMARK    3  A    between atoms: C21_28  and  C22_29 
REMARK    4  A    between atoms: C28_37  and  O8_38 
ROOT
HETATM    1  C1  UNL     1       7.236  14.198  17.154  1.00  0.00     0.040 C 
HETATM    2  C2  UNL     1       6.404  13.159  16.415  1.00  0.00     0.124 C 
HETATM    3  C3  UNL     1       6.180  13.573  14.961  1.00  0.00     0.082 C 
HETATM    4  C4  UNL     1       4.945  12.881  14.330  1.00  0.00     0.175 C 
HETATM    5  N1  UNL     1       3.820  13.799  14.227  1.00  0.00    -0.335 N 
HETATM    6  C5  UNL     1       3.640  14.504  13.073  1.00  0.00     0.230 C 
HETATM    7  O1  UNL     1       2.873  15.451  12.984  1.00  0.00    -0.273 OA
HETATM    8  C6  UNL     1       4.525  14.022  11.970  1.00  0.00     0.214 C 
HETATM    9  S1  UNL     1       5.404  12.553  12.556  1.00  0.00     0.059 S 
HETATM   10  O2  UNL     1       4.609  11.206  11.991  1.00  0.00    -0.255 OA
HETATM   11  C7  UNL     1       4.566  11.573  15.089  1.00  0.00     0.252 C 
HETATM   12  O4  UNL     1       3.426  10.923  14.515  1.00  0.00    -0.340 OA
HETATM   13  C8  UNL     1       2.618  10.292  15.500  1.00  0.00     0.156 C 
HETATM   14  C9  UNL     1       1.498   9.525  14.795  1.00  0.00     0.056 C 
HETATM   15  C10 UNL     1       0.476   8.883  15.770  1.00  0.00     0.043 C 
HETATM   16  C12 UNL     1       0.101   9.841  16.907  1.00  0.00    -0.065 C 
HETATM   17  C13 UNL     1      -1.150   9.914  17.396  1.00  0.00    -0.022 C 
HETATM   18  C14 UNL     1      -2.314   9.109  16.906  1.00  0.00     0.035 C 
HETATM   19  C15 UNL     1      -1.969   8.008  15.878  1.00  0.00     0.030 C 
HETATM   20  C16 UNL     1      -0.816   8.471  14.954  1.00  0.00     0.012 C 
HETATM   21  C17 UNL     1      -0.543   7.444  13.843  1.00  0.00     0.007 C 
HETATM   22  C18 UNL     1      -1.803   7.123  13.049  1.00  0.00     0.013 C 
HETATM   23  C19 UNL     1      -2.959   6.563  13.922  1.00  0.00    -0.005 C 
HETATM   24  C20 UNL     1      -2.584   5.141  14.385  1.00  0.00     0.019 C 
HETATM   25  C21 UNL     1      -4.275   6.625  13.054  1.00  0.00     0.028 C 
HETATM   26  C26 UNL     1      -5.043   7.872  13.552  1.00  0.00     0.013 C 
HETATM   27  C27 UNL     1      -4.087   8.626  14.469  1.00  0.00     0.040 C 
HETATM   28  C28 UNL     1      -3.244   7.519  15.122  1.00  0.00     0.070 C 
HETATM   29  C29 UNL     1       1.190  10.724  17.489  1.00  0.00     0.069 C 
HETATM   30  C30 UNL     1       2.030  11.378  16.396  1.00  0.00     0.158 C 
HETATM   31  O9  UNL     1       3.008  12.255  16.965  1.00  0.00    -0.347 OA
HETATM   32  C31 UNL     1       4.365  11.937  16.625  1.00  0.00     0.326 C 
HETATM   33  O10 UNL     1       5.145  13.060  17.061  1.00  0.00    -0.351 OA
HETATM   34  H7  UNL     1       3.322  14.111  15.059  1.00  0.00     0.164 HD
ENDROOT
BRANCH  11  35
HETATM   35  O3  UNL     1       5.639  10.622  14.976  1.00  0.00    -0.359 OA
HETATM   36  H10 UNL     1       5.455  10.196  14.105  1.00  0.00     0.213 HD
ENDBRANCH  11  35
BRANCH  15  37
HETATM   37  C11 UNL     1       1.165   7.647  16.392  1.00  0.00     0.245 C 
HETATM   38  O5  UNL     1       2.374   7.531  16.582  1.00  0.00    -0.306 OA
ENDBRANCH  15  37
BRANCH  28  39
HETATM   39  O8  UNL     1      -4.077   6.832  16.066  1.00  0.00    -0.389 OA
HETATM   40  H35 UNL     1      -4.498   7.494  16.646  1.00  0.00     0.210 HD
ENDBRANCH  28  39
BRANCH  25  41
HETATM   41  C22 UNL     1      -5.135   5.396  12.984  1.00  0.00    -0.045 A 
HETATM   42  C23 UNL     1      -6.332   5.166  13.529  1.00  0.00     0.087 A 
HETATM   43  C24 UNL     1      -6.738   3.822  13.121  1.00  0.00     0.283 A 
HETATM   44  O6  UNL     1      -7.787   3.288  13.417  1.00  0.00    -0.260 OA
HETATM   45  O7  UNL     1      -5.771   3.281  12.333  1.00  0.00    -0.314 OA
HETATM   46  C25 UNL     1      -4.704   4.216  12.201  1.00  0.00     0.213 A 
ENDBRANCH  25  41
TORSDOF 4
ENDMDL
MODEL 5
REMARK minimizedAffinity -6.62802744
REMARK CNNscore 0.283878356
REMARK CNNaffinity 6.1487956
REMARK  4 active torsions:
REMARK  status: ('A' for Active; 'I' for Inactive)
REMARK    1  A    between atoms: C7_11  and  O3_12 
REMARK    2  A    between atoms: C10_16  and  C11_17 
REMARK    3  A    between atoms: C21_28  and  C22_29 
REMARK    4  A    between atoms: C28_37  and  O8_38 
ROOT
HETATM    1  C1  UNL     1     -11.949  19.132   5.531  1.00  0.00     0.040 C 
HETATM    2  C2  UNL     1     -10.698  18.894   4.697  1.00  0.00     0.124 C 
HETATM    3  C3  UNL     1     -10.962  17.859   3.603  1.00  0.00     0.082 C 
HETATM    4  C4  UNL     1      -9.660  17.189   3.093  1.00  0.00     0.175 C 
HETATM    5  N1  UNL     1      -9.519  15.839   3.620  1.00  0.00    -0.335 N 
HETATM    6  C5  UNL     1      -9.991  14.789   2.891  1.00  0.00     0.230 C 
HETATM    7  O1  UNL     1     -10.123  13.663   3.351  1.00  0.00    -0.273 OA
HETATM    8  C6  UNL     1     -10.378  15.188   1.504  1.00  0.00     0.214 C 
HETATM    9  S1  UNL     1      -9.914  16.920   1.268  1.00  0.00     0.059 S 
HETATM   10  O2  UNL     1      -8.458  16.970   0.467  1.00  0.00    -0.255 OA
HETATM   11  C7  UNL     1      -8.406  18.067   3.387  1.00  0.00     0.252 C 
HETATM   12  O4  UNL     1      -7.196  17.459   2.921  1.00  0.00    -0.340 OA
HETATM   13  C8  UNL     1      -6.093  17.738   3.774  1.00  0.00     0.156 C 
HETATM   14  C9  UNL     1      -4.827  17.158   3.142  1.00  0.00     0.056 C 
HETATM   15  C10 UNL     1      -3.566  17.297   4.035  1.00  0.00     0.043 C 
HETATM   16  C12 UNL     1      -3.872  16.960   5.500  1.00  0.00    -0.065 C 
HETATM   17  C13 UNL     1      -2.996  16.301   6.278  1.00  0.00    -0.022 C 
HETATM   18  C14 UNL     1      -1.652  15.808   5.835  1.00  0.00     0.035 C 
HETATM   19  C15 UNL     1      -1.216  16.259   4.425  1.00  0.00     0.030 C 
HETATM   20  C16 UNL     1      -2.439  16.339   3.477  1.00  0.00     0.012 C 
HETATM   21  C17 UNL     1      -2.010  16.662   2.037  1.00  0.00     0.007 C 
HETATM   22  C18 UNL     1      -0.967  15.678   1.524  1.00  0.00     0.013 C 
HETATM   23  C19 UNL     1       0.321  15.634   2.390  1.00  0.00    -0.005 C 
HETATM   24  C20 UNL     1       1.097  16.951   2.188  1.00  0.00     0.019 C 
HETATM   25  C21 UNL     1       1.130  14.346   1.965  1.00  0.00     0.028 C 
HETATM   26  C26 UNL     1       0.841  13.295   3.062  1.00  0.00     0.013 C 
HETATM   27  C27 UNL     1      -0.281  13.867   3.921  1.00  0.00     0.040 C 
HETATM   28  C28 UNL     1      -0.040  15.385   3.887  1.00  0.00     0.070 C 
HETATM   29  C29 UNL     1      -5.209  17.395   6.072  1.00  0.00     0.069 C 
HETATM   30  C30 UNL     1      -6.360  17.076   5.122  1.00  0.00     0.158 C 
HETATM   31  O9  UNL     1      -7.615  17.436   5.709  1.00  0.00    -0.347 OA
HETATM   32  C31 UNL     1      -8.381  18.381   4.947  1.00  0.00     0.326 C 
HETATM   33  O10 UNL     1      -9.681  18.402   5.554  1.00  0.00    -0.351 OA
HETATM   34  H7  UNL     1      -9.312  15.682   4.604  1.00  0.00     0.164 HD
ENDROOT
BRANCH  11  35
HETATM   35  O3  UNL     1      -8.506  19.308   2.668  1.00  0.00    -0.359 OA
HETATM   36  H10 UNL     1      -8.156  19.067   1.777  1.00  0.00     0.213 HD
ENDBRANCH  11  35
BRANCH  15  37
HETATM   37  C11 UNL     1      -3.130  18.779   3.965  1.00  0.00     0.245 C 
HETATM   38  O5  UNL     1      -3.443  19.648   4.776  1.00  0.00    -0.306 OA
ENDBRANCH  15  37
BRANCH  28  39
HETATM   39  O8  UNL     1       1.116  15.664   4.689  1.00  0.00    -0.389 OA
HETATM   40  H35 UNL     1       1.000  15.234   5.557  1.00  0.00     0.210 HD
ENDBRANCH  28  39
BRANCH  25  41
HETATM   41  C22 UNL     1       2.594  14.497   1.667  1.00  0.00    -0.045 A 
HETATM   42  C23 UNL     1       3.646  14.313   2.468  1.00  0.00     0.087 A 
HETATM   43  C24 UNL     1       4.843  14.559   1.666  1.00  0.00     0.283 A 
HETATM   44  O6  UNL     1       5.985  14.462   2.067  1.00  0.00    -0.260 OA
HETATM   45  O7  UNL     1       4.476  14.879   0.397  1.00  0.00    -0.314 OA
HETATM   46  C25 UNL     1       3.053  14.874   0.311  1.00  0.00     0.213 A 
ENDBRANCH  25  41
TORSDOF 4
ENDMDL
MODEL 6
REMARK minimizedAffinity -7.07007742
REMARK CNNscore 0.281057626
REMARK CNNaffinity 5.25446463
REMARK  4 active torsions:
REMARK  status: ('A' for Active; 'I' for Inactive)
REMARK    1  A    between atoms: C7_11  and  O3_12 
REMARK    2  A    between atoms: C10_16  and  C11_17 
REMARK    3  A    between atoms: C21_28  and  C22_29 
REMARK    4  A    between atoms: C28_37  and  O8_38 
ROOT
HETATM    1  C1  UNL     1      11.688  -5.373   9.457  1.00  0.00     0.040 C 
HETATM    2  C2  UNL     1      12.214  -5.825   8.102  1.00  0.00     0.124 C 
HETATM    3  C3  UNL     1      13.412  -6.759   8.268  1.00  0.00     0.082 C 
HETATM    4  C4  UNL     1      14.301  -6.817   6.999  1.00  0.00     0.175 C 
HETATM    5  N1  UNL     1      15.526  -6.051   7.176  1.00  0.00    -0.335 N 
HETATM    6  C5  UNL     1      16.647  -6.685   7.625  1.00  0.00     0.230 C 
HETATM    7  O1  UNL     1      17.638  -6.087   8.017  1.00  0.00    -0.273 OA
HETATM    8  C6  UNL     1      16.493  -8.171   7.634  1.00  0.00     0.214 C 
HETATM    9  S1  UNL     1      14.899  -8.576   6.881  1.00  0.00     0.059 S 
HETATM   10  O2  UNL     1      15.159  -8.995   5.294  1.00  0.00    -0.255 OA
HETATM   11  C7  UNL     1      13.515  -6.379   5.725  1.00  0.00     0.252 C 
HETATM   12  O4  UNL     1      14.325  -6.428   4.545  1.00  0.00    -0.340 OA
HETATM   13  C8  UNL     1      13.997  -5.391   3.627  1.00  0.00     0.156 C 
HETATM   14  C9  UNL     1      14.818  -5.589   2.352  1.00  0.00     0.056 C 
HETATM   15  C10 UNL     1      14.634  -4.453   1.312  1.00  0.00     0.043 C 
HETATM   16  C12 UNL     1      14.641  -3.072   1.978  1.00  0.00    -0.065 C 
HETATM   17  C13 UNL     1      15.219  -2.003   1.400  1.00  0.00    -0.022 C 
HETATM   18  C14 UNL     1      15.925  -2.016   0.079  1.00  0.00     0.035 C 
HETATM   19  C15 UNL     1      15.810  -3.334  -0.718  1.00  0.00     0.030 C 
HETATM   20  C16 UNL     1      15.795  -4.550   0.242  1.00  0.00     0.012 C 
HETATM   21  C17 UNL     1      15.810  -5.876  -0.535  1.00  0.00     0.007 C 
HETATM   22  C18 UNL     1      16.978  -5.946  -1.510  1.00  0.00     0.013 C 
HETATM   23  C19 UNL     1      16.981  -4.798  -2.556  1.00  0.00    -0.005 C 
HETATM   24  C20 UNL     1      15.817  -5.025  -3.541  1.00  0.00     0.019 C 
HETATM   25  C21 UNL     1      18.404  -4.790  -3.240  1.00  0.00     0.028 C 
HETATM   26  C26 UNL     1      19.181  -3.635  -2.567  1.00  0.00     0.013 C 
HETATM   27  C27 UNL     1      18.338  -3.184  -1.380  1.00  0.00     0.040 C 
HETATM   28  C28 UNL     1      16.890  -3.414  -1.842  1.00  0.00     0.070 C 
HETATM   29  C29 UNL     1      13.965  -2.923   3.330  1.00  0.00     0.069 C 
HETATM   30  C30 UNL     1      14.347  -4.057   4.277  1.00  0.00     0.158 C 
HETATM   31  O9  UNL     1      13.750  -3.862   5.565  1.00  0.00    -0.347 OA
HETATM   32  C31 UNL     1      12.902  -4.936   5.997  1.00  0.00     0.326 C 
HETATM   33  O10 UNL     1      12.628  -4.676   7.382  1.00  0.00    -0.351 OA
HETATM   34  H7  UNL     1      15.505  -5.034   7.215  1.00  0.00     0.164 HD
ENDROOT
BRANCH  11  35
HETATM   35  O3  UNL     1      12.438  -7.300   5.482  1.00  0.00    -0.359 OA
HETATM   36  H10 UNL     1      12.886  -8.025   4.983  1.00  0.00     0.213 HD
ENDBRANCH  11  35
BRANCH  15  37
HETATM   37  C11 UNL     1      13.249  -4.664   0.658  1.00  0.00     0.245 C 
HETATM   38  O5  UNL     1      13.040  -5.312  -0.365  1.00  0.00    -0.306 OA
ENDBRANCH  15  37
BRANCH  28  39
HETATM   39  O8  UNL     1      16.577  -2.414  -2.821  1.00  0.00    -0.389 OA
HETATM   40  H35 UNL     1      16.812  -1.540  -2.456  1.00  0.00     0.210 HD
ENDBRANCH  28  39
BRANCH  25  41
HETATM   41  C22 UNL     1      18.466  -4.744  -4.740  1.00  0.00    -0.045 A 
HETATM   42  C23 UNL     1      18.383  -3.695  -5.561  1.00  0.00     0.087 A 
HETATM   43  C24 UNL     1      18.540  -4.202  -6.923  1.00  0.00     0.283 A 
HETATM   44  O6  UNL     1      18.538  -3.519  -7.928  1.00  0.00    -0.260 OA
HETATM   45  O7  UNL     1      18.721  -5.548  -6.882  1.00  0.00    -0.314 OA
HETATM   46  C25 UNL     1      18.677  -5.981  -5.525  1.00  0.00     0.213 A 
ENDBRANCH  25  41
TORSDOF 4
ENDMDL
MODEL 7
REMARK minimizedAffinity -6.61773348
REMARK CNNscore 0.27372697
REMARK CNNaffinity 4.75095987
REMARK  4 active torsions:
REMARK  status: ('A' for Active; 'I' for Inactive)
REMARK    1  A    between atoms: C7_11  and  O3_12 
REMARK    2  A    between atoms: C10_16  and  C11_17 
REMARK    3  A    between atoms: C21_28  and  C22_29 
REMARK    4  A    between atoms: C28_37  and  O8_38 
ROOT
HETATM    1  C1  UNL     1       9.226  11.822   5.046  1.00  0.00     0.040 C 
HETATM    2  C2  UNL     1       9.897  12.568   6.192  1.00  0.00     0.124 C 
HETATM    3  C3  UNL     1      11.254  13.122   5.760  1.00  0.00     0.082 C 
HETATM    4  C4  UNL     1      12.192  13.399   6.963  1.00  0.00     0.175 C 
HETATM    5  N1  UNL     1      13.222  12.377   7.077  1.00  0.00    -0.335 N 
HETATM    6  C5  UNL     1      14.428  12.579   6.474  1.00  0.00     0.230 C 
HETATM    7  O1  UNL     1      15.255  11.691   6.323  1.00  0.00    -0.273 OA
HETATM    8  C6  UNL     1      14.587  13.979   5.975  1.00  0.00     0.214 C 
HETATM    9  S1  UNL     1      13.147  14.933   6.514  1.00  0.00     0.059 S 
HETATM   10  O2  UNL     1      13.561  15.779   7.884  1.00  0.00    -0.255 OA
HETATM   11  C7  UNL     1      11.392  13.574   8.290  1.00  0.00     0.252 C 
HETATM   12  O4  UNL     1      12.247  13.831   9.409  1.00  0.00    -0.340 OA
HETATM   13  C8  UNL     1      11.753  13.242  10.606  1.00  0.00     0.156 C 
HETATM   14  C9  UNL     1      12.655  13.666  11.767  1.00  0.00     0.056 C 
HETATM   15  C10 UNL     1      12.287  12.994  13.116  1.00  0.00     0.043 C 
HETATM   16  C12 UNL     1      11.976  11.503  12.938  1.00  0.00    -0.065 C 
HETATM   17  C13 UNL     1      12.345  10.583  13.848  1.00  0.00    -0.022 C 
HETATM   18  C14 UNL     1      13.099  10.875  15.109  1.00  0.00     0.035 C 
HETATM   19  C15 UNL     1      13.296  12.372  15.429  1.00  0.00     0.030 C 
HETATM   20  C16 UNL     1      13.491  13.185  14.125  1.00  0.00     0.012 C 
HETATM   21  C17 UNL     1      13.816  14.657  14.426  1.00  0.00     0.007 C 
HETATM   22  C18 UNL     1      15.017  14.791  15.354  1.00  0.00     0.013 C 
HETATM   23  C19 UNL     1      14.829  14.071  16.717  1.00  0.00    -0.005 C 
HETATM   24  C20 UNL     1      13.784  14.846  17.544  1.00  0.00     0.019 C 
HETATM   25  C21 UNL     1      16.249  13.985  17.402  1.00  0.00     0.028 C 
HETATM   26  C26 UNL     1      16.738  12.538  17.163  1.00  0.00     0.013 C 
HETATM   27  C27 UNL     1      15.766  11.915  16.168  1.00  0.00     0.040 C 
HETATM   28  C28 UNL     1      14.419  12.583  16.492  1.00  0.00     0.070 C 
HETATM   29  C29 UNL     1      11.224  11.070  11.693  1.00  0.00     0.069 C 
HETATM   30  C30 UNL     1      11.788  11.727  10.437  1.00  0.00     0.158 C 
HETATM   31  O9  UNL     1      11.106  11.256   9.269  1.00  0.00    -0.347 OA
HETATM   32  C31 UNL     1      10.481  12.285   8.488  1.00  0.00     0.326 C 
HETATM   33  O10 UNL     1      10.095  11.654   7.258  1.00  0.00    -0.351 OA
HETATM   34  H7  UNL     1      12.989  11.431   7.371  1.00  0.00     0.164 HD
ENDROOT
BRANCH  11  35
HETATM   35  O3  UNL     1      10.542  14.730   8.191  1.00  0.00    -0.359 OA
HETATM   36  H10 UNL     1      11.153  15.465   8.437  1.00  0.00     0.213 HD
ENDBRANCH  11  35
BRANCH  15  37
HETATM   37  C11 UNL     1      11.007  13.693  13.630  1.00  0.00     0.245 C 
HETATM   38  O5  UNL     1       9.887  13.187  13.659  1.00  0.00    -0.306 OA
ENDBRANCH  15  37
BRANCH  28  39
HETATM   39  O8  UNL     1      13.951  12.044  17.737  1.00  0.00    -0.389 OA
HETATM   40  H35 UNL     1      13.983  11.071  17.683  1.00  0.00     0.210 HD
ENDBRANCH  28  39
BRANCH  25  41
HETATM   41  C22 UNL     1      16.369  14.416  18.836  1.00  0.00    -0.045 A 
HETATM   42  C23 UNL     1      15.937  13.809  19.943  1.00  0.00     0.087 A 
HETATM   43  C24 UNL     1      16.348  14.638  21.075  1.00  0.00     0.283 A 
HETATM   44  O6  UNL     1      16.140  14.379  22.243  1.00  0.00    -0.260 OA
HETATM   45  O7  UNL     1      17.023  15.724  20.614  1.00  0.00    -0.314 OA
HETATM   46  C25 UNL     1      17.075  15.668  19.191  1.00  0.00     0.213 A 
ENDBRANCH  25  41
TORSDOF 4
ENDMDL
MODEL 8
REMARK minimizedAffinity -8.56741714
REMARK CNNscore 0.26842761
REMARK CNNaffinity 6.01517248
REMARK  4 active torsions:
REMARK  status: ('A' for Active; 'I' for Inactive)
REMARK    1  A    between atoms: C7_11  and  O3_12 
REMARK    2  A    between atoms: C10_16  and  C11_17 
REMARK    3  A    between atoms: C21_28  and  C22_29 
REMARK    4  A    between atoms: C28_37  and  O8_38 
ROOT
HETATM    1  C1  UNL     1      -1.246  18.738  18.198  1.00  0.00     0.040 C 
HETATM    2  C2  UNL     1      -1.087  17.595  17.205  1.00  0.00     0.124 C 
HETATM    3  C3  UNL     1      -1.945  17.831  15.962  1.00  0.00     0.082 C 
HETATM    4  C4  UNL     1      -2.250  16.520  15.194  1.00  0.00     0.175 C 
HETATM    5  N1  UNL     1      -3.618  16.078  15.424  1.00  0.00    -0.335 N 
HETATM    6  C5  UNL     1      -4.596  16.462  14.555  1.00  0.00     0.230 C 
HETATM    7  O1  UNL     1      -5.788  16.334  14.794  1.00  0.00    -0.273 OA
HETATM    8  C6  UNL     1      -4.042  17.103  13.324  1.00  0.00     0.214 C 
HETATM    9  S1  UNL     1      -2.238  16.978  13.389  1.00  0.00     0.059 S 
HETATM   10  O2  UNL     1      -1.768  15.680  12.464  1.00  0.00    -0.255 OA
HETATM   11  C7  UNL     1      -1.211  15.404  15.521  1.00  0.00     0.252 C 
HETATM   12  O4  UNL     1      -1.482  14.187  14.817  1.00  0.00    -0.340 OA
HETATM   13  C8  UNL     1      -1.149  13.038  15.587  1.00  0.00     0.156 C 
HETATM   14  C9  UNL     1      -1.353  11.794  14.721  1.00  0.00     0.056 C 
HETATM   15  C10 UNL     1      -1.130  10.462  15.485  1.00  0.00     0.043 C 
HETATM   16  C12 UNL     1      -1.772  10.496  16.878  1.00  0.00    -0.065 C 
HETATM   17  C13 UNL     1      -2.375   9.419  17.413  1.00  0.00    -0.022 C 
HETATM   18  C14 UNL     1      -2.513   8.088  16.740  1.00  0.00     0.035 C 
HETATM   19  C15 UNL     1      -1.745   7.938  15.409  1.00  0.00     0.030 C 
HETATM   20  C16 UNL     1      -1.739   9.277  14.632  1.00  0.00     0.012 C 
HETATM   21  C17 UNL     1      -1.091   9.118  13.247  1.00  0.00     0.007 C 
HETATM   22  C18 UNL     1      -1.749   8.005  12.441  1.00  0.00     0.013 C 
HETATM   23  C19 UNL     1      -1.694   6.619  13.139  1.00  0.00    -0.005 C 
HETATM   24  C20 UNL     1      -0.237   6.116  13.122  1.00  0.00     0.019 C 
HETATM   25  C21 UNL     1      -2.706   5.672  12.384  1.00  0.00     0.028 C 
HETATM   26  C26 UNL     1      -3.969   5.620  13.274  1.00  0.00     0.013 C 
HETATM   27  C27 UNL     1      -3.785   6.690  14.344  1.00  0.00     0.040 C 
HETATM   28  C28 UNL     1      -2.267   6.718  14.587  1.00  0.00     0.070 C 
HETATM   29  C29 UNL     1      -1.712  11.793  17.664  1.00  0.00     0.069 C 
HETATM   30  C30 UNL     1      -2.076  12.995  16.798  1.00  0.00     0.158 C 
HETATM   31  O9  UNL     1      -2.074  14.198  17.574  1.00  0.00    -0.347 OA
HETATM   32  C31 UNL     1      -1.177  15.213  17.101  1.00  0.00     0.326 C 
HETATM   33  O10 UNL     1      -1.515  16.399  17.835  1.00  0.00    -0.351 OA
HETATM   34  H7  UNL     1      -3.902  15.710  16.330  1.00  0.00     0.164 HD
ENDROOT
BRANCH  11  35
HETATM   35  O3  UNL     1       0.093  15.814  15.078  1.00  0.00    -0.359 OA
HETATM   36  H10 UNL     1       0.085  15.557  14.124  1.00  0.00     0.213 HD
ENDBRANCH  11  35
BRANCH  15  37
HETATM   37  C11 UNL     1       0.396  10.298  15.665  1.00  0.00     0.245 C 
HETATM   38  O5  UNL     1       1.051  10.744  16.605  1.00  0.00    -0.306 OA
ENDBRANCH  15  37
BRANCH  28  39
HETATM   39  O8  UNL     1      -1.915   5.525  15.301  1.00  0.00    -0.389 OA
HETATM   40  H35 UNL     1      -2.504   5.442  16.074  1.00  0.00     0.210 HD
ENDBRANCH  28  39
BRANCH  25  41
HETATM   41  C22 UNL     1      -2.224   4.312  11.968  1.00  0.00    -0.045 A 
HETATM   42  C23 UNL     1      -1.022   3.935  11.525  1.00  0.00     0.087 A 
HETATM   43  C24 UNL     1      -1.081   2.493  11.297  1.00  0.00     0.283 A 
HETATM   44  O6  UNL     1      -0.155   1.808  10.911  1.00  0.00    -0.260 OA
HETATM   45  O7  UNL     1      -2.321   2.038  11.616  1.00  0.00    -0.314 OA
HETATM   46  C25 UNL     1      -3.122   3.137  12.045  1.00  0.00     0.213 A 
ENDBRANCH  25  41
TORSDOF 4
ENDMDL
MODEL 9
REMARK minimizedAffinity -7.067348
REMARK CNNscore 0.252848297
REMARK CNNaffinity 6.01972723
REMARK  4 active torsions:
REMARK  status: ('A' for Active; 'I' for Inactive)
REMARK    1  A    between atoms: C7_11  and  O3_12 
REMARK    2  A    between atoms: C10_16  and  C11_17 
REMARK    3  A    between atoms: C21_28  and  C22_29 
REMARK    4  A    between atoms: C28_37  and  O8_38 
ROOT
HETATM    1  C1  UNL     1     -14.638  11.634  -5.903  1.00  0.00     0.040 C 
HETATM    2  C2  UNL     1     -14.227  11.714  -4.439  1.00  0.00     0.124 C 
HETATM    3  C3  UNL     1     -15.414  11.422  -3.523  1.00  0.00     0.082 C 
HETATM    4  C4  UNL     1     -15.220  11.998  -2.097  1.00  0.00     0.175 C 
HETATM    5  N1  UNL     1     -16.019  13.199  -1.897  1.00  0.00    -0.335 N 
HETATM    6  C5  UNL     1     -17.266  13.085  -1.357  1.00  0.00     0.230 C 
HETATM    7  O1  UNL     1     -18.083  13.994  -1.368  1.00  0.00    -0.273 OA
HETATM    8  C6  UNL     1     -17.526  11.717  -0.814  1.00  0.00     0.214 C 
HETATM    9  S1  UNL     1     -15.996  10.760  -0.943  1.00  0.00     0.059 S 
HETATM   10  O2  UNL     1     -15.234  10.787   0.534  1.00  0.00    -0.255 OA
HETATM   11  C7  UNL     1     -13.713  12.237  -1.772  1.00  0.00     0.252 C 
HETATM   12  O4  UNL     1     -13.520  12.769  -0.456  1.00  0.00    -0.340 OA
HETATM   13  C8  UNL     1     -12.428  13.678  -0.403  1.00  0.00     0.156 C 
HETATM   14  C9  UNL     1     -12.215  14.102   1.052  1.00  0.00     0.056 C 
HETATM   15  C10 UNL     1     -11.120  15.185   1.230  1.00  0.00     0.043 C 
HETATM   16  C12 UNL     1     -11.227  16.278   0.159  1.00  0.00    -0.065 C 
HETATM   17  C13 UNL     1     -10.994  17.574   0.435  1.00  0.00    -0.022 C 
HETATM   18  C14 UNL     1     -10.626  18.114   1.783  1.00  0.00     0.035 C 
HETATM   19  C15 UNL     1     -10.338  17.049   2.865  1.00  0.00     0.030 C 
HETATM   20  C16 UNL     1     -11.259  15.818   2.673  1.00  0.00     0.012 C 
HETATM   21  C17 UNL     1     -11.081  14.802   3.813  1.00  0.00     0.007 C 
HETATM   22  C18 UNL     1     -11.282  15.446   5.179  1.00  0.00     0.013 C 
HETATM   23  C19 UNL     1     -10.312  16.627   5.456  1.00  0.00    -0.005 C 
HETATM   24  C20 UNL     1      -8.891  16.063   5.650  1.00  0.00     0.019 C 
HETATM   25  C21 UNL     1     -10.867  17.405   6.712  1.00  0.00     0.028 C 
HETATM   26  C26 UNL     1     -11.581  18.654   6.144  1.00  0.00     0.013 C 
HETATM   27  C27 UNL     1     -11.658  18.455   4.635  1.00  0.00     0.040 C 
HETATM   28  C28 UNL     1     -10.381  17.668   4.296  1.00  0.00     0.070 C 
HETATM   29  C29 UNL     1     -11.605  15.865  -1.252  1.00  0.00     0.069 C 
HETATM   30  C30 UNL     1     -12.779  14.891  -1.258  1.00  0.00     0.158 C 
HETATM   31  O9  UNL     1     -13.160  14.565  -2.600  1.00  0.00    -0.347 OA
HETATM   32  C31 UNL     1     -13.106  13.166  -2.913  1.00  0.00     0.326 C 
HETATM   33  O10 UNL     1     -13.763  13.029  -4.181  1.00  0.00    -0.351 OA
HETATM   34  H7  UNL     1     -15.782  14.068  -2.370  1.00  0.00     0.164 HD
ENDROOT
BRANCH  11  35
HETATM   35  O3  UNL     1     -13.014  10.981  -1.778  1.00  0.00    -0.359 OA
HETATM   36  H10 UNL     1     -13.180  10.641  -0.866  1.00  0.00     0.213 HD
ENDBRANCH  11  35
BRANCH  15  37
HETATM   37  C11 UNL     1      -9.756  14.477   1.057  1.00  0.00     0.245 C 
HETATM   38  O5  UNL     1      -8.783  14.948   0.472  1.00  0.00    -0.306 OA
ENDBRANCH  15  37
BRANCH  28  39
HETATM   39  O8  UNL     1      -9.268  18.564   4.420  1.00  0.00    -0.389 OA
HETATM   40  H35 UNL     1      -9.462  19.371   3.907  1.00  0.00     0.210 HD
ENDBRANCH  28  39
BRANCH  25  41
HETATM   41  C22 UNL     1      -9.909  17.731   7.822  1.00  0.00    -0.045 A 
HETATM   42  C23 UNL     1      -8.596  17.968   7.767  1.00  0.00     0.087 A 
HETATM   43  C24 UNL     1      -8.157  18.268   9.129  1.00  0.00     0.283 A 
HETATM   44  O6  UNL     1      -7.022  18.554   9.450  1.00  0.00    -0.260 OA
HETATM   45  O7  UNL     1      -9.225  18.209   9.968  1.00  0.00    -0.314 OA
HETATM   46  C25 UNL     1     -10.385  17.861   9.217  1.00  0.00     0.213 A 
ENDBRANCH  25  41
TORSDOF 4
ENDMDL
