MODEL 1
REMARK minimizedAffinity -6.77739048
REMARK CNNscore 0.640748203
REMARK CNNaffinity 6.93390989
REMARK  12 active torsions:
REMARK  status: ('A' for Active; 'I' for Inactive)
REMARK    1  A    between atoms: O1_2  and  C2_3 
REMARK    2  A    between atoms: C2_3  and  C3_4 
REMARK    3  A    between atoms: C3_4  and  C4_5 
REMARK    4  A    between atoms: C4_5  and  N1_6 
REMARK    5  A    between atoms: N1_6  and  C5_7 
REMARK    6  A    between atoms: C5_7  and  C6_8 
REMARK    7  A    between atoms: C10_12  and  O2_13 
REMARK    8  A    between atoms: C16_19  and  O3_20 
REMARK    9  A    between atoms: C25_29  and  C26_30 
REMARK   10  A    between atoms: C33_37  and  O4_38 
REMARK   11  A    between atoms: C36_41  and  C37_42 
REMARK   12  A    between atoms: C38_44  and  O6_45 
ROOT
HETATM    1  C6  UNL     1      -9.850  13.112  19.779  1.00  0.00    -0.022 C 
HETATM    2  C7  UNL     1     -10.061  11.861  20.257  1.00  0.00    -0.014 C 
HETATM    3  C8  UNL     1     -10.453  11.630  21.695  1.00  0.00     0.021 C 
HETATM    4  C9  UNL     1     -11.389  10.466  22.023  1.00  0.00     0.051 C 
HETATM    5  C10 UNL     1     -11.666  10.721  23.522  1.00  0.00     0.098 C 
HETATM    6  C11 UNL     1     -11.901  12.286  23.599  1.00  0.00    -0.002 C 
HETATM    7  C12 UNL     1     -11.327  12.897  24.887  1.00  0.00     0.019 C 
HETATM    8  C13 UNL     1     -13.412  12.651  23.510  1.00  0.00     0.013 C 
HETATM    9  C14 UNL     1     -14.325  11.779  24.357  1.00  0.00     0.010 C 
HETATM   10  C15 UNL     1     -14.196  10.302  23.930  1.00  0.00     0.041 C 
HETATM   11  C16 UNL     1     -12.760   9.821  24.198  1.00  0.00     0.095 C 
HETATM   12  C17 UNL     1     -12.609   8.343  23.804  1.00  0.00     0.049 C 
HETATM   13  C18 UNL     1     -13.602   7.420  24.533  1.00  0.00     0.025 C 
HETATM   14  C19 UNL     1     -13.191   5.939  24.269  1.00  0.00     0.013 C 
HETATM   15  C20 UNL     1     -14.317   4.889  24.245  1.00  0.00    -0.002 C 
HETATM   16  C21 UNL     1     -15.066   4.883  22.879  1.00  0.00     0.013 C 
HETATM   17  C22 UNL     1     -14.467   3.894  21.887  1.00  0.00    -0.026 C 
HETATM   18  C23 UNL     1     -13.481   3.034  22.172  1.00  0.00    -0.030 C 
HETATM   19  C24 UNL     1     -12.903   2.876  23.543  1.00  0.00     0.032 C 
HETATM   20  C25 UNL     1     -13.841   3.448  24.620  1.00  0.00    -0.002 C 
HETATM   21  C31 UNL     1     -15.119   6.246  22.158  1.00  0.00     0.019 C 
HETATM   22  C32 UNL     1     -15.633   7.507  22.878  1.00  0.00     0.051 C 
HETATM   23  C33 UNL     1     -17.182   7.594  22.875  1.00  0.00     0.125 C 
HETATM   24  C34 UNL     1     -17.717   8.745  23.738  1.00  0.00     0.033 C 
HETATM   25  C35 UNL     1     -16.693   9.858  23.905  1.00  0.00     0.023 C 
HETATM   26  C36 UNL     1     -15.332   9.396  24.552  1.00  0.00     0.051 C 
HETATM   27  C38 UNL     1     -15.080   7.841  24.295  1.00  0.00     0.082 C 
HETATM   28  C39 UNL     1     -11.232  12.830  22.277  1.00  0.00     0.036 C 
HETATM   29  C40 UNL     1     -10.343  14.014  22.082  1.00  0.00    -0.035 C 
HETATM   30  C41 UNL     1      -9.617  14.778  22.890  1.00  0.00     0.088 C 
HETATM   31  C42 UNL     1      -8.748  15.573  22.018  1.00  0.00     0.284 C 
HETATM   32  O7  UNL     1      -7.939  16.392  22.419  1.00  0.00    -0.260 OA
HETATM   33  O8  UNL     1      -8.950  15.223  20.721  1.00  0.00    -0.304 OA
HETATM   34  C43 UNL     1     -10.071  14.354  20.646  1.00  0.00     0.192 C 
ENDROOT
BRANCH   1  35
HETATM   35  C5  UNL     1      -9.520  13.348  18.325  1.00  0.00     0.306 C 
BRANCH  35  36
HETATM   36  N1  UNL     1      -8.141  13.773  18.151  1.00  0.00     0.087 N 
HETATM   37  H10 UNL     1      -7.530  13.194  18.724  1.00  0.00     0.316 HD
BRANCH  36  38
HETATM   38  C4  UNL     1      -7.724  13.713  16.752  1.00  0.00     0.272 C 
BRANCH  38  39
HETATM   39  C3  UNL     1      -6.354  14.365  16.565  1.00  0.00     0.056 C 
BRANCH  39  40
HETATM   40  C2  UNL     1      -5.220  13.340  16.502  1.00  0.00     0.168 C 
BRANCH  40  41
HETATM   41  O1  UNL     1      -4.210  13.655  17.464  1.00  0.00    -0.396 OA
HETATM   42  C1  UNL     1      -4.117  12.681  18.496  1.00  0.00     0.201 C 
ENDBRANCH  40  41
ENDBRANCH  39  40
ENDBRANCH  38  39
ENDBRANCH  36  38
ENDBRANCH  35  36
ENDBRANCH   1  35
BRANCH   5  43
HETATM   43  O2  UNL     1     -10.436  10.413  24.236  1.00  0.00    -0.386 OA
HETATM   44  H17 UNL     1     -10.064   9.583  23.886  1.00  0.00     0.210 HD
ENDBRANCH   5  43
BRANCH  11  45
HETATM   45  O3  UNL     1     -12.537   9.878  25.619  1.00  0.00    -0.386 OA
HETATM   46  H26 UNL     1     -11.584  10.089  25.733  1.00  0.00     0.210 HD
ENDBRANCH  11  45
BRANCH  26  47
HETATM   47  C37 UNL     1     -15.397   9.644  26.070  1.00  0.00     0.244 C 
HETATM   48  O5  UNL     1     -15.312  10.746  26.609  1.00  0.00    -0.306 OA
ENDBRANCH  26  47
BRANCH  27  49
HETATM   49  O6  UNL     1     -15.906   7.114  25.232  1.00  0.00    -0.388 OA
HETATM   50  H58 UNL     1     -15.449   7.035  26.088  1.00  0.00     0.210 HD
ENDBRANCH  27  49
BRANCH  23  51
HETATM   51  O4  UNL     1     -17.766   6.383  23.346  1.00  0.00    -0.395 OA
HETATM   52  H52 UNL     1     -17.405   6.260  24.250  1.00  0.00     0.210 HD
ENDBRANCH  23  51
BRANCH  20  53
HETATM   53  C26 UNL     1     -13.215   3.321  26.030  1.00  0.00    -0.010 C 
HETATM   54  C27 UNL     1     -12.311   2.089  26.188  1.00  0.00     0.005 C 
HETATM   55  C28 UNL     1     -12.359   1.713  27.671  1.00  0.00     0.000 C 
HETATM   56  C29 UNL     1     -13.378   2.645  28.315  1.00  0.00     0.000 C 
HETATM   57  C30 UNL     1     -14.231   3.142  27.158  1.00  0.00     0.005 C 
ENDBRANCH  20  53
TORSDOF 12
ENDMDL
MODEL 2
REMARK minimizedAffinity -6.7097683
REMARK CNNscore 0.583000302
REMARK CNNaffinity 7.05778122
REMARK  12 active torsions:
REMARK  status: ('A' for Active; 'I' for Inactive)
REMARK    1  A    between atoms: O1_2  and  C2_3 
REMARK    2  A    between atoms: C2_3  and  C3_4 
REMARK    3  A    between atoms: C3_4  and  C4_5 
REMARK    4  A    between atoms: C4_5  and  N1_6 
REMARK    5  A    between atoms: N1_6  and  C5_7 
REMARK    6  A    between atoms: C5_7  and  C6_8 
REMARK    7  A    between atoms: C10_12  and  O2_13 
REMARK    8  A    between atoms: C16_19  and  O3_20 
REMARK    9  A    between atoms: C25_29  and  C26_30 
REMARK   10  A    between atoms: C33_37  and  O4_38 
REMARK   11  A    between atoms: C36_41  and  C37_42 
REMARK   12  A    between atoms: C38_44  and  O6_45 
ROOT
HETATM    1  C6  UNL     1     -10.353  12.360  21.763  1.00  0.00    -0.022 C 
HETATM    2  C7  UNL     1     -10.431  11.151  22.374  1.00  0.00    -0.014 C 
HETATM    3  C8  UNL     1     -11.404  10.907  23.501  1.00  0.00     0.021 C 
HETATM    4  C9  UNL     1     -12.032   9.520  23.641  1.00  0.00     0.051 C 
HETATM    5  C10 UNL     1     -13.069   9.774  24.759  1.00  0.00     0.098 C 
HETATM    6  C11 UNL     1     -13.717  11.164  24.358  1.00  0.00    -0.002 C 
HETATM    7  C12 UNL     1     -14.039  12.029  25.587  1.00  0.00     0.019 C 
HETATM    8  C13 UNL     1     -15.021  10.978  23.529  1.00  0.00     0.013 C 
HETATM    9  C14 UNL     1     -15.964   9.911  24.062  1.00  0.00     0.010 C 
HETATM   10  C15 UNL     1     -15.254   8.541  24.091  1.00  0.00     0.041 C 
HETATM   11  C16 UNL     1     -14.069   8.606  25.069  1.00  0.00     0.095 C 
HETATM   12  C17 UNL     1     -13.357   7.245  25.137  1.00  0.00     0.049 C 
HETATM   13  C18 UNL     1     -14.295   6.094  25.544  1.00  0.00     0.025 C 
HETATM   14  C19 UNL     1     -13.430   4.830  25.840  1.00  0.00     0.013 C 
HETATM   15  C20 UNL     1     -14.072   3.457  25.564  1.00  0.00    -0.002 C 
HETATM   16  C21 UNL     1     -14.017   3.092  24.051  1.00  0.00     0.013 C 
HETATM   17  C22 UNL     1     -12.769   2.299  23.685  1.00  0.00    -0.026 C 
HETATM   18  C23 UNL     1     -11.864   1.855  24.567  1.00  0.00    -0.030 C 
HETATM   19  C24 UNL     1     -12.020   2.008  26.047  1.00  0.00     0.032 C 
HETATM   20  C25 UNL     1     -13.480   2.301  26.434  1.00  0.00    -0.002 C 
HETATM   21  C31 UNL     1     -14.067   4.295  23.087  1.00  0.00     0.019 C 
HETATM   22  C32 UNL     1     -15.183   5.353  23.192  1.00  0.00     0.051 C 
HETATM   23  C33 UNL     1     -16.488   4.900  22.485  1.00  0.00     0.125 C 
HETATM   24  C34 UNL     1     -17.663   5.857  22.729  1.00  0.00     0.033 C 
HETATM   25  C35 UNL     1     -17.193   7.264  23.068  1.00  0.00     0.023 C 
HETATM   26  C36 UNL     1     -16.261   7.349  24.338  1.00  0.00     0.051 C 
HETATM   27  C38 UNL     1     -15.513   5.961  24.587  1.00  0.00     0.082 C 
HETATM   28  C39 UNL     1     -12.655  11.805  23.382  1.00  0.00     0.036 C 
HETATM   29  C40 UNL     1     -12.137  13.204  23.332  1.00  0.00    -0.035 C 
HETATM   30  C41 UNL     1     -12.137  14.230  24.176  1.00  0.00     0.088 C 
HETATM   31  C42 UNL     1     -11.199  15.209  23.620  1.00  0.00     0.284 C 
HETATM   32  O7  UNL     1     -10.943  16.283  24.136  1.00  0.00    -0.260 OA
HETATM   33  O8  UNL     1     -10.633  14.715  22.488  1.00  0.00    -0.304 OA
HETATM   34  C43 UNL     1     -11.294  13.509  22.129  1.00  0.00     0.192 C 
ENDROOT
BRANCH   1  35
HETATM   35  C5  UNL     1      -9.425  12.585  20.594  1.00  0.00     0.306 C 
BRANCH  35  36
HETATM   36  N1  UNL     1     -10.055  13.388  19.558  1.00  0.00     0.087 N 
HETATM   37  H10 UNL     1      -9.447  14.168  19.313  1.00  0.00     0.316 HD
BRANCH  36  38
HETATM   38  C4  UNL     1     -10.365  12.599  18.369  1.00  0.00     0.272 C 
BRANCH  38  39
HETATM   39  C3  UNL     1      -9.558  13.087  17.166  1.00  0.00     0.056 C 
BRANCH  39  40
HETATM   40  C2  UNL     1     -10.116  12.574  15.838  1.00  0.00     0.168 C 
BRANCH  40  41
HETATM   41  O1  UNL     1     -10.503  11.202  15.955  1.00  0.00    -0.396 OA
HETATM   42  C1  UNL     1      -9.683  10.336  15.180  1.00  0.00     0.201 C 
ENDBRANCH  40  41
ENDBRANCH  39  40
ENDBRANCH  38  39
ENDBRANCH  36  38
ENDBRANCH  35  36
ENDBRANCH   1  35
BRANCH   5  43
HETATM   43  O2  UNL     1     -12.320   9.963  25.992  1.00  0.00    -0.386 OA
HETATM   44  H17 UNL     1     -11.619   9.289  26.045  1.00  0.00     0.210 HD
ENDBRANCH   5  43
BRANCH  11  45
HETATM   45  O3  UNL     1     -14.600   8.842  26.387  1.00  0.00    -0.386 OA
HETATM   46  H26 UNL     1     -13.924   9.377  26.857  1.00  0.00     0.210 HD
ENDBRANCH  11  45
BRANCH  26  47
HETATM   47  C37 UNL     1     -17.130   7.671  25.567  1.00  0.00     0.244 C 
HETATM   48  O5  UNL     1     -18.293   7.303  25.724  1.00  0.00    -0.306 OA
ENDBRANCH  26  47
BRANCH  27  49
HETATM   49  O6  UNL     1     -16.466   5.066  25.202  1.00  0.00    -0.388 OA
HETATM   50  H58 UNL     1     -16.489   5.213  26.164  1.00  0.00     0.210 HD
ENDBRANCH  27  49
BRANCH  23  51
HETATM   51  O4  UNL     1     -16.882   3.601  22.915  1.00  0.00    -0.395 OA
HETATM   52  H52 UNL     1     -16.996   3.677  23.886  1.00  0.00     0.210 HD
ENDBRANCH  23  51
BRANCH  20  53
HETATM   53  C26 UNL     1     -13.623   2.503  27.961  1.00  0.00    -0.010 C 
HETATM   54  C27 UNL     1     -14.528   3.687  28.338  1.00  0.00     0.005 C 
HETATM   55  C28 UNL     1     -14.033   4.184  29.699  1.00  0.00     0.000 C 
HETATM   56  C29 UNL     1     -12.785   3.371  30.023  1.00  0.00     0.000 C 
HETATM   57  C30 UNL     1     -12.315   2.835  28.680  1.00  0.00     0.005 C 
ENDBRANCH  20  53
TORSDOF 12
ENDMDL
MODEL 3
REMARK minimizedAffinity -6.81679869
REMARK CNNscore 0.57039392
REMARK CNNaffinity 6.90273285
REMARK  12 active torsions:
REMARK  status: ('A' for Active; 'I' for Inactive)
REMARK    1  A    between atoms: O1_2  and  C2_3 
REMARK    2  A    between atoms: C2_3  and  C3_4 
REMARK    3  A    between atoms: C3_4  and  C4_5 
REMARK    4  A    between atoms: C4_5  and  N1_6 
REMARK    5  A    between atoms: N1_6  and  C5_7 
REMARK    6  A    between atoms: C5_7  and  C6_8 
REMARK    7  A    between atoms: C10_12  and  O2_13 
REMARK    8  A    between atoms: C16_19  and  O3_20 
REMARK    9  A    between atoms: C25_29  and  C26_30 
REMARK   10  A    between atoms: C33_37  and  O4_38 
REMARK   11  A    between atoms: C36_41  and  C37_42 
REMARK   12  A    between atoms: C38_44  and  O6_45 
ROOT
HETATM    1  C6  UNL     1     -11.681  10.132  18.694  1.00  0.00    -0.022 C 
HETATM    2  C7  UNL     1     -11.597   9.205  19.680  1.00  0.00    -0.014 C 
HETATM    3  C8  UNL     1     -12.270   9.419  21.012  1.00  0.00     0.021 C 
HETATM    4  C9  UNL     1     -12.829   8.204  21.756  1.00  0.00     0.051 C 
HETATM    5  C10 UNL     1     -13.574   8.889  22.925  1.00  0.00     0.098 C 
HETATM    6  C11 UNL     1     -14.316  10.107  22.235  1.00  0.00    -0.002 C 
HETATM    7  C12 UNL     1     -14.348  11.353  23.134  1.00  0.00     0.019 C 
HETATM    8  C13 UNL     1     -15.777   9.747  21.839  1.00  0.00     0.013 C 
HETATM    9  C14 UNL     1     -16.553   8.987  22.903  1.00  0.00     0.010 C 
HETATM   10  C15 UNL     1     -15.840   7.659  23.234  1.00  0.00     0.041 C 
HETATM   11  C16 UNL     1     -14.457   7.963  23.834  1.00  0.00     0.095 C 
HETATM   12  C17 UNL     1     -13.732   6.657  24.196  1.00  0.00     0.049 C 
HETATM   13  C18 UNL     1     -14.531   5.775  25.173  1.00  0.00     0.025 C 
HETATM   14  C19 UNL     1     -13.606   4.625  25.677  1.00  0.00     0.013 C 
HETATM   15  C20 UNL     1     -14.277   3.287  26.039  1.00  0.00    -0.002 C 
HETATM   16  C21 UNL     1     -14.579   2.436  24.770  1.00  0.00     0.013 C 
HETATM   17  C22 UNL     1     -13.444   1.482  24.421  1.00  0.00    -0.026 C 
HETATM   18  C23 UNL     1     -12.350   1.295  25.171  1.00  0.00    -0.030 C 
HETATM   19  C24 UNL     1     -12.151   1.943  26.504  1.00  0.00     0.032 C 
HETATM   20  C25 UNL     1     -13.481   2.449  27.090  1.00  0.00    -0.002 C 
HETATM   21  C31 UNL     1     -14.872   3.250  23.493  1.00  0.00     0.019 C 
HETATM   22  C32 UNL     1     -15.944   4.356  23.482  1.00  0.00     0.051 C 
HETATM   23  C33 UNL     1     -17.374   3.786  23.289  1.00  0.00     0.125 C 
HETATM   24  C34 UNL     1     -18.469   4.848  23.454  1.00  0.00     0.033 C 
HETATM   25  C35 UNL     1     -17.949   6.252  23.178  1.00  0.00     0.023 C 
HETATM   26  C36 UNL     1     -16.744   6.690  24.094  1.00  0.00     0.051 C 
HETATM   27  C38 UNL     1     -15.940   5.416  24.623  1.00  0.00     0.082 C 
HETATM   28  C39 UNL     1     -13.525  10.311  20.884  1.00  0.00     0.036 C 
HETATM   29  C40 UNL     1     -13.052  11.573  20.244  1.00  0.00    -0.035 C 
HETATM   30  C41 UNL     1     -12.863  12.819  20.665  1.00  0.00     0.088 C 
HETATM   31  C42 UNL     1     -12.096  13.489  19.611  1.00  0.00     0.284 C 
HETATM   32  O7  UNL     1     -11.739  14.653  19.657  1.00  0.00    -0.260 OA
HETATM   33  O8  UNL     1     -11.810  12.607  18.617  1.00  0.00    -0.304 OA
HETATM   34  C43 UNL     1     -12.523  11.401  18.851  1.00  0.00     0.192 C 
ENDROOT
BRANCH   1  35
HETATM   35  C5  UNL     1     -11.061   9.890  17.339  1.00  0.00     0.306 C 
BRANCH  35  36
HETATM   36  N1  UNL     1     -10.367   8.613  17.289  1.00  0.00     0.087 N 
HETATM   37  H10 UNL     1     -10.944   7.893  17.720  1.00  0.00     0.316 HD
BRANCH  36  38
HETATM   38  C4  UNL     1     -10.023   8.231  15.922  1.00  0.00     0.272 C 
BRANCH  38  39
HETATM   39  C3  UNL     1     -10.133   9.429  14.979  1.00  0.00     0.056 C 
BRANCH  39  40
HETATM   40  C2  UNL     1     -11.365   9.354  14.076  1.00  0.00     0.168 C 
BRANCH  40  41
HETATM   41  O1  UNL     1     -11.166   8.386  13.041  1.00  0.00    -0.396 OA
HETATM   42  C1  UNL     1     -12.179   7.388  13.027  1.00  0.00     0.201 C 
ENDBRANCH  40  41
ENDBRANCH  39  40
ENDBRANCH  38  39
ENDBRANCH  36  38
ENDBRANCH  35  36
ENDBRANCH   1  35
BRANCH   5  43
HETATM   43  O2  UNL     1     -12.555   9.426  23.815  1.00  0.00    -0.386 OA
HETATM   44  H17 UNL     1     -11.853   8.761  23.934  1.00  0.00     0.210 HD
ENDBRANCH   5  43
BRANCH  11  45
HETATM   45  O3  UNL     1     -14.662   8.661  25.077  1.00  0.00    -0.386 OA
HETATM   46  H26 UNL     1     -13.899   9.274  25.170  1.00  0.00     0.210 HD
ENDBRANCH  11  45
BRANCH  26  47
HETATM   47  C37 UNL     1     -17.299   7.463  25.304  1.00  0.00     0.244 C 
HETATM   48  O5  UNL     1     -16.811   7.451  26.433  1.00  0.00    -0.306 OA
ENDBRANCH  26  47
BRANCH  27  49
HETATM   49  O6  UNL     1     -16.708   4.846  25.706  1.00  0.00    -0.388 OA
HETATM   50  H58 UNL     1     -16.504   5.307  26.539  1.00  0.00     0.210 HD
ENDBRANCH  27  49
BRANCH  23  51
HETATM   51  O4  UNL     1     -17.638   2.735  24.214  1.00  0.00    -0.395 OA
HETATM   52  H52 UNL     1     -17.519   3.139  25.099  1.00  0.00     0.210 HD
ENDBRANCH  23  51
BRANCH  20  53
HETATM   53  C26 UNL     1     -13.259   3.158  28.447  1.00  0.00    -0.010 C 
HETATM   54  C27 UNL     1     -12.180   2.492  29.316  1.00  0.00     0.005 C 
HETATM   55  C28 UNL     1     -12.551   2.801  30.768  1.00  0.00     0.000 C 
HETATM   56  C29 UNL     1     -13.892   3.523  30.722  1.00  0.00     0.000 C 
HETATM   57  C30 UNL     1     -14.480   3.158  29.367  1.00  0.00     0.005 C 
ENDBRANCH  20  53
TORSDOF 12
ENDMDL
MODEL 4
REMARK minimizedAffinity -6.99226046
REMARK CNNscore 0.553324223
REMARK CNNaffinity 7.2693305
REMARK  12 active torsions:
REMARK  status: ('A' for Active; 'I' for Inactive)
REMARK    1  A    between atoms: O1_2  and  C2_3 
REMARK    2  A    between atoms: C2_3  and  C3_4 
REMARK    3  A    between atoms: C3_4  and  C4_5 
REMARK    4  A    between atoms: C4_5  and  N1_6 
REMARK    5  A    between atoms: N1_6  and  C5_7 
REMARK    6  A    between atoms: C5_7  and  C6_8 
REMARK    7  A    between atoms: C10_12  and  O2_13 
REMARK    8  A    between atoms: C16_19  and  O3_20 
REMARK    9  A    between atoms: C25_29  and  C26_30 
REMARK   10  A    between atoms: C33_37  and  O4_38 
REMARK   11  A    between atoms: C36_41  and  C37_42 
REMARK   12  A    between atoms: C38_44  and  O6_45 
ROOT
HETATM    1  C6  UNL     1     -11.908 -11.732  22.494  1.00  0.00    -0.022 C 
HETATM    2  C7  UNL     1     -12.887 -10.908  22.944  1.00  0.00    -0.014 C 
HETATM    3  C8  UNL     1     -13.539 -11.130  24.285  1.00  0.00     0.021 C 
HETATM    4  C9  UNL     1     -13.995  -9.912  25.090  1.00  0.00     0.051 C 
HETATM    5  C10 UNL     1     -14.406 -10.575  26.425  1.00  0.00     0.098 C 
HETATM    6  C11 UNL     1     -13.243 -11.616  26.699  1.00  0.00    -0.002 C 
HETATM    7  C12 UNL     1     -13.764 -12.913  27.339  1.00  0.00     0.019 C 
HETATM    8  C13 UNL     1     -12.137 -11.022  27.619  1.00  0.00     0.013 C 
HETATM    9  C14 UNL     1     -12.659 -10.247  28.818  1.00  0.00     0.010 C 
HETATM   10  C15 UNL     1     -13.532  -9.064  28.348  1.00  0.00     0.041 C 
HETATM   11  C16 UNL     1     -14.766  -9.609  27.608  1.00  0.00     0.095 C 
HETATM   12  C17 UNL     1     -15.668  -8.452  27.149  1.00  0.00     0.049 C 
HETATM   13  C18 UNL     1     -16.124  -7.547  28.308  1.00  0.00     0.025 C 
HETATM   14  C19 UNL     1     -17.232  -6.584  27.780  1.00  0.00     0.013 C 
HETATM   15  C20 UNL     1     -17.335  -5.198  28.443  1.00  0.00    -0.002 C 
HETATM   16  C21 UNL     1     -16.267  -4.213  27.881  1.00  0.00     0.013 C 
HETATM   17  C22 UNL     1     -16.781  -3.405  26.697  1.00  0.00    -0.026 C 
HETATM   18  C23 UNL     1     -18.041  -3.436  26.244  1.00  0.00    -0.030 C 
HETATM   19  C24 UNL     1     -19.132  -4.211  26.913  1.00  0.00     0.032 C 
HETATM   20  C25 UNL     1     -18.763  -4.568  28.363  1.00  0.00    -0.002 C 
HETATM   21  C31 UNL     1     -14.951  -4.872  27.421  1.00  0.00     0.019 C 
HETATM   22  C32 UNL     1     -14.161  -5.811  28.353  1.00  0.00     0.051 C 
HETATM   23  C33 UNL     1     -13.267  -5.030  29.352  1.00  0.00     0.125 C 
HETATM   24  C34 UNL     1     -12.613  -5.936  30.404  1.00  0.00     0.033 C 
HETATM   25  C35 UNL     1     -12.482  -7.372  29.918  1.00  0.00     0.023 C 
HETATM   26  C36 UNL     1     -13.848  -8.049  29.516  1.00  0.00     0.051 C 
HETATM   27  C38 UNL     1     -14.924  -6.948  29.094  1.00  0.00     0.082 C 
HETATM   28  C39 UNL     1     -12.582 -11.822  25.281  1.00  0.00     0.036 C 
HETATM   29  C40 UNL     1     -12.152 -13.083  24.608  1.00  0.00    -0.035 C 
HETATM   30  C41 UNL     1     -12.416 -14.373  24.790  1.00  0.00     0.088 C 
HETATM   31  C42 UNL     1     -11.909 -15.058  23.597  1.00  0.00     0.284 C 
HETATM   32  O7  UNL     1     -11.980 -16.261  23.416  1.00  0.00    -0.260 OA
HETATM   33  O8  UNL     1     -11.406 -14.150  22.721  1.00  0.00    -0.304 OA
HETATM   34  C43 UNL     1     -11.362 -12.876  23.350  1.00  0.00     0.192 C 
ENDROOT
BRANCH   1  35
HETATM   35  C5  UNL     1     -11.211 -11.472  21.181  1.00  0.00     0.306 C 
BRANCH  35  36
HETATM   36  N1  UNL     1     -10.600 -10.152  21.150  1.00  0.00     0.087 N 
HETATM   37  H10 UNL     1     -10.612  -9.749  22.086  1.00  0.00     0.316 HD
BRANCH  36  38
HETATM   38  C4  UNL     1      -9.233 -10.195  20.638  1.00  0.00     0.272 C 
BRANCH  38  39
HETATM   39  C3  UNL     1      -8.971  -9.027  19.688  1.00  0.00     0.056 C 
BRANCH  39  40
HETATM   40  C2  UNL     1      -9.707  -9.178  18.356  1.00  0.00     0.168 C 
BRANCH  40  41
HETATM   41  O1  UNL     1      -9.919  -7.897  17.755  1.00  0.00    -0.396 OA
HETATM   42  C1  UNL     1     -11.164  -7.816  17.072  1.00  0.00     0.201 C 
ENDBRANCH  40  41
ENDBRANCH  39  40
ENDBRANCH  38  39
ENDBRANCH  36  38
ENDBRANCH  35  36
ENDBRANCH   1  35
BRANCH   5  43
HETATM   43  O2  UNL     1     -15.629 -11.321  26.165  1.00  0.00    -0.386 OA
HETATM   44  H17 UNL     1     -16.226 -10.774  25.624  1.00  0.00     0.210 HD
ENDBRANCH   5  43
BRANCH  11  45
HETATM   45  O3  UNL     1     -15.544 -10.368  28.553  1.00  0.00    -0.386 OA
HETATM   46  H26 UNL     1     -15.967 -11.088  28.035  1.00  0.00     0.210 HD
ENDBRANCH  11  45
BRANCH  26  47
HETATM   47  C37 UNL     1     -14.387  -8.830  30.729  1.00  0.00     0.244 C 
HETATM   48  O5  UNL     1     -13.910  -9.878  31.160  1.00  0.00    -0.306 OA
ENDBRANCH  26  47
BRANCH  27  49
HETATM   49  O6  UNL     1     -15.438  -6.364  30.311  1.00  0.00    -0.388 OA
HETATM   50  H58 UNL     1     -16.157  -6.914  30.669  1.00  0.00     0.210 HD
ENDBRANCH  27  49
BRANCH  23  51
HETATM   51  O4  UNL     1     -14.015  -4.029  30.038  1.00  0.00    -0.395 OA
HETATM   52  H52 UNL     1     -14.736  -4.516  30.491  1.00  0.00     0.210 HD
ENDBRANCH  23  51
BRANCH  20  53
HETATM   53  C26 UNL     1     -19.878  -5.408  29.032  1.00  0.00    -0.010 C 
HETATM   54  C27 UNL     1     -20.202  -4.961  30.467  1.00  0.00     0.005 C 
HETATM   55  C28 UNL     1     -20.720  -6.204  31.194  1.00  0.00     0.000 C 
HETATM   56  C29 UNL     1     -20.568  -7.364  30.217  1.00  0.00     0.000 C 
HETATM   57  C30 UNL     1     -19.533  -6.887  29.210  1.00  0.00     0.005 C 
ENDBRANCH  20  53
TORSDOF 12
ENDMDL
MODEL 5
REMARK minimizedAffinity -7.00002098
REMARK CNNscore 0.470128477
REMARK CNNaffinity 6.62230539
REMARK  12 active torsions:
REMARK  status: ('A' for Active; 'I' for Inactive)
REMARK    1  A    between atoms: O1_2  and  C2_3 
REMARK    2  A    between atoms: C2_3  and  C3_4 
REMARK    3  A    between atoms: C3_4  and  C4_5 
REMARK    4  A    between atoms: C4_5  and  N1_6 
REMARK    5  A    between atoms: N1_6  and  C5_7 
REMARK    6  A    between atoms: C5_7  and  C6_8 
REMARK    7  A    between atoms: C10_12  and  O2_13 
REMARK    8  A    between atoms: C16_19  and  O3_20 
REMARK    9  A    between atoms: C25_29  and  C26_30 
REMARK   10  A    between atoms: C33_37  and  O4_38 
REMARK   11  A    between atoms: C36_41  and  C37_42 
REMARK   12  A    between atoms: C38_44  and  O6_45 
ROOT
HETATM    1  C6  UNL     1      -9.872  13.020  19.870  1.00  0.00    -0.022 C 
HETATM    2  C7  UNL     1     -10.062  11.772  20.366  1.00  0.00    -0.014 C 
HETATM    3  C8  UNL     1     -10.543  11.559  21.780  1.00  0.00     0.021 C 
HETATM    4  C9  UNL     1     -11.449  10.362  22.074  1.00  0.00     0.051 C 
HETATM    5  C10 UNL     1     -11.842  10.641  23.543  1.00  0.00     0.098 C 
HETATM    6  C11 UNL     1     -12.148  12.196  23.560  1.00  0.00    -0.002 C 
HETATM    7  C12 UNL     1     -11.693  12.863  24.868  1.00  0.00     0.019 C 
HETATM    8  C13 UNL     1     -13.663  12.490  23.358  1.00  0.00     0.013 C 
HETATM    9  C14 UNL     1     -14.595  11.599  24.163  1.00  0.00     0.010 C 
HETATM   10  C15 UNL     1     -14.373  10.119  23.786  1.00  0.00     0.041 C 
HETATM   11  C16 UNL     1     -12.940   9.710  24.167  1.00  0.00     0.095 C 
HETATM   12  C17 UNL     1     -12.698   8.231  23.824  1.00  0.00     0.049 C 
HETATM   13  C18 UNL     1     -13.700   7.283  24.508  1.00  0.00     0.025 C 
HETATM   14  C19 UNL     1     -13.208   5.815  24.314  1.00  0.00     0.013 C 
HETATM   15  C20 UNL     1     -14.283   4.715  24.241  1.00  0.00    -0.002 C 
HETATM   16  C21 UNL     1     -14.933   4.642  22.827  1.00  0.00     0.013 C 
HETATM   17  C22 UNL     1     -14.224   3.658  21.906  1.00  0.00    -0.026 C 
HETATM   18  C23 UNL     1     -13.225   2.850  22.282  1.00  0.00    -0.030 C 
HETATM   19  C24 UNL     1     -12.738   2.751  23.693  1.00  0.00     0.032 C 
HETATM   20  C25 UNL     1     -13.773   3.307  24.687  1.00  0.00    -0.002 C 
HETATM   21  C31 UNL     1     -14.994   5.984  22.068  1.00  0.00     0.019 C 
HETATM   22  C32 UNL     1     -15.611   7.238  22.715  1.00  0.00     0.051 C 
HETATM   23  C33 UNL     1     -17.158   7.255  22.603  1.00  0.00     0.125 C 
HETATM   24  C34 UNL     1     -17.802   8.401  23.395  1.00  0.00     0.033 C 
HETATM   25  C35 UNL     1     -16.841   9.564  23.602  1.00  0.00     0.023 C 
HETATM   26  C36 UNL     1     -15.510   9.179  24.353  1.00  0.00     0.051 C 
HETATM   27  C38 UNL     1     -15.174   7.630  24.157  1.00  0.00     0.082 C 
HETATM   28  C39 UNL     1     -11.412  12.737  22.273  1.00  0.00     0.036 C 
HETATM   29  C40 UNL     1     -10.564  13.954  22.108  1.00  0.00    -0.035 C 
HETATM   30  C41 UNL     1      -9.929  14.769  22.943  1.00  0.00     0.088 C 
HETATM   31  C42 UNL     1      -9.037  15.582  22.112  1.00  0.00     0.284 C 
HETATM   32  O7  UNL     1      -8.294  16.445  22.544  1.00  0.00    -0.260 OA
HETATM   33  O8  UNL     1      -9.132  15.191  20.814  1.00  0.00    -0.304 OA
HETATM   34  C43 UNL     1     -10.207  14.271  20.685  1.00  0.00     0.192 C 
ENDROOT
BRANCH   1  35
HETATM   35  C5  UNL     1      -9.452  13.234  18.436  1.00  0.00     0.306 C 
BRANCH  35  36
HETATM   36  N1  UNL     1     -10.399  12.641  17.507  1.00  0.00     0.087 N 
HETATM   37  H10 UNL     1     -11.045  13.356  17.175  1.00  0.00     0.316 HD
BRANCH  36  38
HETATM   38  C4  UNL     1      -9.729  12.004  16.376  1.00  0.00     0.272 C 
BRANCH  38  39
HETATM   39  C3  UNL     1     -10.367  10.653  16.056  1.00  0.00     0.056 C 
BRANCH  39  40
HETATM   40  C2  UNL     1     -11.098  10.652  14.713  1.00  0.00     0.168 C 
BRANCH  40  41
HETATM   41  O1  UNL     1     -10.811   9.451  13.989  1.00  0.00    -0.396 OA
HETATM   42  C1  UNL     1     -10.075   8.512  14.763  1.00  0.00     0.201 C 
ENDBRANCH  40  41
ENDBRANCH  39  40
ENDBRANCH  38  39
ENDBRANCH  36  38
ENDBRANCH  35  36
ENDBRANCH   1  35
BRANCH   5  43
HETATM   43  O2  UNL     1     -10.652  10.406  24.348  1.00  0.00    -0.386 OA
HETATM   44  H17 UNL     1     -10.221   9.586  24.048  1.00  0.00     0.210 HD
ENDBRANCH   5  43
BRANCH  11  45
HETATM   45  O3  UNL     1     -12.820   9.811  25.598  1.00  0.00    -0.386 OA
HETATM   46  H26 UNL     1     -11.887  10.068  25.771  1.00  0.00     0.210 HD
ENDBRANCH  11  45
BRANCH  26  47
HETATM   47  C37 UNL     1     -15.693   9.460  25.856  1.00  0.00     0.244 C 
HETATM   48  O5  UNL     1     -15.180   8.806  26.763  1.00  0.00    -0.306 OA
ENDBRANCH  26  47
BRANCH  27  49
HETATM   49  O6  UNL     1     -16.031   6.891  25.054  1.00  0.00    -0.388 OA
HETATM   50  H58 UNL     1     -15.633   6.853  25.942  1.00  0.00     0.210 HD
ENDBRANCH  27  49
BRANCH  23  51
HETATM   51  O4  UNL     1     -17.721   6.031  23.066  1.00  0.00    -0.395 OA
HETATM   52  H52 UNL     1     -17.420   5.947  23.995  1.00  0.00     0.210 HD
ENDBRANCH  23  51
BRANCH  20  53
HETATM   53  C26 UNL     1     -13.242   3.243  26.139  1.00  0.00    -0.010 C 
HETATM   54  C27 UNL     1     -12.310   2.048  26.398  1.00  0.00     0.005 C 
HETATM   55  C28 UNL     1     -12.449   1.713  27.885  1.00  0.00     0.000 C 
HETATM   56  C29 UNL     1     -13.541   2.627  28.428  1.00  0.00     0.000 C 
HETATM   57  C30 UNL     1     -14.328   3.060  27.201  1.00  0.00     0.005 C 
ENDBRANCH  20  53
TORSDOF 12
ENDMDL
MODEL 6
REMARK minimizedAffinity -7.17997265
REMARK CNNscore 0.441076666
REMARK CNNaffinity 6.75530481
REMARK  12 active torsions:
REMARK  status: ('A' for Active; 'I' for Inactive)
REMARK    1  A    between atoms: O1_2  and  C2_3 
REMARK    2  A    between atoms: C2_3  and  C3_4 
REMARK    3  A    between atoms: C3_4  and  C4_5 
REMARK    4  A    between atoms: C4_5  and  N1_6 
REMARK    5  A    between atoms: N1_6  and  C5_7 
REMARK    6  A    between atoms: C5_7  and  C6_8 
REMARK    7  A    between atoms: C10_12  and  O2_13 
REMARK    8  A    between atoms: C16_19  and  O3_20 
REMARK    9  A    between atoms: C25_29  and  C26_30 
REMARK   10  A    between atoms: C33_37  and  O4_38 
REMARK   11  A    between atoms: C36_41  and  C37_42 
REMARK   12  A    between atoms: C38_44  and  O6_45 
ROOT
HETATM    1  C6  UNL     1     -10.165  12.632  21.923  1.00  0.00    -0.022 C 
HETATM    2  C7  UNL     1     -10.263  11.392  22.463  1.00  0.00    -0.014 C 
HETATM    3  C8  UNL     1     -11.240  11.099  23.574  1.00  0.00     0.021 C 
HETATM    4  C9  UNL     1     -11.890   9.716  23.634  1.00  0.00     0.051 C 
HETATM    5  C10 UNL     1     -12.924   9.922  24.765  1.00  0.00     0.098 C 
HETATM    6  C11 UNL     1     -13.549  11.342  24.445  1.00  0.00    -0.002 C 
HETATM    7  C12 UNL     1     -13.859  12.140  25.722  1.00  0.00     0.019 C 
HETATM    8  C13 UNL     1     -14.856  11.225  23.608  1.00  0.00     0.013 C 
HETATM    9  C14 UNL     1     -15.816  10.144  24.078  1.00  0.00     0.010 C 
HETATM   10  C15 UNL     1     -15.128   8.764  24.027  1.00  0.00     0.041 C 
HETATM   11  C16 UNL     1     -13.943   8.753  25.008  1.00  0.00     0.095 C 
HETATM   12  C17 UNL     1     -13.252   7.380  24.996  1.00  0.00     0.049 C 
HETATM   13  C18 UNL     1     -14.208   6.222  25.336  1.00  0.00     0.025 C 
HETATM   14  C19 UNL     1     -13.364   4.929  25.559  1.00  0.00     0.013 C 
HETATM   15  C20 UNL     1     -14.027   3.585  25.205  1.00  0.00    -0.002 C 
HETATM   16  C21 UNL     1     -13.976   3.307  23.673  1.00  0.00     0.013 C 
HETATM   17  C22 UNL     1     -12.741   2.517  23.262  1.00  0.00    -0.026 C 
HETATM   18  C23 UNL     1     -11.844   2.008  24.116  1.00  0.00    -0.030 C 
HETATM   19  C24 UNL     1     -11.998   2.078  25.603  1.00  0.00     0.032 C 
HETATM   20  C25 UNL     1     -13.454   2.372  26.006  1.00  0.00    -0.002 C 
HETATM   21  C31 UNL     1     -14.007   4.565  22.781  1.00  0.00     0.019 C 
HETATM   22  C32 UNL     1     -15.106   5.632  22.946  1.00  0.00     0.051 C 
HETATM   23  C33 UNL     1     -16.418   5.242  22.214  1.00  0.00     0.125 C 
HETATM   24  C34 UNL     1     -17.577   6.201  22.514  1.00  0.00     0.033 C 
HETATM   25  C35 UNL     1     -17.085   7.579  22.934  1.00  0.00     0.023 C 
HETATM   26  C36 UNL     1     -16.153   7.575  24.205  1.00  0.00     0.051 C 
HETATM   27  C38 UNL     1     -15.427   6.164  24.374  1.00  0.00     0.082 C 
HETATM   28  C39 UNL     1     -12.477  12.022  23.508  1.00  0.00     0.036 C 
HETATM   29  C40 UNL     1     -11.937  13.413  23.538  1.00  0.00    -0.035 C 
HETATM   30  C41 UNL     1     -11.921  14.388  24.440  1.00  0.00     0.088 C 
HETATM   31  C42 UNL     1     -10.967  15.383  23.941  1.00  0.00     0.284 C 
HETATM   32  O7  UNL     1     -10.695  16.421  24.517  1.00  0.00    -0.260 OA
HETATM   33  O8  UNL     1     -10.408  14.946  22.782  1.00  0.00    -0.304 OA
HETATM   34  C43 UNL     1     -11.088  13.774  22.354  1.00  0.00     0.192 C 
ENDROOT
BRANCH   1  35
HETATM   35  C5  UNL     1      -9.233  12.910  20.768  1.00  0.00     0.306 C 
BRANCH  35  36
HETATM   36  N1  UNL     1      -8.309  13.990  21.075  1.00  0.00     0.087 N 
HETATM   37  H10 UNL     1      -8.446  14.294  22.037  1.00  0.00     0.316 HD
BRANCH  36  38
HETATM   38  C4  UNL     1      -6.918  13.593  20.865  1.00  0.00     0.272 C 
BRANCH  38  39
HETATM   39  C3  UNL     1      -6.211  13.364  22.200  1.00  0.00     0.056 C 
BRANCH  39  40
HETATM   40  C2  UNL     1      -5.812  14.671  22.886  1.00  0.00     0.168 C 
BRANCH  40  41
HETATM   41  O1  UNL     1      -6.971  15.466  23.158  1.00  0.00    -0.396 OA
HETATM   42  C1  UNL     1      -7.208  15.624  24.551  1.00  0.00     0.201 C 
ENDBRANCH  40  41
ENDBRANCH  39  40
ENDBRANCH  38  39
ENDBRANCH  36  38
ENDBRANCH  35  36
ENDBRANCH   1  35
BRANCH   5  43
HETATM   43  O2  UNL     1     -12.173  10.028  26.007  1.00  0.00    -0.386 OA
HETATM   44  H17 UNL     1     -11.482   9.340  26.021  1.00  0.00     0.210 HD
ENDBRANCH   5  43
BRANCH  11  45
HETATM   45  O3  UNL     1     -14.471   8.921  26.337  1.00  0.00    -0.386 OA
HETATM   46  H26 UNL     1     -13.786   9.417  26.837  1.00  0.00     0.210 HD
ENDBRANCH  11  45
BRANCH  26  47
HETATM   47  C37 UNL     1     -17.018   7.840  25.452  1.00  0.00     0.244 C 
HETATM   48  O5  UNL     1     -16.813   7.363  26.566  1.00  0.00    -0.306 OA
ENDBRANCH  26  47
BRANCH  27  49
HETATM   49  O6  UNL     1     -16.395   5.250  24.937  1.00  0.00    -0.388 OA
HETATM   50  H58 UNL     1     -16.417   5.342  25.905  1.00  0.00     0.210 HD
ENDBRANCH  27  49
BRANCH  23  51
HETATM   51  O4  UNL     1     -16.832   3.926  22.569  1.00  0.00    -0.395 OA
HETATM   52  H52 UNL     1     -16.946   3.948  23.543  1.00  0.00     0.210 HD
ENDBRANCH  23  51
BRANCH  20  53
HETATM   53  C26 UNL     1     -13.595   2.488  27.543  1.00  0.00    -0.010 C 
HETATM   54  C27 UNL     1     -13.874   3.921  28.024  1.00  0.00     0.005 C 
HETATM   55  C28 UNL     1     -13.304   4.013  29.441  1.00  0.00     0.000 C 
HETATM   56  C29 UNL     1     -12.599   2.688  29.705  1.00  0.00     0.000 C 
HETATM   57  C30 UNL     1     -12.335   2.109  28.323  1.00  0.00     0.005 C 
ENDBRANCH  20  53
TORSDOF 12
ENDMDL
MODEL 7
REMARK minimizedAffinity -6.75274181
REMARK CNNscore 0.440606475
REMARK CNNaffinity 6.38795614
REMARK  12 active torsions:
REMARK  status: ('A' for Active; 'I' for Inactive)
REMARK    1  A    between atoms: O1_2  and  C2_3 
REMARK    2  A    between atoms: C2_3  and  C3_4 
REMARK    3  A    between atoms: C3_4  and  C4_5 
REMARK    4  A    between atoms: C4_5  and  N1_6 
REMARK    5  A    between atoms: N1_6  and  C5_7 
REMARK    6  A    between atoms: C5_7  and  C6_8 
REMARK    7  A    between atoms: C10_12  and  O2_13 
REMARK    8  A    between atoms: C16_19  and  O3_20 
REMARK    9  A    between atoms: C25_29  and  C26_30 
REMARK   10  A    between atoms: C33_37  and  O4_38 
REMARK   11  A    between atoms: C36_41  and  C37_42 
REMARK   12  A    between atoms: C38_44  and  O6_45 
ROOT
HETATM    1  C6  UNL     1     -14.338  -3.893  12.797  1.00  0.00    -0.022 C 
HETATM    2  C7  UNL     1     -14.369  -2.550  12.610  1.00  0.00    -0.014 C 
HETATM    3  C8  UNL     1     -15.660  -1.834  12.299  1.00  0.00     0.021 C 
HETATM    4  C9  UNL     1     -15.860  -0.415  12.835  1.00  0.00     0.051 C 
HETATM    5  C10 UNL     1     -17.338  -0.161  12.460  1.00  0.00     0.098 C 
HETATM    6  C11 UNL     1     -18.060  -1.520  12.843  1.00  0.00    -0.002 C 
HETATM    7  C12 UNL     1     -19.175  -1.884  11.850  1.00  0.00     0.019 C 
HETATM    8  C13 UNL     1     -18.670  -1.468  14.274  1.00  0.00     0.013 C 
HETATM    9  C14 UNL     1     -19.413  -0.183  14.601  1.00  0.00     0.010 C 
HETATM   10  C15 UNL     1     -18.462   1.026  14.477  1.00  0.00     0.041 C 
HETATM   11  C16 UNL     1     -17.990   1.152  13.018  1.00  0.00     0.095 C 
HETATM   12  C17 UNL     1     -17.059   2.365  12.861  1.00  0.00     0.049 C 
HETATM   13  C18 UNL     1     -17.711   3.687  13.303  1.00  0.00     0.025 C 
HETATM   14  C19 UNL     1     -16.795   4.868  12.857  1.00  0.00     0.013 C 
HETATM   15  C20 UNL     1     -16.804   6.136  13.730  1.00  0.00    -0.002 C 
HETATM   16  C21 UNL     1     -15.907   5.970  14.992  1.00  0.00     0.013 C 
HETATM   17  C22 UNL     1     -14.479   6.444  14.762  1.00  0.00    -0.026 C 
HETATM   18  C23 UNL     1     -14.048   7.048  13.647  1.00  0.00    -0.030 C 
HETATM   19  C24 UNL     1     -14.952   7.413  12.513  1.00  0.00     0.032 C 
HETATM   20  C25 UNL     1     -16.427   7.438  12.951  1.00  0.00    -0.002 C 
HETATM   21  C31 UNL     1     -15.806   4.529  15.535  1.00  0.00     0.019 C 
HETATM   22  C32 UNL     1     -17.070   3.705  15.845  1.00  0.00     0.051 C 
HETATM   23  C33 UNL     1     -17.667   4.046  17.235  1.00  0.00     0.125 C 
HETATM   24  C34 UNL     1     -19.021   3.369  17.487  1.00  0.00     0.033 C 
HETATM   25  C35 UNL     1     -19.194   2.109  16.651  1.00  0.00     0.023 C 
HETATM   26  C36 UNL     1     -19.080   2.342  15.096  1.00  0.00     0.051 C 
HETATM   27  C38 UNL     1     -18.202   3.637  14.778  1.00  0.00     0.082 C 
HETATM   28  C39 UNL     1     -16.881  -2.568  12.897  1.00  0.00     0.036 C 
HETATM   29  C40 UNL     1     -16.819  -3.955  12.349  1.00  0.00    -0.035 C 
HETATM   30  C41 UNL     1     -17.523  -4.634  11.450  1.00  0.00     0.088 C 
HETATM   31  C42 UNL     1     -16.748  -5.845  11.164  1.00  0.00     0.284 C 
HETATM   32  O7  UNL     1     -17.092  -6.709  10.378  1.00  0.00    -0.260 OA
HETATM   33  O8  UNL     1     -15.584  -5.824  11.864  1.00  0.00    -0.304 OA
HETATM   34  C43 UNL     1     -15.614  -4.738  12.780  1.00  0.00     0.192 C 
ENDROOT
BRANCH   1  35
HETATM   35  C5  UNL     1     -13.058  -4.600  13.171  1.00  0.00     0.306 C 
BRANCH  35  36
HETATM   36  N1  UNL     1     -12.748  -4.434  14.582  1.00  0.00     0.087 N 
HETATM   37  H10 UNL     1     -13.334  -3.700  14.977  1.00  0.00     0.316 HD
BRANCH  36  38
HETATM   38  C4  UNL     1     -12.926  -5.677  15.329  1.00  0.00     0.272 C 
BRANCH  38  39
HETATM   39  C3  UNL     1     -11.940  -6.743  14.855  1.00  0.00     0.056 C 
BRANCH  39  40
HETATM   40  C2  UNL     1     -11.692  -7.824  15.908  1.00  0.00     0.168 C 
BRANCH  40  41
HETATM   41  O1  UNL     1     -10.810  -7.337  16.924  1.00  0.00    -0.396 OA
HETATM   42  C1  UNL     1     -10.318  -8.375  17.762  1.00  0.00     0.201 C 
ENDBRANCH  40  41
ENDBRANCH  39  40
ENDBRANCH  38  39
ENDBRANCH  36  38
ENDBRANCH  35  36
ENDBRANCH   1  35
BRANCH   5  43
HETATM   43  O2  UNL     1     -17.386  -0.017  11.012  1.00  0.00    -0.386 OA
HETATM   44  H17 UNL     1     -16.648   0.550  10.725  1.00  0.00     0.210 HD
ENDBRANCH   5  43
BRANCH  11  45
HETATM   45  O3  UNL     1     -19.146   1.430  12.206  1.00  0.00    -0.386 OA
HETATM   46  H26 UNL     1     -18.971   1.007  11.337  1.00  0.00     0.210 HD
ENDBRANCH  11  45
BRANCH  26  47
HETATM   47  C37 UNL     1     -20.495   2.550  14.523  1.00  0.00     0.244 C 
HETATM   48  O5  UNL     1     -21.423   3.093  15.119  1.00  0.00    -0.306 OA
ENDBRANCH  26  47
BRANCH  27  49
HETATM   49  O6  UNL     1     -19.042   4.789  15.007  1.00  0.00    -0.388 OA
HETATM   50  H58 UNL     1     -19.579   4.974  14.216  1.00  0.00     0.210 HD
ENDBRANCH  27  49
BRANCH  23  51
HETATM   51  O4  UNL     1     -17.843   5.451  17.389  1.00  0.00    -0.395 OA
HETATM   52  H52 UNL     1     -18.439   5.715  16.657  1.00  0.00     0.210 HD
ENDBRANCH  23  51
BRANCH  20  53
HETATM   53  C26 UNL     1     -17.358   7.772  11.762  1.00  0.00    -0.010 C 
HETATM   54  C27 UNL     1     -17.079   9.148  11.135  1.00  0.00     0.005 C 
HETATM   55  C28 UNL     1     -18.406   9.619  10.534  1.00  0.00     0.000 C 
HETATM   56  C29 UNL     1     -19.447   8.579  10.930  1.00  0.00     0.000 C 
HETATM   57  C30 UNL     1     -18.841   7.862  12.126  1.00  0.00     0.005 C 
ENDBRANCH  20  53
TORSDOF 12
ENDMDL
MODEL 8
REMARK minimizedAffinity -6.40084314
REMARK CNNscore 0.391107291
REMARK CNNaffinity 6.53701639
REMARK  12 active torsions:
REMARK  status: ('A' for Active; 'I' for Inactive)
REMARK    1  A    between atoms: O1_2  and  C2_3 
REMARK    2  A    between atoms: C2_3  and  C3_4 
REMARK    3  A    between atoms: C3_4  and  C4_5 
REMARK    4  A    between atoms: C4_5  and  N1_6 
REMARK    5  A    between atoms: N1_6  and  C5_7 
REMARK    6  A    between atoms: C5_7  and  C6_8 
REMARK    7  A    between atoms: C10_12  and  O2_13 
REMARK    8  A    between atoms: C16_19  and  O3_20 
REMARK    9  A    between atoms: C25_29  and  C26_30 
REMARK   10  A    between atoms: C33_37  and  O4_38 
REMARK   11  A    between atoms: C36_41  and  C37_42 
REMARK   12  A    between atoms: C38_44  and  O6_45 
ROOT
HETATM    1  C6  UNL     1       0.975  16.767  10.862  1.00  0.00    -0.022 C 
HETATM    2  C7  UNL     1       1.864  15.749  10.983  1.00  0.00    -0.014 C 
HETATM    3  C8  UNL     1       2.414  15.350  12.329  1.00  0.00     0.021 C 
HETATM    4  C9  UNL     1       2.730  13.875  12.584  1.00  0.00     0.051 C 
HETATM    5  C10 UNL     1       3.067  13.900  14.093  1.00  0.00     0.098 C 
HETATM    6  C11 UNL     1       1.947  14.837  14.710  1.00  0.00    -0.002 C 
HETATM    7  C12 UNL     1       2.487  15.711  15.853  1.00  0.00     0.019 C 
HETATM    8  C13 UNL     1       0.736  14.018  15.245  1.00  0.00     0.013 C 
HETATM    9  C14 UNL     1       1.111  12.781  16.044  1.00  0.00     0.010 C 
HETATM   10  C15 UNL     1       1.950  11.821  15.175  1.00  0.00     0.041 C 
HETATM   11  C16 UNL     1       3.271  12.510  14.791  1.00  0.00     0.095 C 
HETATM   12  C17 UNL     1       4.139  11.566  13.944  1.00  0.00     0.049 C 
HETATM   13  C18 UNL     1       4.444  10.232  14.650  1.00  0.00     0.025 C 
HETATM   14  C19 UNL     1       5.534   9.474  13.831  1.00  0.00     0.013 C 
HETATM   15  C20 UNL     1       5.501   7.935  13.869  1.00  0.00    -0.002 C 
HETATM   16  C21 UNL     1       4.428   7.360  12.897  1.00  0.00     0.013 C 
HETATM   17  C22 UNL     1       4.991   7.062  11.514  1.00  0.00    -0.026 C 
HETATM   18  C23 UNL     1       6.285   7.164  11.180  1.00  0.00    -0.030 C 
HETATM   19  C24 UNL     1       7.359   7.502  12.165  1.00  0.00     0.032 C 
HETATM   20  C25 UNL     1       6.892   7.270  13.612  1.00  0.00    -0.002 C 
HETATM   21  C31 UNL     1       3.195   8.261  12.681  1.00  0.00     0.019 C 
HETATM   22  C32 UNL     1       2.387   8.804  13.874  1.00  0.00     0.051 C 
HETATM   23  C33 UNL     1       1.369   7.766  14.415  1.00  0.00     0.125 C 
HETATM   24  C34 UNL     1       0.683   8.219  15.711  1.00  0.00     0.033 C 
HETATM   25  C35 UNL     1       0.676   9.735  15.853  1.00  0.00     0.023 C 
HETATM   26  C36 UNL     1       2.108  10.395  15.837  1.00  0.00     0.051 C 
HETATM   27  C38 UNL     1       3.150   9.472  15.056  1.00  0.00     0.082 C 
HETATM   28  C39 UNL     1       1.419  15.658  13.470  1.00  0.00     0.036 C 
HETATM   29  C40 UNL     1       1.121  17.115  13.355  1.00  0.00    -0.035 C 
HETATM   30  C41 UNL     1       1.442  18.192  14.064  1.00  0.00     0.088 C 
HETATM   31  C42 UNL     1       1.077  19.344  13.235  1.00  0.00     0.284 C 
HETATM   32  O7  UNL     1       1.232  20.505  13.569  1.00  0.00    -0.260 OA
HETATM   33  O8  UNL     1       0.596  18.917  12.038  1.00  0.00    -0.304 OA
HETATM   34  C43 UNL     1       0.427  17.507  12.084  1.00  0.00     0.192 C 
ENDROOT
BRANCH   1  35
HETATM   35  C5  UNL     1       0.375  17.125   9.524  1.00  0.00     0.306 C 
BRANCH  35  36
HETATM   36  N1  UNL     1       1.025  18.288   8.941  1.00  0.00     0.087 N 
HETATM   37  H10 UNL     1       1.910  18.459   9.415  1.00  0.00     0.316 HD
BRANCH  36  38
HETATM   38  C4  UNL     1       1.245  18.128   7.506  1.00  0.00     0.272 C 
BRANCH  38  39
HETATM   39  C3  UNL     1       1.572  16.675   7.164  1.00  0.00     0.056 C 
BRANCH  39  40
HETATM   40  C2  UNL     1       0.839  16.186   5.914  1.00  0.00     0.168 C 
BRANCH  40  41
HETATM   41  O1  UNL     1      -0.489  15.769   6.246  1.00  0.00    -0.396 OA
HETATM   42  C1  UNL     1      -0.974  14.754   5.377  1.00  0.00     0.201 C 
ENDBRANCH  40  41
ENDBRANCH  39  40
ENDBRANCH  38  39
ENDBRANCH  36  38
ENDBRANCH  35  36
ENDBRANCH   1  35
BRANCH   5  43
HETATM   43  O2  UNL     1       4.348  14.578  14.227  1.00  0.00    -0.386 OA
HETATM   44  H17 UNL     1       4.955  14.248  13.541  1.00  0.00     0.210 HD
ENDBRANCH   5  43
BRANCH  11  45
HETATM   45  O3  UNL     1       4.010  12.748  16.003  1.00  0.00    -0.386 OA
HETATM   46  H26 UNL     1       4.515  13.577  15.851  1.00  0.00     0.210 HD
ENDBRANCH  11  45
BRANCH  26  47
HETATM   47  C37 UNL     1       2.588  10.565  17.291  1.00  0.00     0.244 C 
HETATM   48  O5  UNL     1       2.456   9.726  18.180  1.00  0.00    -0.306 OA
ENDBRANCH  26  47
BRANCH  27  49
HETATM   49  O6  UNL     1       3.526   8.401  15.950  1.00  0.00    -0.388 OA
HETATM   50  H58 UNL     1       4.243   8.694  16.539  1.00  0.00     0.210 HD
ENDBRANCH  27  49
BRANCH  23  51
HETATM   51  O4  UNL     1       1.998   6.512  14.666  1.00  0.00    -0.395 OA
HETATM   52  H52 UNL     1       2.706   6.708  15.316  1.00  0.00     0.210 HD
ENDBRANCH  23  51
BRANCH  20  53
HETATM   53  C26 UNL     1       7.994   7.665  14.624  1.00  0.00    -0.010 C 
HETATM   54  C27 UNL     1       7.449   8.374  15.874  1.00  0.00     0.005 C 
HETATM   55  C28 UNL     1       8.576   9.280  16.376  1.00  0.00     0.000 C 
HETATM   56  C29 UNL     1       9.696   9.178  15.347  1.00  0.00     0.000 C 
HETATM   57  C30 UNL     1       9.016   8.668  14.086  1.00  0.00     0.005 C 
ENDBRANCH  20  53
TORSDOF 12
ENDMDL
MODEL 9
REMARK minimizedAffinity -6.73249578
REMARK CNNscore 0.388626516
REMARK CNNaffinity 6.69276381
REMARK  12 active torsions:
REMARK  status: ('A' for Active; 'I' for Inactive)
REMARK    1  A    between atoms: O1_2  and  C2_3 
REMARK    2  A    between atoms: C2_3  and  C3_4 
REMARK    3  A    between atoms: C3_4  and  C4_5 
REMARK    4  A    between atoms: C4_5  and  N1_6 
REMARK    5  A    between atoms: N1_6  and  C5_7 
REMARK    6  A    between atoms: C5_7  and  C6_8 
REMARK    7  A    between atoms: C10_12  and  O2_13 
REMARK    8  A    between atoms: C16_19  and  O3_20 
REMARK    9  A    between atoms: C25_29  and  C26_30 
REMARK   10  A    between atoms: C33_37  and  O4_38 
REMARK   11  A    between atoms: C36_41  and  C37_42 
REMARK   12  A    between atoms: C38_44  and  O6_45 
ROOT
HETATM    1  C6  UNL     1       4.475  12.900  -4.492  1.00  0.00    -0.022 C 
HETATM    2  C7  UNL     1       4.477  13.675  -3.379  1.00  0.00    -0.014 C 
HETATM    3  C8  UNL     1       3.349  14.634  -3.093  1.00  0.00     0.021 C 
HETATM    4  C9  UNL     1       2.947  14.883  -1.639  1.00  0.00     0.051 C 
HETATM    5  C10 UNL     1       1.675  15.742  -1.824  1.00  0.00     0.098 C 
HETATM    6  C11 UNL     1       0.900  15.013  -2.998  1.00  0.00    -0.002 C 
HETATM    7  C12 UNL     1       0.191  16.007  -3.931  1.00  0.00     0.019 C 
HETATM    8  C13 UNL     1      -0.157  14.006  -2.457  1.00  0.00     0.013 C 
HETATM    9  C14 UNL     1      -0.997  14.527  -1.302  1.00  0.00     0.010 C 
HETATM   10  C15 UNL     1      -0.088  14.903  -0.112  1.00  0.00     0.041 C 
HETATM   11  C16 UNL     1       0.843  16.054  -0.531  1.00  0.00     0.095 C 
HETATM   12  C17 UNL     1       1.744  16.467   0.644  1.00  0.00     0.049 C 
HETATM   13  C18 UNL     1       0.949  16.881   1.896  1.00  0.00     0.025 C 
HETATM   14  C19 UNL     1       1.934  17.527   2.919  1.00  0.00     0.013 C 
HETATM   15  C20 UNL     1       1.602  17.368   4.414  1.00  0.00    -0.002 C 
HETATM   16  C21 UNL     1       2.027  15.968   4.949  1.00  0.00     0.013 C 
HETATM   17  C22 UNL     1       3.438  15.964   5.521  1.00  0.00    -0.026 C 
HETATM   18  C23 UNL     1       4.204  17.053   5.665  1.00  0.00    -0.030 C 
HETATM   19  C24 UNL     1       3.725  18.437   5.360  1.00  0.00     0.032 C 
HETATM   20  C25 UNL     1       2.188  18.505   5.312  1.00  0.00    -0.002 C 
HETATM   21  C31 UNL     1       1.974  14.829   3.910  1.00  0.00     0.019 C 
HETATM   22  C32 UNL     1       0.700  14.560   3.088  1.00  0.00     0.051 C 
HETATM   23  C33 UNL     1      -0.337  13.714   3.873  1.00  0.00     0.125 C 
HETATM   24  C34 UNL     1      -1.681  13.587   3.142  1.00  0.00     0.033 C 
HETATM   25  C35 UNL     1      -1.533  13.772   1.639  1.00  0.00     0.023 C 
HETATM   26  C36 UNL     1      -0.910  15.157   1.213  1.00  0.00     0.051 C 
HETATM   27  C38 UNL     1      -0.006  15.757   2.385  1.00  0.00     0.082 C 
HETATM   28  C39 UNL     1       2.016  14.151  -3.707  1.00  0.00     0.036 C 
HETATM   29  C40 UNL     1       2.291  13.968  -5.162  1.00  0.00    -0.035 C 
HETATM   30  C41 UNL     1       1.946  14.621  -6.266  1.00  0.00     0.088 C 
HETATM   31  C42 UNL     1       2.801  14.091  -7.332  1.00  0.00     0.284 C 
HETATM   32  O7  UNL     1       2.761  14.462  -8.491  1.00  0.00    -0.260 OA
HETATM   33  O8  UNL     1       3.662  13.173  -6.819  1.00  0.00    -0.304 OA
HETATM   34  C43 UNL     1       3.300  12.901  -5.472  1.00  0.00     0.192 C 
ENDROOT
BRANCH   1  35
HETATM   35  C5  UNL     1       5.572  11.895  -4.745  1.00  0.00     0.306 C 
BRANCH  35  36
HETATM   36  N1  UNL     1       5.047  10.661  -5.308  1.00  0.00     0.087 N 
HETATM   37  H10 UNL     1       4.041  10.747  -5.442  1.00  0.00     0.316 HD
BRANCH  36  38
HETATM   38  C4  UNL     1       5.695  10.317  -6.571  1.00  0.00     0.272 C 
BRANCH  38  39
HETATM   39  C3  UNL     1       6.826  11.295  -6.886  1.00  0.00     0.056 C 
BRANCH  39  40
HETATM   40  C2  UNL     1       7.967  10.642  -7.666  1.00  0.00     0.168 C 
BRANCH  40  41
HETATM   41  O1  UNL     1       8.041   9.245  -7.366  1.00  0.00    -0.396 OA
HETATM   42  C1  UNL     1       9.349   8.838  -6.985  1.00  0.00     0.201 C 
ENDBRANCH  40  41
ENDBRANCH  39  40
ENDBRANCH  38  39
ENDBRANCH  36  38
ENDBRANCH  35  36
ENDBRANCH   1  35
BRANCH   5  43
HETATM   43  O2  UNL     1       2.112  17.042  -2.311  1.00  0.00    -0.386 OA
HETATM   44  H17 UNL     1       2.891  17.328  -1.799  1.00  0.00     0.210 HD
ENDBRANCH   5  43
BRANCH  11  45
HETATM   45  O3  UNL     1       0.021  17.200  -0.823  1.00  0.00    -0.386 OA
HETATM   46  H26 UNL     1       0.487  17.690  -1.535  1.00  0.00     0.210 HD
ENDBRANCH  11  45
BRANCH  26  47
HETATM   47  C37 UNL     1      -2.054  16.143   0.915  1.00  0.00     0.244 C 
HETATM   48  O5  UNL     1      -2.951  15.954   0.095  1.00  0.00    -0.306 OA
ENDBRANCH  26  47
BRANCH  27  49
HETATM   49  O6  UNL     1      -0.902  16.329   3.364  1.00  0.00    -0.388 OA
HETATM   50  H58 UNL     1      -1.147  17.234   3.104  1.00  0.00     0.210 HD
ENDBRANCH  27  49
BRANCH  23  51
HETATM   51  O4  UNL     1      -0.588  14.272   5.159  1.00  0.00    -0.395 OA
HETATM   52  H52 UNL     1      -0.910  15.182   4.985  1.00  0.00     0.210 HD
ENDBRANCH  23  51
BRANCH  20  53
HETATM   53  C26 UNL     1       1.703  19.929   4.951  1.00  0.00    -0.010 C 
HETATM   54  C27 UNL     1       2.810  20.822   4.369  1.00  0.00     0.005 C 
HETATM   55  C28 UNL     1       2.426  22.261   4.723  1.00  0.00     0.000 C 
HETATM   56  C29 UNL     1       1.185  22.168   5.603  1.00  0.00     0.000 C 
HETATM   57  C30 UNL     1       1.201  20.746   6.142  1.00  0.00     0.005 C 
ENDBRANCH  20  53
TORSDOF 12
ENDMDL
