MODEL 1
REMARK minimizedAffinity -9.54439926
REMARK  7 active torsions:
REMARK  status: ('A' for Active; 'I' for Inactive)
REMARK    1  A    between atoms: C2_2  and  C4_4 
REMARK    2  A    between atoms: C4_4  and  C6_6 
REMARK    3  A    between atoms: C6_6  and  O1_7 
REMARK    4  A    between atoms: C6_6  and  C7_8 
REMARK    5  A    between atoms: C7_8  and  C8_9 
REMARK    6  A    between atoms: C8_9  and  C10_11 
REMARK    7  A    between atoms: C16_17  and  O2_18 
ROOT
HETATM    1  C10 UNL     1       0.699   6.060  12.293  1.00  0.00    -0.002 C 
HETATM    2  C11 UNL     1       0.841   4.564  11.892  1.00  0.00     0.006 C 
HETATM    3  C12 UNL     1      -0.556   3.928  11.964  1.00  0.00     0.011 C 
HETATM    4  C13 UNL     1      -1.538   5.109  12.085  1.00  0.00    -0.030 C 
HETATM    5  C14 UNL     1      -1.802   5.624  10.636  1.00  0.00     0.016 C 
HETATM    6  C15 UNL     1      -2.888   4.771  12.788  1.00  0.00     0.032 C 
HETATM    7  C16 UNL     1      -3.845   3.886  11.963  1.00  0.00     0.124 C 
HETATM    8  C17 UNL     1      -5.125   3.587  12.745  1.00  0.00     0.038 C 
HETATM    9  C18 UNL     1      -5.955   4.862  12.918  1.00  0.00     0.012 C 
HETATM   10  C19 UNL     1      -7.313   4.653  13.662  1.00  0.00     0.018 C 
HETATM   11  C20 UNL     1      -8.206   3.666  12.881  1.00  0.00     0.023 C 
HETATM   12  C21 UNL     1      -7.163   4.122  15.097  1.00  0.00     0.023 C 
HETATM   13  C22 UNL     1      -8.037   6.011  13.733  1.00  0.00     0.135 C 
HETATM   14  O3  UNL     1      -9.239   6.134  13.489  1.00  0.00    -0.297 OA
HETATM   15  C23 UNL     1      -7.241   7.202  14.216  1.00  0.00     0.080 C 
HETATM   16  C24 UNL     1      -5.942   7.326  13.437  1.00  0.00     0.018 C 
HETATM   17  C25 UNL     1      -5.148   6.029  13.507  1.00  0.00    -0.026 A 
HETATM   18  C26 UNL     1      -4.250   5.854  14.703  1.00  0.00     0.021 A 
HETATM   19  C27 UNL     1      -3.601   6.038  13.338  1.00  0.00    -0.025 A 
HETATM   20  C28 UNL     1      -2.944   7.392  13.050  1.00  0.00     0.011 C 
HETATM   21  C29 UNL     1      -1.410   7.456  12.980  1.00  0.00     0.011 C 
HETATM   22  C30 UNL     1      -0.706   6.096  12.983  1.00  0.00    -0.032 C 
HETATM   23  C31 UNL     1      -0.562   5.627  14.463  1.00  0.00     0.016 C 
ENDROOT
BRANCH   1  24
HETATM   24  C8  UNL     1       1.956   6.586  13.053  1.00  0.00    -0.011 C 
HETATM   25  C9  UNL     1       1.568   7.383  14.306  1.00  0.00     0.010 C 
BRANCH  24  26
HETATM   26  C7  UNL     1       2.834   7.484  12.128  1.00  0.00     0.037 C 
BRANCH  26  27
HETATM   27  C6  UNL     1       3.735   6.676  11.173  1.00  0.00     0.126 C 
BRANCH  27  28
HETATM   28  C4  UNL     1       4.195   7.442   9.899  1.00  0.00     0.038 C 
HETATM   29  C5  UNL     1       4.757   8.836  10.213  1.00  0.00     0.017 C 
BRANCH  28  30
HETATM   30  C2  UNL     1       3.151   7.441   8.783  1.00  0.00    -0.087 C 
HETATM   31  C1  UNL     1       2.973   8.528   8.013  1.00  0.00     0.014 C 
HETATM   32  C3  UNL     1       2.300   6.216   8.575  1.00  0.00     0.043 C 
ENDBRANCH  28  30
ENDBRANCH  27  28
BRANCH  27  33
HETATM   33  O1  UNL     1       4.885   6.214  11.886  1.00  0.00    -0.395 OA
HETATM   34  H11 UNL     1       5.382   5.628  11.291  1.00  0.00     0.210 HD
ENDBRANCH  27  33
ENDBRANCH  26  27
ENDBRANCH  24  26
ENDBRANCH   1  24
BRANCH   7  35
HETATM   35  O2  UNL     1      -3.233   2.639  11.635  1.00  0.00    -0.395 OA
HETATM   36  H28 UNL     1      -3.004   2.189  12.466  1.00  0.00     0.210 HD
ENDBRANCH   7  35
TORSDOF 7
ENDMDL
MODEL 2
REMARK minimizedAffinity -9.47840691
REMARK  7 active torsions:
REMARK  status: ('A' for Active; 'I' for Inactive)
REMARK    1  A    between atoms: C2_2  and  C4_4 
REMARK    2  A    between atoms: C4_4  and  C6_6 
REMARK    3  A    between atoms: C6_6  and  O1_7 
REMARK    4  A    between atoms: C6_6  and  C7_8 
REMARK    5  A    between atoms: C7_8  and  C8_9 
REMARK    6  A    between atoms: C8_9  and  C10_11 
REMARK    7  A    between atoms: C16_17  and  O2_18 
ROOT
HETATM    1  C10 UNL     1      -5.075   6.844  14.941  1.00  0.00    -0.002 C 
HETATM    2  C11 UNL     1      -5.531   5.631  14.081  1.00  0.00     0.006 C 
HETATM    3  C12 UNL     1      -4.390   5.293  13.110  1.00  0.00     0.011 C 
HETATM    4  C13 UNL     1      -3.170   6.083  13.620  1.00  0.00    -0.030 C 
HETATM    5  C14 UNL     1      -2.519   5.226  14.748  1.00  0.00     0.016 C 
HETATM    6  C15 UNL     1      -2.110   6.430  12.530  1.00  0.00     0.032 C 
HETATM    7  C16 UNL     1      -1.287   5.229  12.021  1.00  0.00     0.124 C 
HETATM    8  C17 UNL     1      -0.297   5.663  10.939  1.00  0.00     0.038 C 
HETATM    9  C18 UNL     1       0.794   6.554  11.539  1.00  0.00     0.012 C 
HETATM   10  C19 UNL     1       1.888   7.011  10.522  1.00  0.00     0.018 C 
HETATM   11  C20 UNL     1       2.616   5.784   9.931  1.00  0.00     0.023 C 
HETATM   12  C21 UNL     1       1.343   7.845   9.352  1.00  0.00     0.023 C 
HETATM   13  C22 UNL     1       2.920   7.870  11.277  1.00  0.00     0.135 C 
HETATM   14  O3  UNL     1       4.136   7.733  11.123  1.00  0.00    -0.297 OA
HETATM   15  C23 UNL     1       2.393   8.977  12.161  1.00  0.00     0.080 C 
HETATM   16  C24 UNL     1       1.338   8.441  13.115  1.00  0.00     0.018 C 
HETATM   17  C25 UNL     1       0.231   7.732  12.348  1.00  0.00    -0.026 A 
HETATM   18  C26 UNL     1      -0.885   8.597  11.825  1.00  0.00     0.021 A 
HETATM   19  C27 UNL     1      -1.201   7.620  12.948  1.00  0.00    -0.025 A 
HETATM   20  C28 UNL     1      -1.412   8.205  14.349  1.00  0.00     0.011 C 
HETATM   21  C29 UNL     1      -2.834   8.205  14.930  1.00  0.00     0.011 C 
HETATM   22  C30 UNL     1      -3.861   7.403  14.125  1.00  0.00    -0.032 C 
HETATM   23  C31 UNL     1      -4.393   8.312  12.974  1.00  0.00     0.016 C 
ENDROOT
BRANCH   1  24
HETATM   24  C8  UNL     1      -6.265   7.782  15.311  1.00  0.00    -0.011 C 
HETATM   25  C9  UNL     1      -5.779   9.180  15.717  1.00  0.00     0.010 C 
BRANCH  24  26
HETATM   26  C7  UNL     1      -7.113   7.179  16.474  1.00  0.00     0.037 C 
BRANCH  26  27
HETATM   27  C6  UNL     1      -8.600   6.999  16.112  1.00  0.00     0.126 C 
BRANCH  27  28
HETATM   28  C4  UNL     1      -9.051   7.718  14.808  1.00  0.00     0.038 C 
HETATM   29  C5  UNL     1      -9.772   9.046  15.079  1.00  0.00     0.017 C 
BRANCH  28  30
HETATM   30  C2  UNL     1      -9.800   6.802  13.841  1.00  0.00    -0.087 C 
HETATM   31  C1  UNL     1      -9.128   6.047  12.955  1.00  0.00     0.014 C 
HETATM   32  C3  UNL     1     -11.306   6.777  13.870  1.00  0.00     0.043 C 
ENDBRANCH  28  30
ENDBRANCH  27  28
BRANCH  27  33
HETATM   33  O1  UNL     1      -8.896   5.604  16.008  1.00  0.00    -0.395 OA
HETATM   34  H11 UNL     1      -9.855   5.517  15.879  1.00  0.00     0.210 HD
ENDBRANCH  27  33
ENDBRANCH  26  27
ENDBRANCH  24  26
ENDBRANCH   1  24
BRANCH   7  35
HETATM   35  O2  UNL     1      -2.136   4.229  11.460  1.00  0.00    -0.395 OA
HETATM   36  H28 UNL     1      -2.624   4.629  10.721  1.00  0.00     0.210 HD
ENDBRANCH   7  35
TORSDOF 7
ENDMDL
MODEL 3
REMARK minimizedAffinity -9.39347553
REMARK  7 active torsions:
REMARK  status: ('A' for Active; 'I' for Inactive)
REMARK    1  A    between atoms: C2_2  and  C4_4 
REMARK    2  A    between atoms: C4_4  and  C6_6 
REMARK    3  A    between atoms: C6_6  and  O1_7 
REMARK    4  A    between atoms: C6_6  and  C7_8 
REMARK    5  A    between atoms: C7_8  and  C8_9 
REMARK    6  A    between atoms: C8_9  and  C10_11 
REMARK    7  A    between atoms: C16_17  and  O2_18 
ROOT
HETATM    1  C10 UNL     1       1.045   7.148  13.361  1.00  0.00    -0.002 C 
HETATM    2  C11 UNL     1       0.990   7.907  14.717  1.00  0.00     0.006 C 
HETATM    3  C12 UNL     1      -0.418   7.715  15.302  1.00  0.00     0.011 C 
HETATM    4  C13 UNL     1      -1.061   6.595  14.462  1.00  0.00    -0.030 C 
HETATM    5  C14 UNL     1      -0.578   5.242  15.072  1.00  0.00     0.016 C 
HETATM    6  C15 UNL     1      -2.618   6.631  14.402  1.00  0.00     0.032 C 
HETATM    7  C16 UNL     1      -3.327   6.236  15.715  1.00  0.00     0.124 C 
HETATM    8  C17 UNL     1      -4.846   6.328  15.566  1.00  0.00     0.038 C 
HETATM    9  C18 UNL     1      -5.355   5.252  14.605  1.00  0.00     0.012 C 
HETATM   10  C19 UNL     1      -6.907   5.227  14.423  1.00  0.00     0.018 C 
HETATM   11  C20 UNL     1      -7.600   4.954  15.775  1.00  0.00     0.023 C 
HETATM   12  C21 UNL     1      -7.488   6.529  13.848  1.00  0.00     0.023 C 
HETATM   13  C22 UNL     1      -7.261   4.082  13.455  1.00  0.00     0.135 C 
HETATM   14  O3  UNL     1      -8.192   3.302  13.665  1.00  0.00    -0.297 OA
HETATM   15  C23 UNL     1      -6.483   3.996  12.162  1.00  0.00     0.080 C 
HETATM   16  C24 UNL     1      -4.989   4.024  12.436  1.00  0.00     0.018 C 
HETATM   17  C25 UNL     1      -4.617   5.251  13.258  1.00  0.00    -0.026 A 
HETATM   18  C26 UNL     1      -4.358   6.521  12.490  1.00  0.00     0.021 A 
HETATM   19  C27 UNL     1      -3.181   5.848  13.183  1.00  0.00    -0.025 A 
HETATM   20  C28 UNL     1      -2.171   5.112  12.296  1.00  0.00     0.011 C 
HETATM   21  C29 UNL     1      -0.776   5.730  12.117  1.00  0.00     0.011 C 
HETATM   22  C30 UNL     1      -0.470   6.914  13.039  1.00  0.00    -0.032 C 
HETATM   23  C31 UNL     1      -1.060   8.202  12.389  1.00  0.00     0.016 C 
ENDROOT
BRANCH   1  24
HETATM   24  C8  UNL     1       1.961   7.866  12.322  1.00  0.00    -0.011 C 
HETATM   25  C9  UNL     1       1.152   8.774  11.385  1.00  0.00     0.010 C 
BRANCH  24  26
HETATM   26  C7  UNL     1       2.758   6.831  11.469  1.00  0.00     0.037 C 
BRANCH  26  27
HETATM   27  C6  UNL     1       2.050   6.455  10.153  1.00  0.00     0.126 C 
BRANCH  27  28
HETATM   28  C4  UNL     1       2.725   7.006   8.863  1.00  0.00     0.038 C 
HETATM   29  C5  UNL     1       3.777   8.085   9.157  1.00  0.00     0.017 C 
BRANCH  28  30
HETATM   30  C2  UNL     1       1.723   7.407   7.781  1.00  0.00    -0.087 C 
HETATM   31  C1  UNL     1       1.948   7.096   6.492  1.00  0.00     0.014 C 
HETATM   32  C3  UNL     1       0.493   8.184   8.170  1.00  0.00     0.043 C 
ENDBRANCH  28  30
ENDBRANCH  27  28
BRANCH  27  33
HETATM   33  O1  UNL     1       1.949   5.031  10.061  1.00  0.00    -0.395 OA
HETATM   34  H11 UNL     1       1.414   4.826   9.275  1.00  0.00     0.210 HD
ENDBRANCH  27  33
ENDBRANCH  26  27
ENDBRANCH  24  26
ENDBRANCH   1  24
BRANCH   7  35
HETATM   35  O2  UNL     1      -2.939   7.098  16.784  1.00  0.00    -0.395 OA
HETATM   36  H28 UNL     1      -3.184   8.007  16.540  1.00  0.00     0.210 HD
ENDBRANCH   7  35
TORSDOF 7
ENDMDL
MODEL 4
REMARK minimizedAffinity -9.3354435
REMARK  7 active torsions:
REMARK  status: ('A' for Active; 'I' for Inactive)
REMARK    1  A    between atoms: C2_2  and  C4_4 
REMARK    2  A    between atoms: C4_4  and  C6_6 
REMARK    3  A    between atoms: C6_6  and  O1_7 
REMARK    4  A    between atoms: C6_6  and  C7_8 
REMARK    5  A    between atoms: C7_8  and  C8_9 
REMARK    6  A    between atoms: C8_9  and  C10_11 
REMARK    7  A    between atoms: C16_17  and  O2_18 
ROOT
HETATM    1  C10 UNL     1      -3.599   7.631  14.579  1.00  0.00    -0.002 C 
HETATM    2  C11 UNL     1      -4.249   6.392  13.898  1.00  0.00     0.006 C 
HETATM    3  C12 UNL     1      -3.209   5.785  12.944  1.00  0.00     0.011 C 
HETATM    4  C13 UNL     1      -1.874   6.461  13.310  1.00  0.00    -0.030 C 
HETATM    5  C14 UNL     1      -1.286   5.671  14.520  1.00  0.00     0.016 C 
HETATM    6  C15 UNL     1      -0.831   6.524  12.152  1.00  0.00     0.032 C 
HETATM    7  C16 UNL     1      -0.196   5.168  11.778  1.00  0.00     0.124 C 
HETATM    8  C17 UNL     1       0.789   5.327  10.619  1.00  0.00     0.038 C 
HETATM    9  C18 UNL     1       2.014   6.129  11.065  1.00  0.00     0.012 C 
HETATM   10  C19 UNL     1       3.109   6.304   9.964  1.00  0.00     0.018 C 
HETATM   11  C20 UNL     1       3.642   4.927   9.515  1.00  0.00     0.023 C 
HETATM   12  C21 UNL     1       2.622   7.053   8.714  1.00  0.00     0.023 C 
HETATM   13  C22 UNL     1       4.279   7.103  10.570  1.00  0.00     0.135 C 
HETATM   14  O3  UNL     1       5.457   6.786  10.397  1.00  0.00    -0.297 OA
HETATM   15  C23 UNL     1       3.942   8.373  11.318  1.00  0.00     0.080 C 
HETATM   16  C24 UNL     1       2.874   8.107  12.366  1.00  0.00     0.018 C 
HETATM   17  C25 UNL     1       1.648   7.464  11.731  1.00  0.00    -0.026 A 
HETATM   18  C26 UNL     1       0.631   8.401  11.135  1.00  0.00     0.021 A 
HETATM   19  C27 UNL     1       0.244   7.623  12.385  1.00  0.00    -0.025 A 
HETATM   20  C28 UNL     1       0.178   8.400  13.704  1.00  0.00     0.011 C 
HETATM   21  C29 UNL     1      -1.203   8.664  14.323  1.00  0.00     0.011 C 
HETATM   22  C30 UNL     1      -2.363   7.915  13.660  1.00  0.00    -0.032 C 
HETATM   23  C31 UNL     1      -2.826   8.737  12.419  1.00  0.00     0.016 C 
ENDROOT
BRANCH   1  24
HETATM   24  C8  UNL     1      -4.638   8.760  14.861  1.00  0.00    -0.011 C 
HETATM   25  C9  UNL     1      -4.011   9.925  15.638  1.00  0.00     0.010 C 
BRANCH  24  26
HETATM   26  C7  UNL     1      -5.859   8.209  15.661  1.00  0.00     0.037 C 
BRANCH  26  27
HETATM   27  C6  UNL     1      -7.163   8.186  14.841  1.00  0.00     0.126 C 
BRANCH  27  28
HETATM   28  C4  UNL     1      -8.099   6.976  15.130  1.00  0.00     0.038 C 
HETATM   29  C5  UNL     1      -7.460   5.939  16.064  1.00  0.00     0.017 C 
BRANCH  28  30
HETATM   30  C2  UNL     1      -8.707   6.368  13.867  1.00  0.00    -0.087 C 
HETATM   31  C1  UNL     1      -7.975   5.566  13.074  1.00  0.00     0.014 C 
HETATM   32  C3  UNL     1     -10.130   6.702  13.501  1.00  0.00     0.043 C 
ENDBRANCH  28  30
ENDBRANCH  27  28
BRANCH  27  33
HETATM   33  O1  UNL     1      -7.883   9.402  15.063  1.00  0.00    -0.395 OA
HETATM   34  H11 UNL     1      -8.646   9.404  14.461  1.00  0.00     0.210 HD
ENDBRANCH  27  33
ENDBRANCH  26  27
ENDBRANCH  24  26
ENDBRANCH   1  24
BRANCH   7  35
HETATM   35  O2  UNL     1      -1.193   4.230  11.378  1.00  0.00    -0.395 OA
HETATM   36  H28 UNL     1      -1.660   4.597  10.609  1.00  0.00     0.210 HD
ENDBRANCH   7  35
TORSDOF 7
ENDMDL
MODEL 5
REMARK minimizedAffinity -9.23189735
REMARK  7 active torsions:
REMARK  status: ('A' for Active; 'I' for Inactive)
REMARK    1  A    between atoms: C2_2  and  C4_4 
REMARK    2  A    between atoms: C4_4  and  C6_6 
REMARK    3  A    between atoms: C6_6  and  O1_7 
REMARK    4  A    between atoms: C6_6  and  C7_8 
REMARK    5  A    between atoms: C7_8  and  C8_9 
REMARK    6  A    between atoms: C8_9  and  C10_11 
REMARK    7  A    between atoms: C16_17  and  O2_18 
ROOT
HETATM    1  C10 UNL     1      -4.204   7.941  14.807  1.00  0.00    -0.002 C 
HETATM    2  C11 UNL     1      -3.594   7.233  16.050  1.00  0.00     0.006 C 
HETATM    3  C12 UNL     1      -2.130   6.900  15.724  1.00  0.00     0.011 C 
HETATM    4  C13 UNL     1      -1.805   7.692  14.443  1.00  0.00    -0.030 C 
HETATM    5  C14 UNL     1      -1.419   9.135  14.893  1.00  0.00     0.016 C 
HETATM    6  C15 UNL     1      -0.670   7.082  13.565  1.00  0.00     0.032 C 
HETATM    7  C16 UNL     1       0.748   7.205  14.161  1.00  0.00     0.124 C 
HETATM    8  C17 UNL     1       1.786   6.556  13.244  1.00  0.00     0.038 C 
HETATM    9  C18 UNL     1       1.926   7.356  11.946  1.00  0.00     0.012 C 
HETATM   10  C19 UNL     1       3.003   6.803  10.958  1.00  0.00     0.018 C 
HETATM   11  C20 UNL     1       4.396   6.819  11.622  1.00  0.00     0.023 C 
HETATM   12  C21 UNL     1       2.727   5.371  10.473  1.00  0.00     0.023 C 
HETATM   13  C22 UNL     1       3.042   7.723   9.724  1.00  0.00     0.135 C 
HETATM   14  O3  UNL     1       4.099   8.108   9.217  1.00  0.00    -0.297 OA
HETATM   15  C23 UNL     1       1.724   8.073   9.072  1.00  0.00     0.080 C 
HETATM   16  C24 UNL     1       0.743   8.603  10.105  1.00  0.00     0.018 C 
HETATM   17  C25 UNL     1       0.581   7.611  11.249  1.00  0.00    -0.026 A 
HETATM   18  C26 UNL     1      -0.435   6.517  11.051  1.00  0.00     0.021 A 
HETATM   19  C27 UNL     1      -0.725   7.586  12.095  1.00  0.00    -0.025 A 
HETATM   20  C28 UNL     1      -1.793   8.630  11.752  1.00  0.00     0.011 C 
HETATM   21  C29 UNL     1      -3.135   8.569  12.497  1.00  0.00     0.011 C 
HETATM   22  C30 UNL     1      -3.176   7.595  13.678  1.00  0.00    -0.032 C 
HETATM   23  C31 UNL     1      -3.485   6.171  13.122  1.00  0.00     0.016 C 
ENDROOT
BRANCH   1  24
HETATM   24  C8  UNL     1      -5.715   7.598  14.618  1.00  0.00    -0.011 C 
HETATM   25  C9  UNL     1      -6.619   8.750  15.077  1.00  0.00     0.010 C 
BRANCH  24  26
HETATM   26  C7  UNL     1      -6.097   6.305  15.402  1.00  0.00     0.037 C 
BRANCH  26  27
HETATM   27  C6  UNL     1      -7.448   5.705  14.965  1.00  0.00     0.126 C 
BRANCH  27  28
HETATM   28  C4  UNL     1      -7.567   5.392  13.445  1.00  0.00     0.038 C 
HETATM   29  C5  UNL     1      -8.926   5.802  12.858  1.00  0.00     0.017 C 
BRANCH  28  30
HETATM   30  C2  UNL     1      -7.152   3.966  13.087  1.00  0.00    -0.087 C 
HETATM   31  C1  UNL     1      -8.061   2.976  13.059  1.00  0.00     0.014 C 
HETATM   32  C3  UNL     1      -5.703   3.674  12.796  1.00  0.00     0.043 C 
ENDBRANCH  28  30
ENDBRANCH  27  28
BRANCH  27  33
HETATM   33  O1  UNL     1      -7.700   4.513  15.713  1.00  0.00    -0.395 OA
HETATM   34  H11 UNL     1      -8.597   4.212  15.491  1.00  0.00     0.210 HD
ENDBRANCH  27  33
ENDBRANCH  26  27
ENDBRANCH  24  26
ENDBRANCH   1  24
BRANCH   7  35
HETATM   35  O2  UNL     1       0.825   6.561  15.432  1.00  0.00    -0.395 OA
HETATM   36  H28 UNL     1       0.602   5.623  15.307  1.00  0.00     0.210 HD
ENDBRANCH   7  35
TORSDOF 7
ENDMDL
MODEL 6
REMARK minimizedAffinity -9.10924053
REMARK  7 active torsions:
REMARK  status: ('A' for Active; 'I' for Inactive)
REMARK    1  A    between atoms: C2_2  and  C4_4 
REMARK    2  A    between atoms: C4_4  and  C6_6 
REMARK    3  A    between atoms: C6_6  and  O1_7 
REMARK    4  A    between atoms: C6_6  and  C7_8 
REMARK    5  A    between atoms: C7_8  and  C8_9 
REMARK    6  A    between atoms: C8_9  and  C10_11 
REMARK    7  A    between atoms: C16_17  and  O2_18 
ROOT
HETATM    1  C10 UNL     1      -5.951   7.582  15.179  1.00  0.00    -0.002 C 
HETATM    2  C11 UNL     1      -5.649   9.088  15.426  1.00  0.00     0.006 C 
HETATM    3  C12 UNL     1      -4.292   9.403  14.780  1.00  0.00     0.011 C 
HETATM    4  C13 UNL     1      -3.967   8.185  13.894  1.00  0.00    -0.030 C 
HETATM    5  C14 UNL     1      -4.708   8.405  12.539  1.00  0.00     0.016 C 
HETATM    6  C15 UNL     1      -2.447   7.944  13.641  1.00  0.00     0.032 C 
HETATM    7  C16 UNL     1      -1.774   8.971  12.707  1.00  0.00     0.124 C 
HETATM    8  C17 UNL     1      -0.284   8.668  12.543  1.00  0.00     0.038 C 
HETATM    9  C18 UNL     1      -0.087   7.366  11.763  1.00  0.00     0.012 C 
HETATM   10  C19 UNL     1       1.406   6.992  11.496  1.00  0.00     0.018 C 
HETATM   11  C20 UNL     1       2.095   8.095  10.664  1.00  0.00     0.023 C 
HETATM   12  C21 UNL     1       2.234   6.777  12.773  1.00  0.00     0.023 C 
HETATM   13  C22 UNL     1       1.437   5.682  10.685  1.00  0.00     0.135 C 
HETATM   14  O3  UNL     1       2.178   5.523   9.712  1.00  0.00    -0.297 OA
HETATM   15  C23 UNL     1       0.589   4.534  11.182  1.00  0.00     0.080 C 
HETATM   16  C24 UNL     1      -0.842   4.989  11.411  1.00  0.00     0.018 C 
HETATM   17  C25 UNL     1      -0.880   6.188  12.349  1.00  0.00    -0.026 A 
HETATM   18  C26 UNL     1      -0.888   5.887  13.824  1.00  0.00     0.021 A 
HETATM   19  C27 UNL     1      -2.146   6.482  13.207  1.00  0.00    -0.025 A 
HETATM   20  C28 UNL     1      -3.344   5.546  13.016  1.00  0.00     0.011 C 
HETATM   21  C29 UNL     1      -4.571   5.743  13.919  1.00  0.00     0.011 C 
HETATM   22  C30 UNL     1      -4.549   7.016  14.771  1.00  0.00    -0.032 C 
HETATM   23  C31 UNL     1      -3.720   6.725  16.059  1.00  0.00     0.016 C 
ENDROOT
BRANCH   1  24
HETATM   24  C8  UNL     1      -6.738   6.939  16.363  1.00  0.00    -0.011 C 
HETATM   25  C9  UNL     1      -6.524   5.420  16.426  1.00  0.00     0.010 C 
BRANCH  24  26
HETATM   26  C7  UNL     1      -8.265   7.235  16.247  1.00  0.00     0.037 C 
BRANCH  26  27
HETATM   27  C6  UNL     1      -9.004   6.261  15.309  1.00  0.00     0.126 C 
BRANCH  27  28
HETATM   28  C4  UNL     1      -9.222   6.782  13.859  1.00  0.00     0.038 C 
HETATM   29  C5  UNL     1     -10.647   7.305  13.623  1.00  0.00     0.017 C 
BRANCH  28  30
HETATM   30  C2  UNL     1      -8.745   5.804  12.787  1.00  0.00    -0.087 C 
HETATM   31  C1  UNL     1      -9.033   6.016  11.491  1.00  0.00     0.014 C 
HETATM   32  C3  UNL     1      -7.972   4.579  13.202  1.00  0.00     0.043 C 
ENDBRANCH  28  30
ENDBRANCH  27  28
BRANCH  27  33
HETATM   33  O1  UNL     1      -8.295   5.020  15.263  1.00  0.00    -0.395 OA
HETATM   34  H11 UNL     1      -8.832   4.395  14.747  1.00  0.00     0.210 HD
ENDBRANCH  27  33
ENDBRANCH  26  27
ENDBRANCH  24  26
ENDBRANCH   1  24
BRANCH   7  35
HETATM   35  O2  UNL     1      -1.896  10.293  13.231  1.00  0.00    -0.395 OA
HETATM   36  H28 UNL     1      -1.466  10.312  14.102  1.00  0.00     0.210 HD
ENDBRANCH   7  35
TORSDOF 7
ENDMDL
MODEL 7
REMARK minimizedAffinity -9.02825642
REMARK  7 active torsions:
REMARK  status: ('A' for Active; 'I' for Inactive)
REMARK    1  A    between atoms: C2_2  and  C4_4 
REMARK    2  A    between atoms: C4_4  and  C6_6 
REMARK    3  A    between atoms: C6_6  and  O1_7 
REMARK    4  A    between atoms: C6_6  and  C7_8 
REMARK    5  A    between atoms: C7_8  and  C8_9 
REMARK    6  A    between atoms: C8_9  and  C10_11 
REMARK    7  A    between atoms: C16_17  and  O2_18 
ROOT
HETATM    1  C10 UNL     1       3.537   7.545  10.958  1.00  0.00    -0.002 C 
HETATM    2  C11 UNL     1       3.724   6.029  10.663  1.00  0.00     0.006 C 
HETATM    3  C12 UNL     1       2.389   5.328  10.958  1.00  0.00     0.011 C 
HETATM    4  C13 UNL     1       1.356   6.462  11.105  1.00  0.00    -0.030 C 
HETATM    5  C14 UNL     1       0.889   6.834   9.664  1.00  0.00     0.016 C 
HETATM    6  C15 UNL     1       0.124   6.114  11.996  1.00  0.00     0.032 C 
HETATM    7  C16 UNL     1      -0.867   5.111  11.368  1.00  0.00     0.124 C 
HETATM    8  C17 UNL     1      -2.023   4.814  12.324  1.00  0.00     0.038 C 
HETATM    9  C18 UNL     1      -2.906   6.052  12.497  1.00  0.00     0.012 C 
HETATM   10  C19 UNL     1      -4.149   5.837  13.419  1.00  0.00     0.018 C 
HETATM   11  C20 UNL     1      -5.065   4.740  12.835  1.00  0.00     0.023 C 
HETATM   12  C21 UNL     1      -3.796   5.441  14.861  1.00  0.00     0.023 C 
HETATM   13  C22 UNL     1      -4.945   7.156  13.470  1.00  0.00     0.135 C 
HETATM   14  O3  UNL     1      -6.173   7.193  13.368  1.00  0.00    -0.297 OA
HETATM   15  C23 UNL     1      -4.174   8.425  13.754  1.00  0.00     0.080 C 
HETATM   16  C24 UNL     1      -2.988   8.550  12.813  1.00  0.00     0.018 C 
HETATM   17  C25 UNL     1      -2.111   7.307  12.887  1.00  0.00    -0.026 A 
HETATM   18  C26 UNL     1      -1.067   7.285  13.972  1.00  0.00     0.021 A 
HETATM   19  C27 UNL     1      -0.598   7.385  12.527  1.00  0.00    -0.025 A 
HETATM   20  C28 UNL     1      -0.067   8.742  12.053  1.00  0.00     0.011 C 
HETATM   21  C29 UNL     1       1.440   8.881  11.789  1.00  0.00     0.011 C 
HETATM   22  C30 UNL     1       2.224   7.566  11.813  1.00  0.00    -0.032 C 
HETATM   23  C31 UNL     1       2.574   7.235  13.296  1.00  0.00     0.016 C 
ENDROOT
BRANCH   1  24
HETATM   24  C8  UNL     1       4.839   8.201  11.513  1.00  0.00    -0.011 C 
HETATM   25  C9  UNL     1       6.091   7.656  10.811  1.00  0.00     0.010 C 
BRANCH  24  26
HETATM   26  C7  UNL     1       4.973   7.968  13.050  1.00  0.00     0.037 C 
BRANCH  26  27
HETATM   27  C6  UNL     1       6.391   7.547  13.480  1.00  0.00     0.126 C 
BRANCH  27  28
HETATM   28  C4  UNL     1       7.172   8.613  14.303  1.00  0.00     0.038 C 
HETATM   29  C5  UNL     1       7.163   9.999  13.641  1.00  0.00     0.017 C 
BRANCH  28  30
HETATM   30  C2  UNL     1       8.564   8.148  14.729  1.00  0.00    -0.087 C 
HETATM   31  C1  UNL     1       9.508   7.888  13.808  1.00  0.00     0.014 C 
HETATM   32  C3  UNL     1       8.857   7.953  16.193  1.00  0.00     0.043 C 
ENDBRANCH  28  30
ENDBRANCH  27  28
BRANCH  27  33
HETATM   33  O1  UNL     1       6.316   6.333  14.233  1.00  0.00    -0.395 OA
HETATM   34  H11 UNL     1       7.226   6.039  14.405  1.00  0.00     0.210 HD
ENDBRANCH  27  33
ENDBRANCH  26  27
ENDBRANCH  24  26
ENDBRANCH   1  24
BRANCH   7  35
HETATM   35  O2  UNL     1      -0.221   3.876  11.067  1.00  0.00    -0.395 OA
HETATM   36  H28 UNL     1       0.134   3.512  11.896  1.00  0.00     0.210 HD
ENDBRANCH   7  35
TORSDOF 7
ENDMDL
MODEL 8
REMARK minimizedAffinity -8.91613579
REMARK  7 active torsions:
REMARK  status: ('A' for Active; 'I' for Inactive)
REMARK    1  A    between atoms: C2_2  and  C4_4 
REMARK    2  A    between atoms: C4_4  and  C6_6 
REMARK    3  A    between atoms: C6_6  and  O1_7 
REMARK    4  A    between atoms: C6_6  and  C7_8 
REMARK    5  A    between atoms: C7_8  and  C8_9 
REMARK    6  A    between atoms: C8_9  and  C10_11 
REMARK    7  A    between atoms: C16_17  and  O2_18 
ROOT
HETATM    1  C10 UNL     1      -2.613   6.315  12.931  1.00  0.00    -0.002 C 
HETATM    2  C11 UNL     1      -2.811   7.102  14.258  1.00  0.00     0.006 C 
HETATM    3  C12 UNL     1      -1.557   7.960  14.483  1.00  0.00     0.011 C 
HETATM    4  C13 UNL     1      -0.791   7.923  13.147  1.00  0.00    -0.030 C 
HETATM    5  C14 UNL     1      -1.426   9.017  12.234  1.00  0.00     0.016 C 
HETATM    6  C15 UNL     1       0.747   8.152  13.267  1.00  0.00     0.032 C 
HETATM    7  C16 UNL     1       1.163   9.595  13.619  1.00  0.00     0.124 C 
HETATM    8  C17 UNL     1       2.683   9.712  13.741  1.00  0.00     0.038 C 
HETATM    9  C18 UNL     1       3.345   9.526  12.373  1.00  0.00     0.012 C 
HETATM   10  C19 UNL     1       4.899   9.679  12.379  1.00  0.00     0.018 C 
HETATM   11  C20 UNL     1       5.296  11.092  12.856  1.00  0.00     0.023 C 
HETATM   12  C21 UNL     1       5.623   8.659  13.273  1.00  0.00     0.023 C 
HETATM   13  C22 UNL     1       5.409   9.491  10.937  1.00  0.00     0.135 C 
HETATM   14  O3  UNL     1       6.254  10.232  10.432  1.00  0.00    -0.297 OA
HETATM   15  C23 UNL     1       4.906   8.289  10.171  1.00  0.00     0.080 C 
HETATM   16  C24 UNL     1       3.389   8.223  10.218  1.00  0.00     0.018 C 
HETATM   17  C25 UNL     1       2.895   8.243  11.658  1.00  0.00    -0.026 A 
HETATM   18  C26 UNL     1       2.834   6.915  12.366  1.00  0.00     0.021 A 
HETATM   19  C27 UNL     1       1.522   7.611  12.031  1.00  0.00    -0.025 A 
HETATM   20  C28 UNL     1       0.691   7.030  10.883  1.00  0.00     0.011 C 
HETATM   21  C29 UNL     1      -0.620   6.307  11.227  1.00  0.00     0.011 C 
HETATM   22  C30 UNL     1      -1.072   6.447  12.684  1.00  0.00    -0.032 C 
HETATM   23  C31 UNL     1      -0.324   5.371  13.530  1.00  0.00     0.016 C 
ENDROOT
BRANCH   1  24
HETATM   24  C8  UNL     1      -3.278   4.905  12.978  1.00  0.00    -0.011 C 
HETATM   25  C9  UNL     1      -2.791   4.011  11.830  1.00  0.00     0.010 C 
BRANCH  24  26
HETATM   26  C7  UNL     1      -4.833   5.018  12.914  1.00  0.00     0.037 C 
BRANCH  26  27
HETATM   27  C6  UNL     1      -5.530   3.671  12.639  1.00  0.00     0.126 C 
BRANCH  27  28
HETATM   28  C4  UNL     1      -6.858   3.447  13.418  1.00  0.00     0.038 C 
HETATM   29  C5  UNL     1      -7.725   2.335  12.810  1.00  0.00     0.017 C 
BRANCH  28  30
HETATM   30  C2  UNL     1      -7.625   4.741  13.689  1.00  0.00    -0.087 C 
HETATM   31  C1  UNL     1      -8.378   5.302  12.727  1.00  0.00     0.014 C 
HETATM   32  C3  UNL     1      -7.503   5.399  15.038  1.00  0.00     0.043 C 
ENDBRANCH  28  30
ENDBRANCH  27  28
BRANCH  27  33
HETATM   33  O1  UNL     1      -5.779   3.545  11.237  1.00  0.00    -0.395 OA
HETATM   34  H11 UNL     1      -6.126   2.651  11.080  1.00  0.00     0.210 HD
ENDBRANCH  27  33
ENDBRANCH  26  27
ENDBRANCH  24  26
ENDBRANCH   1  24
BRANCH   7  35
HETATM   35  O2  UNL     1       0.593  10.002  14.862  1.00  0.00    -0.395 OA
HETATM   36  H28 UNL     1       0.908   9.392  15.551  1.00  0.00     0.210 HD
ENDBRANCH   7  35
TORSDOF 7
ENDMDL
MODEL 9
REMARK minimizedAffinity -8.88439751
REMARK  7 active torsions:
REMARK  status: ('A' for Active; 'I' for Inactive)
REMARK    1  A    between atoms: C2_2  and  C4_4 
REMARK    2  A    between atoms: C4_4  and  C6_6 
REMARK    3  A    between atoms: C6_6  and  O1_7 
REMARK    4  A    between atoms: C6_6  and  C7_8 
REMARK    5  A    between atoms: C7_8  and  C8_9 
REMARK    6  A    between atoms: C8_9  and  C10_11 
REMARK    7  A    between atoms: C16_17  and  O2_18 
ROOT
HETATM    1  C10 UNL     1      -2.048   6.338  13.558  1.00  0.00    -0.002 C 
HETATM    2  C11 UNL     1      -2.203   5.596  12.200  1.00  0.00     0.006 C 
HETATM    3  C12 UNL     1      -0.842   5.636  11.488  1.00  0.00     0.011 C 
HETATM    4  C13 UNL     1       0.165   6.103  12.557  1.00  0.00    -0.030 C 
HETATM    5  C14 UNL     1       0.579   4.836  13.368  1.00  0.00     0.016 C 
HETATM    6  C15 UNL     1       1.431   6.819  11.997  1.00  0.00     0.032 C 
HETATM    7  C16 UNL     1       2.429   5.896  11.268  1.00  0.00     0.124 C 
HETATM    8  C17 UNL     1       3.621   6.691  10.732  1.00  0.00     0.038 C 
HETATM    9  C18 UNL     1       4.475   7.218  11.888  1.00  0.00     0.012 C 
HETATM   10  C19 UNL     1       5.750   8.004  11.445  1.00  0.00     0.018 C 
HETATM   11  C20 UNL     1       6.676   7.094  10.610  1.00  0.00     0.023 C 
HETATM   12  C21 UNL     1       5.450   9.262  10.615  1.00  0.00     0.023 C 
HETATM   13  C22 UNL     1       6.511   8.441  12.711  1.00  0.00     0.135 C 
HETATM   14  O3  UNL     1       7.734   8.331  12.819  1.00  0.00    -0.297 OA
HETATM   15  C23 UNL     1       5.716   9.115  13.805  1.00  0.00     0.080 C 
HETATM   16  C24 UNL     1       4.500   8.281  14.171  1.00  0.00     0.018 C 
HETATM   17  C25 UNL     1       3.658   7.988  12.936  1.00  0.00    -0.026 A 
HETATM   18  C26 UNL     1       2.648   9.035  12.548  1.00  0.00     0.021 A 
HETATM   19  C27 UNL     1       2.134   7.700  13.068  1.00  0.00    -0.025 A 
HETATM   20  C28 UNL     1       1.554   7.675  14.486  1.00  0.00     0.011 C 
HETATM   21  C29 UNL     1       0.037   7.496  14.648  1.00  0.00     0.011 C 
HETATM   22  C30 UNL     1      -0.712   7.131  13.363  1.00  0.00    -0.032 C 
HETATM   23  C31 UNL     1      -1.008   8.449  12.582  1.00  0.00     0.016 C 
ENDROOT
BRANCH   1  24
HETATM   24  C8  UNL     1      -3.350   7.092  13.969  1.00  0.00    -0.011 C 
HETATM   25  C9  UNL     1      -3.730   6.813  15.429  1.00  0.00     0.010 C 
BRANCH  24  26
HETATM   26  C7  UNL     1      -4.543   6.692  13.046  1.00  0.00     0.037 C 
BRANCH  26  27
HETATM   27  C6  UNL     1      -5.779   6.205  13.826  1.00  0.00     0.126 C 
BRANCH  27  28
HETATM   28  C4  UNL     1      -6.156   4.713  13.595  1.00  0.00     0.038 C 
HETATM   29  C5  UNL     1      -5.068   3.935  12.841  1.00  0.00     0.017 C 
BRANCH  28  30
HETATM   30  C2  UNL     1      -7.556   4.527  13.011  1.00  0.00    -0.087 C 
HETATM   31  C1  UNL     1      -8.085   3.298  12.882  1.00  0.00     0.014 C 
HETATM   32  C3  UNL     1      -8.328   5.737  12.552  1.00  0.00     0.043 C 
ENDBRANCH  28  30
ENDBRANCH  27  28
BRANCH  27  33
HETATM   33  O1  UNL     1      -5.575   6.429  15.223  1.00  0.00    -0.395 OA
HETATM   34  H11 UNL     1      -6.404   6.207  15.680  1.00  0.00     0.210 HD
ENDBRANCH  27  33
ENDBRANCH  26  27
ENDBRANCH  24  26
ENDBRANCH   1  24
BRANCH   7  35
HETATM   35  O2  UNL     1       1.807   5.243  10.162  1.00  0.00    -0.395 OA
HETATM   36  H28 UNL     1       1.487   5.928   9.551  1.00  0.00     0.210 HD
ENDBRANCH   7  35
TORSDOF 7
ENDMDL
