MODEL 1
REMARK minimizedAffinity -9.87683487
REMARK CNNscore 0.239594221
REMARK CNNaffinity 7.23029709
REMARK  6 active torsions:
REMARK  status: ('A' for Active; 'I' for Inactive)
REMARK    1  A    between atoms: C2_2  and  C3_3 
REMARK    2  A    between atoms: C11_12  and  C12_13 
REMARK    3  A    between atoms: C25_28  and  C26_29 
REMARK    4  A    between atoms: C27_32  and  C30_35 
REMARK    5  A    between atoms: C31_36  and  O3_37 
REMARK    6  A    between atoms: C37_44  and  O4_45 
ROOT
HETATM    1  C12 UNL     1       1.477  52.031 -13.100  1.00  0.00    -0.003 C 
HETATM    2  C13 UNL     1       0.852  53.007 -12.422  1.00  0.00     0.102 C 
HETATM    3  N2  UNL     1       1.424  53.699 -11.386  1.00  0.00    -0.349 N 
HETATM    4  C14 UNL     1       0.759  54.431 -10.374  1.00  0.00     0.041 A 
HETATM    5  C15 UNL     1      -0.536  54.930 -10.409  1.00  0.00     0.030 A 
HETATM    6  C16 UNL     1      -1.054  55.571  -9.280  1.00  0.00     0.002 A 
HETATM    7  C17 UNL     1      -0.277  55.719  -8.123  1.00  0.00     0.001 A 
HETATM    8  C18 UNL     1       1.022  55.216  -8.082  1.00  0.00     0.010 A 
HETATM    9  C19 UNL     1       1.527  54.582  -9.208  1.00  0.00    -0.018 A 
HETATM   10  C20 UNL     1       2.832  53.880  -9.365  1.00  0.00     0.043 C 
HETATM   11  C21 UNL     1       4.094  54.542  -8.762  1.00  0.00     0.049 C 
HETATM   12  C22 UNL     1       4.730  53.512  -7.739  1.00  0.00     0.274 C 
HETATM   13  N3  UNL     1       3.821  52.337  -7.588  1.00  0.00     0.098 N 
HETATM   14  C23 UNL     1       4.492  50.983  -7.922  1.00  0.00     0.308 C 
HETATM   15  C24 UNL     1       4.177  50.315  -9.361  1.00  0.00    -0.041 C 
HETATM   16  C25 UNL     1       4.956  49.368  -9.925  1.00  0.00     0.089 C 
HETATM   17  C27 UNL     1       2.905  50.797 -10.186  1.00  0.00     0.027 C 
HETATM   18  C28 UNL     1       2.016  51.424  -9.131  1.00  0.00     0.046 C 
HETATM   19  C29 UNL     1       2.930  52.554  -8.698  1.00  0.00     0.239 C 
HETATM   20  C30 UNL     1       3.281  51.950 -11.288  1.00  0.00     0.052 C 
HETATM   21  C31 UNL     1       2.884  51.615 -12.744  1.00  0.00     0.160 C 
HETATM   22  C32 UNL     1       2.823  53.478 -10.922  1.00  0.00     0.112 C 
ENDROOT
BRANCH   1  23
HETATM   23  C11 UNL     1       0.783  51.329 -14.189  1.00  0.00    -0.016 A 
HETATM   24  C3  UNL     1       0.029  50.167 -13.987  1.00  0.00    -0.032 A 
HETATM   25  C4  UNL     1      -0.559  49.557 -15.101  1.00  0.00     0.104 A 
HETATM   26  N1  UNL     1      -0.427  50.050 -16.360  1.00  0.00    -0.330 N 
HETATM   27  C5  UNL     1      -1.020  49.415 -17.397  1.00  0.00     0.097 A 
HETATM   28  C9  UNL     1       0.304  51.188 -16.557  1.00  0.00     0.067 A 
HETATM   29  C6  UNL     1      -0.933  49.879 -18.703  1.00  0.00     0.032 A 
HETATM   30  C7  UNL     1      -0.202  51.046 -18.954  1.00  0.00     0.009 A 
HETATM   31  C8  UNL     1       0.407  51.676 -17.876  1.00  0.00     0.071 A 
HETATM   32  C39 UNL     1       0.088  51.795 -20.142  1.00  0.00     0.036 A 
HETATM   33  N4  UNL     1       1.072  52.770 -18.391  1.00  0.00    -0.353 N 
HETATM   34  C33 UNL     1       0.895  52.859 -19.752  1.00  0.00     0.046 A 
HETATM   35  H30 UNL     1       1.640  53.422 -17.856  1.00  0.00     0.166 HD
HETATM   36  C34 UNL     1       1.393  53.801 -20.653  1.00  0.00     0.030 A 
HETATM   37  C35 UNL     1       1.051  53.643 -21.997  1.00  0.00     0.005 A 
HETATM   38  C36 UNL     1       0.230  52.597 -22.420  1.00  0.00     0.038 A 
HETATM   39  C37 UNL     1      -0.275  51.658 -21.508  1.00  0.00     0.081 A 
HETATM   40  C10 UNL     1       0.917  51.840 -15.479  1.00  0.00     0.045 A 
BRANCH  24  41
HETATM   41  C2  UNL     1      -0.162  49.539 -12.617  1.00  0.00     0.036 C 
HETATM   42  C1  UNL     1      -1.628  49.427 -12.215  1.00  0.00     0.010 C 
ENDBRANCH  24  41
BRANCH  39  43
HETATM   43  O4  UNL     1      -1.100  50.614 -21.835  1.00  0.00    -0.355 OA
HETATM   44  C38 UNL     1      -1.679  50.616 -23.139  1.00  0.00     0.210 C 
ENDBRANCH  39  43
ENDBRANCH   1  23
BRANCH  21  45
HETATM   45  O3  UNL     1       3.071  50.230 -13.042  1.00  0.00    -0.390 OA
HETATM   46  H28 UNL     1       3.934  49.958 -12.666  1.00  0.00     0.210 HD
ENDBRANCH  21  45
BRANCH  16  47
HETATM   47  C26 UNL     1       6.251  48.728  -9.410  1.00  0.00     0.198 C 
HETATM   48  O1  UNL     1       6.294  47.481  -9.617  1.00  0.00    -0.645 OA
HETATM   49  O2  UNL     1       7.086  49.501  -8.869  1.00  0.00    -0.645 OA
ENDBRANCH  16  47
TORSDOF 6
ENDMDL
MODEL 2
REMARK minimizedAffinity -10.4045734
REMARK CNNscore 0.216101706
REMARK CNNaffinity 7.58890915
REMARK  6 active torsions:
REMARK  status: ('A' for Active; 'I' for Inactive)
REMARK    1  A    between atoms: C2_2  and  C3_3 
REMARK    2  A    between atoms: C11_12  and  C12_13 
REMARK    3  A    between atoms: C25_28  and  C26_29 
REMARK    4  A    between atoms: C27_32  and  C30_35 
REMARK    5  A    between atoms: C31_36  and  O3_37 
REMARK    6  A    between atoms: C37_44  and  O4_45 
ROOT
HETATM    1  C12 UNL     1      -0.277  50.428 -17.456  1.00  0.00    -0.003 C 
HETATM    2  C13 UNL     1       0.165  51.405 -18.264  1.00  0.00     0.102 C 
HETATM    3  N2  UNL     1      -0.491  51.806 -19.399  1.00  0.00    -0.349 N 
HETATM    4  C14 UNL     1       0.054  52.507 -20.501  1.00  0.00     0.041 A 
HETATM    5  C15 UNL     1       1.218  53.265 -20.524  1.00  0.00     0.030 A 
HETATM    6  C16 UNL     1       1.643  53.830 -21.730  1.00  0.00     0.002 A 
HETATM    7  C17 UNL     1       0.902  53.645 -22.906  1.00  0.00     0.001 A 
HETATM    8  C18 UNL     1      -0.264  52.882 -22.887  1.00  0.00     0.010 A 
HETATM    9  C19 UNL     1      -0.677  52.326 -21.686  1.00  0.00    -0.018 A 
HETATM   10  C20 UNL     1      -1.817  51.397 -21.442  1.00  0.00     0.043 C 
HETATM   11  C21 UNL     1      -3.160  51.689 -22.153  1.00  0.00     0.049 C 
HETATM   12  C22 UNL     1      -3.528  50.413 -23.018  1.00  0.00     0.274 C 
HETATM   13  N3  UNL     1      -2.392  49.443 -22.980  1.00  0.00     0.098 N 
HETATM   14  C23 UNL     1      -2.788  48.042 -22.455  1.00  0.00     0.308 C 
HETATM   15  C24 UNL     1      -2.405  47.668 -20.929  1.00  0.00    -0.041 C 
HETATM   16  C25 UNL     1      -2.999  46.671 -20.240  1.00  0.00     0.089 C 
HETATM   17  C27 UNL     1      -1.295  48.518 -20.170  1.00  0.00     0.027 C 
HETATM   18  C28 UNL     1      -0.508  49.158 -21.296  1.00  0.00     0.046 C 
HETATM   19  C29 UNL     1      -1.614  49.999 -21.904  1.00  0.00     0.239 C 
HETATM   20  C30 UNL     1      -1.946  49.714 -19.257  1.00  0.00     0.052 C 
HETATM   21  C31 UNL     1      -1.553  49.682 -17.763  1.00  0.00     0.160 C 
HETATM   22  C32 UNL     1      -1.794  51.234 -19.843  1.00  0.00     0.112 C 
ENDROOT
BRANCH   1  23
HETATM   23  C11 UNL     1       0.498  50.050 -16.265  1.00  0.00    -0.016 A 
HETATM   24  C3  UNL     1       1.328  50.946 -15.581  1.00  0.00    -0.032 A 
HETATM   25  C4  UNL     1       2.051  50.472 -14.482  1.00  0.00     0.104 A 
HETATM   26  N1  UNL     1       1.975  49.184 -14.056  1.00  0.00    -0.330 N 
HETATM   27  C5  UNL     1       2.700  48.785 -12.985  1.00  0.00     0.097 A 
HETATM   28  C9  UNL     1       1.161  48.310 -14.719  1.00  0.00     0.067 A 
HETATM   29  C6  UNL     1       2.653  47.486 -12.496  1.00  0.00     0.032 A 
HETATM   30  C7  UNL     1       1.826  46.556 -13.137  1.00  0.00     0.009 A 
HETATM   31  C8  UNL     1       1.099  46.985 -14.240  1.00  0.00     0.071 A 
HETATM   32  C39 UNL     1       1.534  45.171 -12.909  1.00  0.00     0.036 A 
HETATM   33  N4  UNL     1       0.396  45.887 -14.692  1.00  0.00    -0.353 N 
HETATM   34  C33 UNL     1       0.644  44.785 -13.908  1.00  0.00     0.046 A 
HETATM   35  H30 UNL     1      -0.211  45.869 -15.507  1.00  0.00     0.166 HD
HETATM   36  C34 UNL     1       0.147  43.485 -14.016  1.00  0.00     0.030 A 
HETATM   37  C35 UNL     1       0.578  42.555 -13.070  1.00  0.00     0.005 A 
HETATM   38  C36 UNL     1       1.456  42.913 -12.046  1.00  0.00     0.038 A 
HETATM   39  C37 UNL     1       1.946  44.222 -11.936  1.00  0.00     0.081 A 
HETATM   40  C10 UNL     1       0.415  48.729 -15.829  1.00  0.00     0.045 A 
BRANCH  24  41
HETATM   41  C2  UNL     1       1.483  52.400 -15.993  1.00  0.00     0.036 C 
HETATM   42  C1  UNL     1       2.906  52.750 -16.411  1.00  0.00     0.010 C 
ENDBRANCH  24  41
BRANCH  39  43
HETATM   43  O4  UNL     1       2.794  44.661 -10.954  1.00  0.00    -0.355 OA
HETATM   44  C38 UNL     1       4.137  44.181 -10.981  1.00  0.00     0.210 C 
ENDBRANCH  39  43
ENDBRANCH   1  23
BRANCH  21  45
HETATM   45  O3  UNL     1      -1.467  48.346 -17.263  1.00  0.00    -0.390 OA
HETATM   46  H28 UNL     1      -2.238  47.849 -17.605  1.00  0.00     0.210 HD
ENDBRANCH  21  45
BRANCH  16  47
HETATM   47  C26 UNL     1      -4.113  45.709 -20.670  1.00  0.00     0.198 C 
HETATM   48  O1  UNL     1      -3.898  44.518 -20.299  1.00  0.00    -0.645 OA
HETATM   49  O2  UNL     1      -5.075  46.209 -21.310  1.00  0.00    -0.645 OA
ENDBRANCH  16  47
TORSDOF 6
ENDMDL
MODEL 3
REMARK minimizedAffinity -10.2735815
REMARK CNNscore 0.210553452
REMARK CNNaffinity 7.70885468
REMARK  6 active torsions:
REMARK  status: ('A' for Active; 'I' for Inactive)
REMARK    1  A    between atoms: C2_2  and  C3_3 
REMARK    2  A    between atoms: C11_12  and  C12_13 
REMARK    3  A    between atoms: C25_28  and  C26_29 
REMARK    4  A    between atoms: C27_32  and  C30_35 
REMARK    5  A    between atoms: C31_36  and  O3_37 
REMARK    6  A    between atoms: C37_44  and  O4_45 
ROOT
HETATM    1  C12 UNL     1       0.135  50.469 -16.231  1.00  0.00    -0.003 C 
HETATM    2  C13 UNL     1      -0.018  51.179 -15.101  1.00  0.00     0.102 C 
HETATM    3  N2  UNL     1      -0.230  50.613 -13.871  1.00  0.00    -0.349 N 
HETATM    4  C14 UNL     1      -0.788  51.232 -12.728  1.00  0.00     0.041 A 
HETATM    5  C15 UNL     1      -0.880  52.593 -12.469  1.00  0.00     0.030 A 
HETATM    6  C16 UNL     1      -1.534  53.027 -11.311  1.00  0.00     0.002 A 
HETATM    7  C17 UNL     1      -2.085  52.103 -10.413  1.00  0.00     0.001 A 
HETATM    8  C18 UNL     1      -1.998  50.736 -10.672  1.00  0.00     0.010 A 
HETATM    9  C19 UNL     1      -1.347  50.317 -11.822  1.00  0.00    -0.018 A 
HETATM   10  C20 UNL     1      -1.222  48.931 -12.358  1.00  0.00     0.043 C 
HETATM   11  C21 UNL     1      -0.908  47.790 -11.363  1.00  0.00     0.049 C 
HETATM   12  C22 UNL     1      -2.074  46.723 -11.478  1.00  0.00     0.274 C 
HETATM   13  N3  UNL     1      -3.144  47.251 -12.376  1.00  0.00     0.098 N 
HETATM   14  C23 UNL     1      -3.454  46.333 -13.583  1.00  0.00     0.308 C 
HETATM   15  C24 UNL     1      -2.841  46.742 -15.023  1.00  0.00    -0.041 C 
HETATM   16  C25 UNL     1      -2.711  45.871 -16.046  1.00  0.00     0.089 C 
HETATM   17  C27 UNL     1      -2.336  48.231 -15.265  1.00  0.00     0.027 C 
HETATM   18  C28 UNL     1      -3.057  49.026 -14.196  1.00  0.00     0.046 C 
HETATM   19  C29 UNL     1      -2.454  48.367 -12.970  1.00  0.00     0.239 C 
HETATM   20  C30 UNL     1      -0.724  48.387 -15.019  1.00  0.00     0.052 C 
HETATM   21  C31 UNL     1       0.067  48.961 -16.217  1.00  0.00     0.160 C 
HETATM   22  C32 UNL     1      -0.272  49.141 -13.639  1.00  0.00     0.112 C 
ENDROOT
BRANCH   1  23
HETATM   23  C11 UNL     1       0.345  51.159 -17.512  1.00  0.00    -0.016 A 
HETATM   24  C3  UNL     1       1.133  52.309 -17.637  1.00  0.00    -0.032 A 
HETATM   25  C4  UNL     1       1.235  52.908 -18.897  1.00  0.00     0.104 A 
HETATM   26  N1  UNL     1       0.602  52.417 -19.994  1.00  0.00    -0.330 N 
HETATM   27  C5  UNL     1       0.739  53.043 -21.187  1.00  0.00     0.097 A 
HETATM   28  C9  UNL     1      -0.164  51.292 -19.875  1.00  0.00     0.067 A 
HETATM   29  C6  UNL     1       0.129  52.580 -22.345  1.00  0.00     0.032 A 
HETATM   30  C7  UNL     1      -0.659  51.425 -22.274  1.00  0.00     0.009 A 
HETATM   31  C8  UNL     1      -0.794  50.806 -21.038  1.00  0.00     0.071 A 
HETATM   32  C39 UNL     1      -1.411  50.681 -23.241  1.00  0.00     0.036 A 
HETATM   33  N4  UNL     1      -1.626  49.722 -21.236  1.00  0.00    -0.353 N 
HETATM   34  C33 UNL     1      -2.011  49.630 -22.553  1.00  0.00     0.046 A 
HETATM   35  H30 UNL     1      -1.941  49.080 -20.514  1.00  0.00     0.166 HD
HETATM   36  C34 UNL     1      -2.842  48.696 -23.174  1.00  0.00     0.030 A 
HETATM   37  C35 UNL     1      -3.065  48.848 -24.543  1.00  0.00     0.005 A 
HETATM   38  C36 UNL     1      -2.466  49.881 -25.266  1.00  0.00     0.038 A 
HETATM   39  C37 UNL     1      -1.625  50.811 -24.639  1.00  0.00     0.081 A 
HETATM   40  C10 UNL     1      -0.303  50.650 -18.637  1.00  0.00     0.045 A 
BRANCH  24  41
HETATM   41  C2  UNL     1       1.867  52.934 -16.463  1.00  0.00     0.036 C 
HETATM   42  C1  UNL     1       3.352  52.594 -16.441  1.00  0.00     0.010 C 
ENDBRANCH  24  41
BRANCH  39  43
HETATM   43  O4  UNL     1      -0.984  51.841 -25.277  1.00  0.00    -0.355 OA
HETATM   44  C38 UNL     1       0.230  51.539 -25.962  1.00  0.00     0.210 C 
ENDBRANCH  39  43
ENDBRANCH   1  23
BRANCH  21  45
HETATM   45  O3  UNL     1      -0.439  48.486 -17.466  1.00  0.00    -0.390 OA
HETATM   46  H28 UNL     1      -0.612  47.526 -17.373  1.00  0.00     0.210 HD
ENDBRANCH  21  45
BRANCH  16  47
HETATM   47  C26 UNL     1      -3.062  44.380 -16.117  1.00  0.00     0.198 C 
HETATM   48  O1  UNL     1      -2.759  43.861 -17.231  1.00  0.00    -0.645 OA
HETATM   49  O2  UNL     1      -3.585  43.874 -15.090  1.00  0.00    -0.645 OA
ENDBRANCH  16  47
TORSDOF 6
ENDMDL
MODEL 4
REMARK minimizedAffinity -9.72804356
REMARK CNNscore 0.183924422
REMARK CNNaffinity 6.83638525
REMARK  6 active torsions:
REMARK  status: ('A' for Active; 'I' for Inactive)
REMARK    1  A    between atoms: C2_2  and  C3_3 
REMARK    2  A    between atoms: C11_12  and  C12_13 
REMARK    3  A    between atoms: C25_28  and  C26_29 
REMARK    4  A    between atoms: C27_32  and  C30_35 
REMARK    5  A    between atoms: C31_36  and  O3_37 
REMARK    6  A    between atoms: C37_44  and  O4_45 
ROOT
HETATM    1  C12 UNL     1      -6.131  49.488 -21.712  1.00  0.00    -0.003 C 
HETATM    2  C13 UNL     1      -5.138  50.097 -21.044  1.00  0.00     0.102 C 
HETATM    3  N2  UNL     1      -4.221  50.926 -21.637  1.00  0.00    -0.349 N 
HETATM    4  C14 UNL     1      -2.945  51.284 -21.143  1.00  0.00     0.041 A 
HETATM    5  C15 UNL     1      -2.498  51.208 -19.830  1.00  0.00     0.030 A 
HETATM    6  C16 UNL     1      -1.172  51.539 -19.537  1.00  0.00     0.002 A 
HETATM    7  C17 UNL     1      -0.298  51.952 -20.552  1.00  0.00     0.001 A 
HETATM    8  C18 UNL     1      -0.741  52.027 -21.871  1.00  0.00     0.010 A 
HETATM    9  C19 UNL     1      -2.058  51.696 -22.151  1.00  0.00    -0.018 A 
HETATM   10  C20 UNL     1      -2.723  51.598 -23.482  1.00  0.00     0.043 C 
HETATM   11  C21 UNL     1      -2.426  52.699 -24.527  1.00  0.00     0.049 C 
HETATM   12  C22 UNL     1      -1.839  51.986 -25.816  1.00  0.00     0.274 C 
HETATM   13  N3  UNL     1      -1.625  50.537 -25.527  1.00  0.00     0.098 N 
HETATM   14  C23 UNL     1      -2.376  49.591 -26.495  1.00  0.00     0.308 C 
HETATM   15  C24 UNL     1      -3.744  48.904 -25.974  1.00  0.00    -0.041 C 
HETATM   16  C25 UNL     1      -4.672  48.382 -26.803  1.00  0.00     0.089 C 
HETATM   17  C27 UNL     1      -4.048  48.849 -24.413  1.00  0.00     0.027 C 
HETATM   18  C28 UNL     1      -2.681  49.018 -23.781  1.00  0.00     0.046 C 
HETATM   19  C29 UNL     1      -2.357  50.408 -24.294  1.00  0.00     0.239 C 
HETATM   20  C30 UNL     1      -4.995  50.093 -23.922  1.00  0.00     0.052 C 
HETATM   21  C31 UNL     1      -6.297  49.676 -23.201  1.00  0.00     0.160 C 
HETATM   22  C32 UNL     1      -4.248  51.283 -23.084  1.00  0.00     0.112 C 
ENDROOT
BRANCH   1  23
HETATM   23  C11 UNL     1      -7.063  48.602 -20.999  1.00  0.00    -0.016 A 
HETATM   24  C3  UNL     1      -6.870  48.205 -19.671  1.00  0.00    -0.032 A 
HETATM   25  C4  UNL     1      -7.798  47.327 -19.101  1.00  0.00     0.104 A 
HETATM   26  N1  UNL     1      -8.873  46.853 -19.784  1.00  0.00    -0.330 N 
HETATM   27  C5  UNL     1      -9.736  46.006 -19.177  1.00  0.00     0.097 A 
HETATM   28  C9  UNL     1      -9.066  47.245 -21.079  1.00  0.00     0.067 A 
HETATM   29  C6  UNL     1     -10.859  45.500 -19.819  1.00  0.00     0.032 A 
HETATM   30  C7  UNL     1     -11.104  45.880 -21.145  1.00  0.00     0.009 A 
HETATM   31  C8  UNL     1     -10.198  46.742 -21.750  1.00  0.00     0.071 A 
HETATM   32  C39 UNL     1     -12.137  45.568 -22.087  1.00  0.00     0.036 A 
HETATM   33  N4  UNL     1     -10.651  46.936 -23.039  1.00  0.00    -0.353 N 
HETATM   34  C33 UNL     1     -11.815  46.237 -23.265  1.00  0.00     0.046 A 
HETATM   35  H30 UNL     1     -10.190  47.498 -23.750  1.00  0.00     0.166 HD
HETATM   36  C34 UNL     1     -12.593  46.154 -24.420  1.00  0.00     0.030 A 
HETATM   37  C35 UNL     1     -13.736  45.356 -24.364  1.00  0.00     0.005 A 
HETATM   38  C36 UNL     1     -14.098  44.684 -23.195  1.00  0.00     0.038 A 
HETATM   39  C37 UNL     1     -13.317  44.779 -22.034  1.00  0.00     0.081 A 
HETATM   40  C10 UNL     1      -8.166  48.121 -21.702  1.00  0.00     0.045 A 
BRANCH  24  41
HETATM   41  C2  UNL     1      -5.691  48.674 -18.835  1.00  0.00     0.036 C 
HETATM   42  C1  UNL     1      -5.148  47.590 -17.913  1.00  0.00     0.010 C 
ENDBRANCH  24  41
BRANCH  39  43
HETATM   43  O4  UNL     1     -13.608  44.169 -20.843  1.00  0.00    -0.355 OA
HETATM   44  C38 UNL     1     -13.337  42.773 -20.734  1.00  0.00     0.210 C 
ENDBRANCH  39  43
ENDBRANCH   1  23
BRANCH  21  45
HETATM   45  O3  UNL     1      -6.873  48.502 -23.777  1.00  0.00    -0.390 OA
HETATM   46  H28 UNL     1      -6.829  48.595 -24.751  1.00  0.00     0.210 HD
ENDBRANCH  21  45
BRANCH  16  47
HETATM   47  C26 UNL     1      -4.693  48.313 -28.335  1.00  0.00     0.198 C 
HETATM   48  O1  UNL     1      -4.014  49.235 -28.873  1.00  0.00    -0.645 OA
HETATM   49  O2  UNL     1      -5.357  47.375 -28.849  1.00  0.00    -0.645 OA
ENDBRANCH  16  47
TORSDOF 6
ENDMDL
MODEL 5
REMARK minimizedAffinity -9.47456741
REMARK CNNscore 0.178659275
REMARK CNNaffinity 7.37483597
REMARK  6 active torsions:
REMARK  status: ('A' for Active; 'I' for Inactive)
REMARK    1  A    between atoms: C2_2  and  C3_3 
REMARK    2  A    between atoms: C11_12  and  C12_13 
REMARK    3  A    between atoms: C25_28  and  C26_29 
REMARK    4  A    between atoms: C27_32  and  C30_35 
REMARK    5  A    between atoms: C31_36  and  O3_37 
REMARK    6  A    between atoms: C37_44  and  O4_45 
ROOT
HETATM    1  C12 UNL     1       0.963  50.775 -14.925  1.00  0.00    -0.003 C 
HETATM    2  C13 UNL     1       2.077  50.394 -14.280  1.00  0.00     0.102 C 
HETATM    3  N2  UNL     1       2.075  49.823 -13.033  1.00  0.00    -0.349 N 
HETATM    4  C14 UNL     1       3.153  49.758 -12.120  1.00  0.00     0.041 A 
HETATM    5  C15 UNL     1       4.506  49.892 -12.403  1.00  0.00     0.030 A 
HETATM    6  C16 UNL     1       5.431  49.871 -11.354  1.00  0.00     0.002 A 
HETATM    7  C17 UNL     1       5.004  49.709 -10.029  1.00  0.00     0.001 A 
HETATM    8  C18 UNL     1       3.647  49.578  -9.740  1.00  0.00     0.010 A 
HETATM    9  C19 UNL     1       2.738  49.600 -10.788  1.00  0.00    -0.018 A 
HETATM   10  C20 UNL     1       1.249  49.584 -10.718  1.00  0.00     0.043 C 
HETATM   11  C21 UNL     1       0.576  48.620  -9.713  1.00  0.00     0.049 C 
HETATM   12  C22 UNL     1      -0.324  49.494  -8.744  1.00  0.00     0.274 C 
HETATM   13  N3  UNL     1      -0.093  50.943  -9.025  1.00  0.00     0.098 N 
HETATM   14  C23 UNL     1      -1.381  51.719  -9.393  1.00  0.00     0.308 C 
HETATM   15  C24 UNL     1      -1.647  52.048 -10.954  1.00  0.00    -0.041 C 
HETATM   16  C25 UNL     1      -2.862  52.366 -11.446  1.00  0.00     0.089 C 
HETATM   17  C27 UNL     1      -0.439  51.977 -11.986  1.00  0.00     0.027 C 
HETATM   18  C28 UNL     1       0.787  52.111 -11.105  1.00  0.00     0.046 C 
HETATM   19  C29 UNL     1       0.616  50.854 -10.274  1.00  0.00     0.239 C 
HETATM   20  C30 UNL     1      -0.362  50.530 -12.751  1.00  0.00     0.052 C 
HETATM   21  C31 UNL     1      -0.398  50.605 -14.295  1.00  0.00     0.160 C 
HETATM   22  C32 UNL     1       0.832  49.519 -12.269  1.00  0.00     0.112 C 
ENDROOT
BRANCH   1  23
HETATM   23  C11 UNL     1       1.057  51.393 -16.256  1.00  0.00    -0.016 A 
HETATM   24  C3  UNL     1       2.079  52.281 -16.612  1.00  0.00    -0.032 A 
HETATM   25  C4  UNL     1       2.052  52.842 -17.893  1.00  0.00     0.104 A 
HETATM   26  N1  UNL     1       1.079  52.557 -18.797  1.00  0.00    -0.330 N 
HETATM   27  C5  UNL     1       1.108  53.133 -20.021  1.00  0.00     0.097 A 
HETATM   28  C9  UNL     1       0.084  51.687 -18.452  1.00  0.00     0.067 A 
HETATM   29  C6  UNL     1       0.149  52.870 -20.991  1.00  0.00     0.032 A 
HETATM   30  C7  UNL     1      -0.886  51.977 -20.688  1.00  0.00     0.009 A 
HETATM   31  C8  UNL     1      -0.901  51.407 -19.421  1.00  0.00     0.071 A 
HETATM   32  C39 UNL     1      -2.011  51.481 -21.425  1.00  0.00     0.036 A 
HETATM   33  N4  UNL     1      -2.019  50.598 -19.373  1.00  0.00    -0.353 N 
HETATM   34  C33 UNL     1      -2.702  50.630 -20.567  1.00  0.00     0.046 A 
HETATM   35  H30 UNL     1      -2.326  50.061 -18.567  1.00  0.00     0.166 HD
HETATM   36  C34 UNL     1      -3.874  49.969 -20.939  1.00  0.00     0.030 A 
HETATM   37  C35 UNL     1      -4.351  50.192 -22.231  1.00  0.00     0.005 A 
HETATM   38  C36 UNL     1      -3.673  51.026 -23.122  1.00  0.00     0.038 A 
HETATM   39  C37 UNL     1      -2.491  51.680 -22.746  1.00  0.00     0.081 A 
HETATM   40  C10 UNL     1       0.058  51.096 -17.182  1.00  0.00     0.045 A 
BRANCH  24  41
HETATM   41  C2  UNL     1       3.201  52.666 -15.662  1.00  0.00     0.036 C 
HETATM   42  C1  UNL     1       4.584  52.346 -16.217  1.00  0.00     0.010 C 
ENDBRANCH  24  41
BRANCH  39  43
HETATM   43  O4  UNL     1      -1.756  52.499 -23.562  1.00  0.00    -0.355 OA
HETATM   44  C38 UNL     1      -1.531  52.064 -24.902  1.00  0.00     0.210 C 
ENDBRANCH  39  43
ENDBRANCH   1  23
BRANCH  21  45
HETATM   45  O3  UNL     1      -1.280  51.631 -14.758  1.00  0.00    -0.390 OA
HETATM   46  H28 UNL     1      -2.099  51.584 -14.223  1.00  0.00     0.210 HD
ENDBRANCH  21  45
BRANCH  16  47
HETATM   47  C26 UNL     1      -4.214  52.480 -10.729  1.00  0.00     0.198 C 
HETATM   48  O1  UNL     1      -4.461  53.659 -10.341  1.00  0.00    -0.645 OA
HETATM   49  O2  UNL     1      -4.888  51.422 -10.625  1.00  0.00    -0.645 OA
ENDBRANCH  16  47
TORSDOF 6
ENDMDL
MODEL 6
REMARK minimizedAffinity -10.9929876
REMARK CNNscore 0.170788184
REMARK CNNaffinity 7.3500495
REMARK  6 active torsions:
REMARK  status: ('A' for Active; 'I' for Inactive)
REMARK    1  A    between atoms: C2_2  and  C3_3 
REMARK    2  A    between atoms: C11_12  and  C12_13 
REMARK    3  A    between atoms: C25_28  and  C26_29 
REMARK    4  A    between atoms: C27_32  and  C30_35 
REMARK    5  A    between atoms: C31_36  and  O3_37 
REMARK    6  A    between atoms: C37_44  and  O4_45 
ROOT
HETATM    1  C12 UNL     1      -1.276  51.580 -20.282  1.00  0.00    -0.003 C 
HETATM    2  C13 UNL     1      -0.793  51.732 -21.526  1.00  0.00     0.102 C 
HETATM    3  N2  UNL     1      -1.552  51.589 -22.658  1.00  0.00    -0.349 N 
HETATM    4  C14 UNL     1      -1.092  51.331 -23.971  1.00  0.00     0.041 A 
HETATM    5  C15 UNL     1       0.185  51.545 -24.473  1.00  0.00     0.030 A 
HETATM    6  C16 UNL     1       0.479  51.160 -25.785  1.00  0.00     0.002 A 
HETATM    7  C17 UNL     1      -0.503  50.571 -26.593  1.00  0.00     0.001 A 
HETATM    8  C18 UNL     1      -1.784  50.352 -26.092  1.00  0.00     0.010 A 
HETATM    9  C19 UNL     1      -2.066  50.737 -24.790  1.00  0.00    -0.018 A 
HETATM   10  C20 UNL     1      -3.316  50.511 -24.010  1.00  0.00     0.043 C 
HETATM   11  C21 UNL     1      -4.671  50.734 -24.723  1.00  0.00     0.049 C 
HETATM   12  C22 UNL     1      -5.484  49.377 -24.634  1.00  0.00     0.274 C 
HETATM   13  N3  UNL     1      -4.616  48.315 -24.043  1.00  0.00     0.098 N 
HETATM   14  C23 UNL     1      -5.208  47.663 -22.770  1.00  0.00     0.308 C 
HETATM   15  C24 UNL     1      -4.625  48.134 -21.336  1.00  0.00    -0.041 C 
HETATM   16  C25 UNL     1      -5.281  47.945 -20.173  1.00  0.00     0.089 C 
HETATM   17  C27 UNL     1      -3.222  48.881 -21.269  1.00  0.00     0.027 C 
HETATM   18  C28 UNL     1      -2.550  48.489 -22.569  1.00  0.00     0.046 C 
HETATM   19  C29 UNL     1      -3.533  49.118 -23.538  1.00  0.00     0.239 C 
HETATM   20  C30 UNL     1      -3.388  50.511 -21.250  1.00  0.00     0.052 C 
HETATM   21  C31 UNL     1      -2.723  51.221 -20.048  1.00  0.00     0.160 C 
HETATM   22  C32 UNL     1      -3.013  51.292 -22.638  1.00  0.00     0.112 C 
ENDROOT
BRANCH   1  23
HETATM   23  C11 UNL     1      -0.387  51.738 -19.122  1.00  0.00    -0.016 A 
HETATM   24  C3  UNL     1       0.427  52.861 -18.934  1.00  0.00    -0.032 A 
HETATM   25  C4  UNL     1       1.265  52.891 -17.814  1.00  0.00     0.104 A 
HETATM   26  N1  UNL     1       1.315  51.879 -16.909  1.00  0.00    -0.330 N 
HETATM   27  C5  UNL     1       2.147  51.967 -15.845  1.00  0.00     0.097 A 
HETATM   28  C9  UNL     1       0.517  50.784 -17.089  1.00  0.00     0.067 A 
HETATM   29  C6  UNL     1       2.231  50.971 -14.881  1.00  0.00     0.032 A 
HETATM   30  C7  UNL     1       1.426  49.833 -15.018  1.00  0.00     0.009 A 
HETATM   31  C8  UNL     1       0.587  49.760 -16.123  1.00  0.00     0.071 A 
HETATM   32  C39 UNL     1       1.252  48.646 -14.234  1.00  0.00     0.036 A 
HETATM   33  N4  UNL     1      -0.068  48.549 -16.033  1.00  0.00    -0.353 N 
HETATM   34  C33 UNL     1       0.319  47.861 -14.906  1.00  0.00     0.046 A 
HETATM   35  H30 UNL     1      -0.733  48.185 -16.709  1.00  0.00     0.166 HD
HETATM   36  C34 UNL     1      -0.092  46.610 -14.442  1.00  0.00     0.030 A 
HETATM   37  C35 UNL     1       0.477  46.151 -13.254  1.00  0.00     0.005 A 
HETATM   38  C36 UNL     1       1.403  46.919 -12.546  1.00  0.00     0.038 A 
HETATM   39  C37 UNL     1       1.805  48.180 -13.012  1.00  0.00     0.081 A 
HETATM   40  C10 UNL     1      -0.341  50.698 -18.194  1.00  0.00     0.045 A 
BRANCH  24  41
HETATM   41  C2  UNL     1       0.446  54.034 -19.899  1.00  0.00     0.036 C 
HETATM   42  C1  UNL     1       1.610  53.976 -20.880  1.00  0.00     0.010 C 
ENDBRANCH  24  41
BRANCH  39  43
HETATM   43  O4  UNL     1       2.692  49.004 -12.372  1.00  0.00    -0.355 OA
HETATM   44  C38 UNL     1       3.266  48.535 -11.153  1.00  0.00     0.210 C 
ENDBRANCH  39  43
ENDBRANCH   1  23
BRANCH  21  45
HETATM   45  O3  UNL     1      -2.846  50.459 -18.845  1.00  0.00    -0.390 OA
HETATM   46  H28 UNL     1      -3.763  50.117 -18.801  1.00  0.00     0.210 HD
ENDBRANCH  21  45
BRANCH  16  47
HETATM   47  C26 UNL     1      -6.648  47.301 -19.909  1.00  0.00     0.198 C 
HETATM   48  O1  UNL     1      -7.570  48.156 -19.768  1.00  0.00    -0.645 OA
HETATM   49  O2  UNL     1      -6.682  46.043 -19.875  1.00  0.00    -0.645 OA
ENDBRANCH  16  47
TORSDOF 6
ENDMDL
MODEL 7
REMARK minimizedAffinity -10.7457018
REMARK CNNscore 0.167025864
REMARK CNNaffinity 7.43550348
REMARK  6 active torsions:
REMARK  status: ('A' for Active; 'I' for Inactive)
REMARK    1  A    between atoms: C2_2  and  C3_3 
REMARK    2  A    between atoms: C11_12  and  C12_13 
REMARK    3  A    between atoms: C25_28  and  C26_29 
REMARK    4  A    between atoms: C27_32  and  C30_35 
REMARK    5  A    between atoms: C31_36  and  O3_37 
REMARK    6  A    between atoms: C37_44  and  O4_45 
ROOT
HETATM    1  C12 UNL     1      -0.581  49.790 -16.508  1.00  0.00    -0.003 C 
HETATM    2  C13 UNL     1       0.222  48.782 -16.129  1.00  0.00     0.102 C 
HETATM    3  N2  UNL     1       0.009  48.022 -15.009  1.00  0.00    -0.349 N 
HETATM    4  C14 UNL     1       0.959  47.239 -14.312  1.00  0.00     0.041 A 
HETATM    5  C15 UNL     1       2.169  46.758 -14.794  1.00  0.00     0.030 A 
HETATM    6  C16 UNL     1       3.019  46.056 -13.933  1.00  0.00     0.002 A 
HETATM    7  C17 UNL     1       2.655  45.829 -12.599  1.00  0.00     0.001 A 
HETATM    8  C18 UNL     1       1.443  46.313 -12.111  1.00  0.00     0.010 A 
HETATM    9  C19 UNL     1       0.607  47.007 -12.972  1.00  0.00    -0.018 A 
HETATM   10  C20 UNL     1      -0.673  47.702 -12.657  1.00  0.00     0.043 C 
HETATM   11  C21 UNL     1      -1.678  46.989 -11.721  1.00  0.00     0.049 C 
HETATM   12  C22 UNL     1      -1.942  47.947 -10.487  1.00  0.00     0.274 C 
HETATM   13  N3  UNL     1      -1.023  49.122 -10.565  1.00  0.00     0.098 N 
HETATM   14  C23 UNL     1      -1.756  50.486 -10.581  1.00  0.00     0.308 C 
HETATM   15  C24 UNL     1      -1.916  51.244 -12.001  1.00  0.00    -0.041 C 
HETATM   16  C25 UNL     1      -2.828  52.213 -12.224  1.00  0.00     0.089 C 
HETATM   17  C27 UNL     1      -0.982  50.827 -13.220  1.00  0.00     0.027 C 
HETATM   18  C28 UNL     1       0.194  50.149 -12.548  1.00  0.00     0.046 C 
HETATM   19  C29 UNL     1      -0.541  48.983 -11.914  1.00  0.00     0.239 C 
HETATM   20  C30 UNL     1      -1.703  49.739 -14.210  1.00  0.00     0.052 C 
HETATM   21  C31 UNL     1      -1.795  50.166 -15.693  1.00  0.00     0.160 C 
HETATM   22  C32 UNL     1      -1.164  48.197 -14.105  1.00  0.00     0.112 C 
ENDROOT
BRANCH   1  23
HETATM   23  C11 UNL     1      -0.270  50.565 -17.718  1.00  0.00    -0.016 A 
HETATM   24  C3  UNL     1       0.528  51.715 -17.701  1.00  0.00    -0.032 A 
HETATM   25  C4  UNL     1       0.729  52.399 -18.905  1.00  0.00     0.104 A 
HETATM   26  N1  UNL     1       0.185  51.988 -20.080  1.00  0.00    -0.330 N 
HETATM   27  C5  UNL     1       0.416  52.693 -21.212  1.00  0.00     0.097 A 
HETATM   28  C9  UNL     1      -0.590  50.863 -20.099  1.00  0.00     0.067 A 
HETATM   29  C6  UNL     1      -0.102  52.315 -22.444  1.00  0.00     0.032 A 
HETATM   30  C7  UNL     1      -0.894  51.163 -22.515  1.00  0.00     0.009 A 
HETATM   31  C8  UNL     1      -1.127  50.462 -21.339  1.00  0.00     0.071 A 
HETATM   32  C39 UNL     1      -1.569  50.492 -23.587  1.00  0.00     0.036 A 
HETATM   33  N4  UNL     1      -1.942  49.400 -21.675  1.00  0.00    -0.353 N 
HETATM   34  C33 UNL     1      -2.222  49.400 -23.022  1.00  0.00     0.046 A 
HETATM   35  H30 UNL     1      -2.315  48.712 -21.027  1.00  0.00     0.166 HD
HETATM   36  C34 UNL     1      -3.003  48.517 -23.769  1.00  0.00     0.030 A 
HETATM   37  C35 UNL     1      -3.117  48.765 -25.137  1.00  0.00     0.005 A 
HETATM   38  C36 UNL     1      -2.462  49.840 -25.739  1.00  0.00     0.038 A 
HETATM   39  C37 UNL     1      -1.671  50.720 -24.985  1.00  0.00     0.081 A 
HETATM   40  C10 UNL     1      -0.827  50.139 -18.922  1.00  0.00     0.045 A 
BRANCH  24  41
HETATM   41  C2  UNL     1       1.168  52.253 -16.433  1.00  0.00     0.036 C 
HETATM   42  C1  UNL     1       2.646  52.579 -16.606  1.00  0.00     0.010 C 
ENDBRANCH  24  41
BRANCH  39  43
HETATM   43  O4  UNL     1      -0.981  51.787 -25.498  1.00  0.00    -0.355 OA
HETATM   44  C38 UNL     1       0.285  51.524 -26.100  1.00  0.00     0.210 C 
ENDBRANCH  39  43
ENDBRANCH   1  23
BRANCH  21  45
HETATM   45  O3  UNL     1      -2.057  51.564 -15.830  1.00  0.00    -0.390 OA
HETATM   46  H28 UNL     1      -2.750  51.803 -15.179  1.00  0.00     0.210 HD
ENDBRANCH  21  45
BRANCH  16  47
HETATM   47  C26 UNL     1      -3.883  52.804 -11.281  1.00  0.00     0.198 C 
HETATM   48  O1  UNL     1      -4.656  51.924 -10.802  1.00  0.00    -0.645 OA
HETATM   49  O2  UNL     1      -3.845  54.050 -11.102  1.00  0.00    -0.645 OA
ENDBRANCH  16  47
TORSDOF 6
ENDMDL
MODEL 8
REMARK minimizedAffinity -10.6486187
REMARK CNNscore 0.154586375
REMARK CNNaffinity 6.71513414
REMARK  6 active torsions:
REMARK  status: ('A' for Active; 'I' for Inactive)
REMARK    1  A    between atoms: C2_2  and  C3_3 
REMARK    2  A    between atoms: C11_12  and  C12_13 
REMARK    3  A    between atoms: C25_28  and  C26_29 
REMARK    4  A    between atoms: C27_32  and  C30_35 
REMARK    5  A    between atoms: C31_36  and  O3_37 
REMARK    6  A    between atoms: C37_44  and  O4_45 
ROOT
HETATM    1  C12 UNL     1      -5.936  48.968 -21.071  1.00  0.00    -0.003 C 
HETATM    2  C13 UNL     1      -4.976  49.659 -20.434  1.00  0.00     0.102 C 
HETATM    3  N2  UNL     1      -4.189  50.604 -21.042  1.00  0.00    -0.349 N 
HETATM    4  C14 UNL     1      -2.933  51.082 -20.604  1.00  0.00     0.041 A 
HETATM    5  C15 UNL     1      -2.406  51.012 -19.320  1.00  0.00     0.030 A 
HETATM    6  C16 UNL     1      -1.108  51.477 -19.086  1.00  0.00     0.002 A 
HETATM    7  C17 UNL     1      -0.344  52.017 -20.129  1.00  0.00     0.001 A 
HETATM    8  C18 UNL     1      -0.867  52.086 -21.419  1.00  0.00     0.010 A 
HETATM    9  C19 UNL     1      -2.156  51.623 -21.640  1.00  0.00    -0.018 A 
HETATM   10  C20 UNL     1      -2.881  51.497 -22.937  1.00  0.00     0.043 C 
HETATM   11  C21 UNL     1      -2.765  52.657 -23.953  1.00  0.00     0.049 C 
HETATM   12  C22 UNL     1      -2.179  52.056 -25.297  1.00  0.00     0.274 C 
HETATM   13  N3  UNL     1      -1.794  50.630 -25.078  1.00  0.00     0.098 N 
HETATM   14  C23 UNL     1      -2.494  49.640 -26.041  1.00  0.00     0.308 C 
HETATM   15  C24 UNL     1      -3.748  48.790 -25.475  1.00  0.00    -0.041 C 
HETATM   16  C25 UNL     1      -4.661  48.198 -26.272  1.00  0.00     0.089 C 
HETATM   17  C27 UNL     1      -3.954  48.651 -23.903  1.00  0.00     0.027 C 
HETATM   18  C28 UNL     1      -2.579  48.948 -23.339  1.00  0.00     0.046 C 
HETATM   19  C29 UNL     1      -2.437  50.381 -23.814  1.00  0.00     0.239 C 
HETATM   20  C30 UNL     1      -5.000  49.766 -23.313  1.00  0.00     0.052 C 
HETATM   21  C31 UNL     1      -6.206  49.186 -22.540  1.00  0.00     0.160 C 
HETATM   22  C32 UNL     1      -4.338  51.004 -22.470  1.00  0.00     0.112 C 
ENDROOT
BRANCH   1  23
HETATM   23  C11 UNL     1      -6.724  47.962 -20.345  1.00  0.00    -0.016 A 
HETATM   24  C3  UNL     1      -6.163  46.799 -19.807  1.00  0.00    -0.032 A 
HETATM   25  C4  UNL     1      -7.011  45.888 -19.168  1.00  0.00     0.104 A 
HETATM   26  N1  UNL     1      -8.349  46.093 -19.050  1.00  0.00    -0.330 N 
HETATM   27  C5  UNL     1      -9.118  45.174 -18.421  1.00  0.00     0.097 A 
HETATM   28  C9  UNL     1      -8.897  47.232 -19.570  1.00  0.00     0.067 A 
HETATM   29  C6  UNL     1     -10.488  45.336 -18.257  1.00  0.00     0.032 A 
HETATM   30  C7  UNL     1     -11.094  46.491 -18.766  1.00  0.00     0.009 A 
HETATM   31  C8  UNL     1     -10.287  47.415 -19.417  1.00  0.00     0.071 A 
HETATM   32  C39 UNL     1     -12.442  46.977 -18.774  1.00  0.00     0.036 A 
HETATM   33  N4  UNL     1     -11.121  48.432 -19.835  1.00  0.00    -0.353 N 
HETATM   34  C33 UNL     1     -12.422  48.188 -19.461  1.00  0.00     0.046 A 
HETATM   35  H30 UNL     1     -10.836  49.248 -20.368  1.00  0.00     0.166 HD
HETATM   36  C34 UNL     1     -13.570  48.950 -19.684  1.00  0.00     0.030 A 
HETATM   37  C35 UNL     1     -14.775  48.452 -19.187  1.00  0.00     0.005 A 
HETATM   38  C36 UNL     1     -14.828  47.250 -18.480  1.00  0.00     0.038 A 
HETATM   39  C37 UNL     1     -13.670  46.492 -18.251  1.00  0.00     0.081 A 
HETATM   40  C10 UNL     1      -8.096  48.178 -20.223  1.00  0.00     0.045 A 
BRANCH  24  41
HETATM   41  C2  UNL     1      -4.680  46.481 -19.902  1.00  0.00     0.036 C 
HETATM   42  C1  UNL     1      -4.338  45.597 -21.095  1.00  0.00     0.010 C 
ENDBRANCH  24  41
BRANCH  39  43
HETATM   43  O4  UNL     1     -13.631  45.314 -17.552  1.00  0.00    -0.355 OA
HETATM   44  C38 UNL     1     -13.953  45.361 -16.163  1.00  0.00     0.210 C 
ENDBRANCH  39  43
ENDBRANCH   1  23
BRANCH  21  45
HETATM   45  O3  UNL     1      -6.684  47.975 -23.130  1.00  0.00    -0.390 OA
HETATM   46  H28 UNL     1      -6.706  48.105 -24.101  1.00  0.00     0.210 HD
ENDBRANCH  21  45
BRANCH  16  47
HETATM   47  C26 UNL     1      -4.762  48.178 -27.802  1.00  0.00     0.198 C 
HETATM   48  O1  UNL     1      -3.850  48.855 -28.360  1.00  0.00    -0.645 OA
HETATM   49  O2  UNL     1      -5.706  47.507 -28.297  1.00  0.00    -0.645 OA
ENDBRANCH  16  47
TORSDOF 6
ENDMDL
MODEL 9
REMARK minimizedAffinity -10.0104952
REMARK CNNscore 0.153096348
REMARK CNNaffinity 7.27411795
REMARK  6 active torsions:
REMARK  status: ('A' for Active; 'I' for Inactive)
REMARK    1  A    between atoms: C2_2  and  C3_3 
REMARK    2  A    between atoms: C11_12  and  C12_13 
REMARK    3  A    between atoms: C25_28  and  C26_29 
REMARK    4  A    between atoms: C27_32  and  C30_35 
REMARK    5  A    between atoms: C31_36  and  O3_37 
REMARK    6  A    between atoms: C37_44  and  O4_45 
ROOT
HETATM    1  C12 UNL     1      -0.570  51.408 -17.139  1.00  0.00    -0.003 C 
HETATM    2  C13 UNL     1      -0.112  52.244 -18.085  1.00  0.00     0.102 C 
HETATM    3  N2  UNL     1      -0.656  52.342 -19.340  1.00  0.00    -0.349 N 
HETATM    4  C14 UNL     1      -0.039  52.859 -20.502  1.00  0.00     0.041 A 
HETATM    5  C15 UNL     1       1.056  53.712 -20.566  1.00  0.00     0.030 A 
HETATM    6  C16 UNL     1       1.578  54.065 -21.815  1.00  0.00     0.002 A 
HETATM    7  C17 UNL     1       1.001  53.574 -22.994  1.00  0.00     0.001 A 
HETATM    8  C18 UNL     1      -0.096  52.716 -22.934  1.00  0.00     0.010 A 
HETATM    9  C19 UNL     1      -0.606  52.373 -21.691  1.00  0.00    -0.018 A 
HETATM   10  C20 UNL     1      -1.691  51.401 -21.375  1.00  0.00     0.043 C 
HETATM   11  C21 UNL     1      -2.957  51.407 -22.264  1.00  0.00     0.049 C 
HETATM   12  C22 UNL     1      -3.117  49.953 -22.875  1.00  0.00     0.274 C 
HETATM   13  N3  UNL     1      -1.922  49.131 -22.519  1.00  0.00     0.098 N 
HETATM   14  C23 UNL     1      -2.267  47.829 -21.754  1.00  0.00     0.308 C 
HETATM   15  C24 UNL     1      -2.043  47.809 -20.153  1.00  0.00    -0.041 C 
HETATM   16  C25 UNL     1      -2.635  46.915 -19.334  1.00  0.00     0.089 C 
HETATM   17  C27 UNL     1      -1.102  48.902 -19.480  1.00  0.00     0.027 C 
HETATM   18  C28 UNL     1      -0.238  49.380 -20.629  1.00  0.00     0.046 C 
HETATM   19  C29 UNL     1      -1.325  49.966 -21.510  1.00  0.00     0.239 C 
HETATM   20  C30 UNL     1      -1.949  50.183 -18.910  1.00  0.00     0.052 C 
HETATM   21  C31 UNL     1      -1.738  50.491 -17.410  1.00  0.00     0.160 C 
HETATM   22  C32 UNL     1      -1.847  51.564 -19.783  1.00  0.00     0.112 C 
ENDROOT
BRANCH   1  23
HETATM   23  C11 UNL     1       0.083  51.357 -15.823  1.00  0.00    -0.016 A 
HETATM   24  C3  UNL     1       1.443  51.629 -15.637  1.00  0.00    -0.032 A 
HETATM   25  C4  UNL     1       1.972  51.513 -14.347  1.00  0.00     0.104 A 
HETATM   26  N1  UNL     1       1.218  51.151 -13.277  1.00  0.00    -0.330 N 
HETATM   27  C5  UNL     1       1.787  51.056 -12.053  1.00  0.00     0.097 A 
HETATM   28  C9  UNL     1      -0.112  50.890 -13.456  1.00  0.00     0.067 A 
HETATM   29  C6  UNL     1       1.064  50.704 -10.920  1.00  0.00     0.032 A 
HETATM   30  C7  UNL     1      -0.303  50.436 -11.052  1.00  0.00     0.009 A 
HETATM   31  C8  UNL     1      -0.864  50.530 -12.320  1.00  0.00     0.071 A 
HETATM   32  C39 UNL     1      -1.331  50.061 -10.126  1.00  0.00     0.036 A 
HETATM   33  N4  UNL     1      -2.197  50.198 -12.179  1.00  0.00    -0.353 N 
HETATM   34  C33 UNL     1      -2.498  49.910 -10.868  1.00  0.00     0.046 A 
HETATM   35  H30 UNL     1      -2.875  50.146 -12.934  1.00  0.00     0.166 HD
HETATM   36  C34 UNL     1      -3.714  49.530 -10.298  1.00  0.00     0.030 A 
HETATM   37  C35 UNL     1      -3.729  49.296  -8.923  1.00  0.00     0.005 A 
HETATM   38  C36 UNL     1      -2.581  49.453  -8.146  1.00  0.00     0.038 A 
HETATM   39  C37 UNL     1      -1.364  49.844  -8.723  1.00  0.00     0.081 A 
HETATM   40  C10 UNL     1      -0.695  50.988 -14.727  1.00  0.00     0.045 A 
BRANCH  24  41
HETATM   41  C2  UNL     1       2.365  52.030 -16.777  1.00  0.00     0.036 C 
HETATM   42  C1  UNL     1       3.751  52.444 -16.301  1.00  0.00     0.010 C 
ENDBRANCH  24  41
BRANCH  39  43
HETATM   43  O4  UNL     1      -0.197  50.039  -8.031  1.00  0.00    -0.355 OA
HETATM   44  C38 UNL     1       0.503  48.881  -7.580  1.00  0.00     0.210 C 
ENDBRANCH  39  43
ENDBRANCH   1  23
BRANCH  21  45
HETATM   45  O3  UNL     1      -1.608  49.297 -16.635  1.00  0.00    -0.390 OA
HETATM   46  H28 UNL     1      -2.291  48.666 -16.942  1.00  0.00     0.210 HD
ENDBRANCH  21  45
BRANCH  16  47
HETATM   47  C26 UNL     1      -3.611  45.779 -19.663  1.00  0.00     0.198 C 
HETATM   48  O1  UNL     1      -3.592  45.460 -20.887  1.00  0.00    -0.645 OA
HETATM   49  O2  UNL     1      -4.282  45.316 -18.703  1.00  0.00    -0.645 OA
ENDBRANCH  16  47
TORSDOF 6
ENDMDL
