MODEL 1
REMARK minimizedAffinity -9.13427734
REMARK CNNscore 0.480621964
REMARK CNNaffinity 6.87523794
REMARK  7 active torsions:
REMARK  status: ('A' for Active; 'I' for Inactive)
REMARK    1  A    between atoms: C2_2  and  C30_35 
REMARK    2  A    between atoms: C3_3  and  C4_4 
REMARK    3  A    between atoms: C4_4  and  O1_5 
REMARK    4  A    between atoms: C4_4  and  C5_6 
REMARK    5  A    between atoms: C5_6  and  C6_7 
REMARK    6  A    between atoms: C6_7  and  C8_9 
REMARK    7  A    between atoms: C30_35  and  O7_37 
ROOT
HETATM    1  C8  UNL     1       0.465   6.770  12.834  1.00  0.00     0.006 C 
HETATM    2  C9  UNL     1       0.809   7.824  13.914  1.00  0.00     0.085 C 
HETATM    3  C10 UNL     1      -0.365   7.726  14.867  1.00  0.00     0.141 C 
HETATM    4  O2  UNL     1      -0.332   8.181  16.003  1.00  0.00    -0.297 OA
HETATM    5  C11 UNL     1      -1.482   6.837  14.294  1.00  0.00     0.056 C 
HETATM    6  C12 UNL     1      -1.246   5.500  15.073  1.00  0.00     0.030 C 
HETATM    7  C13 UNL     1      -2.960   7.118  14.374  1.00  0.00     0.015 C 
HETATM    8  C14 UNL     1      -3.854   6.398  13.652  1.00  0.00     0.007 C 
HETATM    9  C15 UNL     1      -3.272   5.488  12.574  1.00  0.00     0.157 C 
HETATM   10  O3  UNL     1      -3.972   4.651  12.011  1.00  0.00    -0.293 OA
HETATM   11  C16 UNL     1      -1.801   5.620  12.147  1.00  0.00     0.094 C 
HETATM   12  C17 UNL     1      -1.094   6.825  12.772  1.00  0.00    -0.014 C 
HETATM   13  C18 UNL     1      -1.568   8.104  12.017  1.00  0.00     0.018 C 
HETATM   14  C19 UNL     1      -5.391   6.500  13.818  1.00  0.00    -0.007 C 
HETATM   15  C20 UNL     1      -5.941   7.297  12.618  1.00  0.00     0.021 C 
HETATM   16  C21 UNL     1      -6.044   5.091  13.872  1.00  0.00     0.022 C 
HETATM   17  C22 UNL     1      -7.473   5.004  14.397  1.00  0.00     0.080 C 
HETATM   18  C23 UNL     1      -8.090   6.318  14.796  1.00  0.00     0.135 C 
HETATM   19  O4  UNL     1      -9.289   6.511  14.590  1.00  0.00    -0.297 OA
HETATM   20  C24 UNL     1      -7.228   7.331  15.550  1.00  0.00     0.018 C 
HETATM   21  C25 UNL     1      -7.787   8.740  15.255  1.00  0.00     0.023 C 
HETATM   22  C26 UNL     1      -7.440   7.052  17.052  1.00  0.00     0.023 C 
HETATM   23  C27 UNL     1      -5.705   7.170  15.201  1.00  0.00     0.021 C 
HETATM   24  C28 UNL     1      -4.920   8.473  15.379  1.00  0.00     0.090 C 
HETATM   25  C29 UNL     1      -3.455   8.332  15.071  1.00  0.00     0.158 C 
HETATM   26  O5  UNL     1      -2.703   9.284  15.258  1.00  0.00    -0.293 OA
ENDROOT
BRANCH   1  27
HETATM   27  C6  UNL     1       1.378   6.867  11.578  1.00  0.00    -0.011 C 
HETATM   28  C7  UNL     1       0.774   7.511  10.328  1.00  0.00     0.010 C 
BRANCH  27  29
HETATM   29  C5  UNL     1       2.017   5.502  11.235  1.00  0.00     0.040 C 
BRANCH  29  30
HETATM   30  C4  UNL     1       3.060   5.542  10.102  1.00  0.00     0.142 C 
BRANCH  30  31
HETATM   31  C3  UNL     1       4.368   6.131  10.545  1.00  0.00     0.018 C 
HETATM   32  C2  UNL     1       4.828   7.383  10.344  1.00  0.00     0.010 C 
HETATM   33  C1  UNL     1       4.116   8.487   9.624  1.00  0.00     0.055 C 
BRANCH  32  34
HETATM   34  C30 UNL     1       6.171   7.677  10.908  1.00  0.00     0.171 C 
HETATM   35  O6  UNL     1       6.472   8.631  11.605  1.00  0.00    -0.646 OA
BRANCH  34  36
HETATM   36  O7  UNL     1       7.091   6.761  10.568  1.00  0.00    -0.773 OA
HETATM   37  H40 UNL     1       7.899   7.074  11.022  1.00  0.00     0.167 HD
ENDBRANCH  34  36
ENDBRANCH  32  34
ENDBRANCH  30  31
BRANCH  30  38
HETATM   38  O1  UNL     1       3.314   4.201   9.682  1.00  0.00    -0.392 OA
HETATM   39  H6  UNL     1       3.763   3.734  10.407  1.00  0.00     0.210 HD
ENDBRANCH  30  38
ENDBRANCH  29  30
ENDBRANCH  27  29
ENDBRANCH   1  27
TORSDOF 7
ENDMDL
MODEL 2
REMARK minimizedAffinity -7.88464832
REMARK CNNscore 0.469683111
REMARK CNNaffinity 6.25499392
REMARK  7 active torsions:
REMARK  status: ('A' for Active; 'I' for Inactive)
REMARK    1  A    between atoms: C2_2  and  C30_35 
REMARK    2  A    between atoms: C3_3  and  C4_4 
REMARK    3  A    between atoms: C4_4  and  O1_5 
REMARK    4  A    between atoms: C4_4  and  C5_6 
REMARK    5  A    between atoms: C5_6  and  C6_7 
REMARK    6  A    between atoms: C6_7  and  C8_9 
REMARK    7  A    between atoms: C30_35  and  O7_37 
ROOT
HETATM    1  C8  UNL     1       7.240  11.288  14.953  1.00  0.00     0.006 C 
HETATM    2  C9  UNL     1       8.434  10.952  14.026  1.00  0.00     0.085 C 
HETATM    3  C10 UNL     1       7.753  10.550  12.733  1.00  0.00     0.141 C 
HETATM    4  O2  UNL     1       8.347  10.497  11.664  1.00  0.00    -0.297 OA
HETATM    5  C11 UNL     1       6.231  10.419  12.915  1.00  0.00     0.056 C 
HETATM    6  C12 UNL     1       5.727  11.767  12.302  1.00  0.00     0.030 C 
HETATM    7  C13 UNL     1       5.364   9.337  12.328  1.00  0.00     0.015 C 
HETATM    8  C14 UNL     1       4.076   9.174  12.722  1.00  0.00     0.007 C 
HETATM    9  C15 UNL     1       3.647   9.958  13.959  1.00  0.00     0.157 C 
HETATM   10  O3  UNL     1       2.462  10.040  14.272  1.00  0.00    -0.293 OA
HETATM   11  C16 UNL     1       4.691  10.638  14.858  1.00  0.00     0.094 C 
HETATM   12  C17 UNL     1       6.134  10.295  14.478  1.00  0.00    -0.014 C 
HETATM   13  C18 UNL     1       6.434   8.853  14.990  1.00  0.00     0.018 C 
HETATM   14  C19 UNL     1       3.071   8.213  12.039  1.00  0.00    -0.007 C 
HETATM   15  C20 UNL     1       2.897   6.986  12.957  1.00  0.00     0.021 C 
HETATM   16  C21 UNL     1       1.701   8.908  11.805  1.00  0.00     0.022 C 
HETATM   17  C22 UNL     1       0.740   8.242  10.827  1.00  0.00     0.080 C 
HETATM   18  C23 UNL     1       1.240   6.965  10.205  1.00  0.00     0.135 C 
HETATM   19  O4  UNL     1       0.448   6.049   9.984  1.00  0.00    -0.297 OA
HETATM   20  C24 UNL     1       2.701   6.892   9.762  1.00  0.00     0.018 C 
HETATM   21  C25 UNL     1       3.137   5.412   9.809  1.00  0.00     0.023 C 
HETATM   22  C26 UNL     1       2.733   7.339   8.286  1.00  0.00     0.023 C 
HETATM   23  C27 UNL     1       3.614   7.847  10.614  1.00  0.00     0.021 C 
HETATM   24  C28 UNL     1       5.067   7.367  10.678  1.00  0.00     0.090 C 
HETATM   25  C29 UNL     1       5.960   8.281  11.471  1.00  0.00     0.158 C 
HETATM   26  O5  UNL     1       7.165   8.051  11.525  1.00  0.00    -0.293 OA
ENDROOT
BRANCH   1  27
HETATM   27  C6  UNL     1       7.658  11.460  16.442  1.00  0.00    -0.011 C 
HETATM   28  C7  UNL     1       6.883  12.492  17.266  1.00  0.00     0.010 C 
BRANCH  27  29
HETATM   29  C5  UNL     1       9.181  11.683  16.581  1.00  0.00     0.040 C 
BRANCH  29  30
HETATM   30  C4  UNL     1       9.927  10.587  17.365  1.00  0.00     0.142 C 
BRANCH  30  31
HETATM   31  C3  UNL     1      10.542  11.103  18.633  1.00  0.00     0.018 C 
HETATM   32  C2  UNL     1      11.808  11.524  18.834  1.00  0.00     0.010 C 
HETATM   33  C1  UNL     1      12.900  11.574  17.810  1.00  0.00     0.055 C 
BRANCH  32  34
HETATM   34  C30 UNL     1      12.126  11.987  20.209  1.00  0.00     0.171 C 
HETATM   35  O6  UNL     1      13.221  11.970  20.745  1.00  0.00    -0.646 OA
BRANCH  34  36
HETATM   36  O7  UNL     1      11.051  12.452  20.864  1.00  0.00    -0.773 OA
HETATM   37  H40 UNL     1      11.417  12.732  21.727  1.00  0.00     0.167 HD
ENDBRANCH  34  36
ENDBRANCH  32  34
ENDBRANCH  30  31
BRANCH  30  38
HETATM   38  O1  UNL     1       8.984   9.577  17.726  1.00  0.00    -0.392 OA
HETATM   39  H6  UNL     1       8.364   9.955  18.373  1.00  0.00     0.210 HD
ENDBRANCH  30  38
ENDBRANCH  29  30
ENDBRANCH  27  29
ENDBRANCH   1  27
TORSDOF 7
ENDMDL
MODEL 3
REMARK minimizedAffinity -7.05190468
REMARK CNNscore 0.385730982
REMARK CNNaffinity 6.14894867
REMARK  7 active torsions:
REMARK  status: ('A' for Active; 'I' for Inactive)
REMARK    1  A    between atoms: C2_2  and  C30_35 
REMARK    2  A    between atoms: C3_3  and  C4_4 
REMARK    3  A    between atoms: C4_4  and  O1_5 
REMARK    4  A    between atoms: C4_4  and  C5_6 
REMARK    5  A    between atoms: C5_6  and  C6_7 
REMARK    6  A    between atoms: C6_7  and  C8_9 
REMARK    7  A    between atoms: C30_35  and  O7_37 
ROOT
HETATM    1  C8  UNL     1      12.089  12.380  17.130  1.00  0.00     0.006 C 
HETATM    2  C9  UNL     1      12.868  11.917  18.385  1.00  0.00     0.085 C 
HETATM    3  C10 UNL     1      11.767  11.421  19.301  1.00  0.00     0.141 C 
HETATM    4  O2  UNL     1      11.987  10.704  20.268  1.00  0.00    -0.297 OA
HETATM    5  C11 UNL     1      10.375  11.769  18.746  1.00  0.00     0.056 C 
HETATM    6  C12 UNL     1       9.935  10.401  18.127  1.00  0.00     0.030 C 
HETATM    7  C13 UNL     1       9.203  12.263  19.554  1.00  0.00     0.015 C 
HETATM    8  C14 UNL     1       8.091  12.755  18.955  1.00  0.00     0.007 C 
HETATM    9  C15 UNL     1       8.197  13.024  17.456  1.00  0.00     0.157 C 
HETATM   10  O3  UNL     1       7.196  13.270  16.788  1.00  0.00    -0.293 OA
HETATM   11  C16 UNL     1       9.564  13.020  16.753  1.00  0.00     0.094 C 
HETATM   12  C17 UNL     1      10.743  12.902  17.723  1.00  0.00    -0.014 C 
HETATM   13  C18 UNL     1      10.945  14.290  18.403  1.00  0.00     0.018 C 
HETATM   14  C19 UNL     1       6.781  13.106  19.703  1.00  0.00    -0.007 C 
HETATM   15  C20 UNL     1       6.698  14.643  19.807  1.00  0.00     0.021 C 
HETATM   16  C21 UNL     1       5.539  12.551  18.953  1.00  0.00     0.022 C 
HETATM   17  C22 UNL     1       4.228  12.484  19.728  1.00  0.00     0.080 C 
HETATM   18  C23 UNL     1       4.296  12.983  21.147  1.00  0.00     0.135 C 
HETATM   19  O4  UNL     1       3.335  13.589  21.623  1.00  0.00    -0.297 OA
HETATM   20  C24 UNL     1       5.518  12.620  21.991  1.00  0.00     0.018 C 
HETATM   21  C25 UNL     1       5.698  13.718  23.061  1.00  0.00     0.023 C 
HETATM   22  C26 UNL     1       5.168  11.309  22.725  1.00  0.00     0.023 C 
HETATM   23  C27 UNL     1       6.792  12.392  21.100  1.00  0.00     0.021 C 
HETATM   24  C28 UNL     1       8.095  12.669  21.856  1.00  0.00     0.090 C 
HETATM   25  C29 UNL     1       9.326  12.434  21.024  1.00  0.00     0.158 C 
HETATM   26  O5  UNL     1      10.434  12.538  21.542  1.00  0.00    -0.293 OA
ENDROOT
BRANCH   1  27
HETATM   27  C6  UNL     1      12.967  13.199  16.139  1.00  0.00    -0.011 C 
HETATM   28  C7  UNL     1      13.741  12.408  15.081  1.00  0.00     0.010 C 
BRANCH  27  29
HETATM   29  C5  UNL     1      13.904  14.175  16.886  1.00  0.00     0.040 C 
BRANCH  29  30
HETATM   30  C4  UNL     1      15.348  13.671  17.072  1.00  0.00     0.142 C 
BRANCH  30  31
HETATM   31  C3  UNL     1      15.639  13.270  18.489  1.00  0.00     0.018 C 
HETATM   32  C2  UNL     1      15.697  14.058  19.582  1.00  0.00     0.010 C 
HETATM   33  C1  UNL     1      15.473  15.539  19.623  1.00  0.00     0.055 C 
BRANCH  32  34
HETATM   34  C30 UNL     1      16.006  13.369  20.862  1.00  0.00     0.171 C 
HETATM   35  O6  UNL     1      16.026  13.874  21.971  1.00  0.00    -0.646 OA
BRANCH  34  36
HETATM   36  O7  UNL     1      16.283  12.066  20.698  1.00  0.00    -0.773 OA
HETATM   37  H40 UNL     1      16.440  11.752  21.611  1.00  0.00     0.167 HD
ENDBRANCH  34  36
ENDBRANCH  32  34
ENDBRANCH  30  31
BRANCH  30  38
HETATM   38  O1  UNL     1      15.526  12.514  16.254  1.00  0.00    -0.392 OA
HETATM   39  H6  UNL     1      14.973  11.799  16.612  1.00  0.00     0.210 HD
ENDBRANCH  30  38
ENDBRANCH  29  30
ENDBRANCH  27  29
ENDBRANCH   1  27
TORSDOF 7
ENDMDL
MODEL 4
REMARK minimizedAffinity -7.31387901
REMARK CNNscore 0.341036856
REMARK CNNaffinity 6.06940269
REMARK  7 active torsions:
REMARK  status: ('A' for Active; 'I' for Inactive)
REMARK    1  A    between atoms: C2_2  and  C30_35 
REMARK    2  A    between atoms: C3_3  and  C4_4 
REMARK    3  A    between atoms: C4_4  and  O1_5 
REMARK    4  A    between atoms: C4_4  and  C5_6 
REMARK    5  A    between atoms: C5_6  and  C6_7 
REMARK    6  A    between atoms: C6_7  and  C8_9 
REMARK    7  A    between atoms: C30_35  and  O7_37 
ROOT
HETATM    1  C8  UNL     1       6.927  11.839  14.720  1.00  0.00     0.006 C 
HETATM    2  C9  UNL     1       8.095  11.695  13.713  1.00  0.00     0.085 C 
HETATM    3  C10 UNL     1       7.392  11.259  12.443  1.00  0.00     0.141 C 
HETATM    4  O2  UNL     1       7.921  11.324  11.341  1.00  0.00    -0.297 OA
HETATM    5  C11 UNL     1       5.913  10.926  12.704  1.00  0.00     0.056 C 
HETATM    6  C12 UNL     1       5.205  12.220  12.182  1.00  0.00     0.030 C 
HETATM    7  C13 UNL     1       5.155   9.764  12.117  1.00  0.00     0.015 C 
HETATM    8  C14 UNL     1       3.925   9.421  12.575  1.00  0.00     0.007 C 
HETATM    9  C15 UNL     1       3.477  10.095  13.869  1.00  0.00     0.157 C 
HETATM   10  O3  UNL     1       2.313  10.012  14.251  1.00  0.00    -0.293 OA
HETATM   11  C16 UNL     1       4.480  10.870  14.738  1.00  0.00     0.094 C 
HETATM   12  C17 UNL     1       5.929  10.730  14.262  1.00  0.00    -0.014 C 
HETATM   13  C18 UNL     1       6.440   9.321  14.690  1.00  0.00     0.018 C 
HETATM   14  C19 UNL     1       3.010   8.365  11.906  1.00  0.00    -0.007 C 
HETATM   15  C20 UNL     1       3.050   7.092  12.776  1.00  0.00     0.021 C 
HETATM   16  C21 UNL     1       1.551   8.886  11.782  1.00  0.00     0.022 C 
HETATM   17  C22 UNL     1       0.624   8.139  10.829  1.00  0.00     0.080 C 
HETATM   18  C23 UNL     1       1.242   6.963  10.123  1.00  0.00     0.135 C 
HETATM   19  O4  UNL     1       0.561   5.960   9.905  1.00  0.00    -0.297 OA
HETATM   20  C24 UNL     1       2.671   7.096   9.595  1.00  0.00     0.018 C 
HETATM   21  C25 UNL     1       3.293   5.684   9.550  1.00  0.00     0.023 C 
HETATM   22  C26 UNL     1       2.555   7.599   8.142  1.00  0.00     0.023 C 
HETATM   23  C27 UNL     1       3.506   8.127  10.437  1.00  0.00     0.021 C 
HETATM   24  C28 UNL     1       5.010   7.837  10.398  1.00  0.00     0.090 C 
HETATM   25  C29 UNL     1       5.827   8.827  11.181  1.00  0.00     0.158 C 
HETATM   26  O5  UNL     1       7.052   8.753  11.157  1.00  0.00    -0.293 OA
ENDROOT
BRANCH   1  27
HETATM   27  C6  UNL     1       7.411  12.007  16.189  1.00  0.00    -0.011 C 
HETATM   28  C7  UNL     1       6.708  13.073  17.034  1.00  0.00     0.010 C 
BRANCH  27  29
HETATM   29  C5  UNL     1       8.945  12.175  16.265  1.00  0.00     0.040 C 
BRANCH  29  30
HETATM   30  C4  UNL     1       9.717  10.902  16.662  1.00  0.00     0.142 C 
BRANCH  30  31
HETATM   31  C3  UNL     1      10.031  10.029  15.482  1.00  0.00     0.018 C 
HETATM   32  C2  UNL     1       9.824   8.702  15.350  1.00  0.00     0.010 C 
HETATM   33  C1  UNL     1       9.216   7.791  16.372  1.00  0.00     0.055 C 
BRANCH  32  34
HETATM   34  C30 UNL     1      10.239   8.109  14.052  1.00  0.00     0.171 C 
HETATM   35  O6  UNL     1      11.355   7.714  13.759  1.00  0.00    -0.646 OA
BRANCH  34  36
HETATM   36  O7  UNL     1       9.233   8.038  13.166  1.00  0.00    -0.773 OA
HETATM   37  H40 UNL     1       9.648   7.615  12.388  1.00  0.00     0.167 HD
ENDBRANCH  34  36
ENDBRANCH  32  34
ENDBRANCH  30  31
BRANCH  30  38
HETATM   38  O1  UNL     1      10.959  11.297  17.245  1.00  0.00    -0.392 OA
HETATM   39  H6  UNL     1      11.506  11.705  16.552  1.00  0.00     0.210 HD
ENDBRANCH  30  38
ENDBRANCH  29  30
ENDBRANCH  27  29
ENDBRANCH   1  27
TORSDOF 7
ENDMDL
MODEL 5
REMARK minimizedAffinity -9.4401083
REMARK CNNscore 0.332363129
REMARK CNNaffinity 6.53994751
REMARK  7 active torsions:
REMARK  status: ('A' for Active; 'I' for Inactive)
REMARK    1  A    between atoms: C2_2  and  C30_35 
REMARK    2  A    between atoms: C3_3  and  C4_4 
REMARK    3  A    between atoms: C4_4  and  O1_5 
REMARK    4  A    between atoms: C4_4  and  C5_6 
REMARK    5  A    between atoms: C5_6  and  C6_7 
REMARK    6  A    between atoms: C6_7  and  C8_9 
REMARK    7  A    between atoms: C30_35  and  O7_37 
ROOT
HETATM    1  C8  UNL     1       1.906   9.042  12.509  1.00  0.00     0.006 C 
HETATM    2  C9  UNL     1       2.600   8.277  11.356  1.00  0.00     0.085 C 
HETATM    3  C10 UNL     1       1.453   7.523  10.714  1.00  0.00     0.141 C 
HETATM    4  O2  UNL     1       1.529   7.035   9.594  1.00  0.00    -0.297 OA
HETATM    5  C11 UNL     1       0.170   7.626  11.557  1.00  0.00     0.056 C 
HETATM    6  C12 UNL     1      -0.630   8.719  10.774  1.00  0.00     0.030 C 
HETATM    7  C13 UNL     1      -0.799   6.505  11.828  1.00  0.00     0.015 C 
HETATM    8  C14 UNL     1      -1.778   6.628  12.759  1.00  0.00     0.007 C 
HETATM    9  C15 UNL     1      -1.676   7.838  13.685  1.00  0.00     0.157 C 
HETATM   10  O3  UNL     1      -2.612   8.150  14.417  1.00  0.00    -0.293 OA
HETATM   11  C16 UNL     1      -0.389   8.675  13.744  1.00  0.00     0.094 C 
HETATM   12  C17 UNL     1       0.766   8.069  12.942  1.00  0.00    -0.014 C 
HETATM   13  C18 UNL     1       1.344   6.876  13.761  1.00  0.00     0.018 C 
HETATM   14  C19 UNL     1      -2.919   5.602  12.964  1.00  0.00    -0.007 C 
HETATM   15  C20 UNL     1      -2.605   4.801  14.244  1.00  0.00     0.021 C 
HETATM   16  C21 UNL     1      -4.295   6.312  13.099  1.00  0.00     0.022 C 
HETATM   17  C22 UNL     1      -5.542   5.451  12.934  1.00  0.00     0.080 C 
HETATM   18  C23 UNL     1      -5.284   3.992  12.666  1.00  0.00     0.135 C 
HETATM   19  O4  UNL     1      -6.037   3.146  13.150  1.00  0.00    -0.297 OA
HETATM   20  C24 UNL     1      -4.156   3.613  11.706  1.00  0.00     0.018 C 
HETATM   21  C25 UNL     1      -3.655   2.207  12.096  1.00  0.00     0.023 C 
HETATM   22  C26 UNL     1      -4.793   3.508  10.305  1.00  0.00     0.023 C 
HETATM   23  C27 UNL     1      -3.025   4.703  11.683  1.00  0.00     0.021 C 
HETATM   24  C28 UNL     1      -1.660   4.125  11.295  1.00  0.00     0.090 C 
HETATM   25  C29 UNL     1      -0.569   5.159  11.245  1.00  0.00     0.158 C 
HETATM   26  O5  UNL     1       0.552   4.836  10.863  1.00  0.00    -0.293 OA
ENDROOT
BRANCH   1  27
HETATM   27  C6  UNL     1       2.915   9.681  13.507  1.00  0.00    -0.011 C 
HETATM   28  C7  UNL     1       4.111  10.425  12.905  1.00  0.00     0.010 C 
BRANCH  27  29
HETATM   29  C5  UNL     1       3.385   8.661  14.569  1.00  0.00     0.040 C 
BRANCH  29  30
HETATM   30  C4  UNL     1       4.870   8.261  14.470  1.00  0.00     0.142 C 
BRANCH  30  31
HETATM   31  C3  UNL     1       5.210   7.631  13.151  1.00  0.00     0.018 C 
HETATM   32  C2  UNL     1       6.431   7.340  12.657  1.00  0.00     0.010 C 
HETATM   33  C1  UNL     1       7.745   7.581  13.336  1.00  0.00     0.055 C 
BRANCH  32  34
HETATM   34  C30 UNL     1       6.452   6.711  11.311  1.00  0.00     0.171 C 
HETATM   35  O6  UNL     1       7.258   6.927  10.422  1.00  0.00    -0.646 OA
BRANCH  34  36
HETATM   36  O7  UNL     1       5.453   5.833  11.131  1.00  0.00    -0.773 OA
HETATM   37  H40 UNL     1       5.611   5.495  10.227  1.00  0.00     0.167 HD
ENDBRANCH  34  36
ENDBRANCH  32  34
ENDBRANCH  30  31
BRANCH  30  38
HETATM   38  O1  UNL     1       5.659   9.444  14.596  1.00  0.00    -0.392 OA
HETATM   39  H6  UNL     1       5.507   9.999  13.811  1.00  0.00     0.210 HD
ENDBRANCH  30  38
ENDBRANCH  29  30
ENDBRANCH  27  29
ENDBRANCH   1  27
TORSDOF 7
ENDMDL
MODEL 6
REMARK minimizedAffinity -8.47731113
REMARK CNNscore 0.277943105
REMARK CNNaffinity 5.94830132
REMARK  7 active torsions:
REMARK  status: ('A' for Active; 'I' for Inactive)
REMARK    1  A    between atoms: C2_2  and  C30_35 
REMARK    2  A    between atoms: C3_3  and  C4_4 
REMARK    3  A    between atoms: C4_4  and  O1_5 
REMARK    4  A    between atoms: C4_4  and  C5_6 
REMARK    5  A    between atoms: C5_6  and  C6_7 
REMARK    6  A    between atoms: C6_7  and  C8_9 
REMARK    7  A    between atoms: C30_35  and  O7_37 
ROOT
HETATM    1  C8  UNL     1       6.865  10.424  15.533  1.00  0.00     0.006 C 
HETATM    2  C9  UNL     1       5.583  10.902  16.256  1.00  0.00     0.085 C 
HETATM    3  C10 UNL     1       4.524   9.958  15.724  1.00  0.00     0.141 C 
HETATM    4  O2  UNL     1       3.437   9.812  16.268  1.00  0.00    -0.297 OA
HETATM    5  C11 UNL     1       5.065   9.100  14.568  1.00  0.00     0.056 C 
HETATM    6  C12 UNL     1       5.348   7.742  15.294  1.00  0.00     0.030 C 
HETATM    7  C13 UNL     1       4.323   8.756  13.303  1.00  0.00     0.015 C 
HETATM    8  C14 UNL     1       4.955   8.184  12.248  1.00  0.00     0.007 C 
HETATM    9  C15 UNL     1       6.480   8.157  12.311  1.00  0.00     0.157 C 
HETATM   10  O3  UNL     1       7.130   7.486  11.515  1.00  0.00    -0.293 OA
HETATM   11  C16 UNL     1       7.237   8.992  13.356  1.00  0.00     0.094 C 
HETATM   12  C17 UNL     1       6.329   9.935  14.152  1.00  0.00    -0.014 C 
HETATM   13  C18 UNL     1       5.978  11.148  13.238  1.00  0.00     0.018 C 
HETATM   14  C19 UNL     1       4.232   7.635  10.993  1.00  0.00    -0.007 C 
HETATM   15  C20 UNL     1       4.461   8.637   9.843  1.00  0.00     0.021 C 
HETATM   16  C21 UNL     1       4.776   6.233  10.601  1.00  0.00     0.022 C 
HETATM   17  C22 UNL     1       3.936   5.404   9.636  1.00  0.00     0.080 C 
HETATM   18  C23 UNL     1       2.665   6.060   9.166  1.00  0.00     0.135 C 
HETATM   19  O4  UNL     1       2.282   5.878   8.009  1.00  0.00    -0.297 OA
HETATM   20  C24 UNL     1       1.828   6.842  10.178  1.00  0.00     0.018 C 
HETATM   21  C25 UNL     1       1.034   7.917   9.406  1.00  0.00     0.023 C 
HETATM   22  C26 UNL     1       0.809   5.845  10.767  1.00  0.00     0.023 C 
HETATM   23  C27 UNL     1       2.716   7.424  11.337  1.00  0.00     0.021 C 
HETATM   24  C28 UNL     1       2.109   8.681  11.968  1.00  0.00     0.090 C 
HETATM   25  C29 UNL     1       2.934   9.238  13.095  1.00  0.00     0.158 C 
HETATM   26  O5  UNL     1       2.511  10.194  13.739  1.00  0.00    -0.293 OA
ENDROOT
BRANCH   1  27
HETATM   27  C6  UNL     1       8.055  11.414  15.691  1.00  0.00    -0.011 C 
HETATM   28  C7  UNL     1       9.429  10.928  15.220  1.00  0.00     0.010 C 
BRANCH  27  29
HETATM   29  C5  UNL     1       8.138  11.977  17.128  1.00  0.00     0.040 C 
BRANCH  29  30
HETATM   30  C4  UNL     1       8.972  11.130  18.108  1.00  0.00     0.142 C 
BRANCH  30  31
HETATM   31  C3  UNL     1       8.948  11.679  19.506  1.00  0.00     0.018 C 
HETATM   32  C2  UNL     1       9.994  11.931  20.319  1.00  0.00     0.010 C 
HETATM   33  C1  UNL     1      11.442  11.720  19.996  1.00  0.00     0.055 C 
BRANCH  32  34
HETATM   34  C30 UNL     1       9.656  12.479  21.658  1.00  0.00     0.171 C 
HETATM   35  O6  UNL     1       9.188  11.860  22.598  1.00  0.00    -0.646 OA
BRANCH  34  36
HETATM   36  O7  UNL     1       9.916  13.792  21.764  1.00  0.00    -0.773 OA
HETATM   37  H40 UNL     1       9.667  13.997  22.687  1.00  0.00     0.167 HD
ENDBRANCH  34  36
ENDBRANCH  32  34
ENDBRANCH  30  31
BRANCH  30  38
HETATM   38  O1  UNL     1       8.410   9.818  18.154  1.00  0.00    -0.392 OA
HETATM   39  H6  UNL     1       7.533   9.875  18.570  1.00  0.00     0.210 HD
ENDBRANCH  30  38
ENDBRANCH  29  30
ENDBRANCH  27  29
ENDBRANCH   1  27
TORSDOF 7
ENDMDL
MODEL 7
REMARK minimizedAffinity -7.06023645
REMARK CNNscore 0.264530659
REMARK CNNaffinity 5.5479064
REMARK  7 active torsions:
REMARK  status: ('A' for Active; 'I' for Inactive)
REMARK    1  A    between atoms: C2_2  and  C30_35 
REMARK    2  A    between atoms: C3_3  and  C4_4 
REMARK    3  A    between atoms: C4_4  and  O1_5 
REMARK    4  A    between atoms: C4_4  and  C5_6 
REMARK    5  A    between atoms: C5_6  and  C6_7 
REMARK    6  A    between atoms: C6_7  and  C8_9 
REMARK    7  A    between atoms: C30_35  and  O7_37 
ROOT
HETATM    1  C8  UNL     1     -14.043   5.939  23.860  1.00  0.00     0.006 C 
HETATM    2  C9  UNL     1     -14.188   6.262  25.368  1.00  0.00     0.085 C 
HETATM    3  C10 UNL     1     -14.355   7.768  25.375  1.00  0.00     0.141 C 
HETATM    4  O2  UNL     1     -14.792   8.378  26.342  1.00  0.00    -0.297 OA
HETATM    5  C11 UNL     1     -14.096   8.369  23.983  1.00  0.00     0.056 C 
HETATM    6  C12 UNL     1     -15.555   8.606  23.469  1.00  0.00     0.030 C 
HETATM    7  C13 UNL     1     -13.337   9.639  23.700  1.00  0.00     0.015 C 
HETATM    8  C14 UNL     1     -12.968   9.974  22.438  1.00  0.00     0.007 C 
HETATM    9  C15 UNL     1     -13.124   8.884  21.381  1.00  0.00     0.157 C 
HETATM   10  O3  UNL     1     -13.015   9.147  20.186  1.00  0.00    -0.293 OA
HETATM   11  C16 UNL     1     -13.393   7.427  21.789  1.00  0.00     0.094 C 
HETATM   12  C17 UNL     1     -13.307   7.195  23.300  1.00  0.00    -0.014 C 
HETATM   13  C18 UNL     1     -11.799   7.169  23.695  1.00  0.00     0.018 C 
HETATM   14  C19 UNL     1     -12.354  11.340  22.043  1.00  0.00    -0.007 C 
HETATM   15  C20 UNL     1     -10.845  11.125  21.806  1.00  0.00     0.021 C 
HETATM   16  C21 UNL     1     -13.025  11.906  20.761  1.00  0.00     0.022 C 
HETATM   17  C22 UNL     1     -12.806  13.384  20.455  1.00  0.00     0.080 C 
HETATM   18  C23 UNL     1     -11.944  14.123  21.443  1.00  0.00     0.135 C 
HETATM   19  O4  UNL     1     -11.179  15.001  21.042  1.00  0.00    -0.297 OA
HETATM   20  C24 UNL     1     -12.129  13.835  22.933  1.00  0.00     0.018 C 
HETATM   21  C25 UNL     1     -10.792  14.137  23.643  1.00  0.00     0.023 C 
HETATM   22  C26 UNL     1     -13.168  14.851  23.449  1.00  0.00     0.023 C 
HETATM   23  C27 UNL     1     -12.660  12.377  23.180  1.00  0.00     0.021 C 
HETATM   24  C28 UNL     1     -12.259  11.830  24.554  1.00  0.00     0.090 C 
HETATM   25  C29 UNL     1     -12.779  10.444  24.816  1.00  0.00     0.158 C 
HETATM   26  O5  UNL     1     -12.598   9.929  25.916  1.00  0.00    -0.293 OA
ENDROOT
BRANCH   1  27
HETATM   27  C6  UNL     1     -13.575   4.479  23.595  1.00  0.00    -0.011 C 
HETATM   28  C7  UNL     1     -14.021   3.835  22.280  1.00  0.00     0.010 C 
BRANCH  27  29
HETATM   29  C5  UNL     1     -13.894   3.554  24.792  1.00  0.00     0.040 C 
BRANCH  29  30
HETATM   30  C4  UNL     1     -12.967   2.332  24.931  1.00  0.00     0.142 C 
BRANCH  30  31
HETATM   31  C3  UNL     1     -12.513   2.112  26.345  1.00  0.00     0.018 C 
HETATM   32  C2  UNL     1     -13.147   2.455  27.485  1.00  0.00     0.010 C 
HETATM   33  C1  UNL     1     -14.475   3.140  27.593  1.00  0.00     0.055 C 
BRANCH  32  34
HETATM   34  C30 UNL     1     -12.446   2.102  28.747  1.00  0.00     0.171 C 
HETATM   35  O6  UNL     1     -12.889   2.211  29.878  1.00  0.00    -0.646 OA
BRANCH  34  36
HETATM   36  O7  UNL     1     -11.208   1.627  28.539  1.00  0.00    -0.773 OA
HETATM   37  H40 UNL     1     -10.891   1.423  29.442  1.00  0.00     0.167 HD
ENDBRANCH  34  36
ENDBRANCH  32  34
ENDBRANCH  30  31
BRANCH  30  38
HETATM   38  O1  UNL     1     -13.697   1.171  24.531  1.00  0.00    -0.392 OA
HETATM   39  H6  UNL     1     -14.403   1.014  25.181  1.00  0.00     0.210 HD
ENDBRANCH  30  38
ENDBRANCH  29  30
ENDBRANCH  27  29
ENDBRANCH   1  27
TORSDOF 7
ENDMDL
MODEL 8
REMARK minimizedAffinity -7.18413877
REMARK CNNscore 0.256936938
REMARK CNNaffinity 5.87373686
REMARK  7 active torsions:
REMARK  status: ('A' for Active; 'I' for Inactive)
REMARK    1  A    between atoms: C2_2  and  C30_35 
REMARK    2  A    between atoms: C3_3  and  C4_4 
REMARK    3  A    between atoms: C4_4  and  O1_5 
REMARK    4  A    between atoms: C4_4  and  C5_6 
REMARK    5  A    between atoms: C5_6  and  C6_7 
REMARK    6  A    between atoms: C6_7  and  C8_9 
REMARK    7  A    between atoms: C30_35  and  O7_37 
ROOT
HETATM    1  C8  UNL     1       0.746  10.463  17.811  1.00  0.00     0.006 C 
HETATM    2  C9  UNL     1      -0.768  10.399  17.496  1.00  0.00     0.085 C 
HETATM    3  C10 UNL     1      -0.834   9.400  16.358  1.00  0.00     0.141 C 
HETATM    4  O2  UNL     1      -1.875   8.852  16.021  1.00  0.00    -0.297 OA
HETATM    5  C11 UNL     1       0.571   9.043  15.841  1.00  0.00     0.056 C 
HETATM    6  C12 UNL     1       0.809   7.655  16.522  1.00  0.00     0.030 C 
HETATM    7  C13 UNL     1       0.962   8.878  14.396  1.00  0.00     0.015 C 
HETATM    8  C14 UNL     1       2.263   8.783  14.024  1.00  0.00     0.007 C 
HETATM    9  C15 UNL     1       3.295   9.117  15.098  1.00  0.00     0.157 C 
HETATM   10  O3  UNL     1       4.485   8.865  14.927  1.00  0.00    -0.293 OA
HETATM   11  C16 UNL     1       2.873   9.803  16.407  1.00  0.00     0.094 C 
HETATM   12  C17 UNL     1       1.406  10.244  16.414  1.00  0.00    -0.014 C 
HETATM   13  C18 UNL     1       1.290  11.532  15.544  1.00  0.00     0.018 C 
HETATM   14  C19 UNL     1       2.736   8.428  12.593  1.00  0.00    -0.007 C 
HETATM   15  C20 UNL     1       3.246   9.726  11.932  1.00  0.00     0.021 C 
HETATM   16  C21 UNL     1       3.866   7.362  12.624  1.00  0.00     0.022 C 
HETATM   17  C22 UNL     1       4.179   6.640  11.318  1.00  0.00     0.080 C 
HETATM   18  C23 UNL     1       3.348   7.064  10.136  1.00  0.00     0.135 C 
HETATM   19  O4  UNL     1       3.864   7.109   9.018  1.00  0.00    -0.297 OA
HETATM   20  C24 UNL     1       1.855   7.316  10.345  1.00  0.00     0.018 C 
HETATM   21  C25 UNL     1       1.392   8.328   9.276  1.00  0.00     0.023 C 
HETATM   22  C26 UNL     1       1.142   5.979  10.059  1.00  0.00     0.023 C 
HETATM   23  C27 UNL     1       1.544   7.767  11.818  1.00  0.00     0.021 C 
HETATM   24  C28 UNL     1       0.275   8.619  11.916  1.00  0.00     0.090 C 
HETATM   25  C29 UNL     1      -0.050   9.040  13.322  1.00  0.00     0.158 C 
HETATM   26  O5  UNL     1      -1.090   9.655  13.544  1.00  0.00    -0.293 OA
ENDROOT
BRANCH   1  27
HETATM   27  C6  UNL     1       1.119  11.636  18.763  1.00  0.00    -0.011 C 
HETATM   28  C7  UNL     1       2.240  12.573  18.305  1.00  0.00     0.010 C 
BRANCH  27  29
HETATM   29  C5  UNL     1       1.378  11.138  20.202  1.00  0.00     0.040 C 
BRANCH  29  30
HETATM   30  C4  UNL     1       2.676  10.328  20.384  1.00  0.00     0.142 C 
BRANCH  30  31
HETATM   31  C3  UNL     1       3.729  11.090  21.136  1.00  0.00     0.018 C 
HETATM   32  C2  UNL     1       4.003  11.049  22.456  1.00  0.00     0.010 C 
HETATM   33  C1  UNL     1       3.305  10.210  23.483  1.00  0.00     0.055 C 
BRANCH  32  34
HETATM   34  C30 UNL     1       5.115  11.922  22.914  1.00  0.00     0.171 C 
HETATM   35  O6  UNL     1       6.246  11.566  23.198  1.00  0.00    -0.646 OA
BRANCH  34  36
HETATM   36  O7  UNL     1       4.761  13.213  23.003  1.00  0.00    -0.773 OA
HETATM   37  H40 UNL     1       5.586  13.654  23.289  1.00  0.00     0.167 HD
ENDBRANCH  34  36
ENDBRANCH  32  34
ENDBRANCH  30  31
BRANCH  30  38
HETATM   38  O1  UNL     1       2.370   9.159  21.144  1.00  0.00    -0.392 OA
HETATM   39  H6  UNL     1       2.129   9.434  22.045  1.00  0.00     0.210 HD
ENDBRANCH  30  38
ENDBRANCH  29  30
ENDBRANCH  27  29
ENDBRANCH   1  27
TORSDOF 7
ENDMDL
MODEL 9
REMARK minimizedAffinity -8.70185661
REMARK CNNscore 0.249076292
REMARK CNNaffinity 6.28795862
REMARK  7 active torsions:
REMARK  status: ('A' for Active; 'I' for Inactive)
REMARK    1  A    between atoms: C2_2  and  C30_35 
REMARK    2  A    between atoms: C3_3  and  C4_4 
REMARK    3  A    between atoms: C4_4  and  O1_5 
REMARK    4  A    between atoms: C4_4  and  C5_6 
REMARK    5  A    between atoms: C5_6  and  C6_7 
REMARK    6  A    between atoms: C6_7  and  C8_9 
REMARK    7  A    between atoms: C30_35  and  O7_37 
ROOT
HETATM    1  C8  UNL     1       2.548   8.380  11.877  1.00  0.00     0.006 C 
HETATM    2  C9  UNL     1       3.084   7.361  10.842  1.00  0.00     0.085 C 
HETATM    3  C10 UNL     1       1.819   6.693  10.340  1.00  0.00     0.141 C 
HETATM    4  O2  UNL     1       1.785   6.039   9.306  1.00  0.00    -0.297 OA
HETATM    5  C11 UNL     1       0.596   7.104  11.177  1.00  0.00     0.056 C 
HETATM    6  C12 UNL     1      -0.072   8.172  10.250  1.00  0.00     0.030 C 
HETATM    7  C13 UNL     1      -0.510   6.186  11.630  1.00  0.00     0.015 C 
HETATM    8  C14 UNL     1      -1.426   6.586  12.546  1.00  0.00     0.007 C 
HETATM    9  C15 UNL     1      -1.122   7.891  13.277  1.00  0.00     0.157 C 
HETATM   10  O3  UNL     1      -1.977   8.439  13.967  1.00  0.00    -0.293 OA
HETATM   11  C16 UNL     1       0.271   8.534  13.189  1.00  0.00     0.094 C 
HETATM   12  C17 UNL     1       1.299   7.656  12.469  1.00  0.00    -0.014 C 
HETATM   13  C18 UNL     1       1.734   6.526  13.451  1.00  0.00     0.018 C 
HETATM   14  C19 UNL     1      -2.692   5.776  12.922  1.00  0.00    -0.007 C 
HETATM   15  C20 UNL     1      -2.446   5.136  14.304  1.00  0.00     0.021 C 
HETATM   16  C21 UNL     1      -3.949   6.689  12.969  1.00  0.00     0.022 C 
HETATM   17  C22 UNL     1      -5.310   6.002  12.956  1.00  0.00     0.080 C 
HETATM   18  C23 UNL     1      -5.269   4.498  12.909  1.00  0.00     0.135 C 
HETATM   19  O4  UNL     1      -6.114   3.849  13.526  1.00  0.00    -0.297 OA
HETATM   20  C24 UNL     1      -4.242   3.823  12.000  1.00  0.00     0.018 C 
HETATM   21  C25 UNL     1      -3.928   2.432  12.590  1.00  0.00     0.023 C 
HETATM   22  C26 UNL     1      -4.938   3.604  10.641  1.00  0.00     0.023 C 
HETATM   23  C27 UNL     1      -2.970   4.723  11.794  1.00  0.00     0.021 C 
HETATM   24  C28 UNL     1      -1.715   3.903  11.477  1.00  0.00     0.090 C 
HETATM   25  C29 UNL     1      -0.493   4.750  11.254  1.00  0.00     0.158 C 
HETATM   26  O5  UNL     1       0.558   4.216  10.908  1.00  0.00    -0.293 OA
ENDROOT
BRANCH   1  27
HETATM   27  C6  UNL     1       3.672   9.006  12.750  1.00  0.00    -0.011 C 
HETATM   28  C7  UNL     1       4.545  10.079  12.093  1.00  0.00     0.010 C 
BRANCH  27  29
HETATM   29  C5  UNL     1       4.549   7.919  13.412  1.00  0.00     0.040 C 
BRANCH  29  30
HETATM   30  C4  UNL     1       5.009   8.243  14.846  1.00  0.00     0.142 C 
BRANCH  30  31
HETATM   31  C3  UNL     1       4.218   9.357  15.467  1.00  0.00     0.018 C 
HETATM   32  C2  UNL     1       3.026   9.283  16.094  1.00  0.00     0.010 C 
HETATM   33  C1  UNL     1       2.216   8.043  16.320  1.00  0.00     0.055 C 
BRANCH  32  34
HETATM   34  C30 UNL     1       2.487  10.567  16.613  1.00  0.00     0.171 C 
HETATM   35  O6  UNL     1       1.363  10.760  17.045  1.00  0.00    -0.646 OA
BRANCH  34  36
HETATM   36  O7  UNL     1       3.382  11.566  16.563  1.00  0.00    -0.773 OA
HETATM   37  H40 UNL     1       2.896  12.322  16.950  1.00  0.00     0.167 HD
ENDBRANCH  34  36
ENDBRANCH  32  34
ENDBRANCH  30  31
BRANCH  30  38
HETATM   38  O1  UNL     1       4.813   7.079  15.651  1.00  0.00    -0.392 OA
HETATM   39  H6  UNL     1       3.856   6.923  15.734  1.00  0.00     0.210 HD
ENDBRANCH  30  38
ENDBRANCH  29  30
ENDBRANCH  27  29
ENDBRANCH   1  27
TORSDOF 7
ENDMDL
