MODEL 1
REMARK minimizedAffinity -9.56304646
REMARK  7 active torsions:
REMARK  status: ('A' for Active; 'I' for Inactive)
REMARK    1  A    between atoms: C4_4  and  C5_5 
REMARK    2  A    between atoms: C5_5  and  C6_6 
REMARK    3  A    between atoms: C6_6  and  C7_7 
REMARK    4  A    between atoms: C7_7  and  C9_9 
REMARK    5  A    between atoms: C22_22  and  O1_23 
REMARK    6  A    between atoms: C23_24  and  O2_25 
REMARK    7  A    between atoms: C24_26  and  O3_27 
ROOT
HETATM    1  C9  UNL     1       1.901   7.071  12.102  1.00  0.00    -0.002 C 
HETATM    2  C10 UNL     1       1.940   5.647  11.478  1.00  0.00     0.007 C 
HETATM    3  C11 UNL     1       0.530   5.040  11.589  1.00  0.00     0.015 C 
HETATM    4  C12 UNL     1      -0.380   6.228  11.931  1.00  0.00    -0.013 C 
HETATM    5  C13 UNL     1      -0.720   6.948  10.589  1.00  0.00     0.021 C 
HETATM    6  C14 UNL     1      -1.729   5.955  12.588  1.00  0.00    -0.068 C 
HETATM    7  C15 UNL     1      -2.296   6.899  13.383  1.00  0.00    -0.065 C 
HETATM    8  C16 UNL     1      -1.565   8.200  13.720  1.00  0.00     0.036 C 
HETATM    9  C17 UNL     1      -0.129   8.383  13.176  1.00  0.00     0.015 C 
HETATM   10  C18 UNL     1       0.559   7.038  12.908  1.00  0.00    -0.029 C 
HETATM   11  C19 UNL     1       0.791   6.311  14.271  1.00  0.00     0.016 C 
HETATM   12  C20 UNL     1      -3.689   6.689  14.033  1.00  0.00     0.012 C 
HETATM   13  C21 UNL     1      -3.406   6.188  15.477  1.00  0.00     0.023 C 
HETATM   14  C22 UNL     1      -4.535   8.001  14.116  1.00  0.00     0.162 C 
HETATM   15  C23 UNL     1      -5.928   7.758  14.716  1.00  0.00     0.177 C 
HETATM   16  C24 UNL     1      -6.709   6.696  13.934  1.00  0.00     0.153 C 
HETATM   17  C25 UNL     1      -5.932   5.373  13.789  1.00  0.00     0.018 C 
HETATM   18  C26 UNL     1      -6.750   4.394  12.930  1.00  0.00     0.013 C 
HETATM   19  C27 UNL     1      -4.516   5.638  13.200  1.00  0.00     0.007 C 
HETATM   20  C28 UNL     1      -3.697   4.358  12.999  1.00  0.00     0.010 C 
HETATM   21  C29 UNL     1      -2.399   4.645  12.247  1.00  0.00     0.036 C 
ENDROOT
BRANCH   1  22
HETATM   22  C7  UNL     1       3.231   7.455  12.823  1.00  0.00    -0.014 C 
HETATM   23  C8  UNL     1       2.985   8.402  14.008  1.00  0.00     0.010 C 
BRANCH  22  24
HETATM   24  C6  UNL     1       4.254   8.163  11.883  1.00  0.00     0.008 C 
BRANCH  24  25
HETATM   25  C5  UNL     1       4.528   7.451  10.553  1.00  0.00     0.028 C 
BRANCH  25  26
HETATM   26  C4  UNL     1       3.710   8.053   9.441  1.00  0.00    -0.025 C 
HETATM   27  C2  UNL     1       3.004   7.416   8.487  1.00  0.00    -0.091 C 
HETATM   28  C1  UNL     1       2.874   5.925   8.342  1.00  0.00     0.042 C 
HETATM   29  C3  UNL     1       2.257   8.201   7.438  1.00  0.00     0.042 C 
ENDBRANCH  25  26
ENDBRANCH  24  25
ENDBRANCH  22  24
ENDBRANCH   1  22
BRANCH  14  30
HETATM   30  O1  UNL     1      -4.706   8.584  12.813  1.00  0.00    -0.392 OA
HETATM   31  H35 UNL     1      -5.462   9.198  12.881  1.00  0.00     0.210 HD
ENDBRANCH  14  30
BRANCH  15  32
HETATM   32  O2  UNL     1      -6.683   8.988  14.671  1.00  0.00    -0.390 OA
HETATM   33  H37 UNL     1      -6.283   9.588  15.328  1.00  0.00     0.210 HD
ENDBRANCH  15  32
BRANCH  16  34
HETATM   34  O3  UNL     1      -7.944   6.461  14.626  1.00  0.00    -0.393 OA
HETATM   35  H39 UNL     1      -8.357   7.341  14.710  1.00  0.00     0.210 HD
ENDBRANCH  16  34
TORSDOF 7
ENDMDL
MODEL 2
REMARK minimizedAffinity -9.18212414
REMARK  7 active torsions:
REMARK  status: ('A' for Active; 'I' for Inactive)
REMARK    1  A    between atoms: C4_4  and  C5_5 
REMARK    2  A    between atoms: C5_5  and  C6_6 
REMARK    3  A    between atoms: C6_6  and  C7_7 
REMARK    4  A    between atoms: C7_7  and  C9_9 
REMARK    5  A    between atoms: C22_22  and  O1_23 
REMARK    6  A    between atoms: C23_24  and  O2_25 
REMARK    7  A    between atoms: C24_26  and  O3_27 
ROOT
HETATM    1  C9  UNL     1      -5.901   7.133  14.265  1.00  0.00    -0.002 C 
HETATM    2  C10 UNL     1      -5.683   8.396  15.145  1.00  0.00     0.007 C 
HETATM    3  C11 UNL     1      -4.191   8.767  15.084  1.00  0.00     0.015 C 
HETATM    4  C12 UNL     1      -3.636   7.958  13.904  1.00  0.00    -0.013 C 
HETATM    5  C13 UNL     1      -3.960   8.760  12.605  1.00  0.00     0.021 C 
HETATM    6  C14 UNL     1      -2.137   7.686  13.840  1.00  0.00    -0.068 C 
HETATM    7  C15 UNL     1      -1.678   6.583  13.194  1.00  0.00    -0.065 C 
HETATM    8  C16 UNL     1      -2.639   5.545  12.610  1.00  0.00     0.036 C 
HETATM    9  C17 UNL     1      -4.154   5.759  12.832  1.00  0.00     0.015 C 
HETATM   10  C18 UNL     1      -4.438   6.610  14.077  1.00  0.00    -0.029 C 
HETATM   11  C19 UNL     1      -4.009   5.804  15.345  1.00  0.00     0.016 C 
HETATM   12  C20 UNL     1      -0.161   6.289  13.058  1.00  0.00     0.012 C 
HETATM   13  C21 UNL     1       0.177   5.293  14.203  1.00  0.00     0.023 C 
HETATM   14  C22 UNL     1       0.220   5.629  11.693  1.00  0.00     0.162 C 
HETATM   15  C23 UNL     1       1.732   5.395  11.562  1.00  0.00     0.177 C 
HETATM   16  C24 UNL     1       2.528   6.692  11.740  1.00  0.00     0.153 C 
HETATM   17  C25 UNL     1       2.195   7.418  13.058  1.00  0.00     0.018 C 
HETATM   18  C26 UNL     1       2.975   8.741  13.122  1.00  0.00     0.013 C 
HETATM   19  C27 UNL     1       0.658   7.629  13.186  1.00  0.00     0.007 C 
HETATM   20  C28 UNL     1       0.256   8.375  14.464  1.00  0.00     0.010 C 
HETATM   21  C29 UNL     1      -1.230   8.726  14.454  1.00  0.00     0.036 C 
ENDROOT
BRANCH   1  22
HETATM   22  C7  UNL     1      -7.001   6.180  14.831  1.00  0.00    -0.014 C 
HETATM   23  C8  UNL     1      -7.014   6.172  16.368  1.00  0.00     0.010 C 
BRANCH  22  24
HETATM   24  C6  UNL     1      -6.823   4.701  14.373  1.00  0.00     0.008 C 
BRANCH  24  25
HETATM   25  C5  UNL     1      -7.236   4.405  12.926  1.00  0.00     0.028 C 
BRANCH  25  26
HETATM   26  C4  UNL     1      -6.946   2.972  12.566  1.00  0.00    -0.025 C 
HETATM   27  C2  UNL     1      -6.178   2.503  11.562  1.00  0.00    -0.091 C 
HETATM   28  C1  UNL     1      -5.419   3.345  10.574  1.00  0.00     0.042 C 
HETATM   29  C3  UNL     1      -6.024   1.018  11.349  1.00  0.00     0.042 C 
ENDBRANCH  25  26
ENDBRANCH  24  25
ENDBRANCH  22  24
ENDBRANCH   1  22
BRANCH  14  30
HETATM   30  O1  UNL     1      -0.202   6.451  10.591  1.00  0.00    -0.392 OA
HETATM   31  H35 UNL     1       0.309   6.156   9.813  1.00  0.00     0.210 HD
ENDBRANCH  14  30
BRANCH  15  32
HETATM   32  O2  UNL     1       2.017   4.876  10.244  1.00  0.00    -0.390 OA
HETATM   33  H37 UNL     1       1.670   3.965  10.219  1.00  0.00     0.210 HD
ENDBRANCH  15  32
BRANCH  16  34
HETATM   34  O3  UNL     1       3.923   6.359  11.708  1.00  0.00    -0.393 OA
HETATM   35  H39 UNL     1       4.049   5.876  10.870  1.00  0.00     0.210 HD
ENDBRANCH  16  34
TORSDOF 7
ENDMDL
MODEL 3
REMARK minimizedAffinity -9.10555744
REMARK  7 active torsions:
REMARK  status: ('A' for Active; 'I' for Inactive)
REMARK    1  A    between atoms: C4_4  and  C5_5 
REMARK    2  A    between atoms: C5_5  and  C6_6 
REMARK    3  A    between atoms: C6_6  and  C7_7 
REMARK    4  A    between atoms: C7_7  and  C9_9 
REMARK    5  A    between atoms: C22_22  and  O1_23 
REMARK    6  A    between atoms: C23_24  and  O2_25 
REMARK    7  A    between atoms: C24_26  and  O3_27 
ROOT
HETATM    1  C9  UNL     1      -3.859   7.111  14.583  1.00  0.00    -0.002 C 
HETATM    2  C10 UNL     1      -4.364   5.921  13.720  1.00  0.00     0.007 C 
HETATM    3  C11 UNL     1      -3.208   5.465  12.813  1.00  0.00     0.015 C 
HETATM    4  C12 UNL     1      -1.961   6.136  13.405  1.00  0.00    -0.013 C 
HETATM    5  C13 UNL     1      -1.476   5.242  14.588  1.00  0.00     0.021 C 
HETATM    6  C14 UNL     1      -0.735   6.319  12.517  1.00  0.00    -0.068 C 
HETATM    7  C15 UNL     1       0.133   7.335  12.765  1.00  0.00    -0.065 C 
HETATM    8  C16 UNL     1      -0.144   8.369  13.858  1.00  0.00     0.036 C 
HETATM    9  C17 UNL     1      -1.476   8.258  14.636  1.00  0.00     0.015 C 
HETATM   10  C18 UNL     1      -2.558   7.536  13.822  1.00  0.00    -0.029 C 
HETATM   11  C19 UNL     1      -2.942   8.425  12.596  1.00  0.00     0.016 C 
HETATM   12  C20 UNL     1       1.420   7.534  11.922  1.00  0.00     0.012 C 
HETATM   13  C21 UNL     1       1.061   8.606  10.856  1.00  0.00     0.023 C 
HETATM   14  C22 UNL     1       2.633   8.050  12.762  1.00  0.00     0.162 C 
HETATM   15  C23 UNL     1       3.908   8.190  11.917  1.00  0.00     0.177 C 
HETATM   16  C24 UNL     1       4.286   6.871  11.232  1.00  0.00     0.153 C 
HETATM   17  C25 UNL     1       3.133   6.283  10.397  1.00  0.00     0.018 C 
HETATM   18  C26 UNL     1       3.568   4.930   9.811  1.00  0.00     0.013 C 
HETATM   19  C27 UNL     1       1.842   6.168  11.261  1.00  0.00     0.007 C 
HETATM   20  C28 UNL     1       0.659   5.558  10.500  1.00  0.00     0.010 C 
HETATM   21  C29 UNL     1      -0.519   5.289  11.434  1.00  0.00     0.036 C 
ENDROOT
BRANCH   1  22
HETATM   22  C7  UNL     1      -4.971   8.169  14.871  1.00  0.00    -0.014 C 
HETATM   23  C8  UNL     1      -4.465   9.296  15.785  1.00  0.00     0.010 C 
BRANCH  22  24
HETATM   24  C6  UNL     1      -6.230   7.560  15.558  1.00  0.00     0.008 C 
BRANCH  24  25
HETATM   25  C5  UNL     1      -7.386   7.201  14.617  1.00  0.00     0.028 C 
BRANCH  25  26
HETATM   26  C4  UNL     1      -7.460   5.713  14.399  1.00  0.00    -0.025 C 
HETATM   27  C2  UNL     1      -7.950   5.049  13.332  1.00  0.00    -0.091 C 
HETATM   28  C1  UNL     1      -8.528   5.684  12.098  1.00  0.00     0.042 C 
HETATM   29  C3  UNL     1      -7.954   3.542  13.308  1.00  0.00     0.042 C 
ENDBRANCH  25  26
ENDBRANCH  24  25
ENDBRANCH  22  24
ENDBRANCH   1  22
BRANCH  14  30
HETATM   30  O1  UNL     1       2.917   7.159  13.855  1.00  0.00    -0.392 OA
HETATM   31  H35 UNL     1       3.828   7.357  14.144  1.00  0.00     0.210 HD
ENDBRANCH  14  30
BRANCH  15  32
HETATM   32  O2  UNL     1       5.004   8.574  12.775  1.00  0.00    -0.390 OA
HETATM   33  H37 UNL     1       4.840   9.497  13.045  1.00  0.00     0.210 HD
ENDBRANCH  15  32
BRANCH  16  34
HETATM   34  O3  UNL     1       5.418   7.124  10.387  1.00  0.00    -0.393 OA
HETATM   35  H39 UNL     1       6.087   7.525  10.974  1.00  0.00     0.210 HD
ENDBRANCH  16  34
TORSDOF 7
ENDMDL
MODEL 4
REMARK minimizedAffinity -9.01805496
REMARK  7 active torsions:
REMARK  status: ('A' for Active; 'I' for Inactive)
REMARK    1  A    between atoms: C4_4  and  C5_5 
REMARK    2  A    between atoms: C5_5  and  C6_6 
REMARK    3  A    between atoms: C6_6  and  C7_7 
REMARK    4  A    between atoms: C7_7  and  C9_9 
REMARK    5  A    between atoms: C22_22  and  O1_23 
REMARK    6  A    between atoms: C23_24  and  O2_25 
REMARK    7  A    between atoms: C24_26  and  O3_27 
ROOT
HETATM    1  C9  UNL     1       2.585   7.514  11.621  1.00  0.00    -0.002 C 
HETATM    2  C10 UNL     1       2.682   6.099  10.985  1.00  0.00     0.007 C 
HETATM    3  C11 UNL     1       1.312   5.414  11.134  1.00  0.00     0.015 C 
HETATM    4  C12 UNL     1       0.349   6.548  11.514  1.00  0.00    -0.013 C 
HETATM    5  C13 UNL     1      -0.071   7.256  10.188  1.00  0.00     0.021 C 
HETATM    6  C14 UNL     1      -0.961   6.197  12.209  1.00  0.00    -0.068 C 
HETATM    7  C15 UNL     1      -1.555   7.103  13.028  1.00  0.00    -0.065 C 
HETATM    8  C16 UNL     1      -0.886   8.441  13.353  1.00  0.00     0.036 C 
HETATM    9  C17 UNL     1       0.520   8.706  12.767  1.00  0.00     0.015 C 
HETATM   10  C18 UNL     1       1.272   7.402  12.467  1.00  0.00    -0.029 C 
HETATM   11  C19 UNL     1       1.586   6.681  13.817  1.00  0.00     0.016 C 
HETATM   12  C20 UNL     1      -2.913   6.813  13.720  1.00  0.00     0.012 C 
HETATM   13  C21 UNL     1      -2.558   6.320  15.150  1.00  0.00     0.023 C 
HETATM   14  C22 UNL     1      -3.827   8.076  13.839  1.00  0.00     0.162 C 
HETATM   15  C23 UNL     1      -5.185   7.753  14.479  1.00  0.00     0.177 C 
HETATM   16  C24 UNL     1      -5.930   6.655  13.713  1.00  0.00     0.153 C 
HETATM   17  C25 UNL     1      -5.087   5.377  13.534  1.00  0.00     0.018 C 
HETATM   18  C26 UNL     1      -5.876   4.360  12.693  1.00  0.00     0.013 C 
HETATM   19  C27 UNL     1      -3.706   5.724  12.904  1.00  0.00     0.007 C 
HETATM   20  C28 UNL     1      -2.825   4.492  12.668  1.00  0.00     0.010 C 
HETATM   21  C29 UNL     1      -1.569   4.854  11.878  1.00  0.00     0.036 C 
ENDROOT
BRANCH   1  22
HETATM   22  C7  UNL     1       3.914   7.967  12.304  1.00  0.00    -0.014 C 
HETATM   23  C8  UNL     1       4.019   9.498  12.391  1.00  0.00     0.010 C 
BRANCH  22  24
HETATM   24  C6  UNL     1       5.187   7.468  11.555  1.00  0.00     0.008 C 
BRANCH  24  25
HETATM   25  C5  UNL     1       6.225   6.752  12.425  1.00  0.00     0.028 C 
BRANCH  25  26
HETATM   26  C4  UNL     1       6.313   7.384  13.790  1.00  0.00    -0.025 C 
HETATM   27  C2  UNL     1       7.401   7.881  14.410  1.00  0.00    -0.091 C 
HETATM   28  C1  UNL     1       8.792   7.920  13.841  1.00  0.00     0.042 C 
HETATM   29  C3  UNL     1       7.289   8.461  15.797  1.00  0.00     0.042 C 
ENDBRANCH  25  26
ENDBRANCH  24  25
ENDBRANCH  22  24
ENDBRANCH   1  22
BRANCH  14  30
HETATM   30  O1  UNL     1      -4.070   8.657  12.546  1.00  0.00    -0.392 OA
HETATM   31  H35 UNL     1      -4.856   9.228  12.642  1.00  0.00     0.210 HD
ENDBRANCH  14  30
BRANCH  15  32
HETATM   32  O2  UNL     1      -6.007   8.940  14.466  1.00  0.00    -0.390 OA
HETATM   33  H37 UNL     1      -5.621   9.557  15.116  1.00  0.00     0.210 HD
ENDBRANCH  15  32
BRANCH  16  34
HETATM   34  O3  UNL     1      -7.128   6.348  14.440  1.00  0.00    -0.393 OA
HETATM   35  H39 UNL     1      -7.587   7.203  14.544  1.00  0.00     0.210 HD
ENDBRANCH  16  34
TORSDOF 7
ENDMDL
MODEL 5
REMARK minimizedAffinity -9.00390053
REMARK  7 active torsions:
REMARK  status: ('A' for Active; 'I' for Inactive)
REMARK    1  A    between atoms: C4_4  and  C5_5 
REMARK    2  A    between atoms: C5_5  and  C6_6 
REMARK    3  A    between atoms: C6_6  and  C7_7 
REMARK    4  A    between atoms: C7_7  and  C9_9 
REMARK    5  A    between atoms: C22_22  and  O1_23 
REMARK    6  A    between atoms: C23_24  and  O2_25 
REMARK    7  A    between atoms: C24_26  and  O3_27 
ROOT
HETATM    1  C9  UNL     1       0.910   6.365  13.204  1.00  0.00    -0.002 C 
HETATM    2  C10 UNL     1       1.188   7.105  14.543  1.00  0.00     0.007 C 
HETATM    3  C11 UNL     1      -0.160   7.341  15.246  1.00  0.00     0.015 C 
HETATM    4  C12 UNL     1      -1.150   6.431  14.506  1.00  0.00    -0.013 C 
HETATM    5  C13 UNL     1      -1.003   5.002  15.115  1.00  0.00     0.021 C 
HETATM    6  C14 UNL     1      -2.639   6.746  14.587  1.00  0.00    -0.068 C 
HETATM    7  C15 UNL     1      -3.466   6.368  13.578  1.00  0.00    -0.065 C 
HETATM    8  C16 UNL     1      -2.921   5.716  12.305  1.00  0.00     0.036 C 
HETATM    9  C17 UNL     1      -1.389   5.556  12.175  1.00  0.00     0.015 C 
HETATM   10  C18 UNL     1      -0.630   6.585  13.024  1.00  0.00    -0.029 C 
HETATM   11  C19 UNL     1      -0.884   8.009  12.434  1.00  0.00     0.016 C 
HETATM   12  C20 UNL     1      -4.995   6.621  13.637  1.00  0.00     0.012 C 
HETATM   13  C21 UNL     1      -5.234   7.929  12.832  1.00  0.00     0.023 C 
HETATM   14  C22 UNL     1      -5.836   5.474  12.987  1.00  0.00     0.162 C 
HETATM   15  C23 UNL     1      -7.347   5.723  13.103  1.00  0.00     0.177 C 
HETATM   16  C24 UNL     1      -7.784   5.913  14.559  1.00  0.00     0.153 C 
HETATM   17  C25 UNL     1      -6.987   7.017  15.280  1.00  0.00     0.018 C 
HETATM   18  C26 UNL     1      -7.432   7.090  16.750  1.00  0.00     0.013 C 
HETATM   19  C27 UNL     1      -5.457   6.763  15.136  1.00  0.00     0.007 C 
HETATM   20  C28 UNL     1      -4.601   7.809  15.858  1.00  0.00     0.010 C 
HETATM   21  C29 UNL     1      -3.125   7.415  15.851  1.00  0.00     0.036 C 
ENDROOT
BRANCH   1  22
HETATM   22  C7  UNL     1       1.893   6.781  12.064  1.00  0.00    -0.014 C 
HETATM   23  C8  UNL     1       1.587   8.189  11.531  1.00  0.00     0.010 C 
BRANCH  22  24
HETATM   24  C6  UNL     1       1.852   5.816  10.841  1.00  0.00     0.008 C 
BRANCH  24  25
HETATM   25  C5  UNL     1       2.986   5.992   9.824  1.00  0.00     0.028 C 
BRANCH  25  26
HETATM   26  C4  UNL     1       2.440   6.147   8.429  1.00  0.00    -0.025 C 
HETATM   27  C2  UNL     1       2.412   7.254   7.662  1.00  0.00    -0.091 C 
HETATM   28  C1  UNL     1       2.952   8.603   8.052  1.00  0.00     0.042 C 
HETATM   29  C3  UNL     1       1.800   7.213   6.285  1.00  0.00     0.042 C 
ENDBRANCH  25  26
ENDBRANCH  24  25
ENDBRANCH  22  24
ENDBRANCH   1  22
BRANCH  14  30
HETATM   30  O1  UNL     1      -5.542   4.210  13.606  1.00  0.00    -0.392 OA
HETATM   31  H35 UNL     1      -6.283   3.613  13.383  1.00  0.00     0.210 HD
ENDBRANCH  14  30
BRANCH  15  32
HETATM   32  O2  UNL     1      -8.055   4.582  12.572  1.00  0.00    -0.390 OA
HETATM   33  H37 UNL     1      -7.924   4.594  11.605  1.00  0.00     0.210 HD
ENDBRANCH  15  32
BRANCH  16  34
HETATM   34  O3  UNL     1      -9.180   6.244  14.559  1.00  0.00    -0.393 OA
HETATM   35  H39 UNL     1      -9.610   5.525  14.059  1.00  0.00     0.210 HD
ENDBRANCH  16  34
TORSDOF 7
ENDMDL
MODEL 6
REMARK minimizedAffinity -8.83420658
REMARK  7 active torsions:
REMARK  status: ('A' for Active; 'I' for Inactive)
REMARK    1  A    between atoms: C4_4  and  C5_5 
REMARK    2  A    between atoms: C5_5  and  C6_6 
REMARK    3  A    between atoms: C6_6  and  C7_7 
REMARK    4  A    between atoms: C7_7  and  C9_9 
REMARK    5  A    between atoms: C22_22  and  O1_23 
REMARK    6  A    between atoms: C23_24  and  O2_25 
REMARK    7  A    between atoms: C24_26  and  O3_27 
ROOT
HETATM    1  C9  UNL     1      -3.300   3.990  12.638  1.00  0.00    -0.002 C 
HETATM    2  C10 UNL     1      -2.842   4.048  11.153  1.00  0.00     0.007 C 
HETATM    3  C11 UNL     1      -1.679   5.050  11.053  1.00  0.00     0.015 C 
HETATM    4  C12 UNL     1      -1.238   5.282  12.505  1.00  0.00    -0.013 C 
HETATM    5  C13 UNL     1      -0.285   4.108  12.888  1.00  0.00     0.021 C 
HETATM    6  C14 UNL     1      -0.462   6.550  12.843  1.00  0.00    -0.068 C 
HETATM    7  C15 UNL     1      -0.530   7.070  14.096  1.00  0.00    -0.065 C 
HETATM    8  C16 UNL     1      -1.453   6.467  15.158  1.00  0.00     0.036 C 
HETATM    9  C17 UNL     1      -2.354   5.282  14.743  1.00  0.00     0.015 C 
HETATM   10  C18 UNL     1      -2.637   5.277  13.235  1.00  0.00    -0.029 C 
HETATM   11  C19 UNL     1      -3.513   6.522  12.883  1.00  0.00     0.016 C 
HETATM   12  C20 UNL     1       0.279   8.329  14.503  1.00  0.00     0.012 C 
HETATM   13  C21 UNL     1      -0.706   9.523  14.365  1.00  0.00     0.023 C 
HETATM   14  C22 UNL     1       0.799   8.278  15.977  1.00  0.00     0.162 C 
HETATM   15  C23 UNL     1       1.640   9.511  16.340  1.00  0.00     0.177 C 
HETATM   16  C24 UNL     1       2.826   9.693  15.387  1.00  0.00     0.153 C 
HETATM   17  C25 UNL     1       2.399   9.734  13.907  1.00  0.00     0.018 C 
HETATM   18  C26 UNL     1       3.650   9.840  13.019  1.00  0.00     0.013 C 
HETATM   19  C27 UNL     1       1.530   8.489  13.560  1.00  0.00     0.007 C 
HETATM   20  C28 UNL     1       1.095   8.448  12.090  1.00  0.00     0.010 C 
HETATM   21  C29 UNL     1       0.413   7.124  11.753  1.00  0.00     0.036 C 
ENDROOT
BRANCH   1  22
HETATM   22  C7  UNL     1      -4.838   3.766  12.791  1.00  0.00    -0.014 C 
HETATM   23  C8  UNL     1      -5.458   3.169  11.517  1.00  0.00     0.010 C 
BRANCH  22  24
HETATM   24  C6  UNL     1      -5.619   5.078  13.102  1.00  0.00     0.008 C 
BRANCH  24  25
HETATM   25  C5  UNL     1      -7.119   4.905  13.366  1.00  0.00     0.028 C 
BRANCH  25  26
HETATM   26  C4  UNL     1      -7.732   6.191  13.855  1.00  0.00    -0.025 C 
HETATM   27  C2  UNL     1      -7.704   6.709  15.099  1.00  0.00    -0.091 C 
HETATM   28  C1  UNL     1      -7.019   6.093  16.287  1.00  0.00     0.042 C 
HETATM   29  C3  UNL     1      -8.400   8.012  15.398  1.00  0.00     0.042 C 
ENDBRANCH  25  26
ENDBRANCH  24  25
ENDBRANCH  22  24
ENDBRANCH   1  22
BRANCH  14  30
HETATM   30  O1  UNL     1       1.605   7.108  16.196  1.00  0.00    -0.392 OA
HETATM   31  H35 UNL     1       2.129   7.279  17.002  1.00  0.00     0.210 HD
ENDBRANCH  14  30
BRANCH  15  32
HETATM   32  O2  UNL     1       2.164   9.349  17.676  1.00  0.00    -0.390 OA
HETATM   33  H37 UNL     1       1.409   9.434  18.287  1.00  0.00     0.210 HD
ENDBRANCH  15  32
BRANCH  16  34
HETATM   34  O3  UNL     1       3.485  10.919  15.736  1.00  0.00    -0.393 OA
HETATM   35  H39 UNL     1       3.691  10.834  16.686  1.00  0.00     0.210 HD
ENDBRANCH  16  34
TORSDOF 7
ENDMDL
MODEL 7
REMARK minimizedAffinity -8.81229591
REMARK  7 active torsions:
REMARK  status: ('A' for Active; 'I' for Inactive)
REMARK    1  A    between atoms: C4_4  and  C5_5 
REMARK    2  A    between atoms: C5_5  and  C6_6 
REMARK    3  A    between atoms: C6_6  and  C7_7 
REMARK    4  A    between atoms: C7_7  and  C9_9 
REMARK    5  A    between atoms: C22_22  and  O1_23 
REMARK    6  A    between atoms: C23_24  and  O2_25 
REMARK    7  A    between atoms: C24_26  and  O3_27 
ROOT
HETATM    1  C9  UNL     1      -3.231   4.747  12.935  1.00  0.00    -0.002 C 
HETATM    2  C10 UNL     1      -2.981   4.221  11.494  1.00  0.00     0.007 C 
HETATM    3  C11 UNL     1      -1.561   4.639  11.074  1.00  0.00     0.015 C 
HETATM    4  C12 UNL     1      -0.880   5.073  12.379  1.00  0.00    -0.013 C 
HETATM    5  C13 UNL     1      -0.365   3.778  13.081  1.00  0.00     0.021 C 
HETATM    6  C14 UNL     1       0.333   5.993  12.304  1.00  0.00    -0.068 C 
HETATM    7  C15 UNL     1       0.619   6.821  13.342  1.00  0.00    -0.065 C 
HETATM    8  C16 UNL     1      -0.309   6.926  14.555  1.00  0.00     0.036 C 
HETATM    9  C17 UNL     1      -1.619   6.106  14.534  1.00  0.00     0.015 C 
HETATM   10  C18 UNL     1      -2.081   5.797  13.103  1.00  0.00    -0.029 C 
HETATM   11  C19 UNL     1      -2.495   7.134  12.409  1.00  0.00     0.016 C 
HETATM   12  C20 UNL     1       1.870   7.739  13.335  1.00  0.00     0.012 C 
HETATM   13  C21 UNL     1       1.364   9.130  12.861  1.00  0.00     0.023 C 
HETATM   14  C22 UNL     1       2.526   7.899  14.745  1.00  0.00     0.162 C 
HETATM   15  C23 UNL     1       3.790   8.770  14.703  1.00  0.00     0.177 C 
HETATM   16  C24 UNL     1       4.828   8.222  13.717  1.00  0.00     0.153 C 
HETATM   17  C25 UNL     1       4.253   8.016  12.302  1.00  0.00     0.018 C 
HETATM   18  C26 UNL     1       5.332   7.395  11.400  1.00  0.00     0.013 C 
HETATM   19  C27 UNL     1       2.961   7.149  12.364  1.00  0.00     0.007 C 
HETATM   20  C28 UNL     1       2.351   6.877  10.984  1.00  0.00     0.010 C 
HETATM   21  C29 UNL     1       1.204   5.872  11.076  1.00  0.00     0.036 C 
ENDROOT
BRANCH   1  22
HETATM   22  C7  UNL     1      -4.713   5.173  13.178  1.00  0.00    -0.014 C 
HETATM   23  C8  UNL     1      -4.900   5.830  14.555  1.00  0.00     0.010 C 
BRANCH  22  24
HETATM   24  C6  UNL     1      -5.711   3.978  13.108  1.00  0.00     0.008 C 
BRANCH  24  25
HETATM   25  C5  UNL     1      -6.966   4.216  12.259  1.00  0.00     0.028 C 
BRANCH  25  26
HETATM   26  C4  UNL     1      -7.993   5.007  13.026  1.00  0.00    -0.025 C 
HETATM   27  C2  UNL     1      -8.945   5.829  12.542  1.00  0.00    -0.091 C 
HETATM   28  C1  UNL     1      -9.191   6.121  11.087  1.00  0.00     0.042 C 
HETATM   29  C3  UNL     1      -9.876   6.553  13.480  1.00  0.00     0.042 C 
ENDBRANCH  25  26
ENDBRANCH  24  25
ENDBRANCH  22  24
ENDBRANCH   1  22
BRANCH  14  30
HETATM   30  O1  UNL     1       2.884   6.618  15.292  1.00  0.00    -0.392 OA
HETATM   31  H35 UNL     1       3.536   6.791  15.999  1.00  0.00     0.210 HD
ENDBRANCH  14  30
BRANCH  15  32
HETATM   32  O2  UNL     1       4.392   8.792  16.015  1.00  0.00    -0.390 OA
HETATM   33  H37 UNL     1       3.804   9.320  16.586  1.00  0.00     0.210 HD
ENDBRANCH  15  32
BRANCH  16  34
HETATM   34  O3  UNL     1       5.919   9.152  13.667  1.00  0.00    -0.393 OA
HETATM   35  H39 UNL     1       6.204   9.258  14.594  1.00  0.00     0.210 HD
ENDBRANCH  16  34
TORSDOF 7
ENDMDL
MODEL 8
REMARK minimizedAffinity -8.58431339
REMARK  7 active torsions:
REMARK  status: ('A' for Active; 'I' for Inactive)
REMARK    1  A    between atoms: C4_4  and  C5_5 
REMARK    2  A    between atoms: C5_5  and  C6_6 
REMARK    3  A    between atoms: C6_6  and  C7_7 
REMARK    4  A    between atoms: C7_7  and  C9_9 
REMARK    5  A    between atoms: C22_22  and  O1_23 
REMARK    6  A    between atoms: C23_24  and  O2_25 
REMARK    7  A    between atoms: C24_26  and  O3_27 
ROOT
HETATM    1  C9  UNL     1      -1.907   6.780  13.043  1.00  0.00    -0.002 C 
HETATM    2  C10 UNL     1      -1.920   5.910  11.755  1.00  0.00     0.007 C 
HETATM    3  C11 UNL     1      -0.470   5.772  11.259  1.00  0.00     0.015 C 
HETATM    4  C12 UNL     1       0.392   6.241  12.440  1.00  0.00    -0.013 C 
HETATM    5  C13 UNL     1       0.535   5.029  13.412  1.00  0.00     0.021 C 
HETATM    6  C14 UNL     1       1.819   6.704  12.169  1.00  0.00    -0.068 C 
HETATM    7  C15 UNL     1       2.406   7.603  13.001  1.00  0.00    -0.065 C 
HETATM    8  C16 UNL     1       1.632   8.243  14.156  1.00  0.00     0.036 C 
HETATM    9  C17 UNL     1       0.137   7.881  14.310  1.00  0.00     0.015 C 
HETATM   10  C18 UNL     1      -0.486   7.435  12.981  1.00  0.00    -0.029 C 
HETATM   11  C19 UNL     1      -0.521   8.656  12.007  1.00  0.00     0.016 C 
HETATM   12  C20 UNL     1       3.872   8.068  12.797  1.00  0.00     0.012 C 
HETATM   13  C21 UNL     1       3.781   9.414  12.026  1.00  0.00     0.023 C 
HETATM   14  C22 UNL     1       4.635   8.311  14.140  1.00  0.00     0.162 C 
HETATM   15  C23 UNL     1       6.097   8.721  13.913  1.00  0.00     0.177 C 
HETATM   16  C24 UNL     1       6.856   7.685  13.076  1.00  0.00     0.153 C 
HETATM   17  C25 UNL     1       6.157   7.372  11.739  1.00  0.00     0.018 C 
HETATM   18  C26 UNL     1       6.939   6.273  11.001  1.00  0.00     0.013 C 
HETATM   19  C27 UNL     1       4.670   6.980  11.985  1.00  0.00     0.007 C 
HETATM   20  C28 UNL     1       3.920   6.624  10.696  1.00  0.00     0.010 C 
HETATM   21  C29 UNL     1       2.532   6.064  11.002  1.00  0.00     0.036 C 
ENDROOT
BRANCH   1  22
HETATM   22  C7  UNL     1      -3.174   7.683  13.180  1.00  0.00    -0.014 C 
HETATM   23  C8  UNL     1      -3.146   8.514  14.473  1.00  0.00     0.010 C 
BRANCH  22  24
HETATM   24  C6  UNL     1      -4.505   6.872  13.192  1.00  0.00     0.008 C 
BRANCH  24  25
HETATM   25  C5  UNL     1      -4.418   5.474  13.815  1.00  0.00     0.028 C 
BRANCH  25  26
HETATM   26  C4  UNL     1      -5.296   4.499  13.074  1.00  0.00    -0.025 C 
HETATM   27  C2  UNL     1      -6.589   4.199  13.305  1.00  0.00    -0.091 C 
HETATM   28  C1  UNL     1      -7.451   4.807  14.377  1.00  0.00     0.042 C 
HETATM   29  C3  UNL     1      -7.296   3.171  12.459  1.00  0.00     0.042 C 
ENDBRANCH  25  26
ENDBRANCH  24  25
ENDBRANCH  22  24
ENDBRANCH   1  22
BRANCH  14  30
HETATM   30  O1  UNL     1       4.624   7.129  14.958  1.00  0.00    -0.392 OA
HETATM   31  H35 UNL     1       5.341   7.237  15.612  1.00  0.00     0.210 HD
ENDBRANCH  14  30
BRANCH  15  32
HETATM   32  O2  UNL     1       6.760   8.833  15.190  1.00  0.00    -0.390 OA
HETATM   33  H37 UNL     1       6.396   9.625  15.629  1.00  0.00     0.210 HD
ENDBRANCH  15  32
BRANCH  16  34
HETATM   34  O3  UNL     1       8.172   8.201  12.827  1.00  0.00    -0.393 OA
HETATM   35  H39 UNL     1       8.534   8.407  13.710  1.00  0.00     0.210 HD
ENDBRANCH  16  34
TORSDOF 7
ENDMDL
MODEL 9
REMARK minimizedAffinity -8.5723753
REMARK  7 active torsions:
REMARK  status: ('A' for Active; 'I' for Inactive)
REMARK    1  A    between atoms: C4_4  and  C5_5 
REMARK    2  A    between atoms: C5_5  and  C6_6 
REMARK    3  A    between atoms: C6_6  and  C7_7 
REMARK    4  A    between atoms: C7_7  and  C9_9 
REMARK    5  A    between atoms: C22_22  and  O1_23 
REMARK    6  A    between atoms: C23_24  and  O2_25 
REMARK    7  A    between atoms: C24_26  and  O3_27 
ROOT
HETATM    1  C9  UNL     1      -4.760   8.914  14.625  1.00  0.00    -0.002 C 
HETATM    2  C10 UNL     1      -4.502   9.313  16.105  1.00  0.00     0.007 C 
HETATM    3  C11 UNL     1      -2.987   9.237  16.362  1.00  0.00     0.015 C 
HETATM    4  C12 UNL     1      -2.358   9.156  14.964  1.00  0.00    -0.013 C 
HETATM    5  C13 UNL     1      -2.262  10.614  14.419  1.00  0.00     0.021 C 
HETATM    6  C14 UNL     1      -0.951   8.586  14.824  1.00  0.00    -0.068 C 
HETATM    7  C15 UNL     1      -0.575   7.992  13.662  1.00  0.00    -0.065 C 
HETATM    8  C16 UNL     1      -1.568   7.790  12.514  1.00  0.00     0.036 C 
HETATM    9  C17 UNL     1      -3.033   8.228  12.742  1.00  0.00     0.015 C 
HETATM   10  C18 UNL     1      -3.406   8.232  14.231  1.00  0.00    -0.029 C 
HETATM   11  C19 UNL     1      -3.396   6.761  14.756  1.00  0.00     0.016 C 
HETATM   12  C20 UNL     1       0.860   7.442  13.452  1.00  0.00     0.012 C 
HETATM   13  C21 UNL     1       0.773   5.920  13.758  1.00  0.00     0.023 C 
HETATM   14  C22 UNL     1       1.385   7.629  11.991  1.00  0.00     0.162 C 
HETATM   15  C23 UNL     1       2.825   7.123  11.821  1.00  0.00     0.177 C 
HETATM   16  C24 UNL     1       3.788   7.804  12.800  1.00  0.00     0.153 C 
HETATM   17  C25 UNL     1       3.330   7.682  14.266  1.00  0.00     0.018 C 
HETATM   18  C26 UNL     1       4.305   8.454  15.170  1.00  0.00     0.013 C 
HETATM   19  C27 UNL     1       1.862   8.178  14.418  1.00  0.00     0.007 C 
HETATM   20  C28 UNL     1       1.350   8.115  15.862  1.00  0.00     0.010 C 
HETATM   21  C29 UNL     1      -0.016   8.786  15.994  1.00  0.00     0.036 C 
ENDROOT
BRANCH   1  22
HETATM   22  C7  UNL     1      -6.104   8.145  14.428  1.00  0.00    -0.014 C 
HETATM   23  C8  UNL     1      -7.273   8.847  15.138  1.00  0.00     0.010 C 
BRANCH  22  24
HETATM   24  C6  UNL     1      -6.058   6.684  14.969  1.00  0.00     0.008 C 
BRANCH  24  25
HETATM   25  C5  UNL     1      -6.947   5.678  14.229  1.00  0.00     0.028 C 
BRANCH  25  26
HETATM   26  C4  UNL     1      -6.160   4.933  13.183  1.00  0.00    -0.025 C 
HETATM   27  C2  UNL     1      -6.394   3.704  12.682  1.00  0.00    -0.091 C 
HETATM   28  C1  UNL     1      -7.535   2.803  13.069  1.00  0.00     0.042 C 
HETATM   29  C3  UNL     1      -5.473   3.116  11.643  1.00  0.00     0.042 C 
ENDBRANCH  25  26
ENDBRANCH  24  25
ENDBRANCH  22  24
ENDBRANCH   1  22
BRANCH  14  30
HETATM   30  O1  UNL     1       1.350   9.014  11.607  1.00  0.00    -0.392 OA
HETATM   31  H35 UNL     1       1.947   9.104  10.840  1.00  0.00     0.210 HD
ENDBRANCH  14  30
BRANCH  15  32
HETATM   32  O2  UNL     1       3.274   7.416  10.481  1.00  0.00    -0.390 OA
HETATM   33  H37 UNL     1       2.781   6.823   9.883  1.00  0.00     0.210 HD
ENDBRANCH  15  32
BRANCH  16  34
HETATM   34  O3  UNL     1       5.077   7.195  12.642  1.00  0.00    -0.393 OA
HETATM   35  H39 UNL     1       5.282   7.279  11.692  1.00  0.00     0.210 HD
ENDBRANCH  16  34
TORSDOF 7
ENDMDL
