MODEL 1
REMARK minimizedAffinity -8.70306778
REMARK CNNscore 0.227027416
REMARK CNNaffinity 6.99866247
REMARK  9 active torsions:
REMARK  status: ('A' for Active; 'I' for Inactive)
REMARK    1  A    between atoms: C13_13  and  S1_14 
REMARK    2  A    between atoms: C22_26  and  C23_27 
REMARK    3  A    between atoms: C23_27  and  O4_28 
REMARK    4  A    between atoms: C29_34  and  O5_35 
REMARK    5  A    between atoms: C41_48  and  C42_49 
REMARK    6  A    between atoms: C41_48  and  N1_53 
REMARK    7  A    between atoms: C42_49  and  C43_50 
REMARK    8  A    between atoms: C43_50  and  C44_51 
REMARK    9  A    between atoms: C44_51  and  O7_52 
REMARK       I    between atoms: C45_55  and  N2_56 
REMARK       I    between atoms: C45_55  and  N3_57 
ROOT
HETATM    1  C1  UNL     1     -20.666  43.544 -19.124  1.00  0.00     0.010 C 
HETATM    2  C2  UNL     1     -19.923  42.915 -20.313  1.00  0.00    -0.010 C 
HETATM    3  C3  UNL     1     -18.891  41.872 -19.838  1.00  0.00     0.009 C 
HETATM    4  C4  UNL     1     -17.490  42.414 -19.504  1.00  0.00     0.039 C 
HETATM    5  C5  UNL     1     -17.327  43.906 -19.608  1.00  0.00    -0.049 C 
HETATM    6  C6  UNL     1     -16.304  44.554 -18.892  1.00  0.00     0.044 C 
HETATM    7  C7  UNL     1     -16.161  45.944 -18.948  1.00  0.00     0.072 C 
HETATM    8  C8  UNL     1     -17.133  46.695 -19.596  1.00  0.00     0.037 C 
HETATM    9  C9  UNL     1     -18.113  46.057 -20.358  1.00  0.00     0.011 C 
HETATM   10  C10 UNL     1     -18.184  44.662 -20.422  1.00  0.00    -0.047 C 
HETATM   11  C11 UNL     1     -19.271  43.992 -21.238  1.00  0.00     0.024 C 
HETATM   12  C12 UNL     1     -18.799  43.305 -22.552  1.00  0.00     0.033 C 
HETATM   13  C13 UNL     1     -18.400  44.104 -23.831  1.00  0.00     0.139 C 
HETATM   14  C14 UNL     1     -16.861  44.100 -24.139  1.00  0.00     0.038 C 
HETATM   15  C15 UNL     1     -16.568  43.047 -25.226  1.00  0.00    -0.014 C 
HETATM   16  C16 UNL     1     -16.160  43.388 -26.468  1.00  0.00    -0.050 C 
HETATM   17  C17 UNL     1     -16.043  44.844 -26.806  1.00  0.00     0.042 C 
HETATM   18  C18 UNL     1     -15.162  45.415 -25.699  1.00  0.00     0.001 C 
HETATM   19  C19 UNL     1     -13.797  44.641 -25.564  1.00  0.00     0.037 C 
HETATM   20  C20 UNL     1     -13.344  43.778 -26.783  1.00  0.00     0.123 C 
HETATM   21  C21 UNL     1     -11.835  43.451 -26.672  1.00  0.00     0.039 C 
HETATM   22  C22 UNL     1     -11.218  42.815 -27.959  1.00  0.00     0.023 C 
HETATM   23  C24 UNL     1     -11.114  41.271 -27.914  1.00  0.00     0.101 C 
HETATM   24  C25 UNL     1     -12.416  40.614 -28.072  1.00  0.00    -0.101 C 
HETATM   25  C26 UNL     1     -13.556  40.237 -28.103  1.00  0.00    -0.066 C 
HETATM   26  C27 UNL     1     -14.972  40.024 -28.004  1.00  0.00     0.029 A 
HETATM   27  C28 UNL     1     -15.475  38.752 -28.306  1.00  0.00     0.057 A 
HETATM   28  C29 UNL     1     -16.844  38.522 -28.263  1.00  0.00     0.067 A 
HETATM   29  C30 UNL     1     -17.727  39.540 -27.927  1.00  0.00     0.037 A 
HETATM   30  C31 UNL     1     -17.228  40.809 -27.623  1.00  0.00     0.014 A 
HETATM   31  C32 UNL     1     -15.843  41.076 -27.626  1.00  0.00    -0.006 A 
HETATM   32  C33 UNL     1     -15.342  42.504 -27.375  1.00  0.00     0.185 C 
HETATM   33  O6  UNL     1     -14.032  42.518 -26.778  1.00  0.00    -0.371 OA
HETATM   34  C34 UNL     1     -16.068  45.450 -24.412  1.00  0.00     0.030 C 
HETATM   35  C35 UNL     1     -15.308  45.991 -23.204  1.00  0.00    -0.050 C 
HETATM   36  C36 UNL     1     -14.527  45.180 -22.374  1.00  0.00     0.133 A 
HETATM   37  C37 UNL     1     -14.027  45.667 -21.166  1.00  0.00     0.138 A 
HETATM   38  C38 UNL     1     -14.317  46.977 -20.738  1.00  0.00    -0.000 C 
HETATM   39  C39 UNL     1     -14.934  47.838 -21.659  1.00  0.00     0.010 C 
HETATM   40  C40 UNL     1     -15.439  47.343 -22.867  1.00  0.00     0.006 C 
HETATM   41  C41 UNL     1     -14.149  47.318 -19.228  1.00  0.00     0.169 C 
HETATM   42  O8  UNL     1     -15.034  46.488 -18.378  1.00  0.00    -0.316 OA
HETATM   43 NA1  UNL     1     -15.394  44.321 -23.003  1.00  0.00    -0.401 Na
ATOM     44  HA1 UNL     1     -15.985  43.737 -23.595  1.00  0.00     0.154 HD
ENDROOT
BRANCH  41  45
HETATM   45  C42 UNL     1     -14.484  48.809 -18.886  1.00  0.00     0.069 C 
BRANCH  45  46
HETATM   46  C43 UNL     1     -15.372  49.059 -17.654  1.00  0.00     0.031 C 
BRANCH  46  47
HETATM   47  C44 UNL     1     -16.189  50.345 -17.646  1.00  0.00     0.164 C 
BRANCH  47  48
HETATM   48  O7  UNL     1     -15.870  51.153 -16.521  1.00  0.00    -0.401 OA
HETATM   49  H48 UNL     1     -16.273  50.688 -15.758  1.00  0.00     0.209 HD
ENDBRANCH  47  48
ENDBRANCH  46  47
ENDBRANCH  45  46
ENDBRANCH  41  45
BRANCH  41  50
HETATM   50  N1  UNL     1     -12.687  47.206 -18.951  1.00  0.00    -0.336 N 
HETATM   51  C45 UNL     1     -12.227  46.968 -17.783  1.00  0.00     0.124 C 
HETATM   52  N2  UNL     1     -12.867  46.891 -16.597  1.00  0.00    -0.279 NA
HETATM   53  N3  UNL     1     -10.892  46.823 -17.628  1.00  0.00    -0.279 NA
HETATM   54  H49 UNL     1     -13.875  46.979 -16.692  1.00  0.00     0.126 HD
HETATM   55  H50 UNL     1     -12.614  46.116 -16.002  1.00  0.00     0.126 HD
HETATM   56  H51 UNL     1     -10.588  46.185 -16.910  1.00  0.00     0.126 HD
HETATM   57  H52 UNL     1     -10.418  46.679 -18.512  1.00  0.00     0.126 HD
ATOM     58  H1  UNL     1     -12.030  47.325 -19.722  1.00  0.00     0.165 HD
ENDBRANCH  41  50
BRANCH  13  59
HETATM   59  S1  UNL     1     -19.372  45.551 -24.190  1.00  0.00     0.106 S 
HETATM   60  O1  UNL     1     -19.149  45.777 -25.616  1.00  0.00    -0.595 OA
HETATM   61  O2  UNL     1     -18.847  46.599 -23.324  1.00  0.00    -0.595 OA
HETATM   62  O3  UNL     1     -20.735  45.126 -23.871  1.00  0.00    -0.595 OA
ENDBRANCH  13  59
BRANCH  22  63
HETATM   63  C23 UNL     1      -9.802  43.379 -28.184  1.00  0.00     0.169 C 
BRANCH  63  64
HETATM   64  O4  UNL     1      -9.873  44.757 -28.537  1.00  0.00    -0.400 OA
HETATM   65  H29 UNL     1      -8.960  45.081 -28.601  1.00  0.00     0.209 HD
ENDBRANCH  63  64
ENDBRANCH  22  63
BRANCH  28  66
HETATM   66  O5  UNL     1     -17.293  37.272 -28.579  1.00  0.00    -0.361 OA
HETATM   67  H33 UNL     1     -18.262  37.277 -28.530  1.00  0.00     0.217 HD
ENDBRANCH  28  66
TORSDOF 9
ENDMDL
MODEL 2
REMARK minimizedAffinity -8.44556713
REMARK CNNscore 0.204929262
REMARK CNNaffinity 6.61019373
REMARK  9 active torsions:
REMARK  status: ('A' for Active; 'I' for Inactive)
REMARK    1  A    between atoms: C13_13  and  S1_14 
REMARK    2  A    between atoms: C22_26  and  C23_27 
REMARK    3  A    between atoms: C23_27  and  O4_28 
REMARK    4  A    between atoms: C29_34  and  O5_35 
REMARK    5  A    between atoms: C41_48  and  C42_49 
REMARK    6  A    between atoms: C41_48  and  N1_53 
REMARK    7  A    between atoms: C42_49  and  C43_50 
REMARK    8  A    between atoms: C43_50  and  C44_51 
REMARK    9  A    between atoms: C44_51  and  O7_52 
REMARK       I    between atoms: C45_55  and  N2_56 
REMARK       I    between atoms: C45_55  and  N3_57 
ROOT
HETATM    1  C1  UNL     1     -21.543  41.221 -24.779  1.00  0.00     0.010 C 
HETATM    2  C2  UNL     1     -20.170  41.754 -25.215  1.00  0.00    -0.010 C 
HETATM    3  C3  UNL     1     -19.093  40.652 -25.136  1.00  0.00     0.009 C 
HETATM    4  C4  UNL     1     -18.382  40.500 -23.780  1.00  0.00     0.039 C 
HETATM    5  C5  UNL     1     -18.884  41.393 -22.678  1.00  0.00    -0.049 C 
HETATM    6  C6  UNL     1     -18.681  41.034 -21.333  1.00  0.00     0.044 C 
HETATM    7  C7  UNL     1     -19.173  41.833 -20.297  1.00  0.00     0.072 C 
HETATM    8  C8  UNL     1     -19.997  42.907 -20.608  1.00  0.00     0.037 C 
HETATM    9  C9  UNL     1     -20.150  43.304 -21.937  1.00  0.00     0.011 C 
HETATM   10  C10 UNL     1     -19.550  42.591 -22.978  1.00  0.00    -0.047 C 
HETATM   11  C11 UNL     1     -19.750  43.029 -24.416  1.00  0.00     0.024 C 
HETATM   12  C12 UNL     1     -18.508  43.666 -25.104  1.00  0.00     0.033 C 
HETATM   13  C13 UNL     1     -18.009  45.110 -24.785  1.00  0.00     0.139 C 
HETATM   14  C14 UNL     1     -16.671  45.164 -23.968  1.00  0.00     0.038 C 
HETATM   15  C15 UNL     1     -15.502  45.435 -24.935  1.00  0.00    -0.014 C 
HETATM   16  C16 UNL     1     -14.805  46.592 -24.919  1.00  0.00    -0.050 C 
HETATM   17  C17 UNL     1     -15.227  47.664 -23.957  1.00  0.00     0.042 C 
HETATM   18  C18 UNL     1     -15.268  46.959 -22.605  1.00  0.00     0.001 C 
HETATM   19  C19 UNL     1     -13.906  46.243 -22.264  1.00  0.00     0.037 C 
HETATM   20  C20 UNL     1     -12.641  46.707 -23.052  1.00  0.00     0.123 C 
HETATM   21  C21 UNL     1     -11.359  46.241 -22.320  1.00  0.00     0.039 C 
HETATM   22  C22 UNL     1     -10.038  46.866 -22.875  1.00  0.00     0.023 C 
HETATM   23  C24 UNL     1      -9.279  45.959 -23.872  1.00  0.00     0.101 C 
HETATM   24  C25 UNL     1      -9.935  45.890 -25.183  1.00  0.00    -0.101 C 
HETATM   25  C26 UNL     1     -10.644  45.852 -26.151  1.00  0.00    -0.066 C 
HETATM   26  C27 UNL     1     -11.699  45.833 -27.124  1.00  0.00     0.029 A 
HETATM   27  C28 UNL     1     -11.390  45.440 -28.432  1.00  0.00     0.057 A 
HETATM   28  C29 UNL     1     -12.377  45.452 -29.410  1.00  0.00     0.067 A 
HETATM   29  C30 UNL     1     -13.672  45.853 -29.109  1.00  0.00     0.037 A 
HETATM   30  C31 UNL     1     -13.984  46.245 -27.804  1.00  0.00     0.014 A 
HETATM   31  C32 UNL     1     -13.018  46.219 -26.776  1.00  0.00    -0.006 A 
HETATM   32  C33 UNL     1     -13.378  46.741 -25.380  1.00  0.00     0.185 C 
HETATM   33  O6  UNL     1     -12.613  46.091 -24.348  1.00  0.00    -0.371 OA
HETATM   34  C34 UNL     1     -16.543  46.036 -22.646  1.00  0.00     0.030 C 
HETATM   35  C35 UNL     1     -16.708  45.247 -21.351  1.00  0.00    -0.050 C 
HETATM   36  C36 UNL     1     -16.085  44.015 -21.129  1.00  0.00     0.133 A 
HETATM   37  C37 UNL     1     -16.429  43.229 -20.028  1.00  0.00     0.138 A 
HETATM   38  C38 UNL     1     -17.430  43.642 -19.129  1.00  0.00    -0.000 C 
HETATM   39  C39 UNL     1     -17.909  44.956 -19.251  1.00  0.00     0.010 C 
HETATM   40  C40 UNL     1     -17.565  45.738 -20.358  1.00  0.00     0.006 C 
HETATM   41  C41 UNL     1     -18.098  42.569 -18.219  1.00  0.00     0.169 C 
HETATM   42  O8  UNL     1     -18.779  41.523 -19.016  1.00  0.00    -0.316 OA
HETATM   43 NA1  UNL     1     -16.107  44.165 -22.493  1.00  0.00    -0.401 Na
ATOM     44  HA1 UNL     1     -16.053  44.403 -23.484  1.00  0.00     0.154 HD
ENDROOT
BRANCH  41  45
HETATM   45  C42 UNL     1     -19.179  43.159 -17.252  1.00  0.00     0.069 C 
BRANCH  45  46
HETATM   46  C43 UNL     1     -20.396  42.269 -16.940  1.00  0.00     0.031 C 
BRANCH  46  47
HETATM   47  C44 UNL     1     -21.740  42.724 -17.492  1.00  0.00     0.164 C 
BRANCH  47  48
HETATM   48  O7  UNL     1     -21.789  44.138 -17.632  1.00  0.00    -0.401 OA
HETATM   49  H48 UNL     1     -21.857  44.477 -16.714  1.00  0.00     0.209 HD
ENDBRANCH  47  48
ENDBRANCH  46  47
ENDBRANCH  45  46
ENDBRANCH  41  45
BRANCH  41  50
HETATM   50  N1  UNL     1     -17.020  42.092 -17.303  1.00  0.00    -0.336 N 
HETATM   51  C45 UNL     1     -16.921  40.871 -16.939  1.00  0.00     0.124 C 
HETATM   52  N2  UNL     1     -17.749  39.829 -17.161  1.00  0.00    -0.279 NA
HETATM   53  N3  UNL     1     -15.880  40.511 -16.155  1.00  0.00    -0.279 NA
HETATM   54  H49 UNL     1     -18.530  40.073 -17.765  1.00  0.00     0.126 HD
HETATM   55  H50 UNL     1     -17.312  38.964 -17.446  1.00  0.00     0.126 HD
HETATM   56  H51 UNL     1     -15.523  39.577 -16.281  1.00  0.00     0.126 HD
HETATM   57  H52 UNL     1     -15.151  41.214 -16.140  1.00  0.00     0.126 HD
ATOM     58  H1  UNL     1     -16.339  42.766 -16.954  1.00  0.00     0.165 HD
ENDBRANCH  41  50
BRANCH  13  59
HETATM   59  S1  UNL     1     -19.271  46.333 -24.502  1.00  0.00     0.106 S 
HETATM   60  O1  UNL     1     -19.576  46.197 -23.080  1.00  0.00    -0.595 OA
HETATM   61  O2  UNL     1     -20.369  45.975 -25.391  1.00  0.00    -0.595 OA
HETATM   62  O3  UNL     1     -18.602  47.589 -24.839  1.00  0.00    -0.595 OA
ENDBRANCH  13  59
BRANCH  22  63
HETATM   63  C23 UNL     1      -9.087  47.183 -21.704  1.00  0.00     0.169 C 
BRANCH  63  64
HETATM   64  O4  UNL     1      -8.318  48.345 -21.998  1.00  0.00    -0.400 OA
HETATM   65  H29 UNL     1      -7.788  48.542 -21.208  1.00  0.00     0.209 HD
ENDBRANCH  63  64
ENDBRANCH  22  63
BRANCH  28  66
HETATM   66  O5  UNL     1     -12.029  45.074 -30.675  1.00  0.00    -0.361 OA
HETATM   67  H33 UNL     1     -12.812  45.161 -31.241  1.00  0.00     0.217 HD
ENDBRANCH  28  66
TORSDOF 9
ENDMDL
MODEL 3
REMARK minimizedAffinity -7.53498602
REMARK CNNscore 0.203248173
REMARK CNNaffinity 6.78582764
REMARK  9 active torsions:
REMARK  status: ('A' for Active; 'I' for Inactive)
REMARK    1  A    between atoms: C13_13  and  S1_14 
REMARK    2  A    between atoms: C22_26  and  C23_27 
REMARK    3  A    between atoms: C23_27  and  O4_28 
REMARK    4  A    between atoms: C29_34  and  O5_35 
REMARK    5  A    between atoms: C41_48  and  C42_49 
REMARK    6  A    between atoms: C41_48  and  N1_53 
REMARK    7  A    between atoms: C42_49  and  C43_50 
REMARK    8  A    between atoms: C43_50  and  C44_51 
REMARK    9  A    between atoms: C44_51  and  O7_52 
REMARK       I    between atoms: C45_55  and  N2_56 
REMARK       I    between atoms: C45_55  and  N3_57 
ROOT
HETATM    1  C1  UNL     1       9.612  65.057 -14.257  1.00  0.00     0.010 C 
HETATM    2  C2  UNL     1       8.765  65.218 -12.985  1.00  0.00    -0.010 C 
HETATM    3  C3  UNL     1       7.611  64.196 -12.949  1.00  0.00     0.009 C 
HETATM    4  C4  UNL     1       6.304  64.630 -13.635  1.00  0.00     0.039 C 
HETATM    5  C5  UNL     1       6.343  65.967 -14.324  1.00  0.00    -0.049 C 
HETATM    6  C6  UNL     1       5.433  66.252 -15.358  1.00  0.00     0.044 C 
HETATM    7  C7  UNL     1       5.480  67.475 -16.035  1.00  0.00     0.072 C 
HETATM    8  C8  UNL     1       6.530  68.346 -15.779  1.00  0.00     0.037 C 
HETATM    9  C9  UNL     1       7.398  68.097 -14.714  1.00  0.00     0.011 C 
HETATM   10  C10 UNL     1       7.278  66.940 -13.940  1.00  0.00    -0.047 C 
HETATM   11  C11 UNL     1       8.246  66.681 -12.803  1.00  0.00     0.024 C 
HETATM   12  C12 UNL     1       7.657  66.829 -11.370  1.00  0.00     0.033 C 
HETATM   13  C13 UNL     1       7.343  68.214 -10.722  1.00  0.00     0.139 C 
HETATM   14  C14 UNL     1       5.812  68.532 -10.593  1.00  0.00     0.038 C 
HETATM   15  C15 UNL     1       5.355  68.234  -9.151  1.00  0.00    -0.014 C 
HETATM   16  C16 UNL     1       4.971  69.210  -8.300  1.00  0.00    -0.050 C 
HETATM   17  C17 UNL     1       5.046  70.633  -8.768  1.00  0.00     0.042 C 
HETATM   18  C18 UNL     1       4.275  70.636 -10.084  1.00  0.00     0.001 C 
HETATM   19  C19 UNL     1       2.820  70.053  -9.924  1.00  0.00     0.037 C 
HETATM   20  C20 UNL     1       2.228  70.001  -8.480  1.00  0.00     0.123 C 
HETATM   21  C21 UNL     1       0.691  69.824  -8.542  1.00  0.00     0.039 C 
HETATM   22  C22 UNL     1      -0.034  70.018  -7.170  1.00  0.00     0.023 C 
HETATM   23  C24 UNL     1      -0.345  68.697  -6.428  1.00  0.00     0.101 C 
HETATM   24  C25 UNL     1       0.852  68.084  -5.842  1.00  0.00    -0.101 C 
HETATM   25  C26 UNL     1       1.929  67.660  -5.521  1.00  0.00    -0.066 C 
HETATM   26  C27 UNL     1       3.304  67.279  -5.371  1.00  0.00     0.029 A 
HETATM   27  C28 UNL     1       3.624  66.304  -4.418  1.00  0.00     0.057 A 
HETATM   28  C29 UNL     1       4.949  65.942  -4.215  1.00  0.00     0.067 A 
HETATM   29  C30 UNL     1       5.969  66.538  -4.946  1.00  0.00     0.037 A 
HETATM   30  C31 UNL     1       5.654  67.510  -5.899  1.00  0.00     0.014 A 
HETATM   31  C32 UNL     1       4.318  67.884  -6.156  1.00  0.00    -0.006 A 
HETATM   32  C33 UNL     1       4.021  69.017  -7.146  1.00  0.00     0.185 C 
HETATM   33  O6  UNL     1       2.739  68.857  -7.779  1.00  0.00    -0.371 OA
HETATM   34  C34 UNL     1       5.204  69.902 -11.121  1.00  0.00     0.030 C 
HETATM   35  C35 UNL     1       4.551  69.814 -12.497  1.00  0.00    -0.050 C 
HETATM   36  C36 UNL     1       3.685  68.778 -12.861  1.00  0.00     0.133 A 
HETATM   37  C37 UNL     1       3.280  68.616 -14.187  1.00  0.00     0.138 A 
HETATM   38  C38 UNL     1       3.755  69.474 -15.197  1.00  0.00    -0.000 C 
HETATM   39  C39 UNL     1       4.463  70.618 -14.796  1.00  0.00     0.010 C 
HETATM   40  C40 UNL     1       4.871  70.772 -13.466  1.00  0.00     0.006 C 
HETATM   41  C41 UNL     1       3.667  68.997 -16.677  1.00  0.00     0.169 C 
HETATM   42  O8  UNL     1       4.449  67.759 -16.899  1.00  0.00    -0.316 OA
HETATM   43 NA1  UNL     1       4.413  68.284 -11.807  1.00  0.00    -0.401 Na
ATOM     44  HA1 UNL     1       4.906  68.034 -10.950  1.00  0.00     0.154 HD
ENDROOT
BRANCH  41  45
HETATM   45  C42 UNL     1       4.209  70.050 -17.702  1.00  0.00     0.069 C 
BRANCH  45  46
HETATM   46  C43 UNL     1       4.658  69.518 -19.075  1.00  0.00     0.031 C 
BRANCH  46  47
HETATM   47  C44 UNL     1       3.635  69.574 -20.202  1.00  0.00     0.164 C 
BRANCH  47  48
HETATM   48  O7  UNL     1       3.708  68.416 -21.024  1.00  0.00    -0.401 OA
HETATM   49  H48 UNL     1       4.536  68.528 -21.538  1.00  0.00     0.209 HD
ENDBRANCH  47  48
ENDBRANCH  46  47
ENDBRANCH  45  46
ENDBRANCH  41  45
BRANCH  41  50
HETATM   50  N1  UNL     1       2.209  68.913 -16.986  1.00  0.00    -0.336 N 
HETATM   51  C45 UNL     1       1.480  69.952 -17.134  1.00  0.00     0.124 C 
HETATM   52  N2  UNL     1       1.776  71.255 -16.944  1.00  0.00    -0.279 NA
HETATM   53  N3  UNL     1       0.181  69.790 -17.472  1.00  0.00    -0.279 NA
HETATM   54  H49 UNL     1       2.754  71.402 -16.707  1.00  0.00     0.126 HD
HETATM   55  H50 UNL     1       1.465  71.893 -17.662  1.00  0.00     0.126 HD
HETATM   56  H51 UNL     1      -0.228  70.509 -18.048  1.00  0.00     0.126 HD
HETATM   57  H52 UNL     1      -0.012  68.854 -17.810  1.00  0.00     0.126 HD
ATOM     58  H1  UNL     1       1.779  67.994 -17.082  1.00  0.00     0.165 HD
ENDBRANCH  41  50
BRANCH  13  59
HETATM   59  S1  UNL     1       8.495  69.524 -11.070  1.00  0.00     0.106 S 
HETATM   60  O1  UNL     1       8.309  70.456  -9.960  1.00  0.00    -0.595 OA
HETATM   61  O2  UNL     1       8.106  70.052 -12.371  1.00  0.00    -0.595 OA
HETATM   62  O3  UNL     1       9.790  68.846 -11.053  1.00  0.00    -0.595 OA
ENDBRANCH  13  59
BRANCH  22  63
HETATM   63  C23 UNL     1      -1.364  70.762  -7.392  1.00  0.00     0.169 C 
BRANCH  63  64
HETATM   64  O4  UNL     1      -2.351  69.866  -7.893  1.00  0.00    -0.400 OA
HETATM   65  H29 UNL     1      -3.183  70.363  -7.951  1.00  0.00     0.209 HD
ENDBRANCH  63  64
ENDBRANCH  22  63
BRANCH  28  66
HETATM   66  O5  UNL     1       5.217  64.999  -3.266  1.00  0.00    -0.361 OA
HETATM   67  H33 UNL     1       6.179  64.876  -3.225  1.00  0.00     0.217 HD
ENDBRANCH  28  66
TORSDOF 9
ENDMDL
MODEL 4
REMARK minimizedAffinity -8.0148716
REMARK CNNscore 0.154982507
REMARK CNNaffinity 5.83326292
REMARK  9 active torsions:
REMARK  status: ('A' for Active; 'I' for Inactive)
REMARK    1  A    between atoms: C13_13  and  S1_14 
REMARK    2  A    between atoms: C22_26  and  C23_27 
REMARK    3  A    between atoms: C23_27  and  O4_28 
REMARK    4  A    between atoms: C29_34  and  O5_35 
REMARK    5  A    between atoms: C41_48  and  C42_49 
REMARK    6  A    between atoms: C41_48  and  N1_53 
REMARK    7  A    between atoms: C42_49  and  C43_50 
REMARK    8  A    between atoms: C43_50  and  C44_51 
REMARK    9  A    between atoms: C44_51  and  O7_52 
REMARK       I    between atoms: C45_55  and  N2_56 
REMARK       I    between atoms: C45_55  and  N3_57 
ROOT
HETATM    1  C1  UNL     1      -9.630  43.764 -20.576  1.00  0.00     0.010 C 
HETATM    2  C2  UNL     1     -11.033  43.337 -21.032  1.00  0.00    -0.010 C 
HETATM    3  C3  UNL     1     -10.998  41.967 -21.740  1.00  0.00     0.009 C 
HETATM    4  C4  UNL     1     -10.731  41.997 -23.255  1.00  0.00     0.039 C 
HETATM    5  C5  UNL     1     -10.461  43.356 -23.841  1.00  0.00    -0.049 C 
HETATM    6  C6  UNL     1      -9.748  43.473 -25.049  1.00  0.00     0.044 C 
HETATM    7  C7  UNL     1      -9.456  44.729 -25.588  1.00  0.00     0.072 C 
HETATM    8  C8  UNL     1      -9.742  45.865 -24.843  1.00  0.00     0.037 C 
HETATM    9  C9  UNL     1     -10.502  45.759 -23.677  1.00  0.00     0.011 C 
HETATM   10  C10 UNL     1     -10.919  44.515 -23.197  1.00  0.00    -0.047 C 
HETATM   11  C11 UNL     1     -11.724  44.424 -21.916  1.00  0.00     0.024 C 
HETATM   12  C12 UNL     1     -13.225  44.051 -22.089  1.00  0.00     0.033 C 
HETATM   13  C13 UNL     1     -14.291  45.054 -22.630  1.00  0.00     0.139 C 
HETATM   14  C14 UNL     1     -14.800  44.734 -24.080  1.00  0.00     0.038 C 
HETATM   15  C15 UNL     1     -16.155  44.006 -23.988  1.00  0.00    -0.014 C 
HETATM   16  C16 UNL     1     -17.308  44.573 -24.405  1.00  0.00    -0.050 C 
HETATM   17  C17 UNL     1     -17.263  45.979 -24.923  1.00  0.00     0.042 C 
HETATM   18  C18 UNL     1     -16.179  45.949 -25.996  1.00  0.00     0.001 C 
HETATM   19  C19 UNL     1     -16.443  44.837 -27.080  1.00  0.00     0.037 C 
HETATM   20  C20 UNL     1     -17.897  44.280 -27.188  1.00  0.00     0.123 C 
HETATM   21  C21 UNL     1     -18.086  43.548 -28.539  1.00  0.00     0.039 C 
HETATM   22  C22 UNL     1     -19.568  43.175 -28.868  1.00  0.00     0.023 C 
HETATM   23  C24 UNL     1     -19.946  41.716 -28.518  1.00  0.00     0.101 C 
HETATM   24  C25 UNL     1     -20.088  41.502 -27.073  1.00  0.00    -0.101 C 
HETATM   25  C26 UNL     1     -20.059  41.465 -25.873  1.00  0.00    -0.066 C 
HETATM   26  C27 UNL     1     -19.825  41.615 -24.465  1.00  0.00     0.029 A 
HETATM   27  C28 UNL     1     -20.378  40.667 -23.595  1.00  0.00     0.057 A 
HETATM   28  C29 UNL     1     -20.208  40.804 -22.223  1.00  0.00     0.067 A 
HETATM   29  C30 UNL     1     -19.496  41.875 -21.698  1.00  0.00     0.037 A 
HETATM   30  C31 UNL     1     -18.941  42.822 -22.564  1.00  0.00     0.014 A 
HETATM   31  C32 UNL     1     -19.066  42.702 -23.964  1.00  0.00    -0.006 A 
HETATM   32  C33 UNL     1     -18.520  43.809 -24.874  1.00  0.00     0.185 C 
HETATM   33  O6  UNL     1     -18.128  43.301 -26.163  1.00  0.00    -0.371 OA
HETATM   34  C34 UNL     1     -14.815  45.845 -25.216  1.00  0.00     0.030 C 
HETATM   35  C35 UNL     1     -13.625  45.788 -26.169  1.00  0.00    -0.050 C 
HETATM   36  C36 UNL     1     -13.154  44.595 -26.725  1.00  0.00     0.133 A 
HETATM   37  C37 UNL     1     -11.942  44.557 -27.416  1.00  0.00     0.138 A 
HETATM   38  C38 UNL     1     -11.149  45.713 -27.547  1.00  0.00    -0.000 C 
HETATM   39  C39 UNL     1     -11.716  46.937 -27.157  1.00  0.00     0.010 C 
HETATM   40  C40 UNL     1     -12.929  46.968 -26.460  1.00  0.00     0.006 C 
HETATM   41  C41 UNL     1      -9.640  45.541 -27.895  1.00  0.00     0.169 C 
HETATM   42  O8  UNL     1      -8.925  44.764 -26.857  1.00  0.00    -0.316 OA
HETATM   43 NA1  UNL     1     -13.860  44.217 -25.610  1.00  0.00    -0.401 Na
ATOM     44  HA1 UNL     1     -14.497  44.009 -24.841  1.00  0.00     0.154 HD
ENDROOT
BRANCH  41  45
HETATM   45  C42 UNL     1      -8.875  46.901 -28.032  1.00  0.00     0.069 C 
BRANCH  45  46
HETATM   46  C43 UNL     1      -9.594  48.161 -27.515  1.00  0.00     0.031 C 
BRANCH  46  47
HETATM   47  C44 UNL     1      -8.928  48.910 -26.369  1.00  0.00     0.164 C 
BRANCH  47  48
HETATM   48  O7  UNL     1      -9.644  50.094 -26.042  1.00  0.00    -0.401 OA
HETATM   49  H48 UNL     1      -9.458  50.711 -26.781  1.00  0.00     0.209 HD
ENDBRANCH  47  48
ENDBRANCH  46  47
ENDBRANCH  45  46
ENDBRANCH  41  45
BRANCH  41  50
HETATM   50  N1  UNL     1      -9.609  44.972 -29.274  1.00  0.00    -0.336 N 
HETATM   51  C45 UNL     1      -8.644  44.245 -29.693  1.00  0.00     0.124 C 
HETATM   52  N2  UNL     1      -7.468  43.941 -29.106  1.00  0.00    -0.279 NA
HETATM   53  N3  UNL     1      -8.721  43.719 -30.936  1.00  0.00    -0.279 NA
HETATM   54  H49 UNL     1      -7.396  44.312 -28.161  1.00  0.00     0.126 HD
HETATM   55  H50 UNL     1      -7.184  42.974 -29.150  1.00  0.00     0.126 HD
HETATM   56  H51 UNL     1      -8.285  42.821 -31.073  1.00  0.00     0.126 HD
HETATM   57  H52 UNL     1      -9.660  43.764 -31.313  1.00  0.00     0.126 HD
ATOM     58  H1  UNL     1     -10.384  45.170 -29.906  1.00  0.00     0.165 HD
ENDBRANCH  41  50
BRANCH  13  59
HETATM   59  S1  UNL     1     -14.118  46.745 -22.105  1.00  0.00     0.106 S 
HETATM   60  O1  UNL     1     -13.697  46.637 -20.710  1.00  0.00    -0.595 OA
HETATM   61  O2  UNL     1     -15.430  47.350 -22.294  1.00  0.00    -0.595 OA
HETATM   62  O3  UNL     1     -13.077  47.267 -22.990  1.00  0.00    -0.595 OA
ENDBRANCH  13  59
BRANCH  22  63
HETATM   63  C23 UNL     1     -19.831  43.386 -30.371  1.00  0.00     0.169 C 
BRANCH  63  64
HETATM   64  O4  UNL     1     -18.919  44.342 -30.900  1.00  0.00    -0.400 OA
HETATM   65  H29 UNL     1     -19.078  44.389 -31.857  1.00  0.00     0.209 HD
ENDBRANCH  63  64
ENDBRANCH  22  63
BRANCH  28  66
HETATM   66  O5  UNL     1     -20.776  39.866 -21.411  1.00  0.00    -0.361 OA
HETATM   67  H33 UNL     1     -20.593  40.113 -20.490  1.00  0.00     0.217 HD
ENDBRANCH  28  66
TORSDOF 9
ENDMDL
MODEL 5
REMARK minimizedAffinity -8.59268475
REMARK CNNscore 0.153005645
REMARK CNNaffinity 5.70285416
REMARK  9 active torsions:
REMARK  status: ('A' for Active; 'I' for Inactive)
REMARK    1  A    between atoms: C13_13  and  S1_14 
REMARK    2  A    between atoms: C22_26  and  C23_27 
REMARK    3  A    between atoms: C23_27  and  O4_28 
REMARK    4  A    between atoms: C29_34  and  O5_35 
REMARK    5  A    between atoms: C41_48  and  C42_49 
REMARK    6  A    between atoms: C41_48  and  N1_53 
REMARK    7  A    between atoms: C42_49  and  C43_50 
REMARK    8  A    between atoms: C43_50  and  C44_51 
REMARK    9  A    between atoms: C44_51  and  O7_52 
REMARK       I    between atoms: C45_55  and  N2_56 
REMARK       I    between atoms: C45_55  and  N3_57 
ROOT
HETATM    1  C1  UNL     1      -9.754  44.290 -21.803  1.00  0.00     0.010 C 
HETATM    2  C2  UNL     1     -11.187  43.787 -22.033  1.00  0.00    -0.010 C 
HETATM    3  C3  UNL     1     -11.191  42.372 -22.648  1.00  0.00     0.009 C 
HETATM    4  C4  UNL     1     -11.133  42.305 -24.184  1.00  0.00     0.039 C 
HETATM    5  C5  UNL     1     -11.000  43.627 -24.889  1.00  0.00    -0.049 C 
HETATM    6  C6  UNL     1     -10.463  43.681 -26.189  1.00  0.00     0.044 C 
HETATM    7  C7  UNL     1     -10.297  44.905 -26.844  1.00  0.00     0.072 C 
HETATM    8  C8  UNL     1     -10.527  46.081 -26.143  1.00  0.00     0.037 C 
HETATM    9  C9  UNL     1     -11.117  46.033 -24.879  1.00  0.00     0.011 C 
HETATM   10  C10 UNL     1     -11.415  44.813 -24.265  1.00  0.00    -0.047 C 
HETATM   11  C11 UNL     1     -12.035  44.787 -22.883  1.00  0.00     0.024 C 
HETATM   12  C12 UNL     1     -13.529  44.355 -22.823  1.00  0.00     0.033 C 
HETATM   13  C13 UNL     1     -14.699  45.283 -23.277  1.00  0.00     0.139 C 
HETATM   14  C14 UNL     1     -15.385  44.846 -24.619  1.00  0.00     0.038 C 
HETATM   15  C15 UNL     1     -16.684  44.083 -24.294  1.00  0.00    -0.014 C 
HETATM   16  C16 UNL     1     -17.906  44.583 -24.585  1.00  0.00    -0.050 C 
HETATM   17  C17 UNL     1     -17.989  45.950 -25.196  1.00  0.00     0.042 C 
HETATM   18  C18 UNL     1     -17.058  45.879 -26.402  1.00  0.00     0.001 C 
HETATM   19  C19 UNL     1     -17.420  44.685 -27.365  1.00  0.00     0.037 C 
HETATM   20  C20 UNL     1     -18.852  44.076 -27.236  1.00  0.00     0.123 C 
HETATM   21  C21 UNL     1     -19.191  43.245 -28.498  1.00  0.00     0.039 C 
HETATM   22  C22 UNL     1     -20.688  42.803 -28.594  1.00  0.00     0.023 C 
HETATM   23  C24 UNL     1     -20.954  41.361 -28.101  1.00  0.00     0.101 C 
HETATM   24  C25 UNL     1     -20.892  41.245 -26.639  1.00  0.00    -0.101 C 
HETATM   25  C26 UNL     1     -20.699  41.293 -25.455  1.00  0.00    -0.066 C 
HETATM   26  C27 UNL     1     -20.283  41.549 -24.106  1.00  0.00     0.029 A 
HETATM   27  C28 UNL     1     -20.674  40.647 -23.107  1.00  0.00     0.057 A 
HETATM   28  C29 UNL     1     -20.327  40.886 -21.784  1.00  0.00     0.067 A 
HETATM   29  C30 UNL     1     -19.595  42.013 -21.433  1.00  0.00     0.037 A 
HETATM   30  C31 UNL     1     -19.201  42.914 -22.426  1.00  0.00     0.014 A 
HETATM   31  C32 UNL     1     -19.509  42.692 -23.785  1.00  0.00    -0.006 A 
HETATM   32  C33 UNL     1     -19.137  43.749 -24.833  1.00  0.00     0.185 C 
HETATM   33  O6  UNL     1     -18.902  43.165 -26.127  1.00  0.00    -0.371 OA
HETATM   34  C34 UNL     1     -15.599  45.873 -25.812  1.00  0.00     0.030 C 
HETATM   35  C35 UNL     1     -14.547  45.788 -26.914  1.00  0.00    -0.050 C 
HETATM   36  C36 UNL     1     -14.107  44.573 -27.451  1.00  0.00     0.133 A 
HETATM   37  C37 UNL     1     -12.999  44.526 -28.297  1.00  0.00     0.138 A 
HETATM   38  C38 UNL     1     -12.279  45.695 -28.611  1.00  0.00    -0.000 C 
HETATM   39  C39 UNL     1     -12.838  46.924 -28.228  1.00  0.00     0.010 C 
HETATM   40  C40 UNL     1     -13.946  46.965 -27.375  1.00  0.00     0.006 C 
HETATM   41  C41 UNL     1     -10.825  45.547 -29.151  1.00  0.00     0.169 C 
HETATM   42  O8  UNL     1      -9.945  44.868 -28.173  1.00  0.00    -0.316 OA
HETATM   43 NA1  UNL     1     -14.640  44.253 -26.227  1.00  0.00    -0.401 Na
ATOM     44  HA1 UNL     1     -15.158  44.079 -25.365  1.00  0.00     0.154 HD
ENDROOT
BRANCH  41  45
HETATM   45  C42 UNL     1     -10.142  46.917 -29.481  1.00  0.00     0.069 C 
BRANCH  45  46
HETATM   46  C43 UNL     1      -8.606  46.970 -29.393  1.00  0.00     0.031 C 
BRANCH  46  47
HETATM   47  C44 UNL     1      -8.006  48.019 -28.467  1.00  0.00     0.164 C 
BRANCH  47  48
HETATM   48  O7  UNL     1      -8.695  49.258 -28.576  1.00  0.00    -0.401 OA
HETATM   49  H48 UNL     1      -8.421  49.620 -29.446  1.00  0.00     0.209 HD
ENDBRANCH  47  48
ENDBRANCH  46  47
ENDBRANCH  45  46
ENDBRANCH  41  45
BRANCH  41  50
HETATM   50  N1  UNL     1     -10.956  44.883 -30.482  1.00  0.00    -0.336 N 
HETATM   51  C45 UNL     1     -11.299  45.522 -31.534  1.00  0.00     0.124 C 
HETATM   52  N2  UNL     1     -11.713  46.798 -31.680  1.00  0.00    -0.279 NA
HETATM   53  N3  UNL     1     -11.336  44.859 -32.712  1.00  0.00    -0.279 NA
HETATM   54  H49 UNL     1     -11.676  47.321 -30.809  1.00  0.00     0.126 HD
HETATM   55  H50 UNL     1     -11.306  47.316 -32.444  1.00  0.00     0.126 HD
HETATM   56  H51 UNL     1     -11.110  45.392 -33.537  1.00  0.00     0.126 HD
HETATM   57  H52 UNL     1     -10.848  43.972 -32.667  1.00  0.00     0.126 HD
ATOM     58  H1  UNL     1     -10.765  43.884 -30.554  1.00  0.00     0.165 HD
ENDBRANCH  41  50
BRANCH  13  59
HETATM   59  S1  UNL     1     -14.526  47.012 -22.892  1.00  0.00     0.106 S 
HETATM   60  O1  UNL     1     -13.087  47.188 -22.713  1.00  0.00    -0.595 OA
HETATM   61  O2  UNL     1     -15.314  47.224 -21.685  1.00  0.00    -0.595 OA
HETATM   62  O3  UNL     1     -15.053  47.675 -24.085  1.00  0.00    -0.595 OA
ENDBRANCH  13  59
BRANCH  22  63
HETATM   63  C23 UNL     1     -21.160  42.899 -30.057  1.00  0.00     0.169 C 
BRANCH  63  64
HETATM   64  O4  UNL     1     -20.117  43.418 -30.876  1.00  0.00    -0.400 OA
HETATM   65  H29 UNL     1     -20.437  43.395 -31.793  1.00  0.00     0.209 HD
ENDBRANCH  63  64
ENDBRANCH  22  63
BRANCH  28  66
HETATM   66  O5  UNL     1     -20.741  39.990 -20.842  1.00  0.00    -0.361 OA
HETATM   67  H33 UNL     1     -20.445  40.307 -19.973  1.00  0.00     0.217 HD
ENDBRANCH  28  66
TORSDOF 9
ENDMDL
MODEL 6
REMARK minimizedAffinity -8.59485722
REMARK CNNscore 0.152564213
REMARK CNNaffinity 5.7761898
REMARK  9 active torsions:
REMARK  status: ('A' for Active; 'I' for Inactive)
REMARK    1  A    between atoms: C13_13  and  S1_14 
REMARK    2  A    between atoms: C22_26  and  C23_27 
REMARK    3  A    between atoms: C23_27  and  O4_28 
REMARK    4  A    between atoms: C29_34  and  O5_35 
REMARK    5  A    between atoms: C41_48  and  C42_49 
REMARK    6  A    between atoms: C41_48  and  N1_53 
REMARK    7  A    between atoms: C42_49  and  C43_50 
REMARK    8  A    between atoms: C43_50  and  C44_51 
REMARK    9  A    between atoms: C44_51  and  O7_52 
REMARK       I    between atoms: C45_55  and  N2_56 
REMARK       I    between atoms: C45_55  and  N3_57 
ROOT
HETATM    1  C1  UNL     1      -7.595  43.709 -22.959  1.00  0.00     0.010 C 
HETATM    2  C2  UNL     1      -9.062  43.279 -23.110  1.00  0.00    -0.010 C 
HETATM    3  C3  UNL     1      -9.176  41.927 -23.845  1.00  0.00     0.009 C 
HETATM    4  C4  UNL     1      -9.245  41.998 -25.380  1.00  0.00     0.039 C 
HETATM    5  C5  UNL     1      -9.114  43.374 -25.975  1.00  0.00    -0.049 C 
HETATM    6  C6  UNL     1      -8.681  43.528 -27.305  1.00  0.00     0.044 C 
HETATM    7  C7  UNL     1      -8.518  44.800 -27.862  1.00  0.00     0.072 C 
HETATM    8  C8  UNL     1      -8.640  45.914 -27.043  1.00  0.00     0.037 C 
HETATM    9  C9  UNL     1      -9.128  45.772 -25.743  1.00  0.00     0.011 C 
HETATM   10  C10 UNL     1      -9.426  44.512 -25.216  1.00  0.00    -0.047 C 
HETATM   11  C11 UNL     1      -9.933  44.382 -23.794  1.00  0.00     0.024 C 
HETATM   12  C12 UNL     1     -11.434  43.999 -23.647  1.00  0.00     0.033 C 
HETATM   13  C13 UNL     1     -12.596  45.004 -23.917  1.00  0.00     0.139 C 
HETATM   14  C14 UNL     1     -13.407  44.715 -25.229  1.00  0.00     0.038 C 
HETATM   15  C15 UNL     1     -14.707  43.972 -24.864  1.00  0.00    -0.014 C 
HETATM   16  C16 UNL     1     -15.925  44.539 -25.005  1.00  0.00    -0.050 C 
HETATM   17  C17 UNL     1     -16.000  45.958 -25.484  1.00  0.00     0.042 C 
HETATM   18  C18 UNL     1     -15.174  45.965 -26.767  1.00  0.00     0.001 C 
HETATM   19  C19 UNL     1     -15.663  44.877 -27.797  1.00  0.00     0.037 C 
HETATM   20  C20 UNL     1     -17.104  44.309 -27.601  1.00  0.00     0.123 C 
HETATM   21  C21 UNL     1     -17.579  43.609 -28.898  1.00  0.00     0.039 C 
HETATM   22  C22 UNL     1     -19.096  43.231 -28.906  1.00  0.00     0.023 C 
HETATM   23  C24 UNL     1     -19.383  41.760 -28.521  1.00  0.00     0.101 C 
HETATM   24  C25 UNL     1     -19.207  41.509 -27.086  1.00  0.00    -0.101 C 
HETATM   25  C26 UNL     1     -18.917  41.442 -25.923  1.00  0.00    -0.066 C 
HETATM   26  C27 UNL     1     -18.382  41.559 -24.596  1.00  0.00     0.029 A 
HETATM   27  C28 UNL     1     -18.729  40.584 -23.652  1.00  0.00     0.057 A 
HETATM   28  C29 UNL     1     -18.266  40.689 -22.347  1.00  0.00     0.067 A 
HETATM   29  C30 UNL     1     -17.461  41.753 -21.961  1.00  0.00     0.037 A 
HETATM   30  C31 UNL     1     -17.111  42.726 -22.901  1.00  0.00     0.014 A 
HETATM   31  C32 UNL     1     -17.538  42.640 -24.243  1.00  0.00    -0.006 A 
HETATM   32  C33 UNL     1     -17.206  43.775 -25.221  1.00  0.00     0.185 C 
HETATM   33  O6  UNL     1     -17.102  43.303 -26.577  1.00  0.00    -0.371 OA
HETATM   34  C34 UNL     1     -13.673  45.854 -26.305  1.00  0.00     0.030 C 
HETATM   35  C35 UNL     1     -12.719  45.833 -27.495  1.00  0.00    -0.050 C 
HETATM   36  C36 UNL     1     -12.375  44.658 -28.172  1.00  0.00     0.133 A 
HETATM   37  C37 UNL     1     -11.342  44.650 -29.110  1.00  0.00     0.138 A 
HETATM   38  C38 UNL     1     -10.601  45.816 -29.379  1.00  0.00    -0.000 C 
HETATM   39  C39 UNL     1     -11.075  47.024 -28.843  1.00  0.00     0.010 C 
HETATM   40  C40 UNL     1     -12.107  47.026 -27.899  1.00  0.00     0.006 C 
HETATM   41  C41 UNL     1      -9.203  45.668 -30.051  1.00  0.00     0.169 C 
HETATM   42  O8  UNL     1      -8.277  44.872 -29.214  1.00  0.00    -0.316 OA
HETATM   43 NA1  UNL     1     -12.820  44.246 -26.940  1.00  0.00    -0.401 Na
ATOM     44  HA1 UNL     1     -13.274  44.013 -26.057  1.00  0.00     0.154 HD
ENDROOT
BRANCH  41  45
HETATM   45  C42 UNL     1      -8.492  47.038 -30.315  1.00  0.00     0.069 C 
BRANCH  45  46
HETATM   46  C43 UNL     1      -9.390  48.227 -30.701  1.00  0.00     0.031 C 
BRANCH  46  47
HETATM   47  C44 UNL     1      -8.689  49.484 -31.197  1.00  0.00     0.164 C 
BRANCH  47  48
HETATM   48  O7  UNL     1      -8.873  50.568 -30.296  1.00  0.00    -0.401 OA
HETATM   49  H48 UNL     1      -9.809  50.835 -30.414  1.00  0.00     0.209 HD
ENDBRANCH  47  48
ENDBRANCH  46  47
ENDBRANCH  45  46
ENDBRANCH  41  45
BRANCH  41  50
HETATM   50  N1  UNL     1      -9.470  45.133 -31.419  1.00  0.00    -0.336 N 
HETATM   51  C45 UNL     1     -10.419  45.573 -32.153  1.00  0.00     0.124 C 
HETATM   52  N2  UNL     1     -11.404  46.451 -31.866  1.00  0.00    -0.279 NA
HETATM   53  N3  UNL     1     -10.556  45.077 -33.403  1.00  0.00    -0.279 NA
HETATM   54  H49 UNL     1     -11.310  46.851 -30.935  1.00  0.00     0.126 HD
HETATM   55  H50 UNL     1     -11.587  47.159 -32.560  1.00  0.00     0.126 HD
HETATM   56  H51 UNL     1     -10.914  45.709 -34.102  1.00  0.00     0.126 HD
HETATM   57  H52 UNL     1      -9.729  44.577 -33.708  1.00  0.00     0.126 HD
ATOM     58  H1  UNL     1      -8.873  44.391 -31.782  1.00  0.00     0.165 HD
ENDBRANCH  41  50
BRANCH  13  59
HETATM   59  S1  UNL     1     -12.320  46.683 -23.397  1.00  0.00     0.106 S 
HETATM   60  O1  UNL     1     -11.599  47.282 -24.518  1.00  0.00    -0.595 OA
HETATM   61  O2  UNL     1     -11.548  46.589 -22.165  1.00  0.00    -0.595 OA
HETATM   62  O3  UNL     1     -13.674  47.209 -23.225  1.00  0.00    -0.595 OA
ENDBRANCH  13  59
BRANCH  22  63
HETATM   63  C23 UNL     1     -19.680  43.476 -30.310  1.00  0.00     0.169 C 
BRANCH  63  64
HETATM   64  O4  UNL     1     -18.860  44.390 -31.031  1.00  0.00    -0.400 OA
HETATM   65  H29 UNL     1     -19.229  44.459 -31.927  1.00  0.00     0.209 HD
ENDBRANCH  63  64
ENDBRANCH  22  63
BRANCH  28  66
HETATM   66  O5  UNL     1     -18.640  39.725 -21.455  1.00  0.00    -0.361 OA
HETATM   67  H33 UNL     1     -18.262  39.951 -20.590  1.00  0.00     0.217 HD
ENDBRANCH  28  66
TORSDOF 9
ENDMDL
MODEL 7
REMARK minimizedAffinity -8.82476997
REMARK CNNscore 0.13733983
REMARK CNNaffinity 6.48524714
REMARK  9 active torsions:
REMARK  status: ('A' for Active; 'I' for Inactive)
REMARK    1  A    between atoms: C13_13  and  S1_14 
REMARK    2  A    between atoms: C22_26  and  C23_27 
REMARK    3  A    between atoms: C23_27  and  O4_28 
REMARK    4  A    between atoms: C29_34  and  O5_35 
REMARK    5  A    between atoms: C41_48  and  C42_49 
REMARK    6  A    between atoms: C41_48  and  N1_53 
REMARK    7  A    between atoms: C42_49  and  C43_50 
REMARK    8  A    between atoms: C43_50  and  C44_51 
REMARK    9  A    between atoms: C44_51  and  O7_52 
REMARK       I    between atoms: C45_55  and  N2_56 
REMARK       I    between atoms: C45_55  and  N3_57 
ROOT
HETATM    1  C1  UNL     1     -11.742  44.081 -27.433  1.00  0.00     0.010 C 
HETATM    2  C2  UNL     1     -12.322  43.885 -26.024  1.00  0.00    -0.010 C 
HETATM    3  C3  UNL     1     -12.434  42.388 -25.669  1.00  0.00     0.009 C 
HETATM    4  C4  UNL     1     -13.741  41.692 -26.088  1.00  0.00     0.039 C 
HETATM    5  C5  UNL     1     -14.712  42.542 -26.862  1.00  0.00    -0.049 C 
HETATM    6  C6  UNL     1     -15.670  41.935 -27.695  1.00  0.00     0.044 C 
HETATM    7  C7  UNL     1     -16.556  42.711 -28.449  1.00  0.00     0.072 C 
HETATM    8  C8  UNL     1     -16.382  44.088 -28.486  1.00  0.00     0.037 C 
HETATM    9  C9  UNL     1     -15.476  44.698 -27.617  1.00  0.00     0.011 C 
HETATM   10  C10 UNL     1     -14.677  43.941 -26.756  1.00  0.00    -0.047 C 
HETATM   11  C11 UNL     1     -13.685  44.625 -25.838  1.00  0.00     0.024 C 
HETATM   12  C12 UNL     1     -14.055  44.623 -24.326  1.00  0.00     0.033 C 
HETATM   13  C13 UNL     1     -15.168  45.537 -23.724  1.00  0.00     0.139 C 
HETATM   14  C14 UNL     1     -16.467  44.770 -23.293  1.00  0.00     0.038 C 
HETATM   15  C15 UNL     1     -16.432  44.537 -21.769  1.00  0.00    -0.014 C 
HETATM   16  C16 UNL     1     -17.291  45.151 -20.926  1.00  0.00    -0.050 C 
HETATM   17  C17 UNL     1     -18.272  46.131 -21.497  1.00  0.00     0.042 C 
HETATM   18  C18 UNL     1     -18.966  45.358 -22.615  1.00  0.00     0.001 C 
HETATM   19  C19 UNL     1     -19.583  44.000 -22.107  1.00  0.00     0.037 C 
HETATM   20  C20 UNL     1     -19.815  43.855 -20.570  1.00  0.00     0.123 C 
HETATM   21  C21 UNL     1     -20.797  42.691 -20.288  1.00  0.00     0.039 C 
HETATM   22  C22 UNL     1     -21.301  42.618 -18.810  1.00  0.00     0.023 C 
HETATM   23  C24 UNL     1     -20.530  41.608 -17.928  1.00  0.00     0.101 C 
HETATM   24  C25 UNL     1     -19.188  42.083 -17.570  1.00  0.00    -0.101 C 
HETATM   25  C26 UNL     1     -18.091  42.560 -17.458  1.00  0.00    -0.066 C 
HETATM   26  C27 UNL     1     -16.830  43.233 -17.580  1.00  0.00     0.029 A 
HETATM   27  C28 UNL     1     -15.825  42.935 -16.652  1.00  0.00     0.057 A 
HETATM   28  C29 UNL     1     -14.607  43.599 -16.712  1.00  0.00     0.067 A 
HETATM   29  C30 UNL     1     -14.369  44.562 -17.685  1.00  0.00     0.037 A 
HETATM   30  C31 UNL     1     -15.369  44.861 -18.614  1.00  0.00     0.014 A 
HETATM   31  C32 UNL     1     -16.609  44.188 -18.604  1.00  0.00    -0.006 A 
HETATM   32  C33 UNL     1     -17.711  44.608 -19.585  1.00  0.00     0.185 C 
HETATM   33  O6  UNL     1     -18.584  43.512 -19.916  1.00  0.00    -0.371 OA
HETATM   34  C34 UNL     1     -17.906  45.244 -23.773  1.00  0.00     0.030 C 
HETATM   35  C35 UNL     1     -18.458  44.472 -24.967  1.00  0.00    -0.050 C 
HETATM   36  C36 UNL     1     -18.398  43.079 -25.063  1.00  0.00     0.133 A 
HETATM   37  C37 UNL     1     -18.717  42.430 -26.258  1.00  0.00     0.138 A 
HETATM   38  C38 UNL     1     -19.081  43.163 -27.403  1.00  0.00    -0.000 C 
HETATM   39  C39 UNL     1     -19.324  44.536 -27.245  1.00  0.00     0.010 C 
HETATM   40  C40 UNL     1     -18.997  45.182 -26.047  1.00  0.00     0.006 C 
HETATM   41  C41 UNL     1     -18.972  42.468 -28.793  1.00  0.00     0.169 C 
HETATM   42  O8  UNL     1     -17.581  42.056 -29.091  1.00  0.00    -0.316 OA
HETATM   43 NA1  UNL     1     -17.424  43.418 -24.158  1.00  0.00    -0.401 Na
ATOM     44  HA1 UNL     1     -16.807  43.737 -23.411  1.00  0.00     0.154 HD
ENDROOT
BRANCH  41  45
HETATM   45  C42 UNL     1     -19.424  43.382 -29.982  1.00  0.00     0.069 C 
BRANCH  45  46
HETATM   46  C43 UNL     1     -18.846  43.055 -31.371  1.00  0.00     0.031 C 
BRANCH  46  47
HETATM   47  C44 UNL     1     -19.550  43.675 -32.571  1.00  0.00     0.164 C 
BRANCH  47  48
HETATM   48  O7  UNL     1     -18.986  43.219 -33.793  1.00  0.00    -0.401 OA
HETATM   49  H48 UNL     1     -18.117  43.672 -33.851  1.00  0.00     0.209 HD
ENDBRANCH  47  48
ENDBRANCH  46  47
ENDBRANCH  45  46
ENDBRANCH  41  45
BRANCH  41  50
HETATM   50  N1  UNL     1     -19.987  41.375 -28.776  1.00  0.00    -0.336 N 
HETATM   51  C45 UNL     1     -21.235  41.596 -28.946  1.00  0.00     0.124 C 
HETATM   52  N2  UNL     1     -21.904  42.764 -29.046  1.00  0.00    -0.279 NA
HETATM   53  N3  UNL     1     -22.082  40.543 -28.977  1.00  0.00    -0.279 NA
HETATM   54  H49 UNL     1     -21.283  43.569 -29.044  1.00  0.00     0.126 HD
HETATM   55  H50 UNL     1     -22.591  42.823 -29.783  1.00  0.00     0.126 HD
HETATM   56  H51 UNL     1     -22.892  40.633 -29.569  1.00  0.00     0.126 HD
HETATM   57  H52 UNL     1     -21.594  39.663 -29.103  1.00  0.00     0.126 HD
ATOM     58  H1  UNL     1     -19.675  40.416 -28.623  1.00  0.00     0.165 HD
ENDBRANCH  41  50
BRANCH  13  59
HETATM   59  S1  UNL     1     -15.290  47.177 -24.401  1.00  0.00     0.106 S 
HETATM   60  O1  UNL     1     -14.115  47.288 -25.264  1.00  0.00    -0.595 OA
HETATM   61  O2  UNL     1     -15.282  48.076 -23.254  1.00  0.00    -0.595 OA
HETATM   62  O3  UNL     1     -16.554  47.143 -25.136  1.00  0.00    -0.595 OA
ENDBRANCH  13  59
BRANCH  22  63
HETATM   63  C23 UNL     1     -22.790  42.222 -18.793  1.00  0.00     0.169 C 
BRANCH  63  64
HETATM   64  O4  UNL     1     -23.152  41.621 -20.032  1.00  0.00    -0.400 OA
HETATM   65  H29 UNL     1     -24.074  41.329 -19.948  1.00  0.00     0.209 HD
ENDBRANCH  63  64
ENDBRANCH  22  63
BRANCH  28  66
HETATM   66  O5  UNL     1     -13.661  43.288 -15.779  1.00  0.00    -0.361 OA
HETATM   67  H33 UNL     1     -12.885  43.849 -15.937  1.00  0.00     0.217 HD
ENDBRANCH  28  66
TORSDOF 9
ENDMDL
MODEL 8
REMARK minimizedAffinity -8.44107533
REMARK CNNscore 0.127142385
REMARK CNNaffinity 5.67747307
REMARK  9 active torsions:
REMARK  status: ('A' for Active; 'I' for Inactive)
REMARK    1  A    between atoms: C13_13  and  S1_14 
REMARK    2  A    between atoms: C22_26  and  C23_27 
REMARK    3  A    between atoms: C23_27  and  O4_28 
REMARK    4  A    between atoms: C29_34  and  O5_35 
REMARK    5  A    between atoms: C41_48  and  C42_49 
REMARK    6  A    between atoms: C41_48  and  N1_53 
REMARK    7  A    between atoms: C42_49  and  C43_50 
REMARK    8  A    between atoms: C43_50  and  C44_51 
REMARK    9  A    between atoms: C44_51  and  O7_52 
REMARK       I    between atoms: C45_55  and  N2_56 
REMARK       I    between atoms: C45_55  and  N3_57 
ROOT
HETATM    1  C1  UNL     1     -17.975  40.323 -17.769  1.00  0.00     0.010 C 
HETATM    2  C2  UNL     1     -17.842  40.717 -19.248  1.00  0.00    -0.010 C 
HETATM    3  C3  UNL     1     -16.743  39.893 -19.949  1.00  0.00     0.009 C 
HETATM    4  C4  UNL     1     -15.317  40.467 -19.873  1.00  0.00     0.039 C 
HETATM    5  C5  UNL     1     -15.164  41.721 -19.056  1.00  0.00    -0.049 C 
HETATM    6  C6  UNL     1     -13.909  42.059 -18.515  1.00  0.00     0.044 C 
HETATM    7  C7  UNL     1     -13.756  43.201 -17.722  1.00  0.00     0.072 C 
HETATM    8  C8  UNL     1     -14.886  43.916 -17.347  1.00  0.00     0.037 C 
HETATM    9  C9  UNL     1     -16.120  43.623 -17.928  1.00  0.00     0.011 C 
HETATM   10  C10 UNL     1     -16.261  42.565 -18.831  1.00  0.00    -0.047 C 
HETATM   11  C11 UNL     1     -17.617  42.252 -19.431  1.00  0.00     0.024 C 
HETATM   12  C12 UNL     1     -17.784  42.607 -20.938  1.00  0.00     0.033 C 
HETATM   13  C13 UNL     1     -17.949  44.071 -21.451  1.00  0.00     0.139 C 
HETATM   14  C14 UNL     1     -16.696  44.633 -22.210  1.00  0.00     0.038 C 
HETATM   15  C15 UNL     1     -16.939  44.528 -23.729  1.00  0.00    -0.014 C 
HETATM   16  C16 UNL     1     -17.097  45.618 -24.511  1.00  0.00    -0.050 C 
HETATM   17  C17 UNL     1     -17.086  46.969 -23.861  1.00  0.00     0.042 C 
HETATM   18  C18 UNL     1     -15.794  46.985 -23.050  1.00  0.00     0.001 C 
HETATM   19  C19 UNL     1     -14.532  46.649 -23.932  1.00  0.00     0.037 C 
HETATM   20  C20 UNL     1     -14.683  46.808 -25.478  1.00  0.00     0.123 C 
HETATM   21  C21 UNL     1     -13.286  46.868 -26.144  1.00  0.00     0.039 C 
HETATM   22  C22 UNL     1     -13.309  47.283 -27.651  1.00  0.00     0.023 C 
HETATM   23  C24 UNL     1     -13.250  46.091 -28.635  1.00  0.00     0.101 C 
HETATM   24  C25 UNL     1     -14.515  45.349 -28.699  1.00  0.00    -0.101 C 
HETATM   25  C26 UNL     1     -15.568  44.791 -28.556  1.00  0.00    -0.066 C 
HETATM   26  C27 UNL     1     -16.808  44.214 -28.121  1.00  0.00     0.029 A 
HETATM   27  C28 UNL     1     -17.437  43.283 -28.957  1.00  0.00     0.057 A 
HETATM   28  C29 UNL     1     -18.660  42.737 -28.589  1.00  0.00     0.067 A 
HETATM   29  C30 UNL     1     -19.274  43.106 -27.398  1.00  0.00     0.037 A 
HETATM   30  C31 UNL     1     -18.649  44.033 -26.561  1.00  0.00     0.014 A 
HETATM   31  C32 UNL     1     -17.393  44.589 -26.885  1.00  0.00    -0.006 A 
HETATM   32  C33 UNL     1     -16.783  45.669 -25.984  1.00  0.00     0.185 C 
HETATM   33  O6  UNL     1     -15.344  45.659 -26.030  1.00  0.00    -0.371 OA
HETATM   34  C34 UNL     1     -16.052  46.033 -21.823  1.00  0.00     0.030 C 
HETATM   35  C35 UNL     1     -14.827  45.936 -20.919  1.00  0.00    -0.050 C 
HETATM   36  C36 UNL     1     -13.793  45.021 -21.140  1.00  0.00     0.133 A 
HETATM   37  C37 UNL     1     -12.802  44.816 -20.178  1.00  0.00     0.138 A 
HETATM   38  C38 UNL     1     -12.833  45.505 -18.951  1.00  0.00    -0.000 C 
HETATM   39  C39 UNL     1     -13.757  46.554 -18.819  1.00  0.00     0.010 C 
HETATM   40  C40 UNL     1     -14.751  46.751 -19.783  1.00  0.00     0.006 C 
HETATM   41  C41 UNL     1     -12.016  44.929 -17.756  1.00  0.00     0.169 C 
HETATM   42  O8  UNL     1     -12.475  43.570 -17.386  1.00  0.00    -0.316 OA
HETATM   43 NA1  UNL     1     -14.875  44.507 -21.809  1.00  0.00    -0.401 Na
ATOM     44  HA1 UNL     1     -15.684  44.254 -22.377  1.00  0.00     0.154 HD
ENDROOT
BRANCH  41  45
HETATM   45  C42 UNL     1     -12.118  45.797 -16.457  1.00  0.00     0.069 C 
BRANCH  45  46
HETATM   46  C43 UNL     1     -11.912  45.071 -15.115  1.00  0.00     0.031 C 
BRANCH  46  47
HETATM   47  C44 UNL     1     -13.066  45.120 -14.123  1.00  0.00     0.164 C 
BRANCH  47  48
HETATM   48  O7  UNL     1     -14.021  46.107 -14.490  1.00  0.00    -0.401 OA
HETATM   49  H48 UNL     1     -13.585  46.963 -14.288  1.00  0.00     0.209 HD
ENDBRANCH  47  48
ENDBRANCH  46  47
ENDBRANCH  45  46
ENDBRANCH  41  45
BRANCH  41  50
HETATM   50  N1  UNL     1     -10.583  45.047 -18.155  1.00  0.00    -0.336 N 
HETATM   51  C45 UNL     1      -9.975  46.171 -18.198  1.00  0.00     0.124 C 
HETATM   52  N2  UNL     1     -10.452  47.423 -18.037  1.00  0.00    -0.279 NA
HETATM   53  N3  UNL     1      -8.660  46.185 -18.511  1.00  0.00    -0.279 NA
HETATM   54  H49 UNL     1     -11.436  47.435 -17.783  1.00  0.00     0.126 HD
HETATM   55  H50 UNL     1      -9.907  48.037 -17.451  1.00  0.00     0.126 HD
HETATM   56  H51 UNL     1      -8.102  46.906 -18.083  1.00  0.00     0.126 HD
HETATM   57  H52 UNL     1      -8.240  45.265 -18.441  1.00  0.00     0.126 HD
ATOM     58  H1  UNL     1     -10.070  44.201 -18.402  1.00  0.00     0.165 HD
ENDBRANCH  41  50
BRANCH  13  59
HETATM   59  S1  UNL     1     -18.930  45.154 -20.435  1.00  0.00     0.106 S 
HETATM   60  O1  UNL     1     -19.300  46.241 -21.339  1.00  0.00    -0.595 OA
HETATM   61  O2  UNL     1     -18.060  45.554 -19.336  1.00  0.00    -0.595 OA
HETATM   62  O3  UNL     1     -20.059  44.313 -20.040  1.00  0.00    -0.595 OA
ENDBRANCH  13  59
BRANCH  22  63
HETATM   63  C23 UNL     1     -12.111  48.205 -27.949  1.00  0.00     0.169 C 
BRANCH  63  64
HETATM   64  O4  UNL     1     -11.801  48.994 -26.805  1.00  0.00    -0.400 OA
HETATM   65  H29 UNL     1     -11.003  49.504 -27.019  1.00  0.00     0.209 HD
ENDBRANCH  63  64
ENDBRANCH  22  63
BRANCH  28  66
HETATM   66  O5  UNL     1     -19.245  41.844 -29.439  1.00  0.00    -0.361 OA
HETATM   67  H33 UNL     1     -20.096  41.577 -29.058  1.00  0.00     0.217 HD
ENDBRANCH  28  66
TORSDOF 9
ENDMDL
MODEL 9
REMARK minimizedAffinity -9.13289452
REMARK CNNscore 0.119462475
REMARK CNNaffinity 6.17829323
REMARK  9 active torsions:
REMARK  status: ('A' for Active; 'I' for Inactive)
REMARK    1  A    between atoms: C13_13  and  S1_14 
REMARK    2  A    between atoms: C22_26  and  C23_27 
REMARK    3  A    between atoms: C23_27  and  O4_28 
REMARK    4  A    between atoms: C29_34  and  O5_35 
REMARK    5  A    between atoms: C41_48  and  C42_49 
REMARK    6  A    between atoms: C41_48  and  N1_53 
REMARK    7  A    between atoms: C42_49  and  C43_50 
REMARK    8  A    between atoms: C43_50  and  C44_51 
REMARK    9  A    between atoms: C44_51  and  O7_52 
REMARK       I    between atoms: C45_55  and  N2_56 
REMARK       I    between atoms: C45_55  and  N3_57 
ROOT
HETATM    1  C1  UNL     1     -15.543  42.840 -27.561  1.00  0.00     0.010 C 
HETATM    2  C2  UNL     1     -14.880  43.384 -26.287  1.00  0.00    -0.010 C 
HETATM    3  C3  UNL     1     -15.450  44.767 -25.908  1.00  0.00     0.009 C 
HETATM    4  C4  UNL     1     -14.755  45.981 -26.550  1.00  0.00     0.039 C 
HETATM    5  C5  UNL     1     -13.658  45.660 -27.528  1.00  0.00    -0.049 C 
HETATM    6  C6  UNL     1     -13.294  46.600 -28.511  1.00  0.00     0.044 C 
HETATM    7  C7  UNL     1     -12.302  46.305 -29.451  1.00  0.00     0.072 C 
HETATM    8  C8  UNL     1     -11.785  45.017 -29.502  1.00  0.00     0.037 C 
HETATM    9  C9  UNL     1     -12.095  44.102 -28.495  1.00  0.00     0.011 C 
HETATM   10  C10 UNL     1     -12.983  44.431 -27.467  1.00  0.00    -0.047 C 
HETATM   11  C11 UNL     1     -13.322  43.413 -26.398  1.00  0.00     0.024 C 
HETATM   12  C12 UNL     1     -12.724  43.693 -24.988  1.00  0.00     0.033 C 
HETATM   13  C13 UNL     1     -11.217  43.477 -24.648  1.00  0.00     0.139 C 
HETATM   14  C14 UNL     1     -10.403  44.804 -24.453  1.00  0.00     0.038 C 
HETATM   15  C15 UNL     1     -10.260  45.090 -22.945  1.00  0.00    -0.014 C 
HETATM   16  C16 UNL     1      -9.070  45.027 -22.308  1.00  0.00    -0.050 C 
HETATM   17  C17 UNL     1      -7.863  44.612 -23.095  1.00  0.00     0.042 C 
HETATM   18  C18 UNL     1      -7.859  45.550 -24.298  1.00  0.00     0.001 C 
HETATM   19  C19 UNL     1      -7.901  47.067 -23.874  1.00  0.00     0.037 C 
HETATM   20  C20 UNL     1      -7.486  47.406 -22.408  1.00  0.00     0.123 C 
HETATM   21  C21 UNL     1      -7.166  48.916 -22.282  1.00  0.00     0.039 C 
HETATM   22  C22 UNL     1      -6.494  49.321 -20.930  1.00  0.00     0.023 C 
HETATM   23  C24 UNL     1      -7.479  49.885 -19.879  1.00  0.00     0.101 C 
HETATM   24  C25 UNL     1      -8.323  48.843 -19.282  1.00  0.00    -0.101 C 
HETATM   25  C26 UNL     1      -9.003  47.902 -18.975  1.00  0.00    -0.066 C 
HETATM   26  C27 UNL     1      -9.772  46.695 -18.872  1.00  0.00     0.029 A 
HETATM   27  C28 UNL     1     -10.600  46.528 -17.754  1.00  0.00     0.057 A 
HETATM   28  C29 UNL     1     -11.324  45.353 -17.599  1.00  0.00     0.067 A 
HETATM   29  C30 UNL     1     -11.239  44.335 -18.539  1.00  0.00     0.037 A 
HETATM   30  C31 UNL     1     -10.415  44.499 -19.656  1.00  0.00     0.014 A 
HETATM   31  C32 UNL     1      -9.686  45.688 -19.865  1.00  0.00    -0.006 A 
HETATM   32  C33 UNL     1      -8.726  45.793 -21.057  1.00  0.00     0.185 C 
HETATM   33  O6  UNL     1      -8.580  47.150 -21.513  1.00  0.00    -0.371 OA
HETATM   34  C34 UNL     1      -9.036  45.058 -25.222  1.00  0.00     0.030 C 
HETATM   35  C35 UNL     1      -9.166  45.921 -26.474  1.00  0.00    -0.050 C 
HETATM   36  C36 UNL     1      -9.917  47.101 -26.507  1.00  0.00     0.133 A 
HETATM   37  C37 UNL     1     -10.186  47.742 -27.716  1.00  0.00     0.138 A 
HETATM   38  C38 UNL     1      -9.734  47.205 -28.937  1.00  0.00    -0.000 C 
HETATM   39  C39 UNL     1      -8.825  46.136 -28.877  1.00  0.00     0.010 C 
HETATM   40  C40 UNL     1      -8.563  45.493 -27.663  1.00  0.00     0.006 C 
HETATM   41  C41 UNL     1     -10.427  47.666 -30.253  1.00  0.00     0.169 C 
HETATM   42  O8  UNL     1     -11.869  47.331 -30.257  1.00  0.00    -0.316 OA
HETATM   43 NA1  UNL     1     -10.411  46.391 -25.441  1.00  0.00    -0.401 Na
ATOM     44  HA1 UNL     1     -10.641  45.862 -24.599  1.00  0.00     0.154 HD
ENDROOT
BRANCH  41  45
HETATM   45  C42 UNL     1      -9.819  47.011 -31.538  1.00  0.00     0.069 C 
BRANCH  45  46
HETATM   46  C43 UNL     1     -10.807  46.594 -32.642  1.00  0.00     0.031 C 
BRANCH  46  47
HETATM   47  C44 UNL     1     -10.818  45.122 -33.033  1.00  0.00     0.164 C 
BRANCH  47  48
HETATM   48  O7  UNL     1     -12.064  44.749 -33.607  1.00  0.00    -0.401 OA
HETATM   49  H48 UNL     1     -12.690  44.731 -32.853  1.00  0.00     0.209 HD
ENDBRANCH  47  48
ENDBRANCH  46  47
ENDBRANCH  45  46
ENDBRANCH  41  45
BRANCH  41  50
HETATM   50  N1  UNL     1     -10.093  49.114 -30.396  1.00  0.00    -0.336 N 
HETATM   51  C45 UNL     1      -8.898  49.525 -30.591  1.00  0.00     0.124 C 
HETATM   52  N2  UNL     1      -7.734  48.842 -30.591  1.00  0.00    -0.279 NA
HETATM   53  N3  UNL     1      -8.689  50.849 -30.771  1.00  0.00    -0.279 NA
HETATM   54  H49 UNL     1      -7.870  47.841 -30.476  1.00  0.00     0.126 HD
HETATM   55  H50 UNL     1      -7.095  49.049 -31.344  1.00  0.00     0.126 HD
HETATM   56  H51 UNL     1      -7.931  51.106 -31.383  1.00  0.00     0.126 HD
HETATM   57  H52 UNL     1      -9.548  51.347 -30.972  1.00  0.00     0.126 HD
ATOM     58  H1  UNL     1     -10.845  49.801 -30.336  1.00  0.00     0.165 HD
ENDBRANCH  41  50
BRANCH  13  59
HETATM   59  S1  UNL     1     -10.438  42.061 -25.394  1.00  0.00     0.106 S 
HETATM   60  O1  UNL     1     -10.059  42.532 -26.725  1.00  0.00    -0.595 OA
HETATM   61  O2  UNL     1     -11.449  41.012 -25.391  1.00  0.00    -0.595 OA
HETATM   62  O3  UNL     1      -9.295  41.806 -24.517  1.00  0.00    -0.595 OA
ENDBRANCH  13  59
BRANCH  22  63
HETATM   63  C23 UNL     1      -5.416  50.391 -21.191  1.00  0.00     0.169 C 
BRANCH  63  64
HETATM   64  O4  UNL     1      -5.718  51.112 -22.381  1.00  0.00    -0.400 OA
HETATM   65  H29 UNL     1      -5.053  51.814 -22.465  1.00  0.00     0.209 HD
ENDBRANCH  63  64
ENDBRANCH  22  63
BRANCH  28  66
HETATM   66  O5  UNL     1     -12.107  45.226 -16.488  1.00  0.00    -0.361 OA
HETATM   67  H33 UNL     1     -12.524  44.350 -16.510  1.00  0.00     0.217 HD
ENDBRANCH  28  66
TORSDOF 9
ENDMDL
