MODEL 1
REMARK minimizedAffinity -8.32593346
REMARK  8 active torsions:
REMARK  status: ('A' for Active; 'I' for Inactive)
REMARK    1  A    between atoms: C4_4  and  C5_5 
REMARK    2  A    between atoms: C5_5  and  C6_6 
REMARK    3  A    between atoms: C6_6  and  C7_7 
REMARK    4  A    between atoms: C7_7  and  C9_9 
REMARK    5  A    between atoms: C21_21  and  C22_22 
REMARK    6  A    between atoms: C22_22  and  C23_23 
REMARK    7  A    between atoms: C23_23  and  C24_24 
REMARK    8  A    between atoms: C24_24  and  O1_25 
ROOT
HETATM    1  C9  UNL     1      -2.944  49.749 -22.951  1.00  0.00    -0.002 C 
HETATM    2  C10 UNL     1      -2.242  48.494 -22.355  1.00  0.00     0.006 C 
HETATM    3  C11 UNL     1      -3.351  47.431 -22.125  1.00  0.00     0.011 C 
HETATM    4  C12 UNL     1      -4.676  48.203 -22.309  1.00  0.00    -0.032 C 
HETATM    5  C13 UNL     1      -4.919  48.919 -20.939  1.00  0.00     0.016 C 
HETATM    6  C14 UNL     1      -5.906  47.361 -22.747  1.00  0.00     0.003 C 
HETATM    7  C15 UNL     1      -6.292  46.205 -21.798  1.00  0.00     0.010 C 
HETATM    8  C16 UNL     1      -7.614  45.534 -22.193  1.00  0.00     0.035 C 
HETATM    9  C17 UNL     1      -7.904  45.716 -23.665  1.00  0.00    -0.073 C 
HETATM   10  C18 UNL     1      -7.933  44.692 -24.559  1.00  0.00    -0.085 C 
HETATM   11  C19 UNL     1      -8.259  44.853 -26.028  1.00  0.00     0.043 C 
HETATM   12  C20 UNL     1      -7.642  43.249 -24.216  1.00  0.00     0.043 C 
HETATM   13  C21 UNL     1      -8.091  47.204 -24.063  1.00  0.00     0.023 C 
HETATM   14  C25 UNL     1      -7.171  48.206 -23.200  1.00  0.00    -0.032 C 
HETATM   15  C26 UNL     1      -7.953  48.787 -21.992  1.00  0.00     0.016 C 
HETATM   16  C27 UNL     1      -6.750  49.437 -24.092  1.00  0.00     0.011 C 
HETATM   17  C28 UNL     1      -5.432  50.158 -23.723  1.00  0.00     0.011 C 
HETATM   18  C29 UNL     1      -4.282  49.166 -23.495  1.00  0.00    -0.032 C 
HETATM   19  C30 UNL     1      -4.018  48.448 -24.856  1.00  0.00     0.016 C 
ENDROOT
BRANCH   1  20
HETATM   20  C7  UNL     1      -2.083  50.659 -23.883  1.00  0.00    -0.014 C 
HETATM   21  C8  UNL     1      -2.596  52.095 -24.035  1.00  0.00     0.010 C 
BRANCH  20  22
HETATM   22  C6  UNL     1      -1.958  49.978 -25.278  1.00  0.00     0.008 C 
BRANCH  22  23
HETATM   23  C5  UNL     1      -1.236  50.790 -26.363  1.00  0.00     0.028 C 
BRANCH  23  24
HETATM   24  C4  UNL     1       0.255  50.894 -26.205  1.00  0.00    -0.025 C 
HETATM   25  C2  UNL     1       1.124  51.493 -27.044  1.00  0.00    -0.091 C 
HETATM   26  C1  UNL     1       2.600  51.498 -26.747  1.00  0.00     0.042 C 
HETATM   27  C3  UNL     1       0.741  52.205 -28.311  1.00  0.00     0.042 C 
ENDBRANCH  23  24
ENDBRANCH  22  23
ENDBRANCH  20  22
ENDBRANCH   1  20
BRANCH  13  28
HETATM   28  C22 UNL     1      -9.610  47.510 -24.133  1.00  0.00     0.012 C 
BRANCH  28  29
HETATM   29  C23 UNL     1     -10.156  47.675 -25.556  1.00  0.00     0.027 C 
BRANCH  29  30
HETATM   30  C24 UNL     1      -9.371  48.710 -26.355  1.00  0.00     0.164 C 
BRANCH  30  31
HETATM   31  O1  UNL     1      -9.682  50.016 -25.896  1.00  0.00    -0.401 OA
HETATM   32  H42 UNL     1      -9.159  50.639 -26.427  1.00  0.00     0.209 HD
ENDBRANCH  30  31
ENDBRANCH  29  30
ENDBRANCH  28  29
ENDBRANCH  13  28
TORSDOF 8
ENDMDL
MODEL 2
REMARK minimizedAffinity -8.27625942
REMARK  8 active torsions:
REMARK  status: ('A' for Active; 'I' for Inactive)
REMARK    1  A    between atoms: C4_4  and  C5_5 
REMARK    2  A    between atoms: C5_5  and  C6_6 
REMARK    3  A    between atoms: C6_6  and  C7_7 
REMARK    4  A    between atoms: C7_7  and  C9_9 
REMARK    5  A    between atoms: C21_21  and  C22_22 
REMARK    6  A    between atoms: C22_22  and  C23_23 
REMARK    7  A    between atoms: C23_23  and  C24_24 
REMARK    8  A    between atoms: C24_24  and  O1_25 
ROOT
HETATM    1  C9  UNL     1      -1.146  50.133 -18.143  1.00  0.00    -0.002 C 
HETATM    2  C10 UNL     1      -2.254  51.119 -17.670  1.00  0.00     0.006 C 
HETATM    3  C11 UNL     1      -3.146  51.414 -18.907  1.00  0.00     0.011 C 
HETATM    4  C12 UNL     1      -2.356  50.839 -20.104  1.00  0.00    -0.032 C 
HETATM    5  C13 UNL     1      -1.301  51.939 -20.458  1.00  0.00     0.016 C 
HETATM    6  C14 UNL     1      -3.195  50.421 -21.343  1.00  0.00     0.003 C 
HETATM    7  C15 UNL     1      -4.043  51.545 -21.980  1.00  0.00     0.010 C 
HETATM    8  C16 UNL     1      -4.700  51.114 -23.297  1.00  0.00     0.035 C 
HETATM    9  C17 UNL     1      -4.877  49.614 -23.357  1.00  0.00    -0.073 C 
HETATM   10  C18 UNL     1      -6.089  48.998 -23.370  1.00  0.00    -0.085 C 
HETATM   11  C19 UNL     1      -6.283  47.501 -23.469  1.00  0.00     0.043 C 
HETATM   12  C20 UNL     1      -7.415  49.720 -23.287  1.00  0.00     0.043 C 
HETATM   13  C21 UNL     1      -3.529  48.845 -23.327  1.00  0.00     0.023 C 
HETATM   14  C25 UNL     1      -2.406  49.580 -22.434  1.00  0.00    -0.032 C 
HETATM   15  C26 UNL     1      -1.487  50.471 -23.311  1.00  0.00     0.016 C 
HETATM   16  C27 UNL     1      -1.474  48.500 -21.763  1.00  0.00     0.011 C 
HETATM   17  C28 UNL     1      -0.776  48.893 -20.441  1.00  0.00     0.011 C 
HETATM   18  C29 UNL     1      -1.754  49.536 -19.447  1.00  0.00    -0.032 C 
HETATM   19  C30 UNL     1      -2.810  48.448 -19.073  1.00  0.00     0.016 C 
ENDROOT
BRANCH   1  20
HETATM   20  C7  UNL     1      -0.564  49.163 -17.068  1.00  0.00    -0.014 C 
HETATM   21  C8  UNL     1      -1.558  48.730 -15.985  1.00  0.00     0.010 C 
BRANCH  20  22
HETATM   22  C6  UNL     1       0.690  49.822 -16.419  1.00  0.00     0.008 C 
BRANCH  22  23
HETATM   23  C5  UNL     1       0.656  51.352 -16.286  1.00  0.00     0.028 C 
BRANCH  23  24
HETATM   24  C4  UNL     1       1.965  52.049 -16.529  1.00  0.00    -0.025 C 
HETATM   25  C2  UNL     1       3.053  52.041 -15.732  1.00  0.00    -0.091 C 
HETATM   26  C1  UNL     1       4.291  52.808 -16.113  1.00  0.00     0.042 C 
HETATM   27  C3  UNL     1       3.161  51.290 -14.435  1.00  0.00     0.042 C 
ENDBRANCH  23  24
ENDBRANCH  22  23
ENDBRANCH  20  22
ENDBRANCH   1  20
BRANCH  13  28
HETATM   28  C22 UNL     1      -3.147  48.459 -24.780  1.00  0.00     0.012 C 
BRANCH  28  29
HETATM   29  C23 UNL     1      -3.907  49.238 -25.860  1.00  0.00     0.027 C 
BRANCH  29  30
HETATM   30  C24 UNL     1      -4.049  48.439 -27.151  1.00  0.00     0.164 C 
BRANCH  30  31
HETATM   31  O1  UNL     1      -5.410  48.403 -27.552  1.00  0.00    -0.401 OA
HETATM   32  H42 UNL     1      -5.452  47.890 -28.376  1.00  0.00     0.209 HD
ENDBRANCH  30  31
ENDBRANCH  29  30
ENDBRANCH  28  29
ENDBRANCH  13  28
TORSDOF 8
ENDMDL
MODEL 3
REMARK minimizedAffinity -8.18705654
REMARK  8 active torsions:
REMARK  status: ('A' for Active; 'I' for Inactive)
REMARK    1  A    between atoms: C4_4  and  C5_5 
REMARK    2  A    between atoms: C5_5  and  C6_6 
REMARK    3  A    between atoms: C6_6  and  C7_7 
REMARK    4  A    between atoms: C7_7  and  C9_9 
REMARK    5  A    between atoms: C21_21  and  C22_22 
REMARK    6  A    between atoms: C22_22  and  C23_23 
REMARK    7  A    between atoms: C23_23  and  C24_24 
REMARK    8  A    between atoms: C24_24  and  O1_25 
ROOT
HETATM    1  C9  UNL     1      -1.914  49.750 -18.971  1.00  0.00    -0.002 C 
HETATM    2  C10 UNL     1      -2.920  48.572 -18.821  1.00  0.00     0.006 C 
HETATM    3  C11 UNL     1      -3.849  48.618 -20.065  1.00  0.00     0.011 C 
HETATM    4  C12 UNL     1      -3.547  49.981 -20.727  1.00  0.00    -0.032 C 
HETATM    5  C13 UNL     1      -4.391  51.019 -19.916  1.00  0.00     0.016 C 
HETATM    6  C14 UNL     1      -3.822  50.078 -22.253  1.00  0.00     0.003 C 
HETATM    7  C15 UNL     1      -5.275  49.782 -22.687  1.00  0.00     0.010 C 
HETATM    8  C16 UNL     1      -5.517  50.071 -24.173  1.00  0.00     0.035 C 
HETATM    9  C17 UNL     1      -4.233  49.986 -24.966  1.00  0.00    -0.073 C 
HETATM   10  C18 UNL     1      -3.995  49.041 -25.914  1.00  0.00    -0.085 C 
HETATM   11  C19 UNL     1      -2.731  48.965 -26.743  1.00  0.00     0.043 C 
HETATM   12  C20 UNL     1      -4.956  47.931 -26.276  1.00  0.00     0.043 C 
HETATM   13  C21 UNL     1      -3.184  51.044 -24.532  1.00  0.00     0.023 C 
HETATM   14  C25 UNL     1      -3.245  51.378 -22.956  1.00  0.00    -0.032 C 
HETATM   15  C26 UNL     1      -4.118  52.631 -22.682  1.00  0.00     0.016 C 
HETATM   16  C27 UNL     1      -1.797  51.720 -22.433  1.00  0.00     0.011 C 
HETATM   17  C28 UNL     1      -1.508  51.461 -20.936  1.00  0.00     0.011 C 
HETATM   18  C29 UNL     1      -1.989  50.072 -20.493  1.00  0.00    -0.032 C 
HETATM   19  C30 UNL     1      -1.149  49.021 -21.286  1.00  0.00     0.016 C 
ENDROOT
BRANCH   1  20
HETATM   20  C7  UNL     1      -0.513  49.567 -18.307  1.00  0.00    -0.014 C 
HETATM   21  C8  UNL     1      -0.545  49.012 -16.878  1.00  0.00     0.010 C 
BRANCH  20  22
HETATM   22  C6  UNL     1       0.245  50.927 -18.342  1.00  0.00     0.008 C 
BRANCH  22  23
HETATM   23  C5  UNL     1       0.545  51.568 -16.979  1.00  0.00     0.028 C 
BRANCH  23  24
HETATM   24  C4  UNL     1       1.868  52.273 -16.876  1.00  0.00    -0.025 C 
HETATM   25  C2  UNL     1       2.802  52.118 -15.916  1.00  0.00    -0.091 C 
HETATM   26  C1  UNL     1       4.078  52.916 -15.949  1.00  0.00     0.042 C 
HETATM   27  C3  UNL     1       2.692  51.166 -14.758  1.00  0.00     0.042 C 
ENDBRANCH  23  24
ENDBRANCH  22  23
ENDBRANCH  20  22
ENDBRANCH   1  20
BRANCH  13  28
HETATM   28  C22 UNL     1      -3.248  52.237 -25.519  1.00  0.00     0.012 C 
BRANCH  28  29
HETATM   29  C23 UNL     1      -1.889  52.660 -26.088  1.00  0.00     0.027 C 
BRANCH  29  30
HETATM   30  C24 UNL     1      -1.845  52.552 -27.609  1.00  0.00     0.164 C 
BRANCH  30  31
HETATM   31  O1  UNL     1      -1.979  53.841 -28.190  1.00  0.00    -0.401 OA
HETATM   32  H42 UNL     1      -1.941  53.726 -29.154  1.00  0.00     0.209 HD
ENDBRANCH  30  31
ENDBRANCH  29  30
ENDBRANCH  28  29
ENDBRANCH  13  28
TORSDOF 8
ENDMDL
MODEL 4
REMARK minimizedAffinity -8.1677227
REMARK  8 active torsions:
REMARK  status: ('A' for Active; 'I' for Inactive)
REMARK    1  A    between atoms: C4_4  and  C5_5 
REMARK    2  A    between atoms: C5_5  and  C6_6 
REMARK    3  A    between atoms: C6_6  and  C7_7 
REMARK    4  A    between atoms: C7_7  and  C9_9 
REMARK    5  A    between atoms: C21_21  and  C22_22 
REMARK    6  A    between atoms: C22_22  and  C23_23 
REMARK    7  A    between atoms: C23_23  and  C24_24 
REMARK    8  A    between atoms: C24_24  and  O1_25 
ROOT
HETATM    1  C9  UNL     1      -1.652  51.506 -21.781  1.00  0.00    -0.002 C 
HETATM    2  C10 UNL     1      -1.840  51.560 -20.237  1.00  0.00     0.006 C 
HETATM    3  C11 UNL     1      -3.196  50.868 -19.928  1.00  0.00     0.011 C 
HETATM    4  C12 UNL     1      -3.877  50.711 -21.306  1.00  0.00    -0.032 C 
HETATM    5  C13 UNL     1      -4.524  52.105 -21.598  1.00  0.00     0.016 C 
HETATM    6  C14 UNL     1      -4.908  49.557 -21.436  1.00  0.00     0.003 C 
HETATM    7  C15 UNL     1      -6.098  49.615 -20.452  1.00  0.00     0.010 C 
HETATM    8  C16 UNL     1      -7.165  48.555 -20.753  1.00  0.00     0.035 C 
HETATM    9  C17 UNL     1      -6.573  47.374 -21.488  1.00  0.00    -0.073 C 
HETATM   10  C18 UNL     1      -6.490  46.124 -20.960  1.00  0.00    -0.085 C 
HETATM   11  C19 UNL     1      -5.937  44.923 -21.697  1.00  0.00     0.043 C 
HETATM   12  C20 UNL     1      -6.937  45.753 -19.564  1.00  0.00     0.043 C 
HETATM   13  C21 UNL     1      -6.003  47.754 -22.880  1.00  0.00     0.023 C 
HETATM   14  C25 UNL     1      -5.377  49.239 -22.918  1.00  0.00    -0.032 C 
HETATM   15  C26 UNL     1      -6.411  50.270 -23.441  1.00  0.00     0.016 C 
HETATM   16  C27 UNL     1      -4.163  49.274 -23.925  1.00  0.00     0.011 C 
HETATM   17  C28 UNL     1      -3.069  50.338 -23.673  1.00  0.00     0.011 C 
HETATM   18  C29 UNL     1      -2.625  50.365 -22.203  1.00  0.00    -0.032 C 
HETATM   19  C30 UNL     1      -1.966  48.983 -21.897  1.00  0.00     0.016 C 
ENDROOT
BRANCH   1  20
HETATM   20  C7  UNL     1      -0.183  51.479 -22.309  1.00  0.00    -0.014 C 
HETATM   21  C8  UNL     1       0.887  51.782 -21.253  1.00  0.00     0.010 C 
BRANCH  20  22
HETATM   22  C6  UNL     1      -0.059  52.470 -23.504  1.00  0.00     0.008 C 
BRANCH  22  23
HETATM   23  C5  UNL     1      -0.121  51.847 -24.907  1.00  0.00     0.028 C 
BRANCH  23  24
HETATM   24  C4  UNL     1       1.187  51.793 -25.647  1.00  0.00    -0.025 C 
HETATM   25  C2  UNL     1       1.367  51.792 -26.983  1.00  0.00    -0.091 C 
HETATM   26  C1  UNL     1       2.751  51.720 -27.571  1.00  0.00     0.042 C 
HETATM   27  C3  UNL     1       0.262  51.873 -27.998  1.00  0.00     0.042 C 
ENDBRANCH  23  24
ENDBRANCH  22  23
ENDBRANCH  20  22
ENDBRANCH   1  20
BRANCH  13  28
HETATM   28  C22 UNL     1      -7.055  47.393 -23.961  1.00  0.00     0.012 C 
BRANCH  28  29
HETATM   29  C23 UNL     1      -8.323  48.254 -23.919  1.00  0.00     0.027 C 
BRANCH  29  30
HETATM   30  C24 UNL     1      -8.855  48.559 -25.315  1.00  0.00     0.164 C 
BRANCH  30  31
HETATM   31  O1  UNL     1      -9.301  49.905 -25.380  1.00  0.00    -0.401 OA
HETATM   32  H42 UNL     1      -9.625  50.056 -26.283  1.00  0.00     0.209 HD
ENDBRANCH  30  31
ENDBRANCH  29  30
ENDBRANCH  28  29
ENDBRANCH  13  28
TORSDOF 8
ENDMDL
MODEL 5
REMARK minimizedAffinity -7.99590349
REMARK  8 active torsions:
REMARK  status: ('A' for Active; 'I' for Inactive)
REMARK    1  A    between atoms: C4_4  and  C5_5 
REMARK    2  A    between atoms: C5_5  and  C6_6 
REMARK    3  A    between atoms: C6_6  and  C7_7 
REMARK    4  A    between atoms: C7_7  and  C9_9 
REMARK    5  A    between atoms: C21_21  and  C22_22 
REMARK    6  A    between atoms: C22_22  and  C23_23 
REMARK    7  A    between atoms: C23_23  and  C24_24 
REMARK    8  A    between atoms: C24_24  and  O1_25 
ROOT
HETATM    1  C9  UNL     1      -3.041  49.707 -22.926  1.00  0.00    -0.002 C 
HETATM    2  C10 UNL     1      -2.310  48.437 -22.400  1.00  0.00     0.006 C 
HETATM    3  C11 UNL     1      -3.397  47.345 -22.208  1.00  0.00     0.011 C 
HETATM    4  C12 UNL     1      -4.738  48.102 -22.336  1.00  0.00    -0.032 C 
HETATM    5  C13 UNL     1      -4.974  48.747 -20.931  1.00  0.00     0.016 C 
HETATM    6  C14 UNL     1      -5.960  47.261 -22.799  1.00  0.00     0.003 C 
HETATM    7  C15 UNL     1      -6.313  46.054 -21.902  1.00  0.00     0.010 C 
HETATM    8  C16 UNL     1      -7.629  45.380 -22.312  1.00  0.00     0.035 C 
HETATM    9  C17 UNL     1      -7.942  45.628 -23.769  1.00  0.00    -0.073 C 
HETATM   10  C18 UNL     1      -7.967  44.648 -24.712  1.00  0.00    -0.085 C 
HETATM   11  C19 UNL     1      -8.316  44.874 -26.167  1.00  0.00     0.043 C 
HETATM   12  C20 UNL     1      -7.648  43.195 -24.443  1.00  0.00     0.043 C 
HETATM   13  C21 UNL     1      -8.160  47.130 -24.093  1.00  0.00     0.023 C 
HETATM   14  C25 UNL     1      -7.244  48.105 -23.194  1.00  0.00    -0.032 C 
HETATM   15  C26 UNL     1      -8.019  48.613 -21.949  1.00  0.00     0.016 C 
HETATM   16  C27 UNL     1      -6.856  49.384 -24.031  1.00  0.00     0.011 C 
HETATM   17  C28 UNL     1      -5.546  50.109 -23.645  1.00  0.00     0.011 C 
HETATM   18  C29 UNL     1      -4.376  49.128 -23.480  1.00  0.00    -0.032 C 
HETATM   19  C30 UNL     1      -4.119  48.481 -24.878  1.00  0.00     0.016 C 
ENDROOT
BRANCH   1  20
HETATM   20  C7  UNL     1      -2.208  50.675 -23.823  1.00  0.00    -0.014 C 
HETATM   21  C8  UNL     1      -1.936  50.165 -25.243  1.00  0.00     0.010 C 
BRANCH  20  22
HETATM   22  C6  UNL     1      -0.868  51.006 -23.102  1.00  0.00     0.008 C 
BRANCH  22  23
HETATM   23  C5  UNL     1      -0.827  52.333 -22.330  1.00  0.00     0.028 C 
BRANCH  23  24
HETATM   24  C4  UNL     1      -0.527  52.216 -20.862  1.00  0.00    -0.025 C 
HETATM   25  C2  UNL     1       0.394  52.908 -20.160  1.00  0.00    -0.091 C 
HETATM   26  C1  UNL     1       0.582  52.661 -18.687  1.00  0.00     0.042 C 
HETATM   27  C3  UNL     1       1.292  53.967 -20.734  1.00  0.00     0.042 C 
ENDBRANCH  23  24
ENDBRANCH  22  23
ENDBRANCH  20  22
ENDBRANCH   1  20
BRANCH  13  28
HETATM   28  C22 UNL     1      -9.685  47.412 -24.127  1.00  0.00     0.012 C 
BRANCH  28  29
HETATM   29  C23 UNL     1     -10.239  47.713 -25.525  1.00  0.00     0.027 C 
BRANCH  29  30
HETATM   30  C24 UNL     1      -9.352  48.682 -26.298  1.00  0.00     0.164 C 
BRANCH  30  31
HETATM   31  O1  UNL     1      -9.678  50.020 -25.951  1.00  0.00    -0.401 OA
HETATM   32  H42 UNL     1      -9.089  50.600 -26.461  1.00  0.00     0.209 HD
ENDBRANCH  30  31
ENDBRANCH  29  30
ENDBRANCH  28  29
ENDBRANCH  13  28
TORSDOF 8
ENDMDL
MODEL 6
REMARK minimizedAffinity -7.78139305
REMARK  8 active torsions:
REMARK  status: ('A' for Active; 'I' for Inactive)
REMARK    1  A    between atoms: C4_4  and  C5_5 
REMARK    2  A    between atoms: C5_5  and  C6_6 
REMARK    3  A    between atoms: C6_6  and  C7_7 
REMARK    4  A    between atoms: C7_7  and  C9_9 
REMARK    5  A    between atoms: C21_21  and  C22_22 
REMARK    6  A    between atoms: C22_22  and  C23_23 
REMARK    7  A    between atoms: C23_23  and  C24_24 
REMARK    8  A    between atoms: C24_24  and  O1_25 
ROOT
HETATM    1  C9  UNL     1      -2.232  51.258 -23.244  1.00  0.00    -0.002 C 
HETATM    2  C10 UNL     1      -3.104  52.521 -22.986  1.00  0.00     0.006 C 
HETATM    3  C11 UNL     1      -4.509  52.014 -22.559  1.00  0.00     0.011 C 
HETATM    4  C12 UNL     1      -4.489  50.501 -22.873  1.00  0.00    -0.032 C 
HETATM    5  C13 UNL     1      -4.794  50.403 -24.404  1.00  0.00     0.016 C 
HETATM    6  C14 UNL     1      -5.449  49.613 -22.034  1.00  0.00     0.003 C 
HETATM    7  C15 UNL     1      -6.947  49.980 -22.129  1.00  0.00     0.010 C 
HETATM    8  C16 UNL     1      -7.850  48.960 -21.426  1.00  0.00     0.035 C 
HETATM    9  C17 UNL     1      -7.102  48.218 -20.342  1.00  0.00    -0.073 C 
HETATM   10  C18 UNL     1      -7.390  48.328 -19.018  1.00  0.00    -0.085 C 
HETATM   11  C19 UNL     1      -6.676  47.564 -17.925  1.00  0.00     0.043 C 
HETATM   12  C20 UNL     1      -8.462  49.229 -18.448  1.00  0.00     0.043 C 
HETATM   13  C21 UNL     1      -5.921  47.375 -20.893  1.00  0.00     0.023 C 
HETATM   14  C25 UNL     1      -5.210  48.050 -22.172  1.00  0.00    -0.032 C 
HETATM   15  C26 UNL     1      -5.785  47.483 -23.497  1.00  0.00     0.016 C 
HETATM   16  C27 UNL     1      -3.672  47.702 -22.166  1.00  0.00     0.011 C 
HETATM   17  C28 UNL     1      -2.722  48.693 -22.877  1.00  0.00     0.011 C 
HETATM   18  C29 UNL     1      -3.004  50.147 -22.472  1.00  0.00    -0.032 C 
HETATM   19  C30 UNL     1      -2.695  50.267 -20.947  1.00  0.00     0.016 C 
ENDROOT
BRANCH   1  20
HETATM   20  C7  UNL     1      -0.695  51.407 -23.015  1.00  0.00    -0.014 C 
HETATM   21  C8  UNL     1      -0.228  51.136 -21.580  1.00  0.00     0.010 C 
BRANCH  20  22
HETATM   22  C6  UNL     1      -0.253  52.830 -23.468  1.00  0.00     0.008 C 
BRANCH  22  23
HETATM   23  C5  UNL     1       0.880  52.888 -24.503  1.00  0.00     0.028 C 
BRANCH  23  24
HETATM   24  C4  UNL     1       0.472  52.611 -25.923  1.00  0.00    -0.025 C 
HETATM   25  C2  UNL     1       1.191  51.973 -26.868  1.00  0.00    -0.091 C 
HETATM   26  C1  UNL     1       0.641  51.788 -28.257  1.00  0.00     0.042 C 
HETATM   27  C3  UNL     1       2.558  51.386 -26.656  1.00  0.00     0.042 C 
ENDBRANCH  23  24
ENDBRANCH  22  23
ENDBRANCH  20  22
ENDBRANCH   1  20
BRANCH  13  28
HETATM   28  C22 UNL     1      -6.386  45.902 -21.027  1.00  0.00     0.012 C 
BRANCH  28  29
HETATM   29  C23 UNL     1      -5.404  44.875 -20.450  1.00  0.00     0.027 C 
BRANCH  29  30
HETATM   30  C24 UNL     1      -6.104  43.587 -20.028  1.00  0.00     0.164 C 
BRANCH  30  31
HETATM   31  O1  UNL     1      -5.162  42.528 -19.949  1.00  0.00    -0.401 OA
HETATM   32  H42 UNL     1      -5.648  41.732 -19.675  1.00  0.00     0.209 HD
ENDBRANCH  30  31
ENDBRANCH  29  30
ENDBRANCH  28  29
ENDBRANCH  13  28
TORSDOF 8
ENDMDL
MODEL 7
REMARK minimizedAffinity -7.76587057
REMARK  8 active torsions:
REMARK  status: ('A' for Active; 'I' for Inactive)
REMARK    1  A    between atoms: C4_4  and  C5_5 
REMARK    2  A    between atoms: C5_5  and  C6_6 
REMARK    3  A    between atoms: C6_6  and  C7_7 
REMARK    4  A    between atoms: C7_7  and  C9_9 
REMARK    5  A    between atoms: C21_21  and  C22_22 
REMARK    6  A    between atoms: C22_22  and  C23_23 
REMARK    7  A    between atoms: C23_23  and  C24_24 
REMARK    8  A    between atoms: C24_24  and  O1_25 
ROOT
HETATM    1  C9  UNL     1      -5.993  48.474 -23.327  1.00  0.00    -0.002 C 
HETATM    2  C10 UNL     1      -5.701  47.245 -22.416  1.00  0.00     0.006 C 
HETATM    3  C11 UNL     1      -4.275  47.450 -21.835  1.00  0.00     0.011 C 
HETATM    4  C12 UNL     1      -3.683  48.617 -22.656  1.00  0.00    -0.032 C 
HETATM    5  C13 UNL     1      -3.173  47.961 -23.982  1.00  0.00     0.016 C 
HETATM    6  C14 UNL     1      -2.573  49.452 -21.961  1.00  0.00     0.003 C 
HETATM    7  C15 UNL     1      -1.325  48.658 -21.514  1.00  0.00     0.010 C 
HETATM    8  C16 UNL     1      -0.200  49.566 -21.003  1.00  0.00     0.035 C 
HETATM    9  C17 UNL     1      -0.744  50.881 -20.494  1.00  0.00    -0.073 C 
HETATM   10  C18 UNL     1      -0.688  51.266 -19.191  1.00  0.00    -0.085 C 
HETATM   11  C19 UNL     1      -1.193  52.595 -18.673  1.00  0.00     0.043 C 
HETATM   12  C20 UNL     1      -0.115  50.422 -18.075  1.00  0.00     0.043 C 
HETATM   13  C21 UNL     1      -1.441  51.715 -21.602  1.00  0.00     0.023 C 
HETATM   14  C25 UNL     1      -2.186  50.802 -22.701  1.00  0.00    -0.032 C 
HETATM   15  C26 UNL     1      -1.278  50.555 -23.935  1.00  0.00     0.016 C 
HETATM   16  C27 UNL     1      -3.466  51.554 -23.231  1.00  0.00     0.011 C 
HETATM   17  C28 UNL     1      -4.623  50.682 -23.774  1.00  0.00     0.011 C 
HETATM   18  C29 UNL     1      -4.963  49.526 -22.821  1.00  0.00    -0.032 C 
HETATM   19  C30 UNL     1      -5.484  50.164 -21.494  1.00  0.00     0.016 C 
ENDROOT
BRANCH   1  20
HETATM   20  C7  UNL     1      -7.488  48.894 -23.482  1.00  0.00    -0.014 C 
HETATM   21  C8  UNL     1      -8.430  48.329 -22.412  1.00  0.00     0.010 C 
BRANCH  20  22
HETATM   22  C6  UNL     1      -7.981  48.492 -24.903  1.00  0.00     0.008 C 
BRANCH  22  23
HETATM   23  C5  UNL     1      -7.246  47.319 -25.567  1.00  0.00     0.028 C 
BRANCH  23  24
HETATM   24  C4  UNL     1      -7.071  47.427 -27.056  1.00  0.00    -0.025 C 
HETATM   25  C2  UNL     1      -5.977  47.854 -27.718  1.00  0.00    -0.091 C 
HETATM   26  C1  UNL     1      -5.966  47.918 -29.223  1.00  0.00     0.042 C 
HETATM   27  C3  UNL     1      -4.694  48.287 -27.068  1.00  0.00     0.042 C 
ENDBRANCH  23  24
ENDBRANCH  22  23
ENDBRANCH  20  22
ENDBRANCH   1  20
BRANCH  13  28
HETATM   28  C22 UNL     1      -0.442  52.783 -22.118  1.00  0.00     0.012 C 
BRANCH  28  29
HETATM   29  C23 UNL     1       0.976  52.650 -21.548  1.00  0.00     0.027 C 
BRANCH  29  30
HETATM   30  C24 UNL     1       1.580  54.004 -21.191  1.00  0.00     0.164 C 
BRANCH  30  31
HETATM   31  O1  UNL     1       1.624  54.158 -19.781  1.00  0.00    -0.401 OA
HETATM   32  H42 UNL     1       2.018  55.028 -19.600  1.00  0.00     0.209 HD
ENDBRANCH  30  31
ENDBRANCH  29  30
ENDBRANCH  28  29
ENDBRANCH  13  28
TORSDOF 8
ENDMDL
MODEL 8
REMARK minimizedAffinity -7.62164736
REMARK  8 active torsions:
REMARK  status: ('A' for Active; 'I' for Inactive)
REMARK    1  A    between atoms: C4_4  and  C5_5 
REMARK    2  A    between atoms: C5_5  and  C6_6 
REMARK    3  A    between atoms: C6_6  and  C7_7 
REMARK    4  A    between atoms: C7_7  and  C9_9 
REMARK    5  A    between atoms: C21_21  and  C22_22 
REMARK    6  A    between atoms: C22_22  and  C23_23 
REMARK    7  A    between atoms: C23_23  and  C24_24 
REMARK    8  A    between atoms: C24_24  and  O1_25 
ROOT
HETATM    1  C9  UNL     1      -1.605  51.506 -26.068  1.00  0.00    -0.002 C 
HETATM    2  C10 UNL     1      -2.790  51.289 -27.055  1.00  0.00     0.006 C 
HETATM    3  C11 UNL     1      -3.780  50.319 -26.354  1.00  0.00     0.011 C 
HETATM    4  C12 UNL     1      -3.002  49.779 -25.134  1.00  0.00    -0.032 C 
HETATM    5  C13 UNL     1      -2.103  48.632 -25.704  1.00  0.00     0.016 C 
HETATM    6  C14 UNL     1      -3.858  49.299 -23.931  1.00  0.00     0.003 C 
HETATM    7  C15 UNL     1      -4.866  48.170 -24.241  1.00  0.00     0.010 C 
HETATM    8  C16 UNL     1      -5.546  47.622 -22.980  1.00  0.00     0.035 C 
HETATM    9  C17 UNL     1      -5.552  48.648 -21.870  1.00  0.00    -0.073 C 
HETATM   10  C18 UNL     1      -6.685  49.217 -21.377  1.00  0.00    -0.085 C 
HETATM   11  C19 UNL     1      -6.711  50.217 -20.241  1.00  0.00     0.043 C 
HETATM   12  C20 UNL     1      -8.078  48.935 -21.893  1.00  0.00     0.043 C 
HETATM   13  C21 UNL     1      -4.125  49.040 -21.402  1.00  0.00     0.023 C 
HETATM   14  C25 UNL     1      -3.045  49.019 -22.597  1.00  0.00    -0.032 C 
HETATM   15  C26 UNL     1      -2.286  47.666 -22.644  1.00  0.00     0.016 C 
HETATM   16  C27 UNL     1      -1.957  50.132 -22.344  1.00  0.00     0.011 C 
HETATM   17  C28 UNL     1      -1.231  50.705 -23.584  1.00  0.00     0.011 C 
HETATM   18  C29 UNL     1      -2.217  51.078 -24.701  1.00  0.00    -0.032 C 
HETATM   19  C30 UNL     1      -3.116  52.231 -24.154  1.00  0.00     0.016 C 
ENDROOT
BRANCH   1  20
HETATM   20  C7  UNL     1      -0.853  52.870 -26.165  1.00  0.00    -0.014 C 
HETATM   21  C8  UNL     1      -0.691  53.418 -27.588  1.00  0.00     0.010 C 
BRANCH  20  22
HETATM   22  C6  UNL     1       0.538  52.729 -25.478  1.00  0.00     0.008 C 
BRANCH  22  23
HETATM   23  C5  UNL     1       0.772  53.608 -24.240  1.00  0.00     0.028 C 
BRANCH  23  24
HETATM   24  C4  UNL     1       0.517  52.939 -22.918  1.00  0.00    -0.025 C 
HETATM   25  C2  UNL     1       0.970  53.326 -21.709  1.00  0.00    -0.091 C 
HETATM   26  C1  UNL     1       0.635  52.534 -20.473  1.00  0.00     0.042 C 
HETATM   27  C3  UNL     1       1.813  54.545 -21.458  1.00  0.00     0.042 C 
ENDBRANCH  23  24
ENDBRANCH  22  23
ENDBRANCH  20  22
ENDBRANCH   1  20
BRANCH  13  28
HETATM   28  C22 UNL     1      -3.788  48.238 -20.119  1.00  0.00     0.012 C 
BRANCH  28  29
HETATM   29  C23 UNL     1      -2.974  49.019 -19.081  1.00  0.00     0.027 C 
BRANCH  29  30
HETATM   30  C24 UNL     1      -3.448  50.463 -18.949  1.00  0.00     0.164 C 
BRANCH  30  31
HETATM   31  O1  UNL     1      -2.330  51.336 -18.885  1.00  0.00    -0.401 OA
HETATM   32  H42 UNL     1      -2.676  52.240 -18.807  1.00  0.00     0.209 HD
ENDBRANCH  30  31
ENDBRANCH  29  30
ENDBRANCH  28  29
ENDBRANCH  13  28
TORSDOF 8
ENDMDL
MODEL 9
REMARK minimizedAffinity -7.61348295
REMARK  8 active torsions:
REMARK  status: ('A' for Active; 'I' for Inactive)
REMARK    1  A    between atoms: C4_4  and  C5_5 
REMARK    2  A    between atoms: C5_5  and  C6_6 
REMARK    3  A    between atoms: C6_6  and  C7_7 
REMARK    4  A    between atoms: C7_7  and  C9_9 
REMARK    5  A    between atoms: C21_21  and  C22_22 
REMARK    6  A    between atoms: C22_22  and  C23_23 
REMARK    7  A    between atoms: C23_23  and  C24_24 
REMARK    8  A    between atoms: C24_24  and  O1_25 
ROOT
HETATM    1  C9  UNL     1      -2.554  50.662 -22.269  1.00  0.00    -0.002 C 
HETATM    2  C10 UNL     1      -1.880  49.494 -23.047  1.00  0.00     0.006 C 
HETATM    3  C11 UNL     1      -2.814  48.261 -22.896  1.00  0.00     0.011 C 
HETATM    4  C12 UNL     1      -3.825  48.669 -21.801  1.00  0.00    -0.032 C 
HETATM    5  C13 UNL     1      -3.081  48.414 -20.449  1.00  0.00     0.016 C 
HETATM    6  C14 UNL     1      -5.206  47.959 -21.844  1.00  0.00     0.003 C 
HETATM    7  C15 UNL     1      -5.165  46.419 -21.739  1.00  0.00     0.010 C 
HETATM    8  C16 UNL     1      -6.562  45.799 -21.605  1.00  0.00     0.035 C 
HETATM    9  C17 UNL     1      -7.622  46.701 -22.193  1.00  0.00    -0.073 C 
HETATM   10  C18 UNL     1      -8.358  46.382 -23.291  1.00  0.00    -0.085 C 
HETATM   11  C19 UNL     1      -9.449  47.257 -23.869  1.00  0.00     0.043 C 
HETATM   12  C20 UNL     1      -8.192  45.110 -24.091  1.00  0.00     0.043 C 
HETATM   13  C21 UNL     1      -7.731  48.064 -21.458  1.00  0.00     0.023 C 
HETATM   14  C25 UNL     1      -6.314  48.591 -20.899  1.00  0.00    -0.032 C 
HETATM   15  C26 UNL     1      -6.114  48.193 -19.412  1.00  0.00     0.016 C 
HETATM   16  C27 UNL     1      -6.281  50.166 -20.947  1.00  0.00     0.011 C 
HETATM   17  C28 UNL     1      -4.894  50.839 -21.065  1.00  0.00     0.011 C 
HETATM   18  C29 UNL     1      -4.035  50.191 -22.161  1.00  0.00    -0.032 C 
HETATM   19  C30 UNL     1      -4.758  50.446 -23.521  1.00  0.00     0.016 C 
ENDROOT
BRANCH   1  20
HETATM   20  C7  UNL     1      -2.256  52.107 -22.776  1.00  0.00    -0.014 C 
HETATM   21  C8  UNL     1      -3.016  52.515 -24.044  1.00  0.00     0.010 C 
BRANCH  20  22
HETATM   22  C6  UNL     1      -0.721  52.260 -22.993  1.00  0.00     0.008 C 
BRANCH  22  23
HETATM   23  C5  UNL     1      -0.291  53.089 -24.212  1.00  0.00     0.028 C 
BRANCH  23  24
HETATM   24  C4  UNL     1       0.957  52.617 -24.905  1.00  0.00    -0.025 C 
HETATM   25  C2  UNL     1       1.056  51.647 -25.835  1.00  0.00    -0.091 C 
HETATM   26  C1  UNL     1       2.392  51.280 -26.425  1.00  0.00     0.042 C 
HETATM   27  C3  UNL     1      -0.102  50.858 -26.379  1.00  0.00     0.042 C 
ENDBRANCH  23  24
ENDBRANCH  22  23
ENDBRANCH  20  22
ENDBRANCH   1  20
BRANCH  13  28
HETATM   28  C22 UNL     1      -8.913  47.991 -20.457  1.00  0.00     0.012 C 
BRANCH  28  29
HETATM   29  C23 UNL     1      -8.604  48.573 -19.072  1.00  0.00     0.027 C 
BRANCH  29  30
HETATM   30  C24 UNL     1      -9.436  47.917 -17.975  1.00  0.00     0.164 C 
BRANCH  30  31
HETATM   31  O1  UNL     1      -9.548  48.792 -16.863  1.00  0.00    -0.401 OA
HETATM   32  H42 UNL     1     -10.087  48.337 -16.194  1.00  0.00     0.209 HD
ENDBRANCH  30  31
ENDBRANCH  29  30
ENDBRANCH  28  29
ENDBRANCH  13  28
TORSDOF 8
ENDMDL
