MODEL 1
REMARK minimizedAffinity -9.03177357
REMARK  8 active torsions:
REMARK  status: ('A' for Active; 'I' for Inactive)
REMARK    1  A    between atoms: C4_4  and  C5_5 
REMARK    2  A    between atoms: C5_5  and  C6_6 
REMARK    3  A    between atoms: C6_6  and  C7_7 
REMARK    4  A    between atoms: C9_9  and  C10_10 
REMARK    5  A    between atoms: C11_11  and  C12_12 
REMARK    6  A    between atoms: C14_14  and  C15_15 
REMARK    7  A    between atoms: C24_25  and  C26_27 
REMARK    8  A    between atoms: C29_31  and  O3_33 
ROOT
HETATM    1  C15 UNL     1       0.460   5.541  11.449  1.00  0.00     0.149 C 
HETATM    2  C16 UNL     1       0.310   5.938   9.975  1.00  0.00     0.054 C 
HETATM    3  C17 UNL     1       1.290   7.124   9.815  1.00  0.00     0.050 C 
HETATM    4  C18 UNL     1       1.053   7.768  11.194  1.00  0.00     0.272 C 
HETATM    5  O1  UNL     1       1.929   8.819  11.541  1.00  0.00    -0.360 OA
HETATM    6  C19 UNL     1       3.077   8.481  12.288  1.00  0.00     0.171 C 
HETATM    7  C20 UNL     1       4.067   7.562  11.588  1.00  0.00     0.027 C 
HETATM    8  C21 UNL     1       3.918   7.455  10.072  1.00  0.00     0.012 C 
HETATM    9  C22 UNL     1       2.750   6.531   9.672  1.00  0.00     0.032 C 
HETATM   10  C23 UNL     1       2.988   5.929   8.272  1.00  0.00    -0.066 C 
HETATM   11  C24 UNL     1       3.428   4.666   8.029  1.00  0.00    -0.021 C 
HETATM   12  C25 UNL     1       3.547   4.010   6.676  1.00  0.00     0.052 C 
HETATM   13  C27 UNL     1       2.661   6.910   7.167  1.00  0.00     0.038 C 
HETATM   14  C28 UNL     1       1.213   7.379   7.269  1.00  0.00     0.042 C 
HETATM   15  C29 UNL     1       0.933   8.074   8.615  1.00  0.00     0.067 C 
HETATM   16  C30 UNL     1      -0.513   8.599   8.596  1.00  0.00     0.047 C 
HETATM   17  O4  UNL     1       0.975   6.695  12.143  1.00  0.00    -0.351 OA
ENDROOT
BRANCH   1  18
HETATM   18  C14 UNL     1      -0.841   5.144  12.084  1.00  0.00     0.011 C 
HETATM   19  C12 UNL     1      -1.265   5.426  13.334  1.00  0.00    -0.063 C 
HETATM   20  C13 UNL     1      -0.432   6.177  14.343  1.00  0.00     0.048 C 
BRANCH  19  21
HETATM   21  C11 UNL     1      -2.589   4.959  13.746  1.00  0.00     0.006 C 
HETATM   22  C10 UNL     1      -3.654   4.771  12.948  1.00  0.00     0.001 C 
BRANCH  22  23
HETATM   23  C9  UNL     1      -4.938   4.326  13.455  1.00  0.00     0.002 C 
HETATM   24  C7  UNL     1      -5.912   3.693  12.766  1.00  0.00    -0.084 C 
HETATM   25  C8  UNL     1      -5.808   3.280  11.317  1.00  0.00     0.043 C 
BRANCH  24  26
HETATM   26  C6  UNL     1      -7.257   3.306  13.377  1.00  0.00     0.037 C 
BRANCH  26  27
HETATM   27  C5  UNL     1      -8.422   4.299  13.243  1.00  0.00     0.031 C 
BRANCH  27  28
HETATM   28  C4  UNL     1      -7.963   5.718  13.447  1.00  0.00    -0.024 C 
HETATM   29  C2  UNL     1      -7.682   6.336  14.612  1.00  0.00    -0.091 C 
HETATM   30  C1  UNL     1      -7.186   7.758  14.626  1.00  0.00     0.042 C 
HETATM   31  C3  UNL     1      -7.829   5.719  15.976  1.00  0.00     0.042 C 
ENDBRANCH  27  28
ENDBRANCH  26  27
ENDBRANCH  24  26
ENDBRANCH  22  23
ENDBRANCH  19  21
ENDBRANCH   1  18
BRANCH  15  32
HETATM   32  O3  UNL     1       1.770   9.236   8.667  1.00  0.00    -0.389 OA
HETATM   33  H44 UNL     1       1.512   9.849   7.959  1.00  0.00     0.210 HD
ENDBRANCH  15  32
BRANCH  11  34
HETATM   34  C26 UNL     1       3.884   3.755   9.132  1.00  0.00     0.265 C 
HETATM   35  O2  UNL     1       4.967   3.180   9.114  1.00  0.00    -0.302 OA
ENDBRANCH  11  34
TORSDOF 8
ENDMDL
MODEL 2
REMARK minimizedAffinity -8.92112827
REMARK  8 active torsions:
REMARK  status: ('A' for Active; 'I' for Inactive)
REMARK    1  A    between atoms: C4_4  and  C5_5 
REMARK    2  A    between atoms: C5_5  and  C6_6 
REMARK    3  A    between atoms: C6_6  and  C7_7 
REMARK    4  A    between atoms: C9_9  and  C10_10 
REMARK    5  A    between atoms: C11_11  and  C12_12 
REMARK    6  A    between atoms: C14_14  and  C15_15 
REMARK    7  A    between atoms: C24_25  and  C26_27 
REMARK    8  A    between atoms: C29_31  and  O3_33 
ROOT
HETATM    1  C15 UNL     1       0.818   5.861  11.750  1.00  0.00     0.149 C 
HETATM    2  C16 UNL     1       0.511   6.138  10.273  1.00  0.00     0.054 C 
HETATM    3  C17 UNL     1       1.475   7.291   9.909  1.00  0.00     0.050 C 
HETATM    4  C18 UNL     1       1.395   8.050  11.247  1.00  0.00     0.272 C 
HETATM    5  O1  UNL     1       2.310   9.113  11.408  1.00  0.00    -0.360 OA
HETATM    6  C19 UNL     1       3.531   8.819  12.052  1.00  0.00     0.171 C 
HETATM    7  C20 UNL     1       4.433   7.829  11.328  1.00  0.00     0.027 C 
HETATM    8  C21 UNL     1       4.118   7.601   9.850  1.00  0.00     0.012 C 
HETATM    9  C22 UNL     1       2.907   6.666   9.659  1.00  0.00     0.032 C 
HETATM   10  C23 UNL     1       2.987   5.947   8.296  1.00  0.00    -0.066 C 
HETATM   11  C24 UNL     1       3.389   4.662   8.112  1.00  0.00    -0.021 C 
HETATM   12  C25 UNL     1       3.355   3.895   6.815  1.00  0.00     0.052 C 
HETATM   13  C27 UNL     1       2.547   6.839   7.155  1.00  0.00     0.038 C 
HETATM   14  C28 UNL     1       1.122   7.338   7.374  1.00  0.00     0.042 C 
HETATM   15  C29 UNL     1       0.996   8.145   8.679  1.00  0.00     0.067 C 
HETATM   16  C30 UNL     1      -0.441   8.690   8.774  1.00  0.00     0.047 C 
HETATM   17  O4  UNL     1       1.414   7.060  12.285  1.00  0.00    -0.351 OA
ENDROOT
BRANCH   1  18
HETATM   18  C14 UNL     1      -0.408   5.539  12.552  1.00  0.00     0.011 C 
HETATM   19  C12 UNL     1      -0.732   6.000  13.778  1.00  0.00    -0.063 C 
HETATM   20  C13 UNL     1       0.157   6.916  14.582  1.00  0.00     0.048 C 
BRANCH  19  21
HETATM   21  C11 UNL     1      -1.998   5.574  14.375  1.00  0.00     0.006 C 
HETATM   22  C10 UNL     1      -2.983   6.376  14.818  1.00  0.00     0.001 C 
BRANCH  22  23
HETATM   23  C9  UNL     1      -4.198   5.858  15.418  1.00  0.00     0.002 C 
HETATM   24  C7  UNL     1      -5.381   6.496  15.544  1.00  0.00    -0.084 C 
HETATM   25  C8  UNL     1      -5.669   7.882  15.017  1.00  0.00     0.043 C 
BRANCH  24  26
HETATM   26  C6  UNL     1      -6.595   5.884  16.239  1.00  0.00     0.037 C 
BRANCH  26  27
HETATM   27  C5  UNL     1      -7.784   5.452  15.366  1.00  0.00     0.031 C 
BRANCH  27  28
HETATM   28  C4  UNL     1      -7.465   4.211  14.576  1.00  0.00    -0.024 C 
HETATM   29  C2  UNL     1      -7.617   4.012  13.251  1.00  0.00    -0.091 C 
HETATM   30  C1  UNL     1      -7.200   2.712  12.618  1.00  0.00     0.042 C 
HETATM   31  C3  UNL     1      -8.201   5.010  12.289  1.00  0.00     0.042 C 
ENDBRANCH  27  28
ENDBRANCH  26  27
ENDBRANCH  24  26
ENDBRANCH  22  23
ENDBRANCH  19  21
ENDBRANCH   1  18
BRANCH  15  32
HETATM   32  O3  UNL     1       1.841   9.294   8.544  1.00  0.00    -0.389 OA
HETATM   33  H44 UNL     1       1.511   9.850   7.819  1.00  0.00     0.210 HD
ENDBRANCH  15  32
BRANCH  11  34
HETATM   34  C26 UNL     1       3.957   3.838   9.232  1.00  0.00     0.265 C 
HETATM   35  O2  UNL     1       4.832   2.997   9.060  1.00  0.00    -0.302 OA
ENDBRANCH  11  34
TORSDOF 8
ENDMDL
MODEL 3
REMARK minimizedAffinity -7.67916965
REMARK  8 active torsions:
REMARK  status: ('A' for Active; 'I' for Inactive)
REMARK    1  A    between atoms: C4_4  and  C5_5 
REMARK    2  A    between atoms: C5_5  and  C6_6 
REMARK    3  A    between atoms: C6_6  and  C7_7 
REMARK    4  A    between atoms: C9_9  and  C10_10 
REMARK    5  A    between atoms: C11_11  and  C12_12 
REMARK    6  A    between atoms: C14_14  and  C15_15 
REMARK    7  A    between atoms: C24_25  and  C26_27 
REMARK    8  A    between atoms: C29_31  and  O3_33 
ROOT
HETATM    1  C15 UNL     1     -10.905   7.139  14.710  1.00  0.00     0.149 C 
HETATM    2  C16 UNL     1     -11.079   8.598  14.271  1.00  0.00     0.054 C 
HETATM    3  C17 UNL     1     -12.605   8.831  14.378  1.00  0.00     0.050 C 
HETATM    4  C18 UNL     1     -13.055   7.438  13.897  1.00  0.00     0.272 C 
HETATM    5  O1  UNL     1     -14.432   7.158  14.026  1.00  0.00    -0.360 OA
HETATM    6  C19 UNL     1     -14.847   6.498  15.202  1.00  0.00     0.171 C 
HETATM    7  C20 UNL     1     -14.634   7.268  16.497  1.00  0.00     0.027 C 
HETATM    8  C21 UNL     1     -14.396   8.769  16.345  1.00  0.00     0.012 C 
HETATM    9  C22 UNL     1     -12.952   9.081  15.901  1.00  0.00     0.032 C 
HETATM   10  C23 UNL     1     -12.536  10.495  16.358  1.00  0.00    -0.066 C 
HETATM   11  C24 UNL     1     -11.746  10.769  17.429  1.00  0.00    -0.021 C 
HETATM   12  C25 UNL     1     -11.219  12.125  17.822  1.00  0.00     0.052 C 
HETATM   13  C27 UNL     1     -13.103  11.572  15.460  1.00  0.00     0.038 C 
HETATM   14  C28 UNL     1     -12.659  11.364  14.015  1.00  0.00     0.042 C 
HETATM   15  C29 UNL     1     -13.125  10.002  13.468  1.00  0.00     0.067 C 
HETATM   16  C30 UNL     1     -12.723   9.914  11.985  1.00  0.00     0.047 C 
HETATM   17  O4  UNL     1     -12.173   6.486  14.508  1.00  0.00    -0.351 OA
ENDROOT
BRANCH   1  18
HETATM   18  C14 UNL     1      -9.860   6.409  13.916  1.00  0.00     0.011 C 
HETATM   19  C12 UNL     1      -8.521   6.474  14.066  1.00  0.00    -0.063 C 
HETATM   20  C13 UNL     1      -7.840   7.369  15.073  1.00  0.00     0.048 C 
BRANCH  19  21
HETATM   21  C11 UNL     1      -7.678   5.656  13.194  1.00  0.00     0.006 C 
HETATM   22  C10 UNL     1      -7.651   4.312  13.141  1.00  0.00     0.001 C 
BRANCH  22  23
HETATM   23  C9  UNL     1      -6.760   3.586  12.255  1.00  0.00     0.002 C 
HETATM   24  C7  UNL     1      -5.410   3.620  12.250  1.00  0.00    -0.084 C 
HETATM   25  C8  UNL     1      -4.568   4.401  13.231  1.00  0.00     0.043 C 
BRANCH  24  26
HETATM   26  C6  UNL     1      -4.555   2.855  11.242  1.00  0.00     0.037 C 
BRANCH  26  27
HETATM   27  C5  UNL     1      -3.639   3.666  10.313  1.00  0.00     0.031 C 
BRANCH  27  28
HETATM   28  C4  UNL     1      -2.303   3.936  10.954  1.00  0.00    -0.024 C 
HETATM   29  C2  UNL     1      -1.311   3.056  11.198  1.00  0.00    -0.091 C 
HETATM   30  C1  UNL     1      -0.014   3.514  11.810  1.00  0.00     0.042 C 
HETATM   31  C3  UNL     1      -1.373   1.581  10.911  1.00  0.00     0.042 C 
ENDBRANCH  27  28
ENDBRANCH  26  27
ENDBRANCH  24  26
ENDBRANCH  22  23
ENDBRANCH  19  21
ENDBRANCH   1  18
BRANCH  15  32
HETATM   32  O3  UNL     1     -14.558  10.012  13.485  1.00  0.00    -0.389 OA
HETATM   33  H44 UNL     1     -14.880  10.700  12.878  1.00  0.00     0.210 HD
ENDBRANCH  15  32
BRANCH  11  34
HETATM   34  C26 UNL     1     -11.311   9.701  18.392  1.00  0.00     0.265 C 
HETATM   35  O2  UNL     1     -11.293   9.869  19.606  1.00  0.00    -0.302 OA
ENDBRANCH  11  34
TORSDOF 8
ENDMDL
MODEL 4
REMARK minimizedAffinity -7.65073633
REMARK  8 active torsions:
REMARK  status: ('A' for Active; 'I' for Inactive)
REMARK    1  A    between atoms: C4_4  and  C5_5 
REMARK    2  A    between atoms: C5_5  and  C6_6 
REMARK    3  A    between atoms: C6_6  and  C7_7 
REMARK    4  A    between atoms: C9_9  and  C10_10 
REMARK    5  A    between atoms: C11_11  and  C12_12 
REMARK    6  A    between atoms: C14_14  and  C15_15 
REMARK    7  A    between atoms: C24_25  and  C26_27 
REMARK    8  A    between atoms: C29_31  and  O3_33 
ROOT
HETATM    1  C15 UNL     1       3.961   9.131  14.588  1.00  0.00     0.149 C 
HETATM    2  C16 UNL     1       5.198   8.304  14.219  1.00  0.00     0.054 C 
HETATM    3  C17 UNL     1       6.014   9.252  13.310  1.00  0.00     0.050 C 
HETATM    4  C18 UNL     1       4.824   9.904  12.580  1.00  0.00     0.272 C 
HETATM    5  O1  UNL     1       5.137  11.008  11.758  1.00  0.00    -0.360 OA
HETATM    6  C19 UNL     1       5.030  12.291  12.337  1.00  0.00     0.171 C 
HETATM    7  C20 UNL     1       5.981  12.571  13.491  1.00  0.00     0.027 C 
HETATM    8  C21 UNL     1       7.176  11.627  13.612  1.00  0.00     0.012 C 
HETATM    9  C22 UNL     1       6.780  10.276  14.241  1.00  0.00     0.032 C 
HETATM   10  C23 UNL     1       7.995   9.622  14.932  1.00  0.00    -0.066 C 
HETATM   11  C24 UNL     1       8.227   9.623  16.271  1.00  0.00    -0.021 C 
HETATM   12  C25 UNL     1       9.332   8.885  16.983  1.00  0.00     0.052 C 
HETATM   13  C27 UNL     1       8.920   8.951  13.940  1.00  0.00     0.038 C 
HETATM   14  C28 UNL     1       8.176   7.892  13.133  1.00  0.00     0.042 C 
HETATM   15  C29 UNL     1       7.000   8.500  12.345  1.00  0.00     0.067 C 
HETATM   16  C30 UNL     1       6.367   7.389  11.488  1.00  0.00     0.047 C 
HETATM   17  O4  UNL     1       3.812  10.139  13.569  1.00  0.00    -0.351 OA
ENDROOT
BRANCH   1  18
HETATM   18  C14 UNL     1       2.703   8.314  14.638  1.00  0.00     0.011 C 
HETATM   19  C12 UNL     1       2.209   7.508  13.675  1.00  0.00    -0.063 C 
HETATM   20  C13 UNL     1       2.855   7.337  12.322  1.00  0.00     0.048 C 
BRANCH  19  21
HETATM   21  C11 UNL     1       0.969   6.777  13.941  1.00  0.00     0.006 C 
HETATM   22  C10 UNL     1       0.411   5.839  13.156  1.00  0.00     0.001 C 
BRANCH  22  23
HETATM   23  C9  UNL     1      -0.839   5.184  13.495  1.00  0.00     0.002 C 
HETATM   24  C7  UNL     1      -2.079   5.713  13.433  1.00  0.00    -0.084 C 
HETATM   25  C8  UNL     1      -2.395   7.103  12.933  1.00  0.00     0.043 C 
BRANCH  24  26
HETATM   26  C6  UNL     1      -3.336   4.958  13.860  1.00  0.00     0.037 C 
BRANCH  26  27
HETATM   27  C5  UNL     1      -4.565   5.025  12.940  1.00  0.00     0.031 C 
BRANCH  27  28
HETATM   28  C4  UNL     1      -4.749   3.743  12.172  1.00  0.00    -0.024 C 
HETATM   29  C2  UNL     1      -5.854   2.973  12.102  1.00  0.00    -0.091 C 
HETATM   30  C1  UNL     1      -5.874   1.738  11.241  1.00  0.00     0.042 C 
HETATM   31  C3  UNL     1      -7.136   3.231  12.843  1.00  0.00     0.042 C 
ENDBRANCH  27  28
ENDBRANCH  26  27
ENDBRANCH  24  26
ENDBRANCH  22  23
ENDBRANCH  19  21
ENDBRANCH   1  18
BRANCH  15  32
HETATM   32  O3  UNL     1       7.560   9.438  11.417  1.00  0.00    -0.389 OA
HETATM   33  H44 UNL     1       8.126   8.964  10.785  1.00  0.00     0.210 HD
ENDBRANCH  15  32
BRANCH  11  34
HETATM   34  C26 UNL     1       7.379  10.413  17.225  1.00  0.00     0.265 C 
HETATM   35  O2  UNL     1       7.222  10.091  18.398  1.00  0.00    -0.302 OA
ENDBRANCH  11  34
TORSDOF 8
ENDMDL
MODEL 5
REMARK minimizedAffinity -7.56508207
REMARK  8 active torsions:
REMARK  status: ('A' for Active; 'I' for Inactive)
REMARK    1  A    between atoms: C4_4  and  C5_5 
REMARK    2  A    between atoms: C5_5  and  C6_6 
REMARK    3  A    between atoms: C6_6  and  C7_7 
REMARK    4  A    between atoms: C9_9  and  C10_10 
REMARK    5  A    between atoms: C11_11  and  C12_12 
REMARK    6  A    between atoms: C14_14  and  C15_15 
REMARK    7  A    between atoms: C24_25  and  C26_27 
REMARK    8  A    between atoms: C29_31  and  O3_33 
ROOT
HETATM    1  C15 UNL     1      -2.032  10.179  14.951  1.00  0.00     0.149 C 
HETATM    2  C16 UNL     1      -2.540  10.991  16.148  1.00  0.00     0.054 C 
HETATM    3  C17 UNL     1      -1.290  11.137  17.047  1.00  0.00     0.050 C 
HETATM    4  C18 UNL     1      -0.696   9.739  16.794  1.00  0.00     0.272 C 
HETATM    5  O1  UNL     1       0.601   9.520  17.306  1.00  0.00    -0.360 OA
HETATM    6  C19 UNL     1       1.685   9.751  16.433  1.00  0.00     0.171 C 
HETATM    7  C20 UNL     1       1.851  11.188  15.961  1.00  0.00     0.027 C 
HETATM    8  C21 UNL     1       1.114  12.247  16.780  1.00  0.00     0.012 C 
HETATM    9  C22 UNL     1      -0.390  12.290  16.443  1.00  0.00     0.032 C 
HETATM   10  C23 UNL     1      -0.973  13.687  16.742  1.00  0.00    -0.066 C 
HETATM   11  C24 UNL     1      -1.236  14.640  15.810  1.00  0.00    -0.021 C 
HETATM   12  C25 UNL     1      -1.922  15.960  16.054  1.00  0.00     0.052 C 
HETATM   13  C27 UNL     1      -1.243  13.887  18.218  1.00  0.00     0.038 C 
HETATM   14  C28 UNL     1      -2.200  12.824  18.744  1.00  0.00     0.042 C 
HETATM   15  C29 UNL     1      -1.633  11.405  18.558  1.00  0.00     0.067 C 
HETATM   16  C30 UNL     1      -2.611  10.404  19.200  1.00  0.00     0.047 C 
HETATM   17  O4  UNL     1      -0.859   9.468  15.395  1.00  0.00    -0.351 OA
ENDROOT
BRANCH   1  18
HETATM   18  C14 UNL     1      -3.035   9.179  14.454  1.00  0.00     0.011 C 
HETATM   19  C12 UNL     1      -3.076   8.591  13.239  1.00  0.00    -0.063 C 
HETATM   20  C13 UNL     1      -2.098   8.901  12.133  1.00  0.00     0.048 C 
BRANCH  19  21
HETATM   21  C11 UNL     1      -4.135   7.619  12.968  1.00  0.00     0.006 C 
HETATM   22  C10 UNL     1      -5.103   7.233  13.818  1.00  0.00     0.001 C 
BRANCH  22  23
HETATM   23  C9  UNL     1      -6.100   6.241  13.463  1.00  0.00     0.002 C 
HETATM   24  C7  UNL     1      -6.909   5.562  14.304  1.00  0.00    -0.084 C 
HETATM   25  C8  UNL     1      -6.955   5.764  15.801  1.00  0.00     0.043 C 
BRANCH  24  26
HETATM   26  C6  UNL     1      -7.898   4.495  13.839  1.00  0.00     0.037 C 
BRANCH  26  27
HETATM   27  C5  UNL     1      -7.331   3.176  13.292  1.00  0.00     0.031 C 
BRANCH  27  28
HETATM   28  C4  UNL     1      -6.082   3.408  12.484  1.00  0.00    -0.024 C 
HETATM   29  C2  UNL     1      -5.519   2.583  11.577  1.00  0.00    -0.091 C 
HETATM   30  C1  UNL     1      -4.284   3.000  10.824  1.00  0.00     0.042 C 
HETATM   31  C3  UNL     1      -6.022   1.209  11.229  1.00  0.00     0.042 C 
ENDBRANCH  27  28
ENDBRANCH  26  27
ENDBRANCH  24  26
ENDBRANCH  22  23
ENDBRANCH  19  21
ENDBRANCH   1  18
BRANCH  15  32
HETATM   32  O3  UNL     1      -0.431  11.329  19.335  1.00  0.00    -0.389 OA
HETATM   33  H44 UNL     1      -0.651  11.438  20.275  1.00  0.00     0.210 HD
ENDBRANCH  15  32
BRANCH  11  34
HETATM   34  C26 UNL     1      -0.831  14.480  14.372  1.00  0.00     0.265 C 
HETATM   35  O2  UNL     1      -1.574  14.001  13.522  1.00  0.00    -0.302 OA
ENDBRANCH  11  34
TORSDOF 8
ENDMDL
MODEL 6
REMARK minimizedAffinity -7.48887777
REMARK  8 active torsions:
REMARK  status: ('A' for Active; 'I' for Inactive)
REMARK    1  A    between atoms: C4_4  and  C5_5 
REMARK    2  A    between atoms: C5_5  and  C6_6 
REMARK    3  A    between atoms: C6_6  and  C7_7 
REMARK    4  A    between atoms: C9_9  and  C10_10 
REMARK    5  A    between atoms: C11_11  and  C12_12 
REMARK    6  A    between atoms: C14_14  and  C15_15 
REMARK    7  A    between atoms: C24_25  and  C26_27 
REMARK    8  A    between atoms: C29_31  and  O3_33 
ROOT
HETATM    1  C15 UNL     1      -1.806   8.811  12.852  1.00  0.00     0.149 C 
HETATM    2  C16 UNL     1      -0.281   8.723  12.984  1.00  0.00     0.054 C 
HETATM    3  C17 UNL     1      -0.001   7.202  12.981  1.00  0.00     0.050 C 
HETATM    4  C18 UNL     1      -1.238   6.769  13.791  1.00  0.00     0.272 C 
HETATM    5  O1  UNL     1      -1.472   5.379  13.861  1.00  0.00    -0.360 OA
HETATM    6  C19 UNL     1      -2.343   4.823  12.900  1.00  0.00     0.171 C 
HETATM    7  C20 UNL     1      -1.873   4.918  11.456  1.00  0.00     0.027 C 
HETATM    8  C21 UNL     1      -0.387   5.210  11.258  1.00  0.00     0.012 C 
HETATM    9  C22 UNL     1      -0.060   6.701  11.482  1.00  0.00     0.032 C 
HETATM   10  C23 UNL     1       1.205   7.103  10.694  1.00  0.00    -0.066 C 
HETATM   11  C24 UNL     1       1.209   7.782   9.517  1.00  0.00    -0.021 C 
HETATM   12  C25 UNL     1       2.426   8.299   8.792  1.00  0.00     0.052 C 
HETATM   13  C27 UNL     1       2.473   6.665  11.393  1.00  0.00     0.038 C 
HETATM   14  C28 UNL     1       2.552   7.253  12.797  1.00  0.00     0.042 C 
HETATM   15  C29 UNL     1       1.359   6.813  13.666  1.00  0.00     0.067 C 
HETATM   16  C30 UNL     1       1.565   7.368  15.087  1.00  0.00     0.047 C 
HETATM   17  O4  UNL     1      -2.339   7.554  13.314  1.00  0.00    -0.351 OA
ENDROOT
BRANCH   1  18
HETATM   18  C14 UNL     1      -2.402   9.914  13.677  1.00  0.00     0.011 C 
HETATM   19  C12 UNL     1      -2.105  10.238  14.953  1.00  0.00    -0.063 C 
HETATM   20  C13 UNL     1      -1.115   9.471  15.795  1.00  0.00     0.048 C 
BRANCH  19  21
HETATM   21  C11 UNL     1      -2.793  11.374  15.566  1.00  0.00     0.006 C 
HETATM   22  C10 UNL     1      -4.078  11.412  15.962  1.00  0.00     0.001 C 
BRANCH  22  23
HETATM   23  C9  UNL     1      -4.679  12.598  16.541  1.00  0.00     0.002 C 
HETATM   24  C7  UNL     1      -4.651  12.976  17.837  1.00  0.00    -0.084 C 
HETATM   25  C8  UNL     1      -3.921  12.235  18.932  1.00  0.00     0.043 C 
BRANCH  24  26
HETATM   26  C6  UNL     1      -5.359  14.223  18.363  1.00  0.00     0.037 C 
BRANCH  26  27
HETATM   27  C5  UNL     1      -5.681  14.290  19.864  1.00  0.00     0.031 C 
BRANCH  27  28
HETATM   28  C4  UNL     1      -7.061  13.763  20.156  1.00  0.00    -0.024 C 
HETATM   29  C2  UNL     1      -7.543  13.315  21.333  1.00  0.00    -0.091 C 
HETATM   30  C1  UNL     1      -8.974  12.864  21.454  1.00  0.00     0.042 C 
HETATM   31  C3  UNL     1      -6.751  13.207  22.607  1.00  0.00     0.042 C 
ENDBRANCH  27  28
ENDBRANCH  26  27
ENDBRANCH  24  26
ENDBRANCH  22  23
ENDBRANCH  19  21
ENDBRANCH   1  18
BRANCH  15  32
HETATM   32  O3  UNL     1       1.435   5.387  13.789  1.00  0.00    -0.389 OA
HETATM   33  H44 UNL     1       2.249   5.150  14.263  1.00  0.00     0.210 HD
ENDBRANCH  15  32
BRANCH  11  34
HETATM   34  C26 UNL     1      -0.057   8.083   8.767  1.00  0.00     0.265 C 
HETATM   35  O2  UNL     1      -0.613   9.175   8.815  1.00  0.00    -0.302 OA
ENDBRANCH  11  34
TORSDOF 8
ENDMDL
MODEL 7
REMARK minimizedAffinity -7.422966
REMARK  8 active torsions:
REMARK  status: ('A' for Active; 'I' for Inactive)
REMARK    1  A    between atoms: C4_4  and  C5_5 
REMARK    2  A    between atoms: C5_5  and  C6_6 
REMARK    3  A    between atoms: C6_6  and  C7_7 
REMARK    4  A    between atoms: C9_9  and  C10_10 
REMARK    5  A    between atoms: C11_11  and  C12_12 
REMARK    6  A    between atoms: C14_14  and  C15_15 
REMARK    7  A    between atoms: C24_25  and  C26_27 
REMARK    8  A    between atoms: C29_31  and  O3_33 
ROOT
HETATM    1  C15 UNL     1     -12.115   7.477  13.408  1.00  0.00     0.149 C 
HETATM    2  C16 UNL     1     -12.753   7.408  14.801  1.00  0.00     0.054 C 
HETATM    3  C17 UNL     1     -13.604   8.697  14.877  1.00  0.00     0.050 C 
HETATM    4  C18 UNL     1     -12.635   9.622  14.116  1.00  0.00     0.272 C 
HETATM    5  O1  UNL     1     -13.135  10.901  13.789  1.00  0.00    -0.360 OA
HETATM    6  C19 UNL     1     -13.724  11.056  12.517  1.00  0.00     0.171 C 
HETATM    7  C20 UNL     1     -14.982  10.235  12.272  1.00  0.00     0.027 C 
HETATM    8  C21 UNL     1     -15.669   9.684  13.520  1.00  0.00     0.012 C 
HETATM    9  C22 UNL     1     -14.944   8.442  14.076  1.00  0.00     0.032 C 
HETATM   10  C23 UNL     1     -15.923   7.550  14.868  1.00  0.00    -0.066 C 
HETATM   11  C24 UNL     1     -16.490   6.407  14.402  1.00  0.00    -0.021 C 
HETATM   12  C25 UNL     1     -17.346   5.451  15.194  1.00  0.00     0.052 C 
HETATM   13  C27 UNL     1     -16.183   8.088  16.259  1.00  0.00     0.038 C 
HETATM   14  C28 UNL     1     -14.882   8.219  17.043  1.00  0.00     0.042 C 
HETATM   15  C29 UNL     1     -13.892   9.172  16.348  1.00  0.00     0.067 C 
HETATM   16  C30 UNL     1     -12.653   9.323  17.248  1.00  0.00     0.047 C 
HETATM   17  O4  UNL     1     -12.120   8.863  13.014  1.00  0.00    -0.351 OA
ENDROOT
BRANCH   1  18
HETATM   18  C14 UNL     1     -10.699   6.980  13.388  1.00  0.00     0.011 C 
HETATM   19  C12 UNL     1      -9.746   7.175  14.324  1.00  0.00    -0.063 C 
HETATM   20  C13 UNL     1      -9.962   8.003  15.567  1.00  0.00     0.048 C 
BRANCH  19  21
HETATM   21  C11 UNL     1      -8.427   6.578  14.116  1.00  0.00     0.006 C 
HETATM   22  C10 UNL     1      -7.279   6.947  14.712  1.00  0.00     0.001 C 
BRANCH  22  23
HETATM   23  C9  UNL     1      -6.011   6.306  14.423  1.00  0.00     0.002 C 
HETATM   24  C7  UNL     1      -4.995   6.805  13.686  1.00  0.00    -0.084 C 
HETATM   25  C8  UNL     1      -4.983   8.180  13.061  1.00  0.00     0.043 C 
BRANCH  24  26
HETATM   26  C6  UNL     1      -3.711   6.031  13.394  1.00  0.00     0.037 C 
BRANCH  26  27
HETATM   27  C5  UNL     1      -3.839   4.622  12.794  1.00  0.00     0.031 C 
BRANCH  27  28
HETATM   28  C4  UNL     1      -5.209   4.045  13.031  1.00  0.00    -0.024 C 
HETATM   29  C2  UNL     1      -5.935   3.270  12.200  1.00  0.00    -0.091 C 
HETATM   30  C1  UNL     1      -7.279   2.740  12.624  1.00  0.00     0.042 C 
HETATM   31  C3  UNL     1      -5.520   2.865  10.813  1.00  0.00     0.042 C 
ENDBRANCH  27  28
ENDBRANCH  26  27
ENDBRANCH  24  26
ENDBRANCH  22  23
ENDBRANCH  19  21
ENDBRANCH   1  18
BRANCH  15  32
HETATM   32  O3  UNL     1     -14.510  10.464  16.314  1.00  0.00    -0.389 OA
HETATM   33  H44 UNL     1     -14.637  10.782  17.223  1.00  0.00     0.210 HD
ENDBRANCH  15  32
BRANCH  11  34
HETATM   34  C26 UNL     1     -16.335   5.965  12.975  1.00  0.00     0.265 C 
HETATM   35  O2  UNL     1     -16.979   6.456  12.054  1.00  0.00    -0.302 OA
ENDBRANCH  11  34
TORSDOF 8
ENDMDL
MODEL 8
REMARK minimizedAffinity -7.28293276
REMARK  8 active torsions:
REMARK  status: ('A' for Active; 'I' for Inactive)
REMARK    1  A    between atoms: C4_4  and  C5_5 
REMARK    2  A    between atoms: C5_5  and  C6_6 
REMARK    3  A    between atoms: C6_6  and  C7_7 
REMARK    4  A    between atoms: C9_9  and  C10_10 
REMARK    5  A    between atoms: C11_11  and  C12_12 
REMARK    6  A    between atoms: C14_14  and  C15_15 
REMARK    7  A    between atoms: C24_25  and  C26_27 
REMARK    8  A    between atoms: C29_31  and  O3_33 
ROOT
HETATM    1  C15 UNL     1     -10.261   8.835  15.756  1.00  0.00     0.149 C 
HETATM    2  C16 UNL     1      -9.801  10.252  16.119  1.00  0.00     0.054 C 
HETATM    3  C17 UNL     1     -11.081  11.105  15.955  1.00  0.00     0.050 C 
HETATM    4  C18 UNL     1     -11.651  10.377  14.724  1.00  0.00     0.272 C 
HETATM    5  O1  UNL     1     -12.961  10.741  14.346  1.00  0.00    -0.360 OA
HETATM    6  C19 UNL     1     -14.019   9.960  14.858  1.00  0.00     0.171 C 
HETATM    7  C20 UNL     1     -14.185   9.992  16.371  1.00  0.00     0.027 C 
HETATM    8  C21 UNL     1     -13.487  11.144  17.092  1.00  0.00     0.012 C 
HETATM    9  C22 UNL     1     -11.973  10.893  17.245  1.00  0.00     0.032 C 
HETATM   10  C23 UNL     1     -11.415  11.663  18.460  1.00  0.00    -0.066 C 
HETATM   11  C24 UNL     1     -11.133  11.115  19.670  1.00  0.00    -0.021 C 
HETATM   12  C25 UNL     1     -10.469  11.812  20.831  1.00  0.00     0.052 C 
HETATM   13  C27 UNL     1     -11.196  13.129  18.152  1.00  0.00     0.038 C 
HETATM   14  C28 UNL     1     -10.245  13.300  16.973  1.00  0.00     0.042 C 
HETATM   15  C29 UNL     1     -10.790  12.628  15.699  1.00  0.00     0.067 C 
HETATM   16  C30 UNL     1      -9.823  12.930  14.541  1.00  0.00     0.047 C 
HETATM   17  O4  UNL     1     -11.440   8.974  14.939  1.00  0.00    -0.351 OA
ENDROOT
BRANCH   1  18
HETATM   18  C14 UNL     1      -9.231   8.066  14.981  1.00  0.00     0.011 C 
HETATM   19  C12 UNL     1      -8.207   7.339  15.475  1.00  0.00    -0.063 C 
HETATM   20  C13 UNL     1      -7.903   7.224  16.948  1.00  0.00     0.048 C 
BRANCH  19  21
HETATM   21  C11 UNL     1      -7.327   6.642  14.536  1.00  0.00     0.006 C 
HETATM   22  C10 UNL     1      -6.137   7.077  14.084  1.00  0.00     0.001 C 
BRANCH  22  23
HETATM   23  C9  UNL     1      -5.343   6.322  13.132  1.00  0.00     0.002 C 
HETATM   24  C7  UNL     1      -4.163   5.708  13.360  1.00  0.00    -0.084 C 
HETATM   25  C8  UNL     1      -3.470   5.653  14.701  1.00  0.00     0.043 C 
BRANCH  24  26
HETATM   26  C6  UNL     1      -3.374   4.976  12.277  1.00  0.00     0.037 C 
BRANCH  26  27
HETATM   27  C5  UNL     1      -4.020   3.746  11.621  1.00  0.00     0.031 C 
BRANCH  27  28
HETATM   28  C4  UNL     1      -5.400   3.492  12.167  1.00  0.00    -0.024 C 
HETATM   29  C2  UNL     1      -6.166   2.395  12.001  1.00  0.00    -0.091 C 
HETATM   30  C1  UNL     1      -7.514   2.293  12.663  1.00  0.00     0.042 C 
HETATM   31  C3  UNL     1      -5.794   1.199  11.168  1.00  0.00     0.042 C 
ENDBRANCH  27  28
ENDBRANCH  26  27
ENDBRANCH  24  26
ENDBRANCH  22  23
ENDBRANCH  19  21
ENDBRANCH   1  18
BRANCH  15  32
HETATM   32  O3  UNL     1     -12.016  13.293  15.368  1.00  0.00    -0.389 OA
HETATM   33  H44 UNL     1     -11.828  14.222  15.154  1.00  0.00     0.210 HD
ENDBRANCH  15  32
BRANCH  11  34
HETATM   34  C26 UNL     1     -11.489   9.694  20.003  1.00  0.00     0.265 C 
HETATM   35  O2  UNL     1     -11.473   9.256  21.149  1.00  0.00    -0.302 OA
ENDBRANCH  11  34
TORSDOF 8
ENDMDL
MODEL 9
REMARK minimizedAffinity -7.20094967
REMARK  8 active torsions:
REMARK  status: ('A' for Active; 'I' for Inactive)
REMARK    1  A    between atoms: C4_4  and  C5_5 
REMARK    2  A    between atoms: C5_5  and  C6_6 
REMARK    3  A    between atoms: C6_6  and  C7_7 
REMARK    4  A    between atoms: C9_9  and  C10_10 
REMARK    5  A    between atoms: C11_11  and  C12_12 
REMARK    6  A    between atoms: C14_14  and  C15_15 
REMARK    7  A    between atoms: C24_25  and  C26_27 
REMARK    8  A    between atoms: C29_31  and  O3_33 
ROOT
HETATM    1  C15 UNL     1     -12.159   7.940  14.120  1.00  0.00     0.149 C 
HETATM    2  C16 UNL     1     -13.110   8.375  12.998  1.00  0.00     0.054 C 
HETATM    3  C17 UNL     1     -14.489   8.441  13.694  1.00  0.00     0.050 C 
HETATM    4  C18 UNL     1     -14.306   7.223  14.619  1.00  0.00     0.272 C 
HETATM    5  O1  UNL     1     -15.307   7.036  15.596  1.00  0.00    -0.360 OA
HETATM    6  C19 UNL     1     -15.075   7.595  16.871  1.00  0.00     0.171 C 
HETATM    7  C20 UNL     1     -14.975   9.113  16.913  1.00  0.00     0.027 C 
HETATM    8  C21 UNL     1     -15.533   9.850  15.696  1.00  0.00     0.012 C 
HETATM    9  C22 UNL     1     -14.561   9.801  14.500  1.00  0.00     0.032 C 
HETATM   10  C23 UNL     1     -14.789  11.008  13.566  1.00  0.00    -0.066 C 
HETATM   11  C24 UNL     1     -14.012  12.122  13.525  1.00  0.00    -0.021 C 
HETATM   12  C25 UNL     1     -14.133  13.256  12.539  1.00  0.00     0.052 C 
HETATM   13  C27 UNL     1     -15.991  10.813  12.668  1.00  0.00     0.038 C 
HETATM   14  C28 UNL     1     -15.840   9.551  11.825  1.00  0.00     0.042 C 
HETATM   15  C29 UNL     1     -15.699   8.294  12.702  1.00  0.00     0.067 C 
HETATM   16  C30 UNL     1     -15.651   7.063  11.779  1.00  0.00     0.047 C 
HETATM   17  O4  UNL     1     -12.963   7.282  15.119  1.00  0.00    -0.351 OA
ENDROOT
BRANCH   1  18
HETATM   18  C14 UNL     1     -11.101   6.983  13.652  1.00  0.00     0.011 C 
HETATM   19  C12 UNL     1      -9.805   6.944  14.026  1.00  0.00    -0.063 C 
HETATM   20  C13 UNL     1      -9.187   7.934  14.982  1.00  0.00     0.048 C 
BRANCH  19  21
HETATM   21  C11 UNL     1      -8.944   5.904  13.462  1.00  0.00     0.006 C 
HETATM   22  C10 UNL     1      -7.605   5.834  13.562  1.00  0.00     0.001 C 
BRANCH  22  23
HETATM   23  C9  UNL     1      -6.832   4.772  12.945  1.00  0.00     0.002 C 
HETATM   24  C7  UNL     1      -5.494   4.601  12.999  1.00  0.00    -0.084 C 
HETATM   25  C8  UNL     1      -4.547   5.483  13.778  1.00  0.00     0.043 C 
BRANCH  24  26
HETATM   26  C6  UNL     1      -4.762   3.475  12.272  1.00  0.00     0.037 C 
BRANCH  26  27
HETATM   27  C5  UNL     1      -3.392   3.788  11.652  1.00  0.00     0.031 C 
BRANCH  27  28
HETATM   28  C4  UNL     1      -2.701   2.535  11.183  1.00  0.00    -0.024 C 
HETATM   29  C2  UNL     1      -1.385   2.247  11.238  1.00  0.00    -0.091 C 
HETATM   30  C1  UNL     1      -0.870   0.915  10.759  1.00  0.00     0.042 C 
HETATM   31  C3  UNL     1      -0.317   3.175  11.749  1.00  0.00     0.042 C 
ENDBRANCH  27  28
ENDBRANCH  26  27
ENDBRANCH  24  26
ENDBRANCH  22  23
ENDBRANCH  19  21
ENDBRANCH   1  18
BRANCH  15  32
HETATM   32  O3  UNL     1     -16.913   8.171  13.454  1.00  0.00    -0.389 OA
HETATM   33  H44 UNL     1     -17.654   8.023  12.843  1.00  0.00     0.210 HD
ENDBRANCH  15  32
BRANCH  11  34
HETATM   34  C26 UNL     1     -12.912  12.362  14.519  1.00  0.00     0.265 C 
HETATM   35  O2  UNL     1     -12.643  13.476  14.956  1.00  0.00    -0.302 OA
ENDBRANCH  11  34
TORSDOF 8
ENDMDL
