MODEL 1
REMARK minimizedAffinity -10.0737858
REMARK  10 active torsions:
REMARK  status: ('A' for Active; 'I' for Inactive)
REMARK    1  A    between atoms: C11_11  and  O1_12 
REMARK    2  A    between atoms: C12_13  and  C14_15 
REMARK    3  A    between atoms: C14_15  and  C15_16 
REMARK    4  A    between atoms: C15_16  and  O2_17 
REMARK    5  A    between atoms: C15_16  and  C16_18 
REMARK    6  A    between atoms: C16_18  and  O3_19 
REMARK    7  A    between atoms: C16_18  and  C17_20 
REMARK    8  A    between atoms: C17_20  and  O4_22 
REMARK    9  A    between atoms: C17_20  and  C19_23 
REMARK   10  A    between atoms: C19_23  and  O5_24 
ROOT
HETATM    1  C1  UNL     1       1.515  52.094 -27.547  1.00  0.00     0.015 C 
HETATM    2  C2  UNL     1       1.257  51.432 -26.199  1.00  0.00     0.019 C 
HETATM    3  C3  UNL     1       1.424  52.431 -25.025  1.00  0.00     0.048 C 
HETATM    4  C4  UNL     1       0.312  52.063 -24.083  1.00  0.00    -0.043 C 
HETATM    5  C5  UNL     1      -0.535  51.208 -24.665  1.00  0.00    -0.040 C 
HETATM    6  C6  UNL     1      -0.138  50.892 -26.002  1.00  0.00    -0.050 C 
HETATM    7  C7  UNL     1      -0.971  50.291 -26.857  1.00  0.00    -0.009 C 
HETATM    8  C8  UNL     1      -2.426  50.015 -26.525  1.00  0.00    -0.018 C 
HETATM    9  C9  UNL     1      -3.235  50.895 -27.513  1.00  0.00     0.020 C 
HETATM   10  C10 UNL     1      -2.757  48.530 -26.710  1.00  0.00     0.046 C 
HETATM   11  C11 UNL     1      -4.065  48.322 -25.954  1.00  0.00     0.128 C 
HETATM   12  C12 UNL     1      -3.922  49.174 -24.658  1.00  0.00    -0.010 C 
HETATM   13  C13 UNL     1      -3.404  48.221 -23.557  1.00  0.00     0.018 C 
HETATM   14  C20 UNL     1      -2.887  50.329 -25.053  1.00  0.00     0.017 C 
HETATM   15  C21 UNL     1      -1.729  50.569 -24.039  1.00  0.00     0.026 C 
HETATM   16  C22 UNL     1      -2.166  51.432 -22.835  1.00  0.00     0.014 C 
HETATM   17  C23 UNL     1      -0.968  51.819 -21.948  1.00  0.00     0.040 C 
HETATM   18  C24 UNL     1       0.143  52.521 -22.717  1.00  0.00    -0.040 C 
HETATM   19  C25 UNL     1       0.919  53.484 -22.197  1.00  0.00     0.092 C 
HETATM   20 CL1  UNL     1       0.824  54.079 -20.592  1.00  0.00    -0.096 Cl
ENDROOT
BRANCH  12  21
HETATM   21  C14 UNL     1      -5.249  49.844 -24.187  1.00  0.00     0.046 C 
BRANCH  21  22
HETATM   22  C15 UNL     1      -6.395  48.913 -23.728  1.00  0.00     0.150 C 
BRANCH  22  23
HETATM   23  O2  UNL     1      -7.292  48.644 -24.797  1.00  0.00    -0.393 OA
HETATM   24  H21 UNL     1      -7.373  49.477 -25.312  1.00  0.00     0.210 HD
ENDBRANCH  22  23
BRANCH  22  25
HETATM   25  C16 UNL     1      -7.145  49.519 -22.515  1.00  0.00     0.182 C 
BRANCH  25  26
HETATM   26  O3  UNL     1      -7.145  50.960 -22.639  1.00  0.00    -0.390 OA
HETATM   27  H23 UNL     1      -7.985  51.251 -22.237  1.00  0.00     0.210 HD
ENDBRANCH  25  26
BRANCH  25  28
HETATM   28  C17 UNL     1      -6.569  49.151 -21.116  1.00  0.00     0.103 C 
HETATM   29  C18 UNL     1      -7.638  49.115 -20.016  1.00  0.00     0.051 C 
BRANCH  28  30
HETATM   30  O4  UNL     1      -6.054  47.796 -21.215  1.00  0.00    -0.385 OA
HETATM   31  H27 UNL     1      -6.825  47.238 -21.422  1.00  0.00     0.210 HD
ENDBRANCH  28  30
BRANCH  28  32
HETATM   32  C19 UNL     1      -5.400  50.056 -20.674  1.00  0.00     0.204 C 
BRANCH  32  33
HETATM   33  O5  UNL     1      -5.550  51.391 -21.163  1.00  0.00    -0.398 OA
HETATM   34  H30 UNL     1      -4.705  51.843 -20.994  1.00  0.00     0.209 HD
ENDBRANCH  32  33
ENDBRANCH  28  32
ENDBRANCH  25  28
ENDBRANCH  22  25
ENDBRANCH  21  22
ENDBRANCH  12  21
BRANCH  11  35
HETATM   35  O1  UNL     1      -5.177  48.728 -26.750  1.00  0.00    -0.395 OA
HETATM   36  H14 UNL     1      -5.124  48.236 -27.589  1.00  0.00     0.210 HD
ENDBRANCH  11  35
TORSDOF 10
ENDMDL
MODEL 2
REMARK minimizedAffinity -9.33890724
REMARK  10 active torsions:
REMARK  status: ('A' for Active; 'I' for Inactive)
REMARK    1  A    between atoms: C11_11  and  O1_12 
REMARK    2  A    between atoms: C12_13  and  C14_15 
REMARK    3  A    between atoms: C14_15  and  C15_16 
REMARK    4  A    between atoms: C15_16  and  O2_17 
REMARK    5  A    between atoms: C15_16  and  C16_18 
REMARK    6  A    between atoms: C16_18  and  O3_19 
REMARK    7  A    between atoms: C16_18  and  C17_20 
REMARK    8  A    between atoms: C17_20  and  O4_22 
REMARK    9  A    between atoms: C17_20  and  C19_23 
REMARK   10  A    between atoms: C19_23  and  O5_24 
ROOT
HETATM    1  C1  UNL     1       1.491  54.438 -22.146  1.00  0.00     0.015 C 
HETATM    2  C2  UNL     1       1.320  53.013 -21.635  1.00  0.00     0.019 C 
HETATM    3  C3  UNL     1       1.174  52.966 -20.093  1.00  0.00     0.048 C 
HETATM    4  C4  UNL     1       0.128  51.911 -19.865  1.00  0.00    -0.043 C 
HETATM    5  C5  UNL     1      -0.455  51.569 -21.018  1.00  0.00    -0.040 C 
HETATM    6  C6  UNL     1       0.085  52.297 -22.125  1.00  0.00    -0.050 C 
HETATM    7  C7  UNL     1      -0.528  52.325 -23.311  1.00  0.00    -0.009 C 
HETATM    8  C8  UNL     1      -1.893  51.701 -23.542  1.00  0.00    -0.018 C 
HETATM    9  C9  UNL     1      -2.828  52.894 -23.865  1.00  0.00     0.020 C 
HETATM   10  C10 UNL     1      -1.848  50.704 -24.706  1.00  0.00     0.046 C 
HETATM   11  C11 UNL     1      -3.111  49.863 -24.551  1.00  0.00     0.128 C 
HETATM   12  C12 UNL     1      -3.252  49.625 -23.019  1.00  0.00    -0.010 C 
HETATM   13  C13 UNL     1      -2.588  48.262 -22.719  1.00  0.00     0.018 C 
HETATM   14  C20 UNL     1      -2.501  50.871 -22.351  1.00  0.00     0.017 C 
HETATM   15  C21 UNL     1      -1.496  50.519 -21.215  1.00  0.00     0.026 C 
HETATM   16  C22 UNL     1      -2.197  50.271 -19.861  1.00  0.00     0.014 C 
HETATM   17  C23 UNL     1      -1.180  50.118 -18.714  1.00  0.00     0.040 C 
HETATM   18  C24 UNL     1      -0.226  51.298 -18.599  1.00  0.00    -0.040 C 
HETATM   19  C25 UNL     1       0.266  51.751 -17.436  1.00  0.00     0.092 C 
HETATM   20 CL1  UNL     1      -0.062  51.086 -15.891  1.00  0.00    -0.096 Cl
ENDROOT
BRANCH  12  21
HETATM   21  C14 UNL     1      -4.726  49.610 -22.509  1.00  0.00     0.046 C 
BRANCH  21  22
HETATM   22  C15 UNL     1      -5.807  50.219 -23.432  1.00  0.00     0.150 C 
BRANCH  22  23
HETATM   23  O2  UNL     1      -5.899  51.626 -23.251  1.00  0.00    -0.393 OA
HETATM   24  H21 UNL     1      -5.774  51.794 -22.291  1.00  0.00     0.210 HD
ENDBRANCH  22  23
BRANCH  22  25
HETATM   25  C16 UNL     1      -7.180  49.540 -23.197  1.00  0.00     0.182 C 
BRANCH  25  26
HETATM   26  O3  UNL     1      -7.242  49.078 -21.828  1.00  0.00    -0.390 OA
HETATM   27  H23 UNL     1      -8.181  49.158 -21.574  1.00  0.00     0.210 HD
ENDBRANCH  25  26
BRANCH  25  28
HETATM   28  C17 UNL     1      -7.504  48.338 -24.132  1.00  0.00     0.103 C 
HETATM   29  C18 UNL     1      -6.402  48.064 -25.163  1.00  0.00     0.051 C 
BRANCH  28  30
HETATM   30  O4  UNL     1      -7.568  47.155 -23.292  1.00  0.00    -0.385 OA
HETATM   31  H27 UNL     1      -6.677  47.057 -22.911  1.00  0.00     0.210 HD
ENDBRANCH  28  30
BRANCH  28  32
HETATM   32  C19 UNL     1      -8.865  48.467 -24.850  1.00  0.00     0.204 C 
BRANCH  32  33
HETATM   33  O5  UNL     1      -9.086  49.794 -25.331  1.00  0.00    -0.398 OA
HETATM   34  H30 UNL     1     -10.018  49.835 -25.609  1.00  0.00     0.209 HD
ENDBRANCH  32  33
ENDBRANCH  28  32
ENDBRANCH  25  28
ENDBRANCH  22  25
ENDBRANCH  21  22
ENDBRANCH  12  21
BRANCH  11  35
HETATM   35  O1  UNL     1      -4.239  50.542 -25.101  1.00  0.00    -0.395 OA
HETATM   36  H14 UNL     1      -4.021  50.759 -26.025  1.00  0.00     0.210 HD
ENDBRANCH  11  35
TORSDOF 10
ENDMDL
MODEL 3
REMARK minimizedAffinity -9.31883812
REMARK  10 active torsions:
REMARK  status: ('A' for Active; 'I' for Inactive)
REMARK    1  A    between atoms: C11_11  and  O1_12 
REMARK    2  A    between atoms: C12_13  and  C14_15 
REMARK    3  A    between atoms: C14_15  and  C15_16 
REMARK    4  A    between atoms: C15_16  and  O2_17 
REMARK    5  A    between atoms: C15_16  and  C16_18 
REMARK    6  A    between atoms: C16_18  and  O3_19 
REMARK    7  A    between atoms: C16_18  and  C17_20 
REMARK    8  A    between atoms: C17_20  and  O4_22 
REMARK    9  A    between atoms: C17_20  and  C19_23 
REMARK   10  A    between atoms: C19_23  and  O5_24 
ROOT
HETATM    1  C1  UNL     1      -5.388  48.297 -27.603  1.00  0.00     0.015 C 
HETATM    2  C2  UNL     1      -3.972  48.319 -27.039  1.00  0.00     0.019 C 
HETATM    3  C3  UNL     1      -3.109  49.430 -27.691  1.00  0.00     0.048 C 
HETATM    4  C4  UNL     1      -2.303  49.973 -26.545  1.00  0.00    -0.043 C 
HETATM    5  C5  UNL     1      -2.759  49.499 -25.381  1.00  0.00    -0.040 C 
HETATM    6  C6  UNL     1      -3.870  48.618 -25.564  1.00  0.00    -0.050 C 
HETATM    7  C7  UNL     1      -4.653  48.256 -24.543  1.00  0.00    -0.009 C 
HETATM    8  C8  UNL     1      -4.506  48.843 -23.151  1.00  0.00    -0.018 C 
HETATM    9  C9  UNL     1      -5.818  49.630 -22.908  1.00  0.00     0.020 C 
HETATM   10  C10 UNL     1      -4.325  47.734 -22.107  1.00  0.00     0.046 C 
HETATM   11  C11 UNL     1      -3.771  48.442 -20.875  1.00  0.00     0.128 C 
HETATM   12  C12 UNL     1      -2.757  49.485 -21.431  1.00  0.00    -0.010 C 
HETATM   13  C13 UNL     1      -1.364  48.815 -21.385  1.00  0.00     0.018 C 
HETATM   14  C20 UNL     1      -3.276  49.797 -22.912  1.00  0.00     0.017 C 
HETATM   15  C21 UNL     1      -2.189  49.759 -24.027  1.00  0.00     0.026 C 
HETATM   16  C22 UNL     1      -1.362  51.062 -24.090  1.00  0.00     0.014 C 
HETATM   17  C23 UNL     1      -0.429  51.084 -25.316  1.00  0.00     0.040 C 
HETATM   18  C24 UNL     1      -1.165  50.869 -26.631  1.00  0.00    -0.040 C 
HETATM   19  C25 UNL     1      -0.809  51.445 -27.790  1.00  0.00     0.092 C 
HETATM   20 CL1  UNL     1       0.529  52.493 -28.009  1.00  0.00    -0.096 Cl
ENDROOT
BRANCH  12  21
HETATM   21  C14 UNL     1      -2.718  50.825 -20.633  1.00  0.00     0.046 C 
BRANCH  21  22
HETATM   22  C15 UNL     1      -1.957  50.832 -19.287  1.00  0.00     0.150 C 
BRANCH  22  23
HETATM   23  O2  UNL     1      -2.512  51.786 -18.392  1.00  0.00    -0.393 OA
HETATM   24  H21 UNL     1      -2.766  52.565 -18.934  1.00  0.00     0.210 HD
ENDBRANCH  22  23
BRANCH  22  25
HETATM   25  C16 UNL     1      -0.446  51.094 -19.509  1.00  0.00     0.182 C 
BRANCH  25  26
HETATM   26  O3  UNL     1       0.197  51.232 -18.220  1.00  0.00    -0.390 OA
HETATM   27  H23 UNL     1       1.097  50.876 -18.345  1.00  0.00     0.210 HD
ENDBRANCH  25  26
BRANCH  25  28
HETATM   28  C17 UNL     1      -0.100  52.348 -20.363  1.00  0.00     0.103 C 
HETATM   29  C18 UNL     1       1.018  52.090 -21.383  1.00  0.00     0.051 C 
BRANCH  28  30
HETATM   30  O4  UNL     1      -1.284  52.669 -21.141  1.00  0.00    -0.385 OA
HETATM   31  H27 UNL     1      -1.435  51.898 -21.717  1.00  0.00     0.210 HD
ENDBRANCH  28  30
BRANCH  28  32
HETATM   32  C19 UNL     1       0.247  53.592 -19.518  1.00  0.00     0.204 C 
BRANCH  32  33
HETATM   33  O5  UNL     1       1.511  54.148 -19.887  1.00  0.00    -0.398 OA
HETATM   34  H30 UNL     1       1.732  54.807 -19.206  1.00  0.00     0.209 HD
ENDBRANCH  32  33
ENDBRANCH  28  32
ENDBRANCH  25  28
ENDBRANCH  22  25
ENDBRANCH  21  22
ENDBRANCH  12  21
BRANCH  11  35
HETATM   35  O1  UNL     1      -4.823  49.054 -20.129  1.00  0.00    -0.395 OA
HETATM   36  H14 UNL     1      -5.472  48.357 -19.925  1.00  0.00     0.210 HD
ENDBRANCH  11  35
TORSDOF 10
ENDMDL
MODEL 4
REMARK minimizedAffinity -9.10593796
REMARK  10 active torsions:
REMARK  status: ('A' for Active; 'I' for Inactive)
REMARK    1  A    between atoms: C11_11  and  O1_12 
REMARK    2  A    between atoms: C12_13  and  C14_15 
REMARK    3  A    between atoms: C14_15  and  C15_16 
REMARK    4  A    between atoms: C15_16  and  O2_17 
REMARK    5  A    between atoms: C15_16  and  C16_18 
REMARK    6  A    between atoms: C16_18  and  O3_19 
REMARK    7  A    between atoms: C16_18  and  C17_20 
REMARK    8  A    between atoms: C17_20  and  O4_22 
REMARK    9  A    between atoms: C17_20  and  C19_23 
REMARK   10  A    between atoms: C19_23  and  O5_24 
ROOT
HETATM    1  C1  UNL     1       0.567  54.082 -25.061  1.00  0.00     0.015 C 
HETATM    2  C2  UNL     1       0.662  52.866 -24.148  1.00  0.00     0.019 C 
HETATM    3  C3  UNL     1       0.878  53.270 -22.667  1.00  0.00     0.048 C 
HETATM    4  C4  UNL     1       0.024  52.298 -21.903  1.00  0.00    -0.043 C 
HETATM    5  C5  UNL     1      -0.770  51.614 -22.734  1.00  0.00    -0.040 C 
HETATM    6  C6  UNL     1      -0.573  52.000 -24.097  1.00  0.00    -0.050 C 
HETATM    7  C7  UNL     1      -1.441  51.660 -25.054  1.00  0.00    -0.009 C 
HETATM    8  C8  UNL     1      -2.753  50.955 -24.756  1.00  0.00    -0.018 C 
HETATM    9  C9  UNL     1      -3.852  51.972 -25.155  1.00  0.00     0.020 C 
HETATM   10  C10 UNL     1      -2.874  49.661 -25.570  1.00  0.00     0.046 C 
HETATM   11  C11 UNL     1      -3.977  48.866 -24.880  1.00  0.00     0.128 C 
HETATM   12  C12 UNL     1      -3.740  49.085 -23.356  1.00  0.00    -0.010 C 
HETATM   13  C13 UNL     1      -2.890  47.890 -22.865  1.00  0.00     0.018 C 
HETATM   14  C20 UNL     1      -2.986  50.494 -23.269  1.00  0.00     0.017 C 
HETATM   15  C21 UNL     1      -1.717  50.522 -22.366  1.00  0.00     0.026 C 
HETATM   16  C22 UNL     1      -2.061  50.662 -20.867  1.00  0.00     0.014 C 
HETATM   17  C23 UNL     1      -0.799  50.883 -20.012  1.00  0.00     0.040 C 
HETATM   18  C24 UNL     1       0.033  52.073 -20.470  1.00  0.00    -0.040 C 
HETATM   19  C25 UNL     1       0.729  52.863 -19.639  1.00  0.00     0.092 C 
HETATM   20 CL1  UNL     1       0.831  52.671 -17.938  1.00  0.00    -0.096 Cl
ENDROOT
BRANCH  12  21
HETATM   21  C14 UNL     1      -5.049  49.176 -22.514  1.00  0.00     0.046 C 
BRANCH  21  22
HETATM   22  C15 UNL     1      -6.333  49.644 -23.237  1.00  0.00     0.150 C 
BRANCH  22  23
HETATM   23  O2  UNL     1      -6.512  51.048 -23.101  1.00  0.00    -0.393 OA
HETATM   24  H21 UNL     1      -6.225  51.280 -22.190  1.00  0.00     0.210 HD
ENDBRANCH  22  23
BRANCH  22  25
HETATM   25  C16 UNL     1      -7.572  48.874 -22.716  1.00  0.00     0.182 C 
BRANCH  25  26
HETATM   26  O3  UNL     1      -7.198  48.143 -21.525  1.00  0.00    -0.390 OA
HETATM   27  H23 UNL     1      -8.002  48.130 -20.971  1.00  0.00     0.210 HD
ENDBRANCH  25  26
BRANCH  25  28
HETATM   28  C17 UNL     1      -8.213  47.873 -23.720  1.00  0.00     0.103 C 
HETATM   29  C18 UNL     1      -7.334  46.644 -23.989  1.00  0.00     0.051 C 
BRANCH  28  30
HETATM   30  O4  UNL     1      -9.425  47.368 -23.098  1.00  0.00    -0.385 OA
HETATM   31  H27 UNL     1      -9.130  46.900 -22.295  1.00  0.00     0.210 HD
ENDBRANCH  28  30
BRANCH  28  32
HETATM   32  C19 UNL     1      -8.621  48.522 -25.060  1.00  0.00     0.204 C 
BRANCH  32  33
HETATM   33  O5  UNL     1      -8.922  49.911 -24.907  1.00  0.00    -0.398 OA
HETATM   34  H30 UNL     1      -9.330  50.198 -25.742  1.00  0.00     0.209 HD
ENDBRANCH  32  33
ENDBRANCH  28  32
ENDBRANCH  25  28
ENDBRANCH  22  25
ENDBRANCH  21  22
ENDBRANCH  12  21
BRANCH  11  35
HETATM   35  O1  UNL     1      -5.264  49.319 -25.298  1.00  0.00    -0.395 OA
HETATM   36  H14 UNL     1      -5.286  49.261 -26.271  1.00  0.00     0.210 HD
ENDBRANCH  11  35
TORSDOF 10
ENDMDL
MODEL 5
REMARK minimizedAffinity -9.05769157
REMARK  10 active torsions:
REMARK  status: ('A' for Active; 'I' for Inactive)
REMARK    1  A    between atoms: C11_11  and  O1_12 
REMARK    2  A    between atoms: C12_13  and  C14_15 
REMARK    3  A    between atoms: C14_15  and  C15_16 
REMARK    4  A    between atoms: C15_16  and  O2_17 
REMARK    5  A    between atoms: C15_16  and  C16_18 
REMARK    6  A    between atoms: C16_18  and  O3_19 
REMARK    7  A    between atoms: C16_18  and  C17_20 
REMARK    8  A    between atoms: C17_20  and  O4_22 
REMARK    9  A    between atoms: C17_20  and  C19_23 
REMARK   10  A    between atoms: C19_23  and  O5_24 
ROOT
HETATM    1  C1  UNL     1      -2.501  47.563 -17.114  1.00  0.00     0.015 C 
HETATM    2  C2  UNL     1      -2.421  49.038 -17.487  1.00  0.00     0.019 C 
HETATM    3  C3  UNL     1      -1.114  49.694 -16.974  1.00  0.00     0.048 C 
HETATM    4  C4  UNL     1      -0.709  50.608 -18.096  1.00  0.00    -0.043 C 
HETATM    5  C5  UNL     1      -1.446  50.372 -19.185  1.00  0.00    -0.040 C 
HETATM    6  C6  UNL     1      -2.401  49.329 -18.967  1.00  0.00    -0.050 C 
HETATM    7  C7  UNL     1      -3.040  48.740 -19.982  1.00  0.00    -0.009 C 
HETATM    8  C8  UNL     1      -2.716  49.037 -21.435  1.00  0.00    -0.018 C 
HETATM    9  C9  UNL     1      -2.149  47.709 -21.998  1.00  0.00     0.020 C 
HETATM   10  C10 UNL     1      -3.975  49.467 -22.198  1.00  0.00     0.046 C 
HETATM   11  C11 UNL     1      -3.456  50.131 -23.470  1.00  0.00     0.128 C 
HETATM   12  C12 UNL     1      -2.215  50.956 -23.016  1.00  0.00    -0.010 C 
HETATM   13  C13 UNL     1      -2.714  52.394 -22.747  1.00  0.00     0.018 C 
HETATM   14  C20 UNL     1      -1.689  50.199 -21.708  1.00  0.00     0.017 C 
HETATM   15  C21 UNL     1      -1.386  51.109 -20.481  1.00  0.00     0.026 C 
HETATM   16  C22 UNL     1      -0.008  51.798 -20.583  1.00  0.00     0.014 C 
HETATM   17  C23 UNL     1       0.357  52.535 -19.280  1.00  0.00     0.040 C 
HETATM   18  C24 UNL     1       0.313  51.636 -18.052  1.00  0.00    -0.040 C 
HETATM   19  C25 UNL     1       1.137  51.765 -17.002  1.00  0.00     0.092 C 
HETATM   20 CL1  UNL     1       2.357  52.958 -16.835  1.00  0.00    -0.096 Cl
ENDROOT
BRANCH  12  21
HETATM   21  C14 UNL     1      -1.057  50.992 -24.061  1.00  0.00     0.046 C 
BRANCH  21  22
HETATM   22  C15 UNL     1      -0.811  52.324 -24.807  1.00  0.00     0.150 C 
BRANCH  22  23
HETATM   23  O2  UNL     1      -1.901  52.637 -25.664  1.00  0.00    -0.393 OA
HETATM   24  H21 UNL     1      -2.208  51.787 -26.051  1.00  0.00     0.210 HD
ENDBRANCH  22  23
BRANCH  22  25
HETATM   25  C16 UNL     1       0.520  52.274 -25.600  1.00  0.00     0.182 C 
BRANCH  25  26
HETATM   26  O3  UNL     1       1.325  53.417 -25.229  1.00  0.00    -0.390 OA
HETATM   27  H23 UNL     1       2.249  53.108 -25.292  1.00  0.00     0.210 HD
ENDBRANCH  25  26
BRANCH  25  28
HETATM   28  C17 UNL     1       0.379  52.258 -27.150  1.00  0.00     0.103 C 
HETATM   29  C18 UNL     1       1.660  51.807 -27.865  1.00  0.00     0.051 C 
BRANCH  28  30
HETATM   30  O4  UNL     1      -0.629  51.263 -27.473  1.00  0.00    -0.385 OA
HETATM   31  H27 UNL     1      -0.269  50.415 -27.156  1.00  0.00     0.210 HD
ENDBRANCH  28  30
BRANCH  28  32
HETATM   32  C19 UNL     1      -0.097  53.603 -27.738  1.00  0.00     0.204 C 
BRANCH  32  33
HETATM   33  O5  UNL     1       0.037  54.671 -26.796  1.00  0.00    -0.398 OA
HETATM   34  H30 UNL     1      -0.437  55.432 -27.173  1.00  0.00     0.209 HD
ENDBRANCH  32  33
ENDBRANCH  28  32
ENDBRANCH  25  28
ENDBRANCH  22  25
ENDBRANCH  21  22
ENDBRANCH  12  21
BRANCH  11  35
HETATM   35  O1  UNL     1      -3.125  49.150 -24.452  1.00  0.00    -0.395 OA
HETATM   36  H14 UNL     1      -3.919  48.603 -24.589  1.00  0.00     0.210 HD
ENDBRANCH  11  35
TORSDOF 10
ENDMDL
MODEL 6
REMARK minimizedAffinity -9.01663208
REMARK  10 active torsions:
REMARK  status: ('A' for Active; 'I' for Inactive)
REMARK    1  A    between atoms: C11_11  and  O1_12 
REMARK    2  A    between atoms: C12_13  and  C14_15 
REMARK    3  A    between atoms: C14_15  and  C15_16 
REMARK    4  A    between atoms: C15_16  and  O2_17 
REMARK    5  A    between atoms: C15_16  and  C16_18 
REMARK    6  A    between atoms: C16_18  and  O3_19 
REMARK    7  A    between atoms: C16_18  and  C17_20 
REMARK    8  A    between atoms: C17_20  and  O4_22 
REMARK    9  A    between atoms: C17_20  and  C19_23 
REMARK   10  A    between atoms: C19_23  and  O5_24 
ROOT
HETATM    1  C1  UNL     1      -9.551  46.902 -25.136  1.00  0.00     0.015 C 
HETATM    2  C2  UNL     1      -8.093  46.646 -25.499  1.00  0.00     0.019 C 
HETATM    3  C3  UNL     1      -7.803  46.971 -26.986  1.00  0.00     0.048 C 
HETATM    4  C4  UNL     1      -6.446  47.617 -26.952  1.00  0.00    -0.043 C 
HETATM    5  C5  UNL     1      -6.086  47.890 -25.693  1.00  0.00    -0.040 C 
HETATM    6  C6  UNL     1      -7.087  47.487 -24.754  1.00  0.00    -0.050 C 
HETATM    7  C7  UNL     1      -7.068  47.910 -23.486  1.00  0.00    -0.009 C 
HETATM    8  C8  UNL     1      -6.073  48.939 -22.981  1.00  0.00    -0.018 C 
HETATM    9  C9  UNL     1      -6.930  50.172 -22.599  1.00  0.00     0.020 C 
HETATM   10  C10 UNL     1      -5.303  48.404 -21.768  1.00  0.00     0.046 C 
HETATM   11  C11 UNL     1      -4.087  49.315 -21.641  1.00  0.00     0.128 C 
HETATM   12  C12 UNL     1      -3.620  49.570 -23.105  1.00  0.00    -0.010 C 
HETATM   13  C13 UNL     1      -2.517  48.528 -23.405  1.00  0.00     0.018 C 
HETATM   14  C20 UNL     1      -4.943  49.382 -23.985  1.00  0.00     0.017 C 
HETATM   15  C21 UNL     1      -4.791  48.478 -25.243  1.00  0.00     0.026 C 
HETATM   16  C22 UNL     1      -4.157  49.226 -26.436  1.00  0.00     0.014 C 
HETATM   17  C23 UNL     1      -4.193  48.379 -27.722  1.00  0.00     0.040 C 
HETATM   18  C24 UNL     1      -5.593  47.906 -28.088  1.00  0.00    -0.040 C 
HETATM   19  C25 UNL     1      -6.026  47.757 -29.349  1.00  0.00     0.092 C 
HETATM   20 CL1  UNL     1      -5.095  48.043 -30.760  1.00  0.00    -0.096 Cl
ENDROOT
BRANCH  12  21
HETATM   21  C14 UNL     1      -3.063  51.005 -23.356  1.00  0.00     0.046 C 
BRANCH  21  22
HETATM   22  C15 UNL     1      -1.885  51.151 -24.347  1.00  0.00     0.150 C 
BRANCH  22  23
HETATM   23  O2  UNL     1      -0.638  51.120 -23.665  1.00  0.00    -0.393 OA
HETATM   24  H21 UNL     1      -0.768  51.605 -22.821  1.00  0.00     0.210 HD
ENDBRANCH  22  23
BRANCH  22  25
HETATM   25  C16 UNL     1      -2.026  52.447 -25.184  1.00  0.00     0.182 C 
BRANCH  25  26
HETATM   26  O3  UNL     1      -3.425  52.653 -25.490  1.00  0.00    -0.390 OA
HETATM   27  H23 UNL     1      -3.540  53.623 -25.517  1.00  0.00     0.210 HD
ENDBRANCH  25  26
BRANCH  25  28
HETATM   28  C17 UNL     1      -1.226  52.476 -26.519  1.00  0.00     0.103 C 
HETATM   29  C18 UNL     1      -1.059  51.087 -27.149  1.00  0.00     0.051 C 
BRANCH  28  30
HETATM   30  O4  UNL     1      -2.011  53.251 -27.465  1.00  0.00    -0.385 OA
HETATM   31  H27 UNL     1      -2.843  52.758 -27.579  1.00  0.00     0.210 HD
ENDBRANCH  28  30
BRANCH  28  32
HETATM   32  C19 UNL     1       0.152  53.159 -26.396  1.00  0.00     0.204 C 
BRANCH  32  33
HETATM   33  O5  UNL     1       0.065  54.570 -26.607  1.00  0.00    -0.398 OA
HETATM   34  H30 UNL     1       0.979  54.894 -26.685  1.00  0.00     0.209 HD
ENDBRANCH  32  33
ENDBRANCH  28  32
ENDBRANCH  25  28
ENDBRANCH  22  25
ENDBRANCH  21  22
ENDBRANCH  12  21
BRANCH  11  35
HETATM   35  O1  UNL     1      -4.430  50.523 -20.964  1.00  0.00    -0.395 OA
HETATM   36  H14 UNL     1      -4.824  50.271 -20.110  1.00  0.00     0.210 HD
ENDBRANCH  11  35
TORSDOF 10
ENDMDL
MODEL 7
REMARK minimizedAffinity -9.00609875
REMARK  10 active torsions:
REMARK  status: ('A' for Active; 'I' for Inactive)
REMARK    1  A    between atoms: C11_11  and  O1_12 
REMARK    2  A    between atoms: C12_13  and  C14_15 
REMARK    3  A    between atoms: C14_15  and  C15_16 
REMARK    4  A    between atoms: C15_16  and  O2_17 
REMARK    5  A    between atoms: C15_16  and  C16_18 
REMARK    6  A    between atoms: C16_18  and  O3_19 
REMARK    7  A    between atoms: C16_18  and  C17_20 
REMARK    8  A    between atoms: C17_20  and  O4_22 
REMARK    9  A    between atoms: C17_20  and  C19_23 
REMARK   10  A    between atoms: C19_23  and  O5_24 
ROOT
HETATM    1  C1  UNL     1       1.336  52.625 -21.041  1.00  0.00     0.015 C 
HETATM    2  C2  UNL     1       0.355  52.895 -22.175  1.00  0.00     0.019 C 
HETATM    3  C3  UNL     1       0.988  52.623 -23.563  1.00  0.00     0.048 C 
HETATM    4  C4  UNL     1      -0.125  51.978 -24.342  1.00  0.00    -0.043 C 
HETATM    5  C5  UNL     1      -1.143  51.662 -23.535  1.00  0.00    -0.040 C 
HETATM    6  C6  UNL     1      -0.881  52.030 -22.178  1.00  0.00    -0.050 C 
HETATM    7  C7  UNL     1      -1.624  51.564 -21.170  1.00  0.00    -0.009 C 
HETATM    8  C8  UNL     1      -2.709  50.520 -21.367  1.00  0.00    -0.018 C 
HETATM    9  C9  UNL     1      -2.209  49.273 -20.594  1.00  0.00     0.020 C 
HETATM   10  C10 UNL     1      -4.050  51.014 -20.811  1.00  0.00     0.046 C 
HETATM   11  C11 UNL     1      -5.096  50.101 -21.441  1.00  0.00     0.128 C 
HETATM   12  C12 UNL     1      -4.622  49.898 -22.911  1.00  0.00    -0.010 C 
HETATM   13  C13 UNL     1      -5.365  50.952 -23.765  1.00  0.00     0.018 C 
HETATM   14  C20 UNL     1      -3.037  50.114 -22.852  1.00  0.00     0.017 C 
HETATM   15  C21 UNL     1      -2.448  51.062 -23.938  1.00  0.00     0.026 C 
HETATM   16  C22 UNL     1      -2.257  50.356 -25.299  1.00  0.00     0.014 C 
HETATM   17  C23 UNL     1      -1.498  51.247 -26.300  1.00  0.00     0.040 C 
HETATM   18  C24 UNL     1      -0.154  51.730 -25.771  1.00  0.00    -0.040 C 
HETATM   19  C25 UNL     1       0.927  51.922 -26.541  1.00  0.00     0.092 C 
HETATM   20 CL1  UNL     1       0.994  51.687 -28.237  1.00  0.00    -0.096 Cl
ENDROOT
BRANCH  12  21
HETATM   21  C14 UNL     1      -4.903  48.473 -23.480  1.00  0.00     0.046 C 
BRANCH  21  22
HETATM   22  C15 UNL     1      -6.368  47.980 -23.478  1.00  0.00     0.150 C 
BRANCH  22  23
HETATM   23  O2  UNL     1      -6.519  46.835 -22.649  1.00  0.00    -0.393 OA
HETATM   24  H21 UNL     1      -5.709  46.292 -22.770  1.00  0.00     0.210 HD
ENDBRANCH  22  23
BRANCH  22  25
HETATM   25  C16 UNL     1      -6.853  47.687 -24.920  1.00  0.00     0.182 C 
BRANCH  25  26
HETATM   26  O3  UNL     1      -5.934  48.300 -25.854  1.00  0.00    -0.390 OA
HETATM   27  H23 UNL     1      -5.932  47.711 -26.633  1.00  0.00     0.210 HD
ENDBRANCH  25  26
BRANCH  25  28
HETATM   28  C17 UNL     1      -8.291  48.179 -25.258  1.00  0.00     0.103 C 
HETATM   29  C18 UNL     1      -9.370  47.536 -24.377  1.00  0.00     0.051 C 
BRANCH  28  30
HETATM   30  O4  UNL     1      -8.331  49.601 -24.963  1.00  0.00    -0.385 OA
HETATM   31  H27 UNL     1      -8.164  49.674 -24.006  1.00  0.00     0.210 HD
ENDBRANCH  28  30
BRANCH  28  32
HETATM   32  C19 UNL     1      -8.666  48.008 -26.746  1.00  0.00     0.204 C 
BRANCH  32  33
HETATM   33  O5  UNL     1      -8.991  49.258 -27.358  1.00  0.00    -0.398 OA
HETATM   34  H30 UNL     1      -9.377  49.048 -28.226  1.00  0.00     0.209 HD
ENDBRANCH  32  33
ENDBRANCH  28  32
ENDBRANCH  25  28
ENDBRANCH  22  25
ENDBRANCH  21  22
ENDBRANCH  12  21
BRANCH  11  35
HETATM   35  O1  UNL     1      -5.187  48.870 -20.726  1.00  0.00    -0.395 OA
HETATM   36  H14 UNL     1      -5.367  49.092 -19.795  1.00  0.00     0.210 HD
ENDBRANCH  11  35
TORSDOF 10
ENDMDL
MODEL 8
REMARK minimizedAffinity -8.87894058
REMARK  10 active torsions:
REMARK  status: ('A' for Active; 'I' for Inactive)
REMARK    1  A    between atoms: C11_11  and  O1_12 
REMARK    2  A    between atoms: C12_13  and  C14_15 
REMARK    3  A    between atoms: C14_15  and  C15_16 
REMARK    4  A    between atoms: C15_16  and  O2_17 
REMARK    5  A    between atoms: C15_16  and  C16_18 
REMARK    6  A    between atoms: C16_18  and  O3_19 
REMARK    7  A    between atoms: C16_18  and  C17_20 
REMARK    8  A    between atoms: C17_20  and  O4_22 
REMARK    9  A    between atoms: C17_20  and  C19_23 
REMARK   10  A    between atoms: C19_23  and  O5_24 
ROOT
HETATM    1  C1  UNL     1      -4.172  48.461 -27.176  1.00  0.00     0.015 C 
HETATM    2  C2  UNL     1      -2.825  48.933 -26.643  1.00  0.00     0.019 C 
HETATM    3  C3  UNL     1      -2.423  50.311 -27.228  1.00  0.00     0.048 C 
HETATM    4  C4  UNL     1      -1.798  51.025 -26.062  1.00  0.00    -0.043 C 
HETATM    5  C5  UNL     1      -2.013  50.351 -24.927  1.00  0.00    -0.040 C 
HETATM    6  C6  UNL     1      -2.764  49.155 -25.152  1.00  0.00    -0.050 C 
HETATM    7  C7  UNL     1      -3.330  48.483 -24.145  1.00  0.00    -0.009 C 
HETATM    8  C8  UNL     1      -3.329  48.996 -22.716  1.00  0.00    -0.018 C 
HETATM    9  C9  UNL     1      -4.819  49.268 -22.388  1.00  0.00     0.020 C 
HETATM   10  C10 UNL     1      -2.734  47.953 -21.761  1.00  0.00     0.046 C 
HETATM   11  C11 UNL     1      -2.400  48.729 -20.492  1.00  0.00     0.128 C 
HETATM   12  C12 UNL     1      -1.827  50.090 -20.990  1.00  0.00    -0.010 C 
HETATM   13  C13 UNL     1      -0.289  49.937 -21.024  1.00  0.00     0.018 C 
HETATM   14  C20 UNL     1      -2.488  50.297 -22.432  1.00  0.00     0.017 C 
HETATM   15  C21 UNL     1      -1.505  50.704 -23.569  1.00  0.00     0.026 C 
HETATM   16  C22 UNL     1      -1.175  52.213 -23.553  1.00  0.00     0.014 C 
HETATM   17  C23 UNL     1      -0.362  52.630 -24.793  1.00  0.00     0.040 C 
HETATM   18  C24 UNL     1      -1.039  52.260 -26.105  1.00  0.00    -0.040 C 
HETATM   19  C25 UNL     1      -0.954  52.994 -27.224  1.00  0.00     0.092 C 
HETATM   20 CL1  UNL     1      -0.064  54.450 -27.392  1.00  0.00    -0.096 Cl
ENDROOT
BRANCH  12  21
HETATM   21  C14 UNL     1      -2.211  51.309 -20.095  1.00  0.00     0.046 C 
BRANCH  21  22
HETATM   22  C15 UNL     1      -1.259  51.667 -18.931  1.00  0.00     0.150 C 
BRANCH  22  23
HETATM   23  O2  UNL     1       0.099  51.473 -19.304  1.00  0.00    -0.393 OA
HETATM   24  H21 UNL     1       0.123  50.667 -19.865  1.00  0.00     0.210 HD
ENDBRANCH  22  23
BRANCH  22  25
HETATM   25  C16 UNL     1      -1.606  50.847 -17.662  1.00  0.00     0.182 C 
BRANCH  25  26
HETATM   26  O3  UNL     1      -2.733  51.468 -17.001  1.00  0.00    -0.390 OA
HETATM   27  H23 UNL     1      -3.226  50.732 -16.591  1.00  0.00     0.210 HD
ENDBRANCH  25  26
BRANCH  25  28
HETATM   28  C17 UNL     1      -0.456  50.695 -16.624  1.00  0.00     0.103 C 
HETATM   29  C18 UNL     1      -0.962  50.414 -15.203  1.00  0.00     0.051 C 
BRANCH  28  30
HETATM   30  O4  UNL     1       0.311  49.525 -17.013  1.00  0.00    -0.385 OA
HETATM   31  H27 UNL     1      -0.306  48.774 -16.947  1.00  0.00     0.210 HD
ENDBRANCH  28  30
BRANCH  28  32
HETATM   32  C19 UNL     1       0.515  51.895 -16.601  1.00  0.00     0.204 C 
BRANCH  32  33
HETATM   33  O5  UNL     1       0.687  52.411 -15.279  1.00  0.00    -0.398 OA
HETATM   34  H30 UNL     1       1.164  53.254 -15.372  1.00  0.00     0.209 HD
ENDBRANCH  32  33
ENDBRANCH  28  32
ENDBRANCH  25  28
ENDBRANCH  22  25
ENDBRANCH  21  22
ENDBRANCH  12  21
BRANCH  11  35
HETATM   35  O1  UNL     1      -3.562  48.895 -19.681  1.00  0.00    -0.395 OA
HETATM   36  H14 UNL     1      -3.925  48.006 -19.515  1.00  0.00     0.210 HD
ENDBRANCH  11  35
TORSDOF 10
ENDMDL
MODEL 9
REMARK minimizedAffinity -8.71679783
REMARK  10 active torsions:
REMARK  status: ('A' for Active; 'I' for Inactive)
REMARK    1  A    between atoms: C11_11  and  O1_12 
REMARK    2  A    between atoms: C12_13  and  C14_15 
REMARK    3  A    between atoms: C14_15  and  C15_16 
REMARK    4  A    between atoms: C15_16  and  O2_17 
REMARK    5  A    between atoms: C15_16  and  C16_18 
REMARK    6  A    between atoms: C16_18  and  O3_19 
REMARK    7  A    between atoms: C16_18  and  C17_20 
REMARK    8  A    between atoms: C17_20  and  O4_22 
REMARK    9  A    between atoms: C17_20  and  C19_23 
REMARK   10  A    between atoms: C19_23  and  O5_24 
ROOT
HETATM    1  C1  UNL     1      -6.833  47.048 -22.886  1.00  0.00     0.015 C 
HETATM    2  C2  UNL     1      -6.602  48.044 -24.015  1.00  0.00     0.019 C 
HETATM    3  C3  UNL     1      -5.107  48.433 -24.145  1.00  0.00     0.048 C 
HETATM    4  C4  UNL     1      -4.884  48.505 -25.629  1.00  0.00    -0.043 C 
HETATM    5  C5  UNL     1      -5.933  48.001 -26.288  1.00  0.00    -0.040 C 
HETATM    6  C6  UNL     1      -6.955  47.548 -25.395  1.00  0.00    -0.050 C 
HETATM    7  C7  UNL     1      -7.953  46.763 -25.813  1.00  0.00    -0.009 C 
HETATM    8  C8  UNL     1      -8.012  46.193 -27.218  1.00  0.00    -0.018 C 
HETATM    9  C9  UNL     1      -7.877  44.660 -27.034  1.00  0.00     0.020 C 
HETATM   10  C10 UNL     1      -9.339  46.553 -27.898  1.00  0.00     0.046 C 
HETATM   11  C11 UNL     1      -9.096  46.311 -29.384  1.00  0.00     0.128 C 
HETATM   12  C12 UNL     1      -7.651  46.829 -29.646  1.00  0.00    -0.010 C 
HETATM   13  C13 UNL     1      -7.787  48.287 -30.143  1.00  0.00     0.018 C 
HETATM   14  C20 UNL     1      -6.916  46.694 -28.231  1.00  0.00     0.017 C 
HETATM   15  C21 UNL     1      -6.116  47.947 -27.767  1.00  0.00     0.026 C 
HETATM   16  C22 UNL     1      -4.725  48.040 -28.432  1.00  0.00     0.014 C 
HETATM   17  C23 UNL     1      -3.877  49.170 -27.819  1.00  0.00     0.040 C 
HETATM   18  C24 UNL     1      -3.726  49.053 -26.309  1.00  0.00    -0.040 C 
HETATM   19  C25 UNL     1      -2.626  49.424 -25.636  1.00  0.00     0.092 C 
HETATM   20 CL1  UNL     1      -1.217  50.107 -26.334  1.00  0.00    -0.096 Cl
ENDROOT
BRANCH  12  21
HETATM   21  C14 UNL     1      -6.855  45.993 -30.695  1.00  0.00     0.046 C 
BRANCH  21  22
HETATM   22  C15 UNL     1      -6.698  46.589 -32.113  1.00  0.00     0.150 C 
BRANCH  22  23
HETATM   23  O2  UNL     1      -7.701  46.092 -32.989  1.00  0.00    -0.393 OA
HETATM   24  H21 UNL     1      -7.837  45.148 -32.753  1.00  0.00     0.210 HD
ENDBRANCH  22  23
BRANCH  22  25
HETATM   25  C16 UNL     1      -5.282  46.307 -32.676  1.00  0.00     0.182 C 
BRANCH  25  26
HETATM   26  O3  UNL     1      -4.454  45.785 -31.611  1.00  0.00    -0.390 OA
HETATM   27  H23 UNL     1      -3.835  45.168 -32.048  1.00  0.00     0.210 HD
ENDBRANCH  25  26
BRANCH  25  28
HETATM   28  C17 UNL     1      -4.553  47.531 -33.304  1.00  0.00     0.103 C 
HETATM   29  C18 UNL     1      -5.330  48.162 -34.467  1.00  0.00     0.051 C 
BRANCH  28  30
HETATM   30  O4  UNL     1      -4.477  48.552 -32.274  1.00  0.00    -0.385 OA
HETATM   31  H27 UNL     1      -5.401  48.779 -32.064  1.00  0.00     0.210 HD
ENDBRANCH  28  30
BRANCH  28  32
HETATM   32  C19 UNL     1      -3.109  47.223 -33.753  1.00  0.00     0.204 C 
BRANCH  32  33
HETATM   33  O5  UNL     1      -2.310  48.407 -33.820  1.00  0.00    -0.398 OA
HETATM   34  H30 UNL     1      -1.484  48.157 -34.269  1.00  0.00     0.209 HD
ENDBRANCH  32  33
ENDBRANCH  28  32
ENDBRANCH  25  28
ENDBRANCH  22  25
ENDBRANCH  21  22
ENDBRANCH  12  21
BRANCH  11  35
HETATM   35  O1  UNL     1      -9.242  44.928 -29.701  1.00  0.00    -0.395 OA
HETATM   36  H14 UNL     1     -10.127  44.656 -29.396  1.00  0.00     0.210 HD
ENDBRANCH  11  35
TORSDOF 10
ENDMDL
