MODEL 1
REMARK minimizedAffinity -8.44528103
REMARK CNNscore 0.837211967
REMARK CNNaffinity 7.41946411
REMARK  15 active torsions:
REMARK  status: ('A' for Active; 'I' for Inactive)
REMARK    1  A    between atoms: C2_2  and  O2_4 
REMARK    2  A    between atoms: O2_4  and  C3_5 
REMARK    3  A    between atoms: C3_5  and  C4_6 
REMARK    4  A    between atoms: C4_6  and  C5_8 
REMARK    5  A    between atoms: C5_8  and  O4_9 
REMARK    6  A    between atoms: O4_9  and  C6_10 
REMARK    7  A    between atoms: C6_10  and  C7_12 
REMARK    8  A    between atoms: C7_12  and  C8_13 
REMARK    9  A    between atoms: C8_13  and  C9_14 
REMARK       I    between atoms: C9_14  and  N1_16 
REMARK   10  A    between atoms: N1_16  and  C10_17 
REMARK   11  A    between atoms: C10_17  and  C11_18 
REMARK   12  A    between atoms: C11_18  and  C12_19 
REMARK   13  A    between atoms: C12_19  and  C13_20 
REMARK   14  A    between atoms: C13_20  and  C14_21 
REMARK   15  A    between atoms: C14_21  and  O8_23 
ROOT
HETATM    1  C3  UNL     1       1.699   7.545  10.188  1.00  0.00     0.140 C 
HETATM    2  C15 UNL     1       1.186   6.207   9.643  1.00  0.00     0.048 C 
HETATM    3  C16 UNL     1       0.649   5.461  10.865  1.00  0.00     0.009 C 
HETATM    4  C17 UNL     1       0.288   6.525  11.932  1.00  0.00     0.002 C 
HETATM    5  C18 UNL     1      -1.200   6.389  12.354  1.00  0.00    -0.004 C 
HETATM    6  C19 UNL     1      -1.410   5.206  13.296  1.00  0.00     0.010 C 
HETATM    7  C20 UNL     1      -2.898   4.976  13.540  1.00  0.00     0.035 C 
HETATM    8  C21 UNL     1      -3.722   6.232  13.709  1.00  0.00    -0.068 C 
HETATM    9  C22 UNL     1      -5.062   6.105  13.746  1.00  0.00     0.053 C 
HETATM   10  C23 UNL     1      -5.957   7.249  14.040  1.00  0.00     0.149 C 
HETATM   11  O9  UNL     1      -7.174   7.072  14.068  1.00  0.00    -0.293 OA
HETATM   12  C24 UNL     1      -5.333   8.581  14.369  1.00  0.00     0.084 C 
HETATM   13  C25 UNL     1      -4.010   8.738  13.629  1.00  0.00     0.022 C 
HETATM   14  C26 UNL     1      -3.006   7.574  13.882  1.00  0.00    -0.016 C 
HETATM   15  C27 UNL     1      -2.559   7.652  15.372  1.00  0.00     0.020 C 
HETATM   16  C28 UNL     1      -1.708   7.705  12.978  1.00  0.00     0.002 C 
HETATM   17  C29 UNL     1      -1.733   8.766  11.850  1.00  0.00     0.007 C 
HETATM   18  C30 UNL     1      -0.613   8.602  10.801  1.00  0.00     0.013 C 
HETATM   19  C31 UNL     1       0.674   7.915  11.322  1.00  0.00    -0.001 C 
HETATM   20  C32 UNL     1       1.333   8.876  12.341  1.00  0.00     0.019 C 
ENDROOT
BRANCH   1  21
HETATM   21  O2  UNL     1       1.892   8.609   9.224  1.00  0.00    -0.301 OA
BRANCH  21  22
HETATM   22  C2  UNL     1       2.497   8.489   8.020  1.00  0.00     0.256 C 
HETATM   23  C1  UNL     1       1.858   7.376   7.248  1.00  0.00     0.126 C 
HETATM   24  O1  UNL     1       3.416   9.166   7.591  1.00  0.00    -0.266 OA
ENDBRANCH  21  22
ENDBRANCH   1  21
BRANCH   1  25
HETATM   25  C4  UNL     1       3.130   7.282  10.769  1.00  0.00     0.186 C 
HETATM   26  O3  UNL     1       3.539   6.144  11.025  1.00  0.00    -0.292 OA
BRANCH  25  27
HETATM   27  C5  UNL     1       4.021   8.476  11.089  1.00  0.00     0.260 C 
BRANCH  27  28
HETATM   28  O4  UNL     1       5.213   8.441  10.307  1.00  0.00    -0.314 OA
BRANCH  28  29
HETATM   29  C6  UNL     1       6.280   7.918  10.973  1.00  0.00     0.259 C 
HETATM   30  O5  UNL     1       7.151   7.225  10.462  1.00  0.00    -0.265 OA
BRANCH  29  31
HETATM   31  C7  UNL     1       6.188   8.251  12.441  1.00  0.00     0.120 C 
BRANCH  31  32
HETATM   32  C8  UNL     1       6.818   7.153  13.290  1.00  0.00     0.112 C 
BRANCH  32  33
HETATM   33  C9  UNL     1       8.095   7.626  13.956  1.00  0.00     0.217 C 
HETATM   34  O6  UNL     1       9.146   7.800  13.351  1.00  0.00    -0.274 OA
HETATM   35  N1  UNL     1       7.931   7.887  15.302  1.00  0.00    -0.361 N 
HETATM   36  H10 UNL     1       7.160   7.425  15.770  1.00  0.00     0.162 HD
BRANCH  35  37
HETATM   37  C10 UNL     1       9.057   8.315  16.110  1.00  0.00     0.122 C 
BRANCH  37  38
HETATM   38  C11 UNL     1       8.851   9.737  16.623  1.00  0.00     0.020 C 
BRANCH  38  39
HETATM   39  C12 UNL     1       9.764  10.052  17.809  1.00  0.00     0.012 C 
BRANCH  39  40
HETATM   40  C13 UNL     1       9.287  11.294  18.562  1.00  0.00     0.110 C 
BRANCH  40  41
HETATM   41  C14 UNL     1       7.896  11.184  19.130  1.00  0.00     0.139 C 
HETATM   42  O7  UNL     1       7.441  11.902  20.005  1.00  0.00    -0.650 OA
BRANCH  41  43
HETATM   43  O8  UNL     1       7.129  10.233  18.569  1.00  0.00    -0.776 OA
HETATM   44  H19 UNL     1       6.272  10.312  19.038  1.00  0.00     0.167 HD
ENDBRANCH  41  43
ENDBRANCH  40  41
ENDBRANCH  39  40
ENDBRANCH  38  39
ENDBRANCH  37  38
ENDBRANCH  35  37
ENDBRANCH  32  33
ENDBRANCH  31  32
ENDBRANCH  29  31
ENDBRANCH  28  29
ENDBRANCH  27  28
ENDBRANCH  25  27
ENDBRANCH   1  25
TORSDOF 15
ENDMDL
MODEL 2
REMARK minimizedAffinity -8.25292492
REMARK CNNscore 0.749229312
REMARK CNNaffinity 7.91234207
REMARK  15 active torsions:
REMARK  status: ('A' for Active; 'I' for Inactive)
REMARK    1  A    between atoms: C2_2  and  O2_4 
REMARK    2  A    between atoms: O2_4  and  C3_5 
REMARK    3  A    between atoms: C3_5  and  C4_6 
REMARK    4  A    between atoms: C4_6  and  C5_8 
REMARK    5  A    between atoms: C5_8  and  O4_9 
REMARK    6  A    between atoms: O4_9  and  C6_10 
REMARK    7  A    between atoms: C6_10  and  C7_12 
REMARK    8  A    between atoms: C7_12  and  C8_13 
REMARK    9  A    between atoms: C8_13  and  C9_14 
REMARK       I    between atoms: C9_14  and  N1_16 
REMARK   10  A    between atoms: N1_16  and  C10_17 
REMARK   11  A    between atoms: C10_17  and  C11_18 
REMARK   12  A    between atoms: C11_18  and  C12_19 
REMARK   13  A    between atoms: C12_19  and  C13_20 
REMARK   14  A    between atoms: C13_20  and  C14_21 
REMARK   15  A    between atoms: C14_21  and  O8_23 
ROOT
HETATM    1  C3  UNL     1      -5.291   6.264  14.027  1.00  0.00     0.140 C 
HETATM    2  C15 UNL     1      -5.623   7.335  12.982  1.00  0.00     0.048 C 
HETATM    3  C16 UNL     1      -4.407   8.261  12.963  1.00  0.00     0.009 C 
HETATM    4  C17 UNL     1      -3.198   7.443  13.482  1.00  0.00     0.002 C 
HETATM    5  C18 UNL     1      -2.050   7.445  12.435  1.00  0.00    -0.004 C 
HETATM    6  C19 UNL     1      -1.297   8.773  12.431  1.00  0.00     0.010 C 
HETATM    7  C20 UNL     1      -0.309   8.823  11.270  1.00  0.00     0.035 C 
HETATM    8  C21 UNL     1       0.432   7.532  11.004  1.00  0.00    -0.068 C 
HETATM    9  C22 UNL     1       1.180   7.455   9.887  1.00  0.00     0.053 C 
HETATM   10  C23 UNL     1       2.051   6.292   9.596  1.00  0.00     0.149 C 
HETATM   11  O9  UNL     1       2.718   6.280   8.563  1.00  0.00    -0.293 OA
HETATM   12  C24 UNL     1       2.142   5.192  10.622  1.00  0.00     0.084 C 
HETATM   13  C25 UNL     1       0.825   5.067  11.378  1.00  0.00     0.022 C 
HETATM   14  C26 UNL     1       0.346   6.399  12.029  1.00  0.00    -0.016 C 
HETATM   15  C27 UNL     1       1.346   6.753  13.170  1.00  0.00     0.020 C 
HETATM   16  C28 UNL     1      -1.098   6.256  12.675  1.00  0.00     0.002 C 
HETATM   17  C29 UNL     1      -1.891   4.964  12.360  1.00  0.00     0.007 C 
HETATM   18  C30 UNL     1      -3.392   5.042  12.709  1.00  0.00     0.013 C 
HETATM   19  C31 UNL     1      -3.747   6.024  13.852  1.00  0.00    -0.001 C 
HETATM   20  C32 UNL     1      -3.147   5.451  15.159  1.00  0.00     0.019 C 
ENDROOT
BRANCH   1  21
HETATM   21  O2  UNL     1      -6.068   5.043  13.975  1.00  0.00    -0.301 OA
BRANCH  21  22
HETATM   22  C2  UNL     1      -6.769   4.591  12.910  1.00  0.00     0.256 C 
HETATM   23  C1  UNL     1      -6.273   3.231  12.525  1.00  0.00     0.126 C 
HETATM   24  O1  UNL     1      -7.675   5.167  12.330  1.00  0.00    -0.266 OA
ENDBRANCH  21  22
ENDBRANCH   1  21
BRANCH   1  25
HETATM   25  C4  UNL     1      -5.624   6.878  15.430  1.00  0.00     0.186 C 
HETATM   26  O3  UNL     1      -4.988   7.826  15.903  1.00  0.00    -0.292 OA
BRANCH  25  27
HETATM   27  C5  UNL     1      -6.727   6.239  16.265  1.00  0.00     0.260 C 
BRANCH  27  28
HETATM   28  O4  UNL     1      -7.670   7.219  16.691  1.00  0.00    -0.314 OA
BRANCH  28  29
HETATM   29  C6  UNL     1      -8.445   7.699  15.678  1.00  0.00     0.259 C 
HETATM   30  O5  UNL     1      -8.463   8.866  15.305  1.00  0.00    -0.265 OA
BRANCH  29  31
HETATM   31  C7  UNL     1      -9.330   6.603  15.141  1.00  0.00     0.120 C 
BRANCH  31  32
HETATM   32  C8  UNL     1      -9.803   6.926  13.728  1.00  0.00     0.112 C 
BRANCH  32  33
HETATM   33  C9  UNL     1     -11.292   7.203  13.686  1.00  0.00     0.217 C 
HETATM   34  O6  UNL     1     -11.846   7.770  12.752  1.00  0.00    -0.274 OA
HETATM   35  N1  UNL     1     -11.960   6.701  14.786  1.00  0.00    -0.361 N 
HETATM   36  H10 UNL     1     -11.414   6.547  15.625  1.00  0.00     0.162 HD
BRANCH  35  37
HETATM   37  C10 UNL     1     -13.389   6.905  14.933  1.00  0.00     0.122 C 
BRANCH  37  38
HETATM   38  C11 UNL     1     -14.168   5.704  14.404  1.00  0.00     0.020 C 
BRANCH  38  39
HETATM   39  C12 UNL     1     -15.663   5.818  14.704  1.00  0.00     0.012 C 
BRANCH  39  40
HETATM   40  C13 UNL     1     -16.318   6.907  13.855  1.00  0.00     0.110 C 
BRANCH  40  41
HETATM   41  C14 UNL     1     -16.314   6.631  12.373  1.00  0.00     0.139 C 
HETATM   42  O7  UNL     1     -15.664   7.253  11.549  1.00  0.00    -0.650 OA
BRANCH  41  43
HETATM   43  O8  UNL     1     -17.071   5.588  11.990  1.00  0.00    -0.776 OA
HETATM   44  H19 UNL     1     -16.941   5.544  11.020  1.00  0.00     0.167 HD
ENDBRANCH  41  43
ENDBRANCH  40  41
ENDBRANCH  39  40
ENDBRANCH  38  39
ENDBRANCH  37  38
ENDBRANCH  35  37
ENDBRANCH  32  33
ENDBRANCH  31  32
ENDBRANCH  29  31
ENDBRANCH  28  29
ENDBRANCH  27  28
ENDBRANCH  25  27
ENDBRANCH   1  25
TORSDOF 15
ENDMDL
MODEL 3
REMARK minimizedAffinity -7.13776207
REMARK CNNscore 0.681988597
REMARK CNNaffinity 8.07068348
REMARK  15 active torsions:
REMARK  status: ('A' for Active; 'I' for Inactive)
REMARK    1  A    between atoms: C2_2  and  O2_4 
REMARK    2  A    between atoms: O2_4  and  C3_5 
REMARK    3  A    between atoms: C3_5  and  C4_6 
REMARK    4  A    between atoms: C4_6  and  C5_8 
REMARK    5  A    between atoms: C5_8  and  O4_9 
REMARK    6  A    between atoms: O4_9  and  C6_10 
REMARK    7  A    between atoms: C6_10  and  C7_12 
REMARK    8  A    between atoms: C7_12  and  C8_13 
REMARK    9  A    between atoms: C8_13  and  C9_14 
REMARK       I    between atoms: C9_14  and  N1_16 
REMARK   10  A    between atoms: N1_16  and  C10_17 
REMARK   11  A    between atoms: C10_17  and  C11_18 
REMARK   12  A    between atoms: C11_18  and  C12_19 
REMARK   13  A    between atoms: C12_19  and  C13_20 
REMARK   14  A    between atoms: C13_20  and  C14_21 
REMARK   15  A    between atoms: C14_21  and  O8_23 
ROOT
HETATM    1  C3  UNL     1      -6.736   4.881  13.708  1.00  0.00     0.140 C 
HETATM    2  C15 UNL     1      -7.204   4.239  15.019  1.00  0.00     0.048 C 
HETATM    3  C16 UNL     1      -7.476   5.413  15.960  1.00  0.00     0.009 C 
HETATM    4  C17 UNL     1      -7.760   6.654  15.077  1.00  0.00     0.002 C 
HETATM    5  C18 UNL     1      -9.147   7.262  15.425  1.00  0.00    -0.004 C 
HETATM    6  C19 UNL     1      -9.100   8.056  16.728  1.00  0.00     0.010 C 
HETATM    7  C20 UNL     1     -10.505   8.476  17.147  1.00  0.00     0.035 C 
HETATM    8  C21 UNL     1     -11.403   8.929  16.018  1.00  0.00    -0.068 C 
HETATM    9  C22 UNL     1     -12.704   9.139  16.295  1.00  0.00     0.053 C 
HETATM   10  C23 UNL     1     -13.642   9.709  15.299  1.00  0.00     0.149 C 
HETATM   11  O9  UNL     1     -14.819   9.886  15.611  1.00  0.00    -0.293 OA
HETATM   12  C24 UNL     1     -13.098  10.122  13.956  1.00  0.00     0.084 C 
HETATM   13  C25 UNL     1     -11.925   9.229  13.567  1.00  0.00     0.022 C 
HETATM   14  C26 UNL     1     -10.793   9.177  14.636  1.00  0.00    -0.016 C 
HETATM   15  C27 UNL     1     -10.129  10.585  14.689  1.00  0.00     0.020 C 
HETATM   16  C28 UNL     1      -9.668   8.123  14.256  1.00  0.00     0.002 C 
HETATM   17  C29 UNL     1      -9.964   7.164  13.078  1.00  0.00     0.007 C 
HETATM   18  C30 UNL     1      -9.011   5.954  12.992  1.00  0.00     0.013 C 
HETATM   19  C31 UNL     1      -7.602   6.188  13.590  1.00  0.00    -0.001 C 
HETATM   20  C32 UNL     1      -6.882   7.223  12.691  1.00  0.00     0.019 C 
ENDROOT
BRANCH   1  21
HETATM   21  O2  UNL     1      -6.792   4.051  12.522  1.00  0.00    -0.301 OA
BRANCH  21  22
HETATM   22  C2  UNL     1      -7.324   2.809  12.445  1.00  0.00     0.256 C 
HETATM   23  C1  UNL     1      -6.360   1.895  11.753  1.00  0.00     0.126 C 
HETATM   24  O1  UNL     1      -8.410   2.449  12.866  1.00  0.00    -0.266 OA
ENDBRANCH  21  22
ENDBRANCH   1  21
BRANCH   1  25
HETATM   25  C4  UNL     1      -5.214   5.211  13.880  1.00  0.00     0.186 C 
HETATM   26  O3  UNL     1      -4.773   5.790  14.879  1.00  0.00    -0.292 OA
BRANCH  25  27
HETATM   27  C5  UNL     1      -4.257   4.864  12.746  1.00  0.00     0.260 C 
BRANCH  27  28
HETATM   28  O4  UNL     1      -3.429   3.760  13.105  1.00  0.00    -0.314 OA
BRANCH  28  29
HETATM   29  C6  UNL     1      -2.831   3.164  12.035  1.00  0.00     0.259 C 
HETATM   30  O5  UNL     1      -2.971   1.988  11.722  1.00  0.00    -0.265 OA
BRANCH  29  31
HETATM   31  C7  UNL     1      -1.915   4.141  11.344  1.00  0.00     0.120 C 
BRANCH  31  32
HETATM   32  C8  UNL     1      -0.463   3.904  11.742  1.00  0.00     0.112 C 
BRANCH  32  33
HETATM   33  C9  UNL     1       0.044   4.983  12.679  1.00  0.00     0.217 C 
HETATM   34  O6  UNL     1      -0.459   5.216  13.771  1.00  0.00    -0.274 OA
HETATM   35  N1  UNL     1       1.159   5.634  12.191  1.00  0.00    -0.361 N 
HETATM   36  H10 UNL     1       1.304   5.610  11.189  1.00  0.00     0.162 HD
BRANCH  35  37
HETATM   37  C10 UNL     1       1.760   6.723  12.938  1.00  0.00     0.122 C 
BRANCH  37  38
HETATM   38  C11 UNL     1       2.642   7.581  12.036  1.00  0.00     0.020 C 
BRANCH  38  39
HETATM   39  C12 UNL     1       2.346   7.341  10.555  1.00  0.00     0.012 C 
BRANCH  39  40
HETATM   40  C13 UNL     1       3.572   6.791   9.826  1.00  0.00     0.110 C 
BRANCH  40  41
HETATM   41  C14 UNL     1       3.675   5.288   9.823  1.00  0.00     0.139 C 
HETATM   42  O7  UNL     1       2.725   4.523   9.771  1.00  0.00    -0.650 OA
BRANCH  41  43
HETATM   43  O8  UNL     1       4.930   4.807   9.842  1.00  0.00    -0.776 OA
HETATM   44  H19 UNL     1       4.812   3.834   9.821  1.00  0.00     0.167 HD
ENDBRANCH  41  43
ENDBRANCH  40  41
ENDBRANCH  39  40
ENDBRANCH  38  39
ENDBRANCH  37  38
ENDBRANCH  35  37
ENDBRANCH  32  33
ENDBRANCH  31  32
ENDBRANCH  29  31
ENDBRANCH  28  29
ENDBRANCH  27  28
ENDBRANCH  25  27
ENDBRANCH   1  25
TORSDOF 15
ENDMDL
MODEL 4
REMARK minimizedAffinity -7.51855421
REMARK CNNscore 0.615131736
REMARK CNNaffinity 7.76619196
REMARK  15 active torsions:
REMARK  status: ('A' for Active; 'I' for Inactive)
REMARK    1  A    between atoms: C2_2  and  O2_4 
REMARK    2  A    between atoms: O2_4  and  C3_5 
REMARK    3  A    between atoms: C3_5  and  C4_6 
REMARK    4  A    between atoms: C4_6  and  C5_8 
REMARK    5  A    between atoms: C5_8  and  O4_9 
REMARK    6  A    between atoms: O4_9  and  C6_10 
REMARK    7  A    between atoms: C6_10  and  C7_12 
REMARK    8  A    between atoms: C7_12  and  C8_13 
REMARK    9  A    between atoms: C8_13  and  C9_14 
REMARK       I    between atoms: C9_14  and  N1_16 
REMARK   10  A    between atoms: N1_16  and  C10_17 
REMARK   11  A    between atoms: C10_17  and  C11_18 
REMARK   12  A    between atoms: C11_18  and  C12_19 
REMARK   13  A    between atoms: C12_19  and  C13_20 
REMARK   14  A    between atoms: C13_20  and  C14_21 
REMARK   15  A    between atoms: C14_21  and  O8_23 
ROOT
HETATM    1  C3  UNL     1      -0.642   7.525  13.010  1.00  0.00     0.140 C 
HETATM    2  C15 UNL     1      -1.389   8.473  12.065  1.00  0.00     0.048 C 
HETATM    3  C16 UNL     1      -2.619   8.929  12.851  1.00  0.00     0.009 C 
HETATM    4  C17 UNL     1      -2.288   8.769  14.356  1.00  0.00     0.002 C 
HETATM    5  C18 UNL     1      -2.465  10.122  15.098  1.00  0.00    -0.004 C 
HETATM    6  C19 UNL     1      -3.939  10.441  15.338  1.00  0.00     0.010 C 
HETATM    7  C20 UNL     1      -4.096  11.855  15.888  1.00  0.00     0.035 C 
HETATM    8  C21 UNL     1      -3.058  12.265  16.908  1.00  0.00    -0.068 C 
HETATM    9  C22 UNL     1      -3.032  13.554  17.297  1.00  0.00     0.053 C 
HETATM   10  C23 UNL     1      -2.148  14.035  18.385  1.00  0.00     0.149 C 
HETATM   11  O9  UNL     1      -2.173  15.223  18.702  1.00  0.00    -0.293 OA
HETATM   12  C24 UNL     1      -1.300  13.027  19.116  1.00  0.00     0.084 C 
HETATM   13  C25 UNL     1      -0.911  11.889  18.180  1.00  0.00     0.022 C 
HETATM   14  C26 UNL     1      -2.126  11.200  17.491  1.00  0.00    -0.016 C 
HETATM   15  C27 UNL     1      -2.934  10.454  18.594  1.00  0.00     0.020 C 
HETATM   16  C28 UNL     1      -1.664  10.125  16.416  1.00  0.00     0.002 C 
HETATM   17  C29 UNL     1      -0.163  10.098  16.039  1.00  0.00     0.007 C 
HETATM   18  C30 UNL     1       0.154   9.300  14.758  1.00  0.00     0.013 C 
HETATM   19  C31 UNL     1      -0.846   8.162  14.433  1.00  0.00    -0.001 C 
HETATM   20  C32 UNL     1      -0.688   7.079  15.528  1.00  0.00     0.019 C 
ENDROOT
BRANCH   1  21
HETATM   21  O2  UNL     1       0.747   7.258  12.698  1.00  0.00    -0.301 OA
BRANCH  21  22
HETATM   22  C2  UNL     1       1.447   7.787  11.668  1.00  0.00     0.256 C 
HETATM   23  C1  UNL     1       1.569   6.772  10.573  1.00  0.00     0.126 C 
HETATM   24  O1  UNL     1       1.914   8.911  11.600  1.00  0.00    -0.266 OA
ENDBRANCH  21  22
ENDBRANCH   1  21
BRANCH   1  25
HETATM   25  C4  UNL     1      -1.341   6.127  12.899  1.00  0.00     0.186 C 
HETATM   26  O3  UNL     1      -1.562   5.585  11.810  1.00  0.00    -0.292 OA
BRANCH  25  27
HETATM   27  C5  UNL     1      -1.824   5.446  14.174  1.00  0.00     0.260 C 
BRANCH  27  28
HETATM   28  O4  UNL     1      -3.158   4.970  14.018  1.00  0.00    -0.314 OA
BRANCH  28  29
HETATM   29  C6  UNL     1      -4.089   5.768  14.613  1.00  0.00     0.259 C 
HETATM   30  O5  UNL     1      -4.051   6.134  15.781  1.00  0.00    -0.265 OA
BRANCH  29  31
HETATM   31  C7  UNL     1      -5.207   6.067  13.647  1.00  0.00     0.120 C 
BRANCH  31  32
HETATM   32  C8  UNL     1      -6.407   5.163  13.904  1.00  0.00     0.112 C 
BRANCH  32  33
HETATM   33  C9  UNL     1      -6.597   4.154  12.789  1.00  0.00     0.217 C 
HETATM   34  O6  UNL     1      -7.677   3.646  12.516  1.00  0.00    -0.274 OA
HETATM   35  N1  UNL     1      -5.434   3.911  12.085  1.00  0.00    -0.361 N 
HETATM   36  H10 UNL     1      -4.560   4.107  12.558  1.00  0.00     0.162 HD
BRANCH  35  37
HETATM   37  C10 UNL     1      -5.418   2.944  11.003  1.00  0.00     0.122 C 
BRANCH  37  38
HETATM   38  C11 UNL     1      -4.702   1.665  11.426  1.00  0.00     0.020 C 
BRANCH  38  39
HETATM   39  C12 UNL     1      -3.260   1.935  11.856  1.00  0.00     0.012 C 
BRANCH  39  40
HETATM   40  C13 UNL     1      -2.413   2.425  10.681  1.00  0.00     0.110 C 
BRANCH  40  41
HETATM   41  C14 UNL     1      -1.070   1.754  10.556  1.00  0.00     0.139 C 
HETATM   42  O7  UNL     1      -0.098   2.003  11.252  1.00  0.00    -0.650 OA
BRANCH  41  43
HETATM   43  O8  UNL     1      -1.002   0.792   9.620  1.00  0.00    -0.776 OA
HETATM   44  H19 UNL     1      -0.083   0.460   9.686  1.00  0.00     0.167 HD
ENDBRANCH  41  43
ENDBRANCH  40  41
ENDBRANCH  39  40
ENDBRANCH  38  39
ENDBRANCH  37  38
ENDBRANCH  35  37
ENDBRANCH  32  33
ENDBRANCH  31  32
ENDBRANCH  29  31
ENDBRANCH  28  29
ENDBRANCH  27  28
ENDBRANCH  25  27
ENDBRANCH   1  25
TORSDOF 15
ENDMDL
MODEL 5
REMARK minimizedAffinity -7.928473
REMARK CNNscore 0.611595869
REMARK CNNaffinity 7.3285079
REMARK  15 active torsions:
REMARK  status: ('A' for Active; 'I' for Inactive)
REMARK    1  A    between atoms: C2_2  and  O2_4 
REMARK    2  A    between atoms: O2_4  and  C3_5 
REMARK    3  A    between atoms: C3_5  and  C4_6 
REMARK    4  A    between atoms: C4_6  and  C5_8 
REMARK    5  A    between atoms: C5_8  and  O4_9 
REMARK    6  A    between atoms: O4_9  and  C6_10 
REMARK    7  A    between atoms: C6_10  and  C7_12 
REMARK    8  A    between atoms: C7_12  and  C8_13 
REMARK    9  A    between atoms: C8_13  and  C9_14 
REMARK       I    between atoms: C9_14  and  N1_16 
REMARK   10  A    between atoms: N1_16  and  C10_17 
REMARK   11  A    between atoms: C10_17  and  C11_18 
REMARK   12  A    between atoms: C11_18  and  C12_19 
REMARK   13  A    between atoms: C12_19  and  C13_20 
REMARK   14  A    between atoms: C13_20  and  C14_21 
REMARK   15  A    between atoms: C14_21  and  O8_23 
ROOT
HETATM    1  C3  UNL     1      -5.592   6.518  14.136  1.00  0.00     0.140 C 
HETATM    2  C15 UNL     1      -5.871   7.505  12.997  1.00  0.00     0.048 C 
HETATM    3  C16 UNL     1      -4.628   8.392  12.928  1.00  0.00     0.009 C 
HETATM    4  C17 UNL     1      -3.455   7.588  13.542  1.00  0.00     0.002 C 
HETATM    5  C18 UNL     1      -2.286   7.470  12.526  1.00  0.00    -0.004 C 
HETATM    6  C19 UNL     1      -1.494   8.772  12.427  1.00  0.00     0.010 C 
HETATM    7  C20 UNL     1      -0.482   8.695  11.289  1.00  0.00     0.035 C 
HETATM    8  C21 UNL     1       0.227   7.367  11.150  1.00  0.00    -0.068 C 
HETATM    9  C22 UNL     1       0.996   7.175  10.061  1.00  0.00     0.053 C 
HETATM   10  C23 UNL     1       1.838   5.968   9.890  1.00  0.00     0.149 C 
HETATM   11  O9  UNL     1       2.526   5.850   8.877  1.00  0.00    -0.293 OA
HETATM   12  C24 UNL     1       1.876   4.957  11.007  1.00  0.00     0.084 C 
HETATM   13  C25 UNL     1       0.539   4.933  11.740  1.00  0.00     0.022 C 
HETATM   14  C26 UNL     1       0.086   6.328  12.265  1.00  0.00    -0.016 C 
HETATM   15  C27 UNL     1       1.072   6.750  13.395  1.00  0.00     0.020 C 
HETATM   16  C28 UNL     1      -1.374   6.280  12.887  1.00  0.00     0.002 C 
HETATM   17  C29 UNL     1      -2.198   4.988  12.664  1.00  0.00     0.007 C 
HETATM   18  C30 UNL     1      -3.703   5.136  12.970  1.00  0.00     0.013 C 
HETATM   19  C31 UNL     1      -4.052   6.221  14.018  1.00  0.00    -0.001 C 
HETATM   20  C32 UNL     1      -3.497   5.745  15.382  1.00  0.00     0.019 C 
ENDROOT
BRANCH   1  21
HETATM   21  O2  UNL     1      -6.403   5.318  14.169  1.00  0.00    -0.301 OA
BRANCH  21  22
HETATM   22  C2  UNL     1      -7.029   4.751  13.112  1.00  0.00     0.256 C 
HETATM   23  C1  UNL     1      -8.358   5.410  12.906  1.00  0.00     0.126 C 
HETATM   24  O1  UNL     1      -6.607   3.850  12.407  1.00  0.00    -0.266 OA
ENDBRANCH  21  22
ENDBRANCH   1  21
BRANCH   1  25
HETATM   25  C4  UNL     1      -5.936   7.257  15.474  1.00  0.00     0.186 C 
HETATM   26  O3  UNL     1      -5.293   8.234  15.872  1.00  0.00    -0.292 OA
BRANCH  25  27
HETATM   27  C5  UNL     1      -7.061   6.710  16.344  1.00  0.00     0.260 C 
BRANCH  27  28
HETATM   28  O4  UNL     1      -7.995   7.738  16.668  1.00  0.00    -0.314 OA
BRANCH  28  29
HETATM   29  C6  UNL     1      -9.108   7.722  15.884  1.00  0.00     0.259 C 
HETATM   30  O5  UNL     1      -9.694   6.708  15.522  1.00  0.00    -0.265 OA
BRANCH  29  31
HETATM   31  C7  UNL     1      -9.466   9.125  15.464  1.00  0.00     0.120 C 
BRANCH  31  32
HETATM   32  C8  UNL     1     -10.895   9.469  15.866  1.00  0.00     0.112 C 
BRANCH  32  33
HETATM   33  C9  UNL     1     -10.935  10.307  17.129  1.00  0.00     0.217 C 
HETATM   34  O6  UNL     1     -10.278  11.329  17.279  1.00  0.00    -0.274 OA
HETATM   35  N1  UNL     1     -11.828   9.822  18.064  1.00  0.00    -0.361 N 
HETATM   36  H10 UNL     1     -12.072   8.841  18.002  1.00  0.00     0.162 HD
BRANCH  35  37
HETATM   37  C10 UNL     1     -11.972  10.477  19.350  1.00  0.00     0.122 C 
BRANCH  37  38
HETATM   38  C11 UNL     1     -11.067   9.832  20.395  1.00  0.00     0.020 C 
BRANCH  38  39
HETATM   39  C12 UNL     1     -11.111  10.582  21.727  1.00  0.00     0.012 C 
BRANCH  39  40
HETATM   40  C13 UNL     1     -11.888   9.796  22.782  1.00  0.00     0.110 C 
BRANCH  40  41
HETATM   41  C14 UNL     1     -11.028   9.131  23.826  1.00  0.00     0.139 C 
HETATM   42  O7  UNL     1     -10.626   7.980  23.768  1.00  0.00    -0.650 OA
BRANCH  41  43
HETATM   43  O8  UNL     1     -10.677   9.919  24.856  1.00  0.00    -0.776 OA
HETATM   44  H19 UNL     1     -10.118   9.342  25.417  1.00  0.00     0.167 HD
ENDBRANCH  41  43
ENDBRANCH  40  41
ENDBRANCH  39  40
ENDBRANCH  38  39
ENDBRANCH  37  38
ENDBRANCH  35  37
ENDBRANCH  32  33
ENDBRANCH  31  32
ENDBRANCH  29  31
ENDBRANCH  28  29
ENDBRANCH  27  28
ENDBRANCH  25  27
ENDBRANCH   1  25
TORSDOF 15
ENDMDL
MODEL 6
REMARK minimizedAffinity -7.37337208
REMARK CNNscore 0.608939528
REMARK CNNaffinity 7.52983665
REMARK  15 active torsions:
REMARK  status: ('A' for Active; 'I' for Inactive)
REMARK    1  A    between atoms: C2_2  and  O2_4 
REMARK    2  A    between atoms: O2_4  and  C3_5 
REMARK    3  A    between atoms: C3_5  and  C4_6 
REMARK    4  A    between atoms: C4_6  and  C5_8 
REMARK    5  A    between atoms: C5_8  and  O4_9 
REMARK    6  A    between atoms: O4_9  and  C6_10 
REMARK    7  A    between atoms: C6_10  and  C7_12 
REMARK    8  A    between atoms: C7_12  and  C8_13 
REMARK    9  A    between atoms: C8_13  and  C9_14 
REMARK       I    between atoms: C9_14  and  N1_16 
REMARK   10  A    between atoms: N1_16  and  C10_17 
REMARK   11  A    between atoms: C10_17  and  C11_18 
REMARK   12  A    between atoms: C11_18  and  C12_19 
REMARK   13  A    between atoms: C12_19  and  C13_20 
REMARK   14  A    between atoms: C13_20  and  C14_21 
REMARK   15  A    between atoms: C14_21  and  O8_23 
ROOT
HETATM    1  C3  UNL     1      -6.552   5.544  14.797  1.00  0.00     0.140 C 
HETATM    2  C15 UNL     1      -6.875   5.459  16.293  1.00  0.00     0.048 C 
HETATM    3  C16 UNL     1      -7.454   6.827  16.652  1.00  0.00     0.009 C 
HETATM    4  C17 UNL     1      -8.020   7.444  15.348  1.00  0.00     0.002 C 
HETATM    5  C18 UNL     1      -9.522   7.798  15.522  1.00  0.00    -0.004 C 
HETATM    6  C19 UNL     1      -9.707   9.073  16.342  1.00  0.00     0.010 C 
HETATM    7  C20 UNL     1     -11.181   9.292  16.663  1.00  0.00     0.035 C 
HETATM    8  C21 UNL     1     -12.137   8.973  15.535  1.00  0.00    -0.068 C 
HETATM    9  C22 UNL     1     -13.456   8.972  15.811  1.00  0.00     0.053 C 
HETATM   10  C23 UNL     1     -14.483   8.804  14.756  1.00  0.00     0.149 C 
HETATM   11  O9  UNL     1     -15.674   8.819  15.065  1.00  0.00    -0.293 OA
HETATM   12  C24 UNL     1     -14.028   8.695  13.324  1.00  0.00     0.084 C 
HETATM   13  C25 UNL     1     -12.661   8.026  13.256  1.00  0.00     0.022 C 
HETATM   14  C26 UNL     1     -11.578   8.720  14.134  1.00  0.00    -0.016 C 
HETATM   15  C27 UNL     1     -11.289  10.118  13.510  1.00  0.00     0.020 C 
HETATM   16  C28 UNL     1     -10.215   7.904  14.148  1.00  0.00     0.002 C 
HETATM   17  C29 UNL     1     -10.234   6.483  13.535  1.00  0.00     0.007 C 
HETATM   18  C30 UNL     1      -9.006   5.622  13.896  1.00  0.00     0.013 C 
HETATM   19  C31 UNL     1      -7.715   6.420  14.203  1.00  0.00    -0.001 C 
HETATM   20  C32 UNL     1      -7.257   7.087  12.883  1.00  0.00     0.019 C 
ENDROOT
BRANCH   1  21
HETATM   21  O2  UNL     1      -6.370   4.288  14.098  1.00  0.00    -0.301 OA
BRANCH  21  22
HETATM   22  C2  UNL     1      -6.130   4.142  12.775  1.00  0.00     0.256 C 
HETATM   23  C1  UNL     1      -4.753   3.589  12.575  1.00  0.00     0.126 C 
HETATM   24  O1  UNL     1      -6.892   4.401  11.858  1.00  0.00    -0.266 OA
ENDBRANCH  21  22
ENDBRANCH   1  21
BRANCH   1  25
HETATM   25  C4  UNL     1      -5.166   6.264  14.670  1.00  0.00     0.186 C 
HETATM   26  O3  UNL     1      -4.335   6.260  15.585  1.00  0.00    -0.292 OA
BRANCH  25  27
HETATM   27  C5  UNL     1      -4.862   7.048  13.400  1.00  0.00     0.260 C 
BRANCH  27  28
HETATM   28  O4  UNL     1      -3.622   6.630  12.832  1.00  0.00    -0.314 OA
BRANCH  28  29
HETATM   29  C6  UNL     1      -2.669   7.604  12.841  1.00  0.00     0.259 C 
HETATM   30  O5  UNL     1      -2.897   8.804  12.942  1.00  0.00    -0.265 OA
BRANCH  29  31
HETATM   31  C7  UNL     1      -1.306   6.996  12.629  1.00  0.00     0.120 C 
BRANCH  31  32
HETATM   32  C8  UNL     1      -0.537   7.742  11.545  1.00  0.00     0.112 C 
BRANCH  32  33
HETATM   33  C9  UNL     1       0.511   6.861  10.895  1.00  0.00     0.217 C 
HETATM   34  O6  UNL     1       0.296   5.709  10.539  1.00  0.00    -0.274 OA
HETATM   35  N1  UNL     1       1.713   7.514  10.703  1.00  0.00    -0.361 N 
HETATM   36  H10 UNL     1       1.902   8.313  11.295  1.00  0.00     0.162 HD
BRANCH  35  37
HETATM   37  C10 UNL     1       2.845   6.813  10.126  1.00  0.00     0.122 C 
BRANCH  37  38
HETATM   38  C11 UNL     1       2.979   7.127   8.639  1.00  0.00     0.020 C 
BRANCH  38  39
HETATM   39  C12 UNL     1       2.664   5.910   7.769  1.00  0.00     0.012 C 
BRANCH  39  40
HETATM   40  C13 UNL     1       3.454   4.683   8.223  1.00  0.00     0.110 C 
BRANCH  40  41
HETATM   41  C14 UNL     1       3.993   3.835   7.100  1.00  0.00     0.139 C 
HETATM   42  O7  UNL     1       3.680   3.952   5.926  1.00  0.00    -0.650 OA
BRANCH  41  43
HETATM   43  O8  UNL     1       4.910   2.925   7.468  1.00  0.00    -0.776 OA
HETATM   44  H19 UNL     1       5.158   2.485   6.628  1.00  0.00     0.167 HD
ENDBRANCH  41  43
ENDBRANCH  40  41
ENDBRANCH  39  40
ENDBRANCH  38  39
ENDBRANCH  37  38
ENDBRANCH  35  37
ENDBRANCH  32  33
ENDBRANCH  31  32
ENDBRANCH  29  31
ENDBRANCH  28  29
ENDBRANCH  27  28
ENDBRANCH  25  27
ENDBRANCH   1  25
TORSDOF 15
ENDMDL
MODEL 7
REMARK minimizedAffinity -7.36132622
REMARK CNNscore 0.540537059
REMARK CNNaffinity 6.56479979
REMARK  15 active torsions:
REMARK  status: ('A' for Active; 'I' for Inactive)
REMARK    1  A    between atoms: C2_2  and  O2_4 
REMARK    2  A    between atoms: O2_4  and  C3_5 
REMARK    3  A    between atoms: C3_5  and  C4_6 
REMARK    4  A    between atoms: C4_6  and  C5_8 
REMARK    5  A    between atoms: C5_8  and  O4_9 
REMARK    6  A    between atoms: O4_9  and  C6_10 
REMARK    7  A    between atoms: C6_10  and  C7_12 
REMARK    8  A    between atoms: C7_12  and  C8_13 
REMARK    9  A    between atoms: C8_13  and  C9_14 
REMARK       I    between atoms: C9_14  and  N1_16 
REMARK   10  A    between atoms: N1_16  and  C10_17 
REMARK   11  A    between atoms: C10_17  and  C11_18 
REMARK   12  A    between atoms: C11_18  and  C12_19 
REMARK   13  A    between atoms: C12_19  and  C13_20 
REMARK   14  A    between atoms: C13_20  and  C14_21 
REMARK   15  A    between atoms: C14_21  and  O8_23 
ROOT
HETATM    1  C3  UNL     1      -2.086  10.970  16.283  1.00  0.00     0.140 C 
HETATM    2  C15 UNL     1      -1.158  10.303  15.262  1.00  0.00     0.048 C 
HETATM    3  C16 UNL     1      -1.365   8.801  15.459  1.00  0.00     0.009 C 
HETATM    4  C17 UNL     1      -2.766   8.609  16.094  1.00  0.00     0.002 C 
HETATM    5  C18 UNL     1      -3.637   7.670  15.215  1.00  0.00    -0.004 C 
HETATM    6  C19 UNL     1      -3.233   6.208  15.385  1.00  0.00     0.010 C 
HETATM    7  C20 UNL     1      -3.965   5.331  14.375  1.00  0.00     0.035 C 
HETATM    8  C21 UNL     1      -5.415   5.693  14.143  1.00  0.00    -0.068 C 
HETATM    9  C22 UNL     1      -6.064   5.078  13.137  1.00  0.00     0.053 C 
HETATM   10  C23 UNL     1      -7.517   5.256  12.906  1.00  0.00     0.149 C 
HETATM   11  O9  UNL     1      -8.058   4.662  11.975  1.00  0.00    -0.293 OA
HETATM   12  C24 UNL     1      -8.296   6.109  13.874  1.00  0.00     0.084 C 
HETATM   13  C25 UNL     1      -7.408   7.213  14.435  1.00  0.00     0.022 C 
HETATM   14  C26 UNL     1      -6.092   6.692  15.085  1.00  0.00    -0.016 C 
HETATM   15  C27 UNL     1      -6.481   5.901  16.369  1.00  0.00     0.020 C 
HETATM   16  C28 UNL     1      -5.134   7.882  15.519  1.00  0.00     0.002 C 
HETATM   17  C29 UNL     1      -5.504   9.304  15.030  1.00  0.00     0.007 C 
HETATM   18  C30 UNL     1      -4.368  10.338  15.173  1.00  0.00     0.013 C 
HETATM   19  C31 UNL     1      -3.357  10.044  16.309  1.00  0.00    -0.001 C 
HETATM   20  C32 UNL     1      -4.107  10.208  17.653  1.00  0.00     0.019 C 
ENDROOT
BRANCH   1  21
HETATM   21  O2  UNL     1      -2.402  12.366  16.060  1.00  0.00    -0.301 OA
BRANCH  21  22
HETATM   22  C2  UNL     1      -2.388  13.003  14.867  1.00  0.00     0.256 C 
HETATM   23  C1  UNL     1      -3.563  13.929  14.781  1.00  0.00     0.126 C 
HETATM   24  O1  UNL     1      -1.563  12.877  13.978  1.00  0.00    -0.266 OA
ENDBRANCH  21  22
ENDBRANCH   1  21
BRANCH   1  25
HETATM   25  C4  UNL     1      -1.335  10.956  17.658  1.00  0.00     0.186 C 
HETATM   26  O3  UNL     1      -1.792  10.384  18.654  1.00  0.00    -0.292 OA
BRANCH  25  27
HETATM   27  C5  UNL     1      -0.028  11.729  17.787  1.00  0.00     0.260 C 
BRANCH  27  28
HETATM   28  O4  UNL     1       1.090  10.867  17.594  1.00  0.00    -0.314 OA
BRANCH  28  29
HETATM   29  C6  UNL     1       1.747  10.568  18.749  1.00  0.00     0.259 C 
HETATM   30  O5  UNL     1       2.629   9.724  18.854  1.00  0.00    -0.265 OA
BRANCH  29  31
HETATM   31  C7  UNL     1       1.175  11.370  19.891  1.00  0.00     0.120 C 
BRANCH  31  32
HETATM   32  C8  UNL     1       2.003  11.184  21.158  1.00  0.00     0.112 C 
BRANCH  32  33
HETATM   33  C9  UNL     1       3.042  12.277  21.312  1.00  0.00     0.217 C 
HETATM   34  O6  UNL     1       3.024  13.319  20.668  1.00  0.00    -0.274 OA
HETATM   35  N1  UNL     1       3.975  11.993  22.289  1.00  0.00    -0.361 N 
HETATM   36  H10 UNL     1       4.108  11.018  22.529  1.00  0.00     0.162 HD
BRANCH  35  37
HETATM   37  C10 UNL     1       5.068  12.911  22.550  1.00  0.00     0.122 C 
BRANCH  37  38
HETATM   38  C11 UNL     1       6.290  12.167  23.078  1.00  0.00     0.020 C 
BRANCH  38  39
HETATM   39  C12 UNL     1       7.508  13.084  23.198  1.00  0.00     0.012 C 
BRANCH  39  40
HETATM   40  C13 UNL     1       8.811  12.292  23.102  1.00  0.00     0.110 C 
BRANCH  40  41
HETATM   41  C14 UNL     1       9.578  12.501  21.822  1.00  0.00     0.139 C 
HETATM   42  O7  UNL     1      10.189  13.517  21.532  1.00  0.00    -0.650 OA
BRANCH  41  43
HETATM   43  O8  UNL     1       9.587  11.446  20.989  1.00  0.00    -0.776 OA
HETATM   44  H19 UNL     1      10.132  11.745  20.232  1.00  0.00     0.167 HD
ENDBRANCH  41  43
ENDBRANCH  40  41
ENDBRANCH  39  40
ENDBRANCH  38  39
ENDBRANCH  37  38
ENDBRANCH  35  37
ENDBRANCH  32  33
ENDBRANCH  31  32
ENDBRANCH  29  31
ENDBRANCH  28  29
ENDBRANCH  27  28
ENDBRANCH  25  27
ENDBRANCH   1  25
TORSDOF 15
ENDMDL
MODEL 8
REMARK minimizedAffinity -7.96439171
REMARK CNNscore 0.494213521
REMARK CNNaffinity 7.11417818
REMARK  15 active torsions:
REMARK  status: ('A' for Active; 'I' for Inactive)
REMARK    1  A    between atoms: C2_2  and  O2_4 
REMARK    2  A    between atoms: O2_4  and  C3_5 
REMARK    3  A    between atoms: C3_5  and  C4_6 
REMARK    4  A    between atoms: C4_6  and  C5_8 
REMARK    5  A    between atoms: C5_8  and  O4_9 
REMARK    6  A    between atoms: O4_9  and  C6_10 
REMARK    7  A    between atoms: C6_10  and  C7_12 
REMARK    8  A    between atoms: C7_12  and  C8_13 
REMARK    9  A    between atoms: C8_13  and  C9_14 
REMARK       I    between atoms: C9_14  and  N1_16 
REMARK   10  A    between atoms: N1_16  and  C10_17 
REMARK   11  A    between atoms: C10_17  and  C11_18 
REMARK   12  A    between atoms: C11_18  and  C12_19 
REMARK   13  A    between atoms: C12_19  and  C13_20 
REMARK   14  A    between atoms: C13_20  and  C14_21 
REMARK   15  A    between atoms: C14_21  and  O8_23 
ROOT
HETATM    1  C3  UNL     1       1.871   7.803  10.338  1.00  0.00     0.140 C 
HETATM    2  C15 UNL     1       1.612   6.351   9.918  1.00  0.00     0.048 C 
HETATM    3  C16 UNL     1       1.097   5.660  11.180  1.00  0.00     0.009 C 
HETATM    4  C17 UNL     1       0.495   6.757  12.093  1.00  0.00     0.002 C 
HETATM    5  C18 UNL     1      -0.985   6.430  12.433  1.00  0.00    -0.004 C 
HETATM    6  C19 UNL     1      -1.089   5.333  13.490  1.00  0.00     0.010 C 
HETATM    7  C20 UNL     1      -2.540   4.895  13.663  1.00  0.00     0.035 C 
HETATM    8  C21 UNL     1      -3.555   6.016  13.634  1.00  0.00    -0.068 C 
HETATM    9  C22 UNL     1      -4.859   5.681  13.601  1.00  0.00     0.053 C 
HETATM   10  C23 UNL     1      -5.938   6.692  13.704  1.00  0.00     0.149 C 
HETATM   11  O9  UNL     1      -7.112   6.328  13.675  1.00  0.00    -0.293 OA
HETATM   12  C24 UNL     1      -5.551   8.133  13.917  1.00  0.00     0.084 C 
HETATM   13  C25 UNL     1      -4.211   8.422  13.250  1.00  0.00     0.022 C 
HETATM   14  C26 UNL     1      -3.067   7.464  13.698  1.00  0.00    -0.016 C 
HETATM   15  C27 UNL     1      -2.758   7.766  15.195  1.00  0.00     0.020 C 
HETATM   16  C28 UNL     1      -1.734   7.707  12.868  1.00  0.00     0.002 C 
HETATM   17  C29 UNL     1      -1.828   8.627  11.627  1.00  0.00     0.007 C 
HETATM   18  C30 UNL     1      -0.616   8.536  10.678  1.00  0.00     0.013 C 
HETATM   19  C31 UNL     1       0.713   8.121  11.354  1.00  0.00    -0.001 C 
HETATM   20  C32 UNL     1       1.135   9.274  12.296  1.00  0.00     0.019 C 
ENDROOT
BRANCH   1  21
HETATM   21  O2  UNL     1       1.978   8.778   9.272  1.00  0.00    -0.301 OA
BRANCH  21  22
HETATM   22  C2  UNL     1       2.581   8.586   8.076  1.00  0.00     0.256 C 
HETATM   23  C1  UNL     1       1.831   7.547   7.300  1.00  0.00     0.126 C 
HETATM   24  O1  UNL     1       3.575   9.154   7.657  1.00  0.00    -0.266 OA
ENDBRANCH  21  22
ENDBRANCH   1  21
BRANCH   1  25
HETATM   25  C4  UNL     1       3.274   7.832  11.034  1.00  0.00     0.186 C 
HETATM   26  O3  UNL     1       3.827   8.889  11.361  1.00  0.00    -0.292 OA
BRANCH  25  27
HETATM   27  C5  UNL     1       4.009   6.516  11.257  1.00  0.00     0.260 C 
BRANCH  27  28
HETATM   28  O4  UNL     1       5.128   6.408  10.380  1.00  0.00    -0.314 OA
BRANCH  28  29
HETATM   29  C6  UNL     1       6.277   6.916  10.907  1.00  0.00     0.259 C 
HETATM   30  O5  UNL     1       7.210   7.361  10.250  1.00  0.00    -0.265 OA
BRANCH  29  31
HETATM   31  C7  UNL     1       6.264   6.776  12.408  1.00  0.00     0.120 C 
BRANCH  31  32
HETATM   32  C8  UNL     1       7.567   7.281  13.016  1.00  0.00     0.112 C 
BRANCH  32  33
HETATM   33  C9  UNL     1       7.359   8.562  13.798  1.00  0.00     0.217 C 
HETATM   34  O6  UNL     1       8.147   8.971  14.642  1.00  0.00    -0.274 OA
HETATM   35  N1  UNL     1       6.218   9.240  13.420  1.00  0.00    -0.361 N 
HETATM   36  H10 UNL     1       5.487   8.698  12.975  1.00  0.00     0.162 HD
BRANCH  35  37
HETATM   37  C10 UNL     1       5.839  10.471  14.088  1.00  0.00     0.122 C 
BRANCH  37  38
HETATM   38  C11 UNL     1       4.738  10.218  15.114  1.00  0.00     0.020 C 
BRANCH  38  39
HETATM   39  C12 UNL     1       4.074   8.855  14.913  1.00  0.00     0.012 C 
BRANCH  39  40
HETATM   40  C13 UNL     1       2.617   8.874  15.372  1.00  0.00     0.110 C 
BRANCH  40  41
HETATM   41  C14 UNL     1       2.120   7.566  15.931  1.00  0.00     0.139 C 
HETATM   42  O7  UNL     1       1.042   7.406  16.480  1.00  0.00    -0.650 OA
BRANCH  41  43
HETATM   43  O8  UNL     1       2.948   6.523  15.750  1.00  0.00    -0.776 OA
HETATM   44  H19 UNL     1       2.469   5.767  16.151  1.00  0.00     0.167 HD
ENDBRANCH  41  43
ENDBRANCH  40  41
ENDBRANCH  39  40
ENDBRANCH  38  39
ENDBRANCH  37  38
ENDBRANCH  35  37
ENDBRANCH  32  33
ENDBRANCH  31  32
ENDBRANCH  29  31
ENDBRANCH  28  29
ENDBRANCH  27  28
ENDBRANCH  25  27
ENDBRANCH   1  25
TORSDOF 15
ENDMDL
MODEL 9
REMARK minimizedAffinity -7.55969763
REMARK CNNscore 0.460368752
REMARK CNNaffinity 7.22278738
REMARK  15 active torsions:
REMARK  status: ('A' for Active; 'I' for Inactive)
REMARK    1  A    between atoms: C2_2  and  O2_4 
REMARK    2  A    between atoms: O2_4  and  C3_5 
REMARK    3  A    between atoms: C3_5  and  C4_6 
REMARK    4  A    between atoms: C4_6  and  C5_8 
REMARK    5  A    between atoms: C5_8  and  O4_9 
REMARK    6  A    between atoms: O4_9  and  C6_10 
REMARK    7  A    between atoms: C6_10  and  C7_12 
REMARK    8  A    between atoms: C7_12  and  C8_13 
REMARK    9  A    between atoms: C8_13  and  C9_14 
REMARK       I    between atoms: C9_14  and  N1_16 
REMARK   10  A    between atoms: N1_16  and  C10_17 
REMARK   11  A    between atoms: C10_17  and  C11_18 
REMARK   12  A    between atoms: C11_18  and  C12_19 
REMARK   13  A    between atoms: C12_19  and  C13_20 
REMARK   14  A    between atoms: C13_20  and  C14_21 
REMARK   15  A    between atoms: C14_21  and  O8_23 
ROOT
HETATM    1  C3  UNL     1     -12.490   8.872  13.715  1.00  0.00     0.140 C 
HETATM    2  C15 UNL     1     -11.603  10.110  13.886  1.00  0.00     0.048 C 
HETATM    3  C16 UNL     1     -10.543   9.700  14.909  1.00  0.00     0.009 C 
HETATM    4  C17 UNL     1     -10.430   8.155  14.860  1.00  0.00     0.002 C 
HETATM    5  C18 UNL     1      -8.968   7.726  14.559  1.00  0.00    -0.004 C 
HETATM    6  C19 UNL     1      -8.077   7.867  15.790  1.00  0.00     0.010 C 
HETATM    7  C20 UNL     1      -6.616   7.629  15.422  1.00  0.00     0.035 C 
HETATM    8  C21 UNL     1      -6.378   6.502  14.441  1.00  0.00    -0.068 C 
HETATM    9  C22 UNL     1      -5.137   6.358  13.938  1.00  0.00     0.053 C 
HETATM   10  C23 UNL     1      -4.762   5.212  13.077  1.00  0.00     0.149 C 
HETATM   11  O9  UNL     1      -3.610   5.128  12.652  1.00  0.00    -0.293 OA
HETATM   12  C24 UNL     1      -5.793   4.146  12.812  1.00  0.00     0.084 C 
HETATM   13  C25 UNL     1      -7.190   4.756  12.810  1.00  0.00     0.022 C 
HETATM   14  C26 UNL     1      -7.530   5.552  14.106  1.00  0.00    -0.016 C 
HETATM   15  C27 UNL     1      -7.620   4.529  15.278  1.00  0.00     0.020 C 
HETATM   16  C28 UNL     1      -8.931   6.290  13.996  1.00  0.00     0.002 C 
HETATM   17  C29 UNL     1      -9.607   6.327  12.603  1.00  0.00     0.007 C 
HETATM   18  C30 UNL     1     -10.759   7.346  12.485  1.00  0.00     0.013 C 
HETATM   19  C31 UNL     1     -11.488   7.665  13.814  1.00  0.00    -0.001 C 
HETATM   20  C32 UNL     1     -12.240   6.384  14.250  1.00  0.00     0.019 C 
ENDROOT
BRANCH   1  21
HETATM   21  O2  UNL     1     -13.322   8.827  12.530  1.00  0.00    -0.301 OA
BRANCH  21  22
HETATM   22  C2  UNL     1     -14.530   8.225  12.429  1.00  0.00     0.256 C 
HETATM   23  C1  UNL     1     -15.607   9.266  12.418  1.00  0.00     0.126 C 
HETATM   24  O1  UNL     1     -14.748   7.028  12.350  1.00  0.00    -0.266 OA
ENDBRANCH  21  22
ENDBRANCH   1  21
BRANCH   1  25
HETATM   25  C4  UNL     1     -13.509   8.874  14.906  1.00  0.00     0.186 C 
HETATM   26  O3  UNL     1     -13.966   9.920  15.381  1.00  0.00    -0.292 OA
BRANCH  25  27
HETATM   27  C5  UNL     1     -13.898   7.544  15.540  1.00  0.00     0.260 C 
BRANCH  27  28
HETATM   28  O4  UNL     1     -15.140   7.657  16.230  1.00  0.00    -0.314 OA
BRANCH  28  29
HETATM   29  C6  UNL     1     -16.200   7.192  15.513  1.00  0.00     0.259 C 
HETATM   30  O5  UNL     1     -17.206   7.841  15.251  1.00  0.00    -0.265 OA
BRANCH  29  31
HETATM   31  C7  UNL     1     -15.989   5.742  15.159  1.00  0.00     0.120 C 
BRANCH  31  32
HETATM   32  C8  UNL     1     -16.735   4.829  16.125  1.00  0.00     0.112 C 
BRANCH  32  33
HETATM   33  C9  UNL     1     -16.828   3.411  15.596  1.00  0.00     0.217 C 
HETATM   34  O6  UNL     1     -17.888   2.865  15.316  1.00  0.00    -0.274 OA
HETATM   35  N1  UNL     1     -15.591   2.826  15.416  1.00  0.00    -0.361 N 
HETATM   36  H10 UNL     1     -14.821   3.203  15.955  1.00  0.00     0.162 HD
BRANCH  35  37
HETATM   37  C10 UNL     1     -15.487   1.456  14.950  1.00  0.00     0.122 C 
BRANCH  37  38
HETATM   38  C11 UNL     1     -14.943   0.547  16.049  1.00  0.00     0.020 C 
BRANCH  38  39
HETATM   39  C12 UNL     1     -15.640  -0.815  16.057  1.00  0.00     0.012 C 
BRANCH  39  40
HETATM   40  C13 UNL     1     -16.554  -0.963  17.272  1.00  0.00     0.110 C 
BRANCH  40  41
HETATM   41  C14 UNL     1     -16.390  -2.259  18.024  1.00  0.00     0.139 C 
HETATM   42  O7  UNL     1     -16.506  -2.385  19.232  1.00  0.00    -0.650 OA
BRANCH  41  43
HETATM   43  O8  UNL     1     -16.136  -3.331  17.254  1.00  0.00    -0.776 OA
HETATM   44  H19 UNL     1     -16.077  -4.073  17.892  1.00  0.00     0.167 HD
ENDBRANCH  41  43
ENDBRANCH  40  41
ENDBRANCH  39  40
ENDBRANCH  38  39
ENDBRANCH  37  38
ENDBRANCH  35  37
ENDBRANCH  32  33
ENDBRANCH  31  32
ENDBRANCH  29  31
ENDBRANCH  28  29
ENDBRANCH  27  28
ENDBRANCH  25  27
ENDBRANCH   1  25
TORSDOF 15
ENDMDL
