MODEL 1
REMARK minimizedAffinity -8.51754379
REMARK CNNscore 0.56113404
REMARK CNNaffinity 6.85098886
REMARK  14 active torsions:
REMARK  status: ('A' for Active; 'I' for Inactive)
REMARK    1  A    between atoms: C19_20  and  O2_21 
REMARK    2  A    between atoms: C19_20  and  C20_22 
REMARK    3  A    between atoms: C20_22  and  C21_24 
REMARK    4  A    between atoms: C21_24  and  O4_25 
REMARK    5  A    between atoms: O4_25  and  C22_26 
REMARK    6  A    between atoms: C22_26  and  C23_28 
REMARK    7  A    between atoms: C23_28  and  C24_29 
REMARK    8  A    between atoms: C24_29  and  C25_30 
REMARK       I    between atoms: C25_30  and  N1_32 
REMARK    9  A    between atoms: N1_32  and  C26_33 
REMARK   10  A    between atoms: C26_33  and  C27_34 
REMARK   11  A    between atoms: C27_34  and  C28_35 
REMARK   12  A    between atoms: C27_34  and  C30_39 
REMARK   13  A    between atoms: C28_35  and  C29_36 
REMARK   14  A    between atoms: C29_36  and  O8_38 
ROOT
HETATM    1  C20 UNL     1      -5.125   5.980  14.407  1.00  0.00     0.185 C 
HETATM    2  O3  UNL     1      -5.445   4.832  14.087  1.00  0.00    -0.292 OA
ENDROOT
BRANCH   1   3
HETATM    3  C19 UNL     1      -3.961   6.712  13.706  1.00  0.00     0.128 C 
HETATM    4  C14 UNL     1      -2.650   6.921  14.545  1.00  0.00    -0.002 C 
HETATM    5  C13 UNL     1      -1.733   5.683  14.629  1.00  0.00     0.013 C 
HETATM    6  C15 UNL     1      -2.997   7.339  16.001  1.00  0.00     0.019 C 
HETATM    7  C16 UNL     1      -1.938   8.148  13.876  1.00  0.00     0.002 C 
HETATM    8  C12 UNL     1      -0.860   5.351  13.413  1.00  0.00     0.007 C 
HETATM    9  C11 UNL     1      -0.591   6.511  12.434  1.00  0.00     0.002 C 
HETATM   10  C2  UNL     1       0.703   6.366  11.533  1.00  0.00    -0.016 C 
HETATM   11  C10 UNL     1      -0.587   7.861  13.183  1.00  0.00    -0.004 C 
HETATM   12  C1  UNL     1       1.095   4.886  11.314  1.00  0.00     0.020 C 
HETATM   13  C3  UNL     1       0.393   7.006  10.147  1.00  0.00     0.022 C 
HETATM   14  C7  UNL     1       1.880   7.122  12.153  1.00  0.00    -0.068 C 
HETATM   15  C4  UNL     1       1.611   7.103   9.232  1.00  0.00     0.084 C 
HETATM   16  C5  UNL     1       2.798   7.717   9.936  1.00  0.00     0.149 C 
HETATM   17  O1  UNL     1       3.755   8.175   9.313  1.00  0.00    -0.293 OA
HETATM   18  C6  UNL     1       2.827   7.734  11.417  1.00  0.00     0.053 C 
HETATM   19  C8  UNL     1       1.874   7.235  13.656  1.00  0.00     0.035 C 
HETATM   20  C9  UNL     1       0.610   7.950  14.158  1.00  0.00     0.010 C 
HETATM   21  C17 UNL     1      -2.959   8.732  12.880  1.00  0.00     0.009 C 
HETATM   22  C18 UNL     1      -4.304   8.133  13.255  1.00  0.00     0.047 C 
BRANCH   3  23
HETATM   23  O2  UNL     1      -3.719   5.939  12.522  1.00  0.00    -0.381 OA
HETATM   24  H27 UNL     1      -3.490   5.037  12.817  1.00  0.00     0.211 HD
ENDBRANCH   3  23
ENDBRANCH   1   3
BRANCH   1  25
HETATM   25  C21 UNL     1      -6.024   6.810  15.337  1.00  0.00     0.260 C 
BRANCH  25  26
HETATM   26  O4  UNL     1      -7.198   6.134  15.779  1.00  0.00    -0.314 OA
BRANCH  26  27
HETATM   27  C22 UNL     1      -8.356   6.786  15.482  1.00  0.00     0.259 C 
HETATM   28  O5  UNL     1      -9.098   7.284  16.318  1.00  0.00    -0.265 OA
BRANCH  27  29
HETATM   29  C23 UNL     1      -8.566   6.911  13.994  1.00  0.00     0.120 C 
BRANCH  29  30
HETATM   30  C24 UNL     1      -9.794   6.166  13.483  1.00  0.00     0.112 C 
BRANCH  30  31
HETATM   31  C25 UNL     1     -11.046   7.007  13.612  1.00  0.00     0.218 C 
HETATM   32  O6  UNL     1     -11.319   7.937  12.858  1.00  0.00    -0.274 OA
HETATM   33  N1  UNL     1     -11.853   6.614  14.659  1.00  0.00    -0.360 N 
HETATM   34  H34 UNL     1     -11.692   5.707  15.080  1.00  0.00     0.162 HD
BRANCH  33  35
HETATM   35  C26 UNL     1     -13.154   7.229  14.882  1.00  0.00     0.132 C 
BRANCH  35  36
HETATM   36  C27 UNL     1     -14.261   6.623  13.988  1.00  0.00     0.046 C 
BRANCH  36  37
HETATM   37  C28 UNL     1     -15.086   7.719  13.298  1.00  0.00     0.120 C 
BRANCH  37  38
HETATM   38  C29 UNL     1     -15.814   7.179  12.104  1.00  0.00     0.140 C 
HETATM   39  O7  UNL     1     -16.452   6.141  12.070  1.00  0.00    -0.650 OA
BRANCH  38  40
HETATM   40  O8  UNL     1     -15.720   7.977  11.027  1.00  0.00    -0.776 OA
HETATM   41  H40 UNL     1     -16.272   7.536  10.346  1.00  0.00     0.167 HD
ENDBRANCH  38  40
ENDBRANCH  37  38
ENDBRANCH  36  37
BRANCH  36  42
HETATM   42  C30 UNL     1     -15.185   5.700  14.778  1.00  0.00    -0.052 A 
HETATM   43  C31 UNL     1     -16.066   6.194  15.754  1.00  0.00     0.007 A 
HETATM   44  C32 UNL     1     -16.902   5.328  16.459  1.00  0.00     0.001 A 
HETATM   45  C33 UNL     1     -16.869   3.959  16.200  1.00  0.00     0.000 A 
HETATM   46  C34 UNL     1     -16.004   3.456  15.231  1.00  0.00     0.001 A 
HETATM   47  C35 UNL     1     -15.166   4.321  14.525  1.00  0.00     0.007 A 
ENDBRANCH  36  42
ENDBRANCH  35  36
ENDBRANCH  33  35
ENDBRANCH  30  31
ENDBRANCH  29  30
ENDBRANCH  27  29
ENDBRANCH  26  27
ENDBRANCH  25  26
ENDBRANCH   1  25
TORSDOF 14
ENDMDL
MODEL 2
REMARK minimizedAffinity -9.40054703
REMARK CNNscore 0.415279597
REMARK CNNaffinity 6.93254423
REMARK  14 active torsions:
REMARK  status: ('A' for Active; 'I' for Inactive)
REMARK    1  A    between atoms: C19_20  and  O2_21 
REMARK    2  A    between atoms: C19_20  and  C20_22 
REMARK    3  A    between atoms: C20_22  and  C21_24 
REMARK    4  A    between atoms: C21_24  and  O4_25 
REMARK    5  A    between atoms: O4_25  and  C22_26 
REMARK    6  A    between atoms: C22_26  and  C23_28 
REMARK    7  A    between atoms: C23_28  and  C24_29 
REMARK    8  A    between atoms: C24_29  and  C25_30 
REMARK       I    between atoms: C25_30  and  N1_32 
REMARK    9  A    between atoms: N1_32  and  C26_33 
REMARK   10  A    between atoms: C26_33  and  C27_34 
REMARK   11  A    between atoms: C27_34  and  C28_35 
REMARK   12  A    between atoms: C27_34  and  C30_39 
REMARK   13  A    between atoms: C28_35  and  C29_36 
REMARK   14  A    between atoms: C29_36  and  O8_38 
ROOT
HETATM    1  C20 UNL     1      -0.251   8.495  15.613  1.00  0.00     0.185 C 
HETATM    2  O3  UNL     1       0.285   7.503  16.116  1.00  0.00    -0.292 OA
ENDROOT
BRANCH   1   3
HETATM    3  C19 UNL     1      -1.618   8.393  14.904  1.00  0.00     0.128 C 
HETATM    4  C14 UNL     1      -1.961   7.020  14.223  1.00  0.00    -0.002 C 
HETATM    5  C13 UNL     1      -2.457   5.925  15.191  1.00  0.00     0.013 C 
HETATM    6  C15 UNL     1      -0.717   6.454  13.484  1.00  0.00     0.019 C 
HETATM    7  C16 UNL     1      -3.024   7.373  13.124  1.00  0.00     0.002 C 
HETATM    8  C12 UNL     1      -3.906   6.003  15.684  1.00  0.00     0.007 C 
HETATM    9  C11 UNL     1      -4.872   6.838  14.818  1.00  0.00     0.002 C 
HETATM   10  C2  UNL     1      -6.409   6.485  14.967  1.00  0.00    -0.016 C 
HETATM   11  C10 UNL     1      -4.443   6.799  13.337  1.00  0.00    -0.004 C 
HETATM   12  C1  UNL     1      -6.733   5.867  16.346  1.00  0.00     0.020 C 
HETATM   13  C3  UNL     1      -7.219   7.808  14.815  1.00  0.00     0.022 C 
HETATM   14  C7  UNL     1      -6.852   5.528  13.858  1.00  0.00    -0.068 C 
HETATM   15  C4  UNL     1      -8.728   7.597  14.753  1.00  0.00     0.084 C 
HETATM   16  C5  UNL     1      -9.109   6.531  13.754  1.00  0.00     0.149 C 
HETATM   17  O1  UNL     1     -10.256   6.429  13.318  1.00  0.00    -0.293 OA
HETATM   18  C6  UNL     1      -8.082   5.558  13.313  1.00  0.00     0.053 C 
HETATM   19  C8  UNL     1      -5.793   4.596  13.328  1.00  0.00     0.035 C 
HETATM   20  C9  UNL     1      -4.600   5.376  12.751  1.00  0.00     0.010 C 
HETATM   21  C17 UNL     1      -3.052   8.911  13.049  1.00  0.00     0.009 C 
HETATM   22  C18 UNL     1      -1.798   9.392  13.760  1.00  0.00     0.047 C 
BRANCH   3  23
HETATM   23  O2  UNL     1      -2.570   8.737  15.920  1.00  0.00    -0.381 OA
HETATM   24  H27 UNL     1      -2.457   8.089  16.642  1.00  0.00     0.211 HD
ENDBRANCH   3  23
ENDBRANCH   1   3
BRANCH   1  25
HETATM   25  C21 UNL     1       0.301   9.902  15.887  1.00  0.00     0.260 C 
BRANCH  25  26
HETATM   26  O4  UNL     1       1.460  10.239  15.129  1.00  0.00    -0.314 OA
BRANCH  26  27
HETATM   27  C22 UNL     1       1.968  11.470  15.414  1.00  0.00     0.259 C 
HETATM   28  O5  UNL     1       1.783  12.465  14.726  1.00  0.00    -0.265 OA
BRANCH  27  29
HETATM   29  C23 UNL     1       2.701  11.486  16.732  1.00  0.00     0.120 C 
BRANCH  29  30
HETATM   30  C24 UNL     1       1.801  11.770  17.930  1.00  0.00     0.112 C 
BRANCH  30  31
HETATM   31  C25 UNL     1       2.120  10.852  19.090  1.00  0.00     0.218 C 
HETATM   32  O6  UNL     1       2.441   9.674  18.956  1.00  0.00    -0.274 OA
HETATM   33  N1  UNL     1       2.024  11.479  20.315  1.00  0.00    -0.360 N 
HETATM   34  H34 UNL     1       1.994  12.491  20.339  1.00  0.00     0.162 HD
BRANCH  33  35
HETATM   35  C26 UNL     1       2.397  10.795  21.545  1.00  0.00     0.132 C 
BRANCH  35  36
HETATM   36  C27 UNL     1       3.792  10.133  21.461  1.00  0.00     0.046 C 
BRANCH  36  37
HETATM   37  C28 UNL     1       3.927   8.982  22.467  1.00  0.00     0.120 C 
BRANCH  37  38
HETATM   38  C29 UNL     1       2.584   8.520  22.948  1.00  0.00     0.140 C 
HETATM   39  O7  UNL     1       1.802   7.832  22.315  1.00  0.00    -0.650 OA
BRANCH  38  40
HETATM   40  O8  UNL     1       2.306   8.927  24.197  1.00  0.00    -0.776 OA
HETATM   41  H40 UNL     1       1.436   8.522  24.399  1.00  0.00     0.167 HD
ENDBRANCH  38  40
ENDBRANCH  37  38
ENDBRANCH  36  37
BRANCH  36  42
HETATM   42  C30 UNL     1       4.913  11.145  21.678  1.00  0.00    -0.052 A 
HETATM   43  C31 UNL     1       5.234  11.630  22.955  1.00  0.00     0.007 A 
HETATM   44  C32 UNL     1       6.267  12.553  23.125  1.00  0.00     0.001 A 
HETATM   45  C33 UNL     1       6.991  13.004  22.023  1.00  0.00     0.000 A 
HETATM   46  C34 UNL     1       6.686  12.526  20.750  1.00  0.00     0.001 A 
HETATM   47  C35 UNL     1       5.653  11.603  20.578  1.00  0.00     0.007 A 
ENDBRANCH  36  42
ENDBRANCH  35  36
ENDBRANCH  33  35
ENDBRANCH  30  31
ENDBRANCH  29  30
ENDBRANCH  27  29
ENDBRANCH  26  27
ENDBRANCH  25  26
ENDBRANCH   1  25
TORSDOF 14
ENDMDL
MODEL 3
REMARK minimizedAffinity -8.93771362
REMARK CNNscore 0.398753166
REMARK CNNaffinity 7.13759184
REMARK  14 active torsions:
REMARK  status: ('A' for Active; 'I' for Inactive)
REMARK    1  A    between atoms: C19_20  and  O2_21 
REMARK    2  A    between atoms: C19_20  and  C20_22 
REMARK    3  A    between atoms: C20_22  and  C21_24 
REMARK    4  A    between atoms: C21_24  and  O4_25 
REMARK    5  A    between atoms: O4_25  and  C22_26 
REMARK    6  A    between atoms: C22_26  and  C23_28 
REMARK    7  A    between atoms: C23_28  and  C24_29 
REMARK    8  A    between atoms: C24_29  and  C25_30 
REMARK       I    between atoms: C25_30  and  N1_32 
REMARK    9  A    between atoms: N1_32  and  C26_33 
REMARK   10  A    between atoms: C26_33  and  C27_34 
REMARK   11  A    between atoms: C27_34  and  C28_35 
REMARK   12  A    between atoms: C27_34  and  C30_39 
REMARK   13  A    between atoms: C28_35  and  C29_36 
REMARK   14  A    between atoms: C29_36  and  O8_38 
ROOT
HETATM    1  C20 UNL     1      -0.853   7.870  15.190  1.00  0.00     0.185 C 
HETATM    2  O3  UNL     1      -0.649   7.290  16.260  1.00  0.00    -0.292 OA
ENDROOT
BRANCH   1   3
HETATM    3  C19 UNL     1      -2.281   8.040  14.630  1.00  0.00     0.128 C 
HETATM    4  C14 UNL     1      -2.998   6.741  14.115  1.00  0.00    -0.002 C 
HETATM    5  C13 UNL     1      -3.609   5.857  15.223  1.00  0.00     0.013 C 
HETATM    6  C15 UNL     1      -2.005   5.854  13.312  1.00  0.00     0.019 C 
HETATM    7  C16 UNL     1      -4.076   7.255  13.098  1.00  0.00     0.002 C 
HETATM    8  C12 UNL     1      -4.937   6.301  15.846  1.00  0.00     0.007 C 
HETATM    9  C11 UNL     1      -5.787   7.276  15.007  1.00  0.00     0.002 C 
HETATM   10  C2  UNL     1      -7.336   7.299  15.337  1.00  0.00    -0.016 C 
HETATM   11  C10 UNL     1      -5.553   7.041  13.500  1.00  0.00    -0.004 C 
HETATM   12  C1  UNL     1      -7.626   6.866  16.792  1.00  0.00     0.020 C 
HETATM   13  C3  UNL     1      -7.843   8.760  15.145  1.00  0.00     0.022 C 
HETATM   14  C7  UNL     1      -8.107   6.399  14.369  1.00  0.00    -0.068 C 
HETATM   15  C4  UNL     1      -9.358   8.900  15.251  1.00  0.00     0.084 C 
HETATM   16  C5  UNL     1     -10.080   7.887  14.395  1.00  0.00     0.149 C 
HETATM   17  O1  UNL     1     -11.263   8.024  14.085  1.00  0.00    -0.293 OA
HETATM   18  C6  UNL     1      -9.354   6.676  13.947  1.00  0.00     0.053 C 
HETATM   19  C8  UNL     1      -7.350   5.214  13.825  1.00  0.00     0.035 C 
HETATM   20  C9  UNL     1      -6.089   5.657  13.065  1.00  0.00     0.010 C 
HETATM   21  C17 UNL     1      -3.770   8.750  12.885  1.00  0.00     0.009 C 
HETATM   22  C18 UNL     1      -2.366   8.975  13.423  1.00  0.00     0.047 C 
BRANCH   3  23
HETATM   23  O2  UNL     1      -3.007   8.661  15.699  1.00  0.00    -0.381 OA
HETATM   24  H27 UNL     1      -2.959   8.055  16.463  1.00  0.00     0.211 HD
ENDBRANCH   3  23
ENDBRANCH   1   3
BRANCH   1  25
HETATM   25  C21 UNL     1       0.275   8.654  14.501  1.00  0.00     0.260 C 
BRANCH  25  26
HETATM   26  O4  UNL     1       0.729   9.793  15.226  1.00  0.00    -0.314 OA
BRANCH  26  27
HETATM   27  C22 UNL     1       1.884   9.584  15.918  1.00  0.00     0.259 C 
HETATM   28  O5  UNL     1       2.115   8.581  16.580  1.00  0.00    -0.265 OA
BRANCH  27  29
HETATM   29  C23 UNL     1       2.886  10.687  15.689  1.00  0.00     0.120 C 
BRANCH  29  30
HETATM   30  C24 UNL     1       3.890  10.383  14.582  1.00  0.00     0.112 C 
BRANCH  30  31
HETATM   31  C25 UNL     1       3.888   8.913  14.222  1.00  0.00     0.218 C 
HETATM   32  O6  UNL     1       4.402   8.043  14.920  1.00  0.00    -0.274 OA
HETATM   33  N1  UNL     1       3.240   8.650  13.033  1.00  0.00    -0.360 N 
HETATM   34  H34 UNL     1       2.640   9.366  12.641  1.00  0.00     0.162 HD
BRANCH  33  35
HETATM   35  C26 UNL     1       3.037   7.285  12.569  1.00  0.00     0.132 C 
BRANCH  35  36
HETATM   36  C27 UNL     1       3.567   7.056  11.135  1.00  0.00     0.046 C 
BRANCH  36  37
HETATM   37  C28 UNL     1       4.875   7.823  10.892  1.00  0.00     0.120 C 
BRANCH  37  38
HETATM   38  C29 UNL     1       6.024   6.883  10.683  1.00  0.00     0.140 C 
HETATM   39  O7  UNL     1       7.192   7.207  10.559  1.00  0.00    -0.650 OA
BRANCH  38  40
HETATM   40  O8  UNL     1       5.649   5.594  10.661  1.00  0.00    -0.776 OA
HETATM   41  H40 UNL     1       6.489   5.096  10.568  1.00  0.00     0.167 HD
ENDBRANCH  38  40
ENDBRANCH  37  38
ENDBRANCH  36  37
BRANCH  36  42
HETATM   42  C30 UNL     1       2.535   7.445  10.080  1.00  0.00    -0.052 A 
HETATM   43  C31 UNL     1       2.856   7.496   8.715  1.00  0.00     0.007 A 
HETATM   44  C32 UNL     1       1.891   7.852   7.771  1.00  0.00     0.001 A 
HETATM   45  C33 UNL     1       0.596   8.163   8.179  1.00  0.00     0.000 A 
HETATM   46  C34 UNL     1       0.262   8.111   9.530  1.00  0.00     0.001 A 
HETATM   47  C35 UNL     1       1.226   7.756  10.476  1.00  0.00     0.007 A 
ENDBRANCH  36  42
ENDBRANCH  35  36
ENDBRANCH  33  35
ENDBRANCH  30  31
ENDBRANCH  29  30
ENDBRANCH  27  29
ENDBRANCH  26  27
ENDBRANCH  25  26
ENDBRANCH   1  25
TORSDOF 14
ENDMDL
MODEL 4
REMARK minimizedAffinity -9.29613686
REMARK CNNscore 0.367557287
REMARK CNNaffinity 6.76222038
REMARK  14 active torsions:
REMARK  status: ('A' for Active; 'I' for Inactive)
REMARK    1  A    between atoms: C19_20  and  O2_21 
REMARK    2  A    between atoms: C19_20  and  C20_22 
REMARK    3  A    between atoms: C20_22  and  C21_24 
REMARK    4  A    between atoms: C21_24  and  O4_25 
REMARK    5  A    between atoms: O4_25  and  C22_26 
REMARK    6  A    between atoms: C22_26  and  C23_28 
REMARK    7  A    between atoms: C23_28  and  C24_29 
REMARK    8  A    between atoms: C24_29  and  C25_30 
REMARK       I    between atoms: C25_30  and  N1_32 
REMARK    9  A    between atoms: N1_32  and  C26_33 
REMARK   10  A    between atoms: C26_33  and  C27_34 
REMARK   11  A    between atoms: C27_34  and  C28_35 
REMARK   12  A    between atoms: C27_34  and  C30_39 
REMARK   13  A    between atoms: C28_35  and  C29_36 
REMARK   14  A    between atoms: C29_36  and  O8_38 
ROOT
HETATM    1  C20 UNL     1      -0.101   8.306  15.878  1.00  0.00     0.185 C 
HETATM    2  O3  UNL     1       0.391   7.276  16.348  1.00  0.00    -0.292 OA
ENDROOT
BRANCH   1   3
HETATM    3  C19 UNL     1      -1.457   8.280  15.141  1.00  0.00     0.128 C 
HETATM    4  C14 UNL     1      -1.814   6.963  14.364  1.00  0.00    -0.002 C 
HETATM    5  C13 UNL     1      -2.349   5.816  15.247  1.00  0.00     0.013 C 
HETATM    6  C15 UNL     1      -0.568   6.422  13.608  1.00  0.00     0.019 C 
HETATM    7  C16 UNL     1      -2.850   7.410  13.273  1.00  0.00     0.002 C 
HETATM    8  C12 UNL     1      -3.805   5.891  15.720  1.00  0.00     0.007 C 
HETATM    9  C11 UNL     1      -4.739   6.801  14.896  1.00  0.00     0.002 C 
HETATM   10  C2  UNL     1      -6.285   6.471  14.995  1.00  0.00    -0.016 C 
HETATM   11  C10 UNL     1      -4.284   6.853  13.423  1.00  0.00    -0.004 C 
HETATM   12  C1  UNL     1      -6.645   5.769  16.324  1.00  0.00     0.020 C 
HETATM   13  C3  UNL     1      -7.066   7.818  14.920  1.00  0.00     0.022 C 
HETATM   14  C7  UNL     1      -6.727   5.600  13.817  1.00  0.00    -0.068 C 
HETATM   15  C4  UNL     1      -8.578   7.642  14.819  1.00  0.00     0.084 C 
HETATM   16  C5  UNL     1      -8.961   6.654  13.743  1.00  0.00     0.149 C 
HETATM   17  O1  UNL     1     -10.102   6.606  13.283  1.00  0.00    -0.293 OA
HETATM   18  C6  UNL     1      -7.946   5.692  13.255  1.00  0.00     0.053 C 
HETATM   19  C8  UNL     1      -5.676   4.684  13.243  1.00  0.00     0.035 C 
HETATM   20  C9  UNL     1      -4.458   5.476  12.740  1.00  0.00     0.010 C 
HETATM   21  C17 UNL     1      -2.848   8.951  13.302  1.00  0.00     0.009 C 
HETATM   22  C18 UNL     1      -1.597   9.357  14.064  1.00  0.00     0.047 C 
BRANCH   3  23
HETATM   23  O2  UNL     1      -2.420   8.574  16.162  1.00  0.00    -0.381 OA
HETATM   24  H27 UNL     1      -2.333   7.878  16.840  1.00  0.00     0.211 HD
ENDBRANCH   3  23
ENDBRANCH   1   3
BRANCH   1  25
HETATM   25  C21 UNL     1       0.492   9.681  16.220  1.00  0.00     0.260 C 
BRANCH  25  26
HETATM   26  O4  UNL     1       1.220   9.721  17.445  1.00  0.00    -0.314 OA
BRANCH  26  27
HETATM   27  C22 UNL     1       1.631  10.969  17.803  1.00  0.00     0.259 C 
HETATM   28  O5  UNL     1       1.049  12.000  17.492  1.00  0.00    -0.265 OA
BRANCH  27  29
HETATM   29  C23 UNL     1       2.832  10.927  18.714  1.00  0.00     0.120 C 
BRANCH  29  30
HETATM   30  C24 UNL     1       3.792  12.095  18.517  1.00  0.00     0.112 C 
BRANCH  30  31
HETATM   31  C25 UNL     1       5.109  11.853  19.223  1.00  0.00     0.218 C 
HETATM   32  O6  UNL     1       5.848  10.904  18.976  1.00  0.00    -0.274 OA
HETATM   33  N1  UNL     1       5.399  12.817  20.167  1.00  0.00    -0.360 N 
HETATM   34  H34 UNL     1       4.877  13.684  20.148  1.00  0.00     0.162 HD
BRANCH  33  35
HETATM   35  C26 UNL     1       6.670  12.821  20.876  1.00  0.00     0.132 C 
BRANCH  35  36
HETATM   36  C27 UNL     1       6.498  12.767  22.412  1.00  0.00     0.046 C 
BRANCH  36  37
HETATM   37  C28 UNL     1       7.709  12.111  23.089  1.00  0.00     0.120 C 
BRANCH  37  38
HETATM   38  C29 UNL     1       8.907  13.011  23.048  1.00  0.00     0.140 C 
HETATM   39  O7  UNL     1       9.875  12.873  22.321  1.00  0.00    -0.650 OA
BRANCH  38  40
HETATM   40  O8  UNL     1       8.817  14.043  23.904  1.00  0.00    -0.776 OA
HETATM   41  H40 UNL     1       9.629  14.568  23.741  1.00  0.00     0.167 HD
ENDBRANCH  38  40
ENDBRANCH  37  38
ENDBRANCH  36  37
BRANCH  36  42
HETATM   42  C30 UNL     1       5.220  12.034  22.813  1.00  0.00    -0.052 A 
HETATM   43  C31 UNL     1       5.186  10.640  22.970  1.00  0.00     0.007 A 
HETATM   44  C32 UNL     1       4.004   9.996  23.341  1.00  0.00     0.001 A 
HETATM   45  C33 UNL     1       2.843  10.736  23.558  1.00  0.00     0.000 A 
HETATM   46  C34 UNL     1       2.865  12.121  23.410  1.00  0.00     0.001 A 
HETATM   47  C35 UNL     1       4.045  12.767  23.039  1.00  0.00     0.007 A 
ENDBRANCH  36  42
ENDBRANCH  35  36
ENDBRANCH  33  35
ENDBRANCH  30  31
ENDBRANCH  29  30
ENDBRANCH  27  29
ENDBRANCH  26  27
ENDBRANCH  25  26
ENDBRANCH   1  25
TORSDOF 14
ENDMDL
MODEL 5
REMARK minimizedAffinity -9.69750881
REMARK CNNscore 0.287556767
REMARK CNNaffinity 6.72976542
REMARK  14 active torsions:
REMARK  status: ('A' for Active; 'I' for Inactive)
REMARK    1  A    between atoms: C19_20  and  O2_21 
REMARK    2  A    between atoms: C19_20  and  C20_22 
REMARK    3  A    between atoms: C20_22  and  C21_24 
REMARK    4  A    between atoms: C21_24  and  O4_25 
REMARK    5  A    between atoms: O4_25  and  C22_26 
REMARK    6  A    between atoms: C22_26  and  C23_28 
REMARK    7  A    between atoms: C23_28  and  C24_29 
REMARK    8  A    between atoms: C24_29  and  C25_30 
REMARK       I    between atoms: C25_30  and  N1_32 
REMARK    9  A    between atoms: N1_32  and  C26_33 
REMARK   10  A    between atoms: C26_33  and  C27_34 
REMARK   11  A    between atoms: C27_34  and  C28_35 
REMARK   12  A    between atoms: C27_34  and  C30_39 
REMARK   13  A    between atoms: C28_35  and  C29_36 
REMARK   14  A    between atoms: C29_36  and  O8_38 
ROOT
HETATM    1  C20 UNL     1      -0.162   8.287  15.535  1.00  0.00     0.185 C 
HETATM    2  O3  UNL     1       0.263   7.335  16.197  1.00  0.00    -0.292 OA
ENDROOT
BRANCH   1   3
HETATM    3  C19 UNL     1      -1.545   8.233  14.853  1.00  0.00     0.128 C 
HETATM    4  C14 UNL     1      -1.946   6.874  14.174  1.00  0.00    -0.002 C 
HETATM    5  C13 UNL     1      -2.458   5.791  15.147  1.00  0.00     0.013 C 
HETATM    6  C15 UNL     1      -0.735   6.271  13.408  1.00  0.00     0.019 C 
HETATM    7  C16 UNL     1      -3.018   7.266  13.097  1.00  0.00     0.002 C 
HETATM    8  C12 UNL     1      -3.894   5.915  15.668  1.00  0.00     0.007 C 
HETATM    9  C11 UNL     1      -4.849   6.784  14.825  1.00  0.00     0.002 C 
HETATM   10  C2  UNL     1      -6.393   6.481  15.002  1.00  0.00    -0.016 C 
HETATM   11  C10 UNL     1      -4.450   6.737  13.335  1.00  0.00    -0.004 C 
HETATM   12  C1  UNL     1      -6.710   5.867  16.386  1.00  0.00     0.020 C 
HETATM   13  C3  UNL     1      -7.162   7.829  14.872  1.00  0.00     0.022 C 
HETATM   14  C7  UNL     1      -6.889   5.543  13.899  1.00  0.00    -0.068 C 
HETATM   15  C4  UNL     1      -8.679   7.668  14.839  1.00  0.00     0.084 C 
HETATM   16  C5  UNL     1      -9.114   6.619  13.843  1.00  0.00     0.149 C 
HETATM   17  O1  UNL     1     -10.271   6.557  13.430  1.00  0.00    -0.293 OA
HETATM   18  C6  UNL     1      -8.128   5.615  13.379  1.00  0.00     0.053 C 
HETATM   19  C8  UNL     1      -5.871   4.580  13.345  1.00  0.00     0.035 C 
HETATM   20  C9  UNL     1      -4.665   5.323  12.748  1.00  0.00     0.010 C 
HETATM   21  C17 UNL     1      -2.998   8.805  13.028  1.00  0.00     0.009 C 
HETATM   22  C18 UNL     1      -1.715   9.242  13.716  1.00  0.00     0.047 C 
BRANCH   3  23
HETATM   23  O2  UNL     1      -2.465   8.602  15.889  1.00  0.00    -0.381 OA
HETATM   24  H27 UNL     1      -2.360   7.949  16.606  1.00  0.00     0.211 HD
ENDBRANCH   3  23
ENDBRANCH   1   3
BRANCH   1  25
HETATM   25  C21 UNL     1       0.557   9.644  15.570  1.00  0.00     0.260 C 
BRANCH  25  26
HETATM   26  O4  UNL     1       0.060  10.549  16.553  1.00  0.00    -0.314 OA
BRANCH  26  27
HETATM   27  C22 UNL     1       0.606  10.376  17.789  1.00  0.00     0.259 C 
HETATM   28  O5  UNL     1       1.745   9.974  17.986  1.00  0.00    -0.265 OA
BRANCH  27  29
HETATM   29  C23 UNL     1      -0.323  10.836  18.884  1.00  0.00     0.120 C 
BRANCH  29  30
HETATM   30  C24 UNL     1      -0.099  12.283  19.311  1.00  0.00     0.112 C 
BRANCH  30  31
HETATM   31  C25 UNL     1       0.944  12.382  20.403  1.00  0.00     0.218 C 
HETATM   32  O6  UNL     1       1.302  13.444  20.905  1.00  0.00    -0.274 OA
HETATM   33  N1  UNL     1       1.442  11.154  20.786  1.00  0.00    -0.360 N 
HETATM   34  H34 UNL     1       0.937  10.320  20.510  1.00  0.00     0.162 HD
BRANCH  33  35
HETATM   35  C26 UNL     1       2.374  11.030  21.897  1.00  0.00     0.132 C 
BRANCH  35  36
HETATM   36  C27 UNL     1       3.674  10.289  21.506  1.00  0.00     0.046 C 
BRANCH  36  37
HETATM   37  C28 UNL     1       3.862   9.011  22.336  1.00  0.00     0.120 C 
BRANCH  37  38
HETATM   38  C29 UNL     1       2.593   8.626  23.034  1.00  0.00     0.140 C 
HETATM   39  O7  UNL     1       2.349   8.802  24.215  1.00  0.00    -0.650 OA
BRANCH  38  40
HETATM   40  O8  UNL     1       1.694   8.060  22.212  1.00  0.00    -0.776 OA
HETATM   41  H40 UNL     1       0.908   7.905  22.778  1.00  0.00     0.167 HD
ENDBRANCH  38  40
ENDBRANCH  37  38
ENDBRANCH  36  37
BRANCH  36  42
HETATM   42  C30 UNL     1       4.902  11.185  21.650  1.00  0.00    -0.052 A 
HETATM   43  C31 UNL     1       5.544  11.743  20.533  1.00  0.00     0.007 A 
HETATM   44  C32 UNL     1       6.663  12.562  20.694  1.00  0.00     0.001 A 
HETATM   45  C33 UNL     1       7.155  12.832  21.969  1.00  0.00     0.000 A 
HETATM   46  C34 UNL     1       6.524  12.288  23.086  1.00  0.00     0.001 A 
HETATM   47  C35 UNL     1       5.405  11.469  22.928  1.00  0.00     0.007 A 
ENDBRANCH  36  42
ENDBRANCH  35  36
ENDBRANCH  33  35
ENDBRANCH  30  31
ENDBRANCH  29  30
ENDBRANCH  27  29
ENDBRANCH  26  27
ENDBRANCH  25  26
ENDBRANCH   1  25
TORSDOF 14
ENDMDL
MODEL 6
REMARK minimizedAffinity -9.41593647
REMARK CNNscore 0.276308209
REMARK CNNaffinity 6.8270812
REMARK  14 active torsions:
REMARK  status: ('A' for Active; 'I' for Inactive)
REMARK    1  A    between atoms: C19_20  and  O2_21 
REMARK    2  A    between atoms: C19_20  and  C20_22 
REMARK    3  A    between atoms: C20_22  and  C21_24 
REMARK    4  A    between atoms: C21_24  and  O4_25 
REMARK    5  A    between atoms: O4_25  and  C22_26 
REMARK    6  A    between atoms: C22_26  and  C23_28 
REMARK    7  A    between atoms: C23_28  and  C24_29 
REMARK    8  A    between atoms: C24_29  and  C25_30 
REMARK       I    between atoms: C25_30  and  N1_32 
REMARK    9  A    between atoms: N1_32  and  C26_33 
REMARK   10  A    between atoms: C26_33  and  C27_34 
REMARK   11  A    between atoms: C27_34  and  C28_35 
REMARK   12  A    between atoms: C27_34  and  C30_39 
REMARK   13  A    between atoms: C28_35  and  C29_36 
REMARK   14  A    between atoms: C29_36  and  O8_38 
ROOT
HETATM    1  C20 UNL     1       0.191   8.216  15.000  1.00  0.00     0.185 C 
HETATM    2  O3  UNL     1       1.120   7.567  14.508  1.00  0.00    -0.292 OA
ENDROOT
BRANCH   1   3
HETATM    3  C19 UNL     1      -1.231   8.157  14.403  1.00  0.00     0.128 C 
HETATM    4  C14 UNL     1      -1.688   6.779  13.802  1.00  0.00    -0.002 C 
HETATM    5  C13 UNL     1      -2.155   5.742  14.845  1.00  0.00     0.013 C 
HETATM    6  C15 UNL     1      -0.533   6.129  12.989  1.00  0.00     0.019 C 
HETATM    7  C16 UNL     1      -2.818   7.146  12.776  1.00  0.00     0.002 C 
HETATM    8  C12 UNL     1      -3.556   5.907  15.445  1.00  0.00     0.007 C 
HETATM    9  C11 UNL     1      -4.549   6.757  14.627  1.00  0.00     0.002 C 
HETATM   10  C2  UNL     1      -6.083   6.484  14.907  1.00  0.00    -0.016 C 
HETATM   11  C10 UNL     1      -4.240   6.648  13.119  1.00  0.00    -0.004 C 
HETATM   12  C1  UNL     1      -6.325   5.928  16.329  1.00  0.00     0.020 C 
HETATM   13  C3  UNL     1      -6.842   7.838  14.770  1.00  0.00     0.022 C 
HETATM   14  C7  UNL     1      -6.656   5.513  13.872  1.00  0.00    -0.068 C 
HETATM   15  C4  UNL     1      -8.360   7.698  14.833  1.00  0.00     0.084 C 
HETATM   16  C5  UNL     1      -8.866   6.619  13.906  1.00  0.00     0.149 C 
HETATM   17  O1  UNL     1     -10.047   6.559  13.564  1.00  0.00    -0.293 OA
HETATM   18  C6  UNL     1      -7.922   5.584  13.423  1.00  0.00     0.053 C 
HETATM   19  C8  UNL     1      -5.685   4.514  13.296  1.00  0.00     0.035 C 
HETATM   20  C9  UNL     1      -4.508   5.216  12.600  1.00  0.00     0.010 C 
HETATM   21  C17 UNL     1      -2.782   8.681  12.647  1.00  0.00     0.009 C 
HETATM   22  C18 UNL     1      -1.455   9.124  13.240  1.00  0.00     0.047 C 
BRANCH   3  23
HETATM   23  O2  UNL     1      -2.082   8.579  15.476  1.00  0.00    -0.381 OA
HETATM   24  H27 UNL     1      -1.943   7.951  16.210  1.00  0.00     0.211 HD
ENDBRANCH   3  23
ENDBRANCH   1   3
BRANCH   1  25
HETATM   25  C21 UNL     1       0.358   8.908  16.361  1.00  0.00     0.260 C 
BRANCH  25  26
HETATM   26  O4  UNL     1       1.108  10.119  16.318  1.00  0.00    -0.314 OA
BRANCH  26  27
HETATM   27  C22 UNL     1       2.252  10.088  17.056  1.00  0.00     0.259 C 
HETATM   28  O5  UNL     1       2.348   9.552  18.152  1.00  0.00    -0.265 OA
BRANCH  27  29
HETATM   29  C23 UNL     1       3.415  10.702  16.318  1.00  0.00     0.120 C 
BRANCH  29  30
HETATM   30  C24 UNL     1       4.134   9.729  15.389  1.00  0.00     0.112 C 
BRANCH  30  31
HETATM   31  C25 UNL     1       3.677   9.894  13.955  1.00  0.00     0.218 C 
HETATM   32  O6  UNL     1       2.904  10.774  13.586  1.00  0.00    -0.274 OA
HETATM   33  N1  UNL     1       4.227   8.958  13.104  1.00  0.00    -0.360 N 
HETATM   34  H34 UNL     1       5.027   8.426  13.422  1.00  0.00     0.162 HD
BRANCH  33  35
HETATM   35  C26 UNL     1       3.995   9.016  11.668  1.00  0.00     0.132 C 
BRANCH  35  36
HETATM   36  C27 UNL     1       4.541   7.775  10.924  1.00  0.00     0.046 C 
BRANCH  36  37
HETATM   37  C28 UNL     1       6.027   7.939  10.575  1.00  0.00     0.120 C 
BRANCH  37  38
HETATM   38  C29 UNL     1       6.824   6.751  11.024  1.00  0.00     0.140 C 
HETATM   39  O7  UNL     1       6.750   5.628  10.557  1.00  0.00    -0.650 OA
BRANCH  38  40
HETATM   40  O8  UNL     1       7.681   7.040  12.017  1.00  0.00    -0.776 OA
HETATM   41  H40 UNL     1       8.163   6.201  12.177  1.00  0.00     0.167 HD
ENDBRANCH  38  40
ENDBRANCH  37  38
ENDBRANCH  36  37
BRANCH  36  42
HETATM   42  C30 UNL     1       3.742   7.476   9.659  1.00  0.00    -0.052 A 
HETATM   43  C31 UNL     1       3.339   8.494   8.781  1.00  0.00     0.007 A 
HETATM   44  C32 UNL     1       2.611   8.192   7.628  1.00  0.00     0.001 A 
HETATM   45  C33 UNL     1       2.276   6.871   7.340  1.00  0.00     0.000 A 
HETATM   46  C34 UNL     1       2.674   5.850   8.200  1.00  0.00     0.001 A 
HETATM   47  C35 UNL     1       3.402   6.150   9.353  1.00  0.00     0.007 A 
ENDBRANCH  36  42
ENDBRANCH  35  36
ENDBRANCH  33  35
ENDBRANCH  30  31
ENDBRANCH  29  30
ENDBRANCH  27  29
ENDBRANCH  26  27
ENDBRANCH  25  26
ENDBRANCH   1  25
TORSDOF 14
ENDMDL
MODEL 7
REMARK minimizedAffinity -9.64953041
REMARK CNNscore 0.256902039
REMARK CNNaffinity 7.27595091
REMARK  14 active torsions:
REMARK  status: ('A' for Active; 'I' for Inactive)
REMARK    1  A    between atoms: C19_20  and  O2_21 
REMARK    2  A    between atoms: C19_20  and  C20_22 
REMARK    3  A    between atoms: C20_22  and  C21_24 
REMARK    4  A    between atoms: C21_24  and  O4_25 
REMARK    5  A    between atoms: O4_25  and  C22_26 
REMARK    6  A    between atoms: C22_26  and  C23_28 
REMARK    7  A    between atoms: C23_28  and  C24_29 
REMARK    8  A    between atoms: C24_29  and  C25_30 
REMARK       I    between atoms: C25_30  and  N1_32 
REMARK    9  A    between atoms: N1_32  and  C26_33 
REMARK   10  A    between atoms: C26_33  and  C27_34 
REMARK   11  A    between atoms: C27_34  and  C28_35 
REMARK   12  A    between atoms: C27_34  and  C30_39 
REMARK   13  A    between atoms: C28_35  and  C29_36 
REMARK   14  A    between atoms: C29_36  and  O8_38 
ROOT
HETATM    1  C20 UNL     1      -0.068   7.823  15.318  1.00  0.00     0.185 C 
HETATM    2  O3  UNL     1       0.083   7.665  16.533  1.00  0.00    -0.292 OA
ENDROOT
BRANCH   1   3
HETATM    3  C19 UNL     1      -1.476   7.879  14.687  1.00  0.00     0.128 C 
HETATM    4  C14 UNL     1      -2.022   6.546  14.059  1.00  0.00    -0.002 C 
HETATM    5  C13 UNL     1      -2.592   5.537  15.078  1.00  0.00     0.013 C 
HETATM    6  C15 UNL     1      -0.900   5.818  13.267  1.00  0.00     0.019 C 
HETATM    7  C16 UNL     1      -3.094   7.008  13.011  1.00  0.00     0.002 C 
HETATM    8  C12 UNL     1      -3.991   5.802  15.646  1.00  0.00     0.007 C 
HETATM    9  C11 UNL     1      -4.895   6.734  14.815  1.00  0.00     0.002 C 
HETATM   10  C2  UNL     1      -6.452   6.576  15.055  1.00  0.00    -0.016 C 
HETATM   11  C10 UNL     1      -4.558   6.617  13.313  1.00  0.00    -0.004 C 
HETATM   12  C1  UNL     1      -6.771   6.026  16.464  1.00  0.00     0.020 C 
HETATM   13  C3  UNL     1      -7.102   7.986  14.916  1.00  0.00     0.022 C 
HETATM   14  C7  UNL     1      -7.071   5.662  13.995  1.00  0.00    -0.068 C 
HETATM   15  C4  UNL     1      -8.627   7.961  14.940  1.00  0.00     0.084 C 
HETATM   16  C5  UNL     1      -9.191   6.933  13.989  1.00  0.00     0.149 C 
HETATM   17  O1  UNL     1     -10.364   6.966  13.619  1.00  0.00    -0.293 OA
HETATM   18  C6  UNL     1      -8.317   5.834  13.517  1.00  0.00     0.053 C 
HETATM   19  C8  UNL     1      -6.165   4.598  13.431  1.00  0.00     0.035 C 
HETATM   20  C9  UNL     1      -4.921   5.215  12.771  1.00  0.00     0.010 C 
HETATM   21  C17 UNL     1      -2.939   8.537  12.901  1.00  0.00     0.009 C 
HETATM   22  C18 UNL     1      -1.597   8.872  13.530  1.00  0.00     0.047 C 
BRANCH   3  23
HETATM   23  O2  UNL     1      -2.319   8.354  15.745  1.00  0.00    -0.381 OA
HETATM   24  H27 UNL     1      -2.246   7.710  16.474  1.00  0.00     0.211 HD
ENDBRANCH   3  23
ENDBRANCH   1   3
BRANCH   1  25
HETATM   25  C21 UNL     1       1.122   8.214  14.428  1.00  0.00     0.260 C 
BRANCH  25  26
HETATM   26  O4  UNL     1       1.822   9.378  14.859  1.00  0.00    -0.314 OA
BRANCH  26  27
HETATM   27  C22 UNL     1       3.013   9.114  15.465  1.00  0.00     0.259 C 
HETATM   28  O5  UNL     1       3.315   9.508  16.584  1.00  0.00    -0.265 OA
BRANCH  27  29
HETATM   29  C23 UNL     1       3.874   8.194  14.639  1.00  0.00     0.120 C 
BRANCH  29  30
HETATM   30  C24 UNL     1       4.197   8.738  13.251  1.00  0.00     0.112 C 
BRANCH  30  31
HETATM   31  C25 UNL     1       4.801   7.670  12.365  1.00  0.00     0.218 C 
HETATM   32  O6  UNL     1       5.931   7.216  12.524  1.00  0.00    -0.274 OA
HETATM   33  N1  UNL     1       3.946   7.252  11.366  1.00  0.00    -0.360 N 
HETATM   34  H34 UNL     1       2.964   7.486  11.441  1.00  0.00     0.162 HD
BRANCH  33  35
HETATM   35  C26 UNL     1       4.302   6.155  10.478  1.00  0.00     0.132 C 
BRANCH  35  36
HETATM   36  C27 UNL     1       3.079   5.560   9.742  1.00  0.00     0.046 C 
BRANCH  36  37
HETATM   37  C28 UNL     1       3.483   4.929   8.403  1.00  0.00     0.120 C 
BRANCH  37  38
HETATM   38  C29 UNL     1       4.201   3.630   8.610  1.00  0.00     0.140 C 
HETATM   39  O7  UNL     1       5.099   3.195   7.910  1.00  0.00    -0.650 OA
BRANCH  38  40
HETATM   40  O8  UNL     1       3.770   2.959   9.690  1.00  0.00    -0.776 OA
HETATM   41  H40 UNL     1       4.348   2.167   9.734  1.00  0.00     0.167 HD
ENDBRANCH  38  40
ENDBRANCH  37  38
ENDBRANCH  36  37
BRANCH  36  42
HETATM   42  C30 UNL     1       1.991   6.607   9.515  1.00  0.00    -0.052 A 
HETATM   43  C31 UNL     1       1.811   7.227   8.268  1.00  0.00     0.007 A 
HETATM   44  C32 UNL     1       0.806   8.178   8.087  1.00  0.00     0.001 A 
HETATM   45  C33 UNL     1      -0.029   8.523   9.148  1.00  0.00     0.000 A 
HETATM   46  C34 UNL     1       0.135   7.912  10.388  1.00  0.00     0.001 A 
HETATM   47  C35 UNL     1       1.140   6.960  10.572  1.00  0.00     0.007 A 
ENDBRANCH  36  42
ENDBRANCH  35  36
ENDBRANCH  33  35
ENDBRANCH  30  31
ENDBRANCH  29  30
ENDBRANCH  27  29
ENDBRANCH  26  27
ENDBRANCH  25  26
ENDBRANCH   1  25
TORSDOF 14
ENDMDL
MODEL 8
REMARK minimizedAffinity -8.02361584
REMARK CNNscore 0.246070951
REMARK CNNaffinity 5.59739113
REMARK  14 active torsions:
REMARK  status: ('A' for Active; 'I' for Inactive)
REMARK    1  A    between atoms: C19_20  and  O2_21 
REMARK    2  A    between atoms: C19_20  and  C20_22 
REMARK    3  A    between atoms: C20_22  and  C21_24 
REMARK    4  A    between atoms: C21_24  and  O4_25 
REMARK    5  A    between atoms: O4_25  and  C22_26 
REMARK    6  A    between atoms: C22_26  and  C23_28 
REMARK    7  A    between atoms: C23_28  and  C24_29 
REMARK    8  A    between atoms: C24_29  and  C25_30 
REMARK       I    between atoms: C25_30  and  N1_32 
REMARK    9  A    between atoms: N1_32  and  C26_33 
REMARK   10  A    between atoms: C26_33  and  C27_34 
REMARK   11  A    between atoms: C27_34  and  C28_35 
REMARK   12  A    between atoms: C27_34  and  C30_39 
REMARK   13  A    between atoms: C28_35  and  C29_36 
REMARK   14  A    between atoms: C29_36  and  O8_38 
ROOT
HETATM    1  C20 UNL     1       1.939  10.900  19.927  1.00  0.00     0.185 C 
HETATM    2  O3  UNL     1       2.388   9.978  19.241  1.00  0.00    -0.292 OA
ENDROOT
BRANCH   1   3
HETATM    3  C19 UNL     1       2.872  11.823  20.739  1.00  0.00     0.128 C 
HETATM    4  C14 UNL     1       4.067  11.136  21.490  1.00  0.00    -0.002 C 
HETATM    5  C13 UNL     1       5.283  10.799  20.601  1.00  0.00     0.013 C 
HETATM    6  C15 UNL     1       3.601   9.810  22.156  1.00  0.00     0.019 C 
HETATM    7  C16 UNL     1       4.432  12.125  22.652  1.00  0.00     0.002 C 
HETATM    8  C12 UNL     1       6.229  11.942  20.214  1.00  0.00     0.007 C 
HETATM    9  C11 UNL     1       6.189  13.190  21.119  1.00  0.00     0.002 C 
HETATM   10  C2  UNL     1       7.487  14.098  21.097  1.00  0.00    -0.016 C 
HETATM   11  C10 UNL     1       5.820  12.800  22.565  1.00  0.00    -0.004 C 
HETATM   12  C1  UNL     1       8.266  13.967  19.767  1.00  0.00     0.020 C 
HETATM   13  C3  UNL     1       7.035  15.580  21.261  1.00  0.00     0.022 C 
HETATM   14  C7  UNL     1       8.408  13.750  22.268  1.00  0.00    -0.068 C 
HETATM   15  C4  UNL     1       8.194  16.556  21.442  1.00  0.00     0.084 C 
HETATM   16  C5  UNL     1       9.163  16.092  22.503  1.00  0.00     0.149 C 
HETATM   17  O1  UNL     1       9.970  16.861  23.025  1.00  0.00    -0.293 OA
HETATM   18  C6  UNL     1       9.166  14.665  22.901  1.00  0.00     0.053 C 
HETATM   19  C8  UNL     1       8.352  12.323  22.751  1.00  0.00     0.035 C 
HETATM   20  C9  UNL     1       6.935  11.944  23.210  1.00  0.00     0.010 C 
HETATM   21  C17 UNL     1       3.305  13.176  22.675  1.00  0.00     0.009 C 
HETATM   22  C18 UNL     1       2.166  12.591  21.857  1.00  0.00     0.047 C 
BRANCH   3  23
HETATM   23  O2  UNL     1       3.329  12.791  19.784  1.00  0.00    -0.381 OA
HETATM   24  H27 UNL     1       3.789  12.296  19.079  1.00  0.00     0.211 HD
ENDBRANCH   3  23
ENDBRANCH   1   3
BRANCH   1  25
HETATM   25  C21 UNL     1       0.464  11.315  19.807  1.00  0.00     0.260 C 
BRANCH  25  26
HETATM   26  O4  UNL     1      -0.392  10.304  19.282  1.00  0.00    -0.314 OA
BRANCH  26  27
HETATM   27  C22 UNL     1      -1.208  10.735  18.280  1.00  0.00     0.259 C 
HETATM   28  O5  UNL     1      -0.813  11.292  17.265  1.00  0.00    -0.265 OA
BRANCH  27  29
HETATM   29  C23 UNL     1      -2.646  10.354  18.523  1.00  0.00     0.120 C 
BRANCH  29  30
HETATM   30  C24 UNL     1      -3.646  11.222  17.766  1.00  0.00     0.112 C 
BRANCH  30  31
HETATM   31  C25 UNL     1      -3.953  10.650  16.399  1.00  0.00     0.218 C 
HETATM   32  O6  UNL     1      -4.017  11.330  15.378  1.00  0.00    -0.274 OA
HETATM   33  N1  UNL     1      -4.141   9.284  16.417  1.00  0.00    -0.360 N 
HETATM   34  H34 UNL     1      -3.839   8.765  17.232  1.00  0.00     0.162 HD
BRANCH  33  35
HETATM   35  C26 UNL     1      -4.338   8.533  15.185  1.00  0.00     0.132 C 
BRANCH  35  36
HETATM   36  C27 UNL     1      -4.058   7.022  15.356  1.00  0.00     0.046 C 
BRANCH  36  37
HETATM   37  C28 UNL     1      -2.813   6.590  14.568  1.00  0.00     0.120 C 
BRANCH  37  38
HETATM   38  C29 UNL     1      -1.557   6.897  15.326  1.00  0.00     0.140 C 
HETATM   39  O7  UNL     1      -1.279   7.968  15.837  1.00  0.00    -0.650 OA
BRANCH  38  40
HETATM   40  O8  UNL     1      -0.730   5.843  15.420  1.00  0.00    -0.776 OA
HETATM   41  H40 UNL     1       0.015   6.163  15.972  1.00  0.00     0.167 HD
ENDBRANCH  38  40
ENDBRANCH  37  38
ENDBRANCH  36  37
BRANCH  36  42
HETATM   42  C30 UNL     1      -5.255   6.172  14.938  1.00  0.00    -0.052 A 
HETATM   43  C31 UNL     1      -6.345   5.959  15.797  1.00  0.00     0.007 A 
HETATM   44  C32 UNL     1      -7.429   5.181  15.388  1.00  0.00     0.001 A 
HETATM   45  C33 UNL     1      -7.437   4.605  14.119  1.00  0.00     0.000 A 
HETATM   46  C34 UNL     1      -6.364   4.813  13.255  1.00  0.00     0.001 A 
HETATM   47  C35 UNL     1      -5.279   5.591  13.662  1.00  0.00     0.007 A 
ENDBRANCH  36  42
ENDBRANCH  35  36
ENDBRANCH  33  35
ENDBRANCH  30  31
ENDBRANCH  29  30
ENDBRANCH  27  29
ENDBRANCH  26  27
ENDBRANCH  25  26
ENDBRANCH   1  25
TORSDOF 14
ENDMDL
MODEL 9
REMARK minimizedAffinity -8.90638828
REMARK CNNscore 0.234271109
REMARK CNNaffinity 6.12486982
REMARK  14 active torsions:
REMARK  status: ('A' for Active; 'I' for Inactive)
REMARK    1  A    between atoms: C19_20  and  O2_21 
REMARK    2  A    between atoms: C19_20  and  C20_22 
REMARK    3  A    between atoms: C20_22  and  C21_24 
REMARK    4  A    between atoms: C21_24  and  O4_25 
REMARK    5  A    between atoms: O4_25  and  C22_26 
REMARK    6  A    between atoms: C22_26  and  C23_28 
REMARK    7  A    between atoms: C23_28  and  C24_29 
REMARK    8  A    between atoms: C24_29  and  C25_30 
REMARK       I    between atoms: C25_30  and  N1_32 
REMARK    9  A    between atoms: N1_32  and  C26_33 
REMARK   10  A    between atoms: C26_33  and  C27_34 
REMARK   11  A    between atoms: C27_34  and  C28_35 
REMARK   12  A    between atoms: C27_34  and  C30_39 
REMARK   13  A    between atoms: C28_35  and  C29_36 
REMARK   14  A    between atoms: C29_36  and  O8_38 
ROOT
HETATM    1  C20 UNL     1      -3.228   9.602  15.836  1.00  0.00     0.185 C 
HETATM    2  O3  UNL     1      -4.011  10.130  15.042  1.00  0.00    -0.292 OA
ENDROOT
BRANCH   1   3
HETATM    3  C19 UNL     1      -1.973   8.851  15.344  1.00  0.00     0.128 C 
HETATM    4  C14 UNL     1      -2.207   7.466  14.642  1.00  0.00    -0.002 C 
HETATM    5  C13 UNL     1      -2.651   7.556  13.166  1.00  0.00     0.013 C 
HETATM    6  C15 UNL     1      -3.290   6.648  15.400  1.00  0.00     0.019 C 
HETATM    7  C16 UNL     1      -0.851   6.696  14.813  1.00  0.00     0.002 C 
HETATM    8  C12 UNL     1      -1.582   7.870  12.113  1.00  0.00     0.007 C 
HETATM    9  C11 UNL     1      -0.123   7.580  12.519  1.00  0.00     0.002 C 
HETATM   10  C2  UNL     1       0.892   7.356  11.325  1.00  0.00    -0.016 C 
HETATM   11  C10 UNL     1      -0.062   6.404  13.516  1.00  0.00    -0.004 C 
HETATM   12  C1  UNL     1       0.437   8.073  10.032  1.00  0.00     0.020 C 
HETATM   13  C3  UNL     1       2.271   7.941  11.755  1.00  0.00     0.022 C 
HETATM   14  C7  UNL     1       1.077   5.863  11.046  1.00  0.00    -0.068 C 
HETATM   15  C4  UNL     1       3.399   7.634  10.774  1.00  0.00     0.084 C 
HETATM   16  C5  UNL     1       3.445   6.169  10.407  1.00  0.00     0.149 C 
HETATM   17  O1  UNL     1       4.444   5.659   9.901  1.00  0.00    -0.293 OA
HETATM   18  C6  UNL     1       2.242   5.334  10.630  1.00  0.00     0.053 C 
HETATM   19  C8  UNL     1      -0.106   4.982  11.360  1.00  0.00     0.035 C 
HETATM   20  C9  UNL     1      -0.500   5.082  12.842  1.00  0.00     0.010 C 
HETATM   21  C17 UNL     1      -0.013   7.538  15.794  1.00  0.00     0.009 C 
HETATM   22  C18 UNL     1      -0.982   8.503  16.457  1.00  0.00     0.047 C 
BRANCH   3  23
HETATM   23  O2  UNL     1      -1.321   9.786  14.474  1.00  0.00    -0.381 OA
HETATM   24  H27 UNL     1      -1.953   9.995  13.760  1.00  0.00     0.211 HD
ENDBRANCH   3  23
ENDBRANCH   1   3
BRANCH   1  25
HETATM   25  C21 UNL     1      -3.340   9.879  17.344  1.00  0.00     0.260 C 
BRANCH  25  26
HETATM   26  O4  UNL     1      -3.281  11.259  17.695  1.00  0.00    -0.314 OA
BRANCH  26  27
HETATM   27  C22 UNL     1      -2.041  11.808  17.572  1.00  0.00     0.259 C 
HETATM   28  O5  UNL     1      -1.684  12.493  16.622  1.00  0.00    -0.265 OA
BRANCH  27  29
HETATM   29  C23 UNL     1      -1.191  11.559  18.792  1.00  0.00     0.120 C 
BRANCH  29  30
HETATM   30  C24 UNL     1       0.222  11.085  18.469  1.00  0.00     0.112 C 
BRANCH  30  31
HETATM   31  C25 UNL     1       1.203  11.496  19.545  1.00  0.00     0.218 C 
HETATM   32  O6  UNL     1       1.716  12.610  19.606  1.00  0.00    -0.274 OA
HETATM   33  N1  UNL     1       1.454  10.492  20.457  1.00  0.00    -0.360 N 
HETATM   34  H34 UNL     1       0.826   9.698  20.487  1.00  0.00     0.162 HD
BRANCH  33  35
HETATM   35  C26 UNL     1       2.287  10.726  21.628  1.00  0.00     0.132 C 
BRANCH  35  36
HETATM   36  C27 UNL     1       3.670  10.043  21.524  1.00  0.00     0.046 C 
BRANCH  36  37
HETATM   37  C28 UNL     1       3.816   8.914  22.554  1.00  0.00     0.120 C 
BRANCH  37  38
HETATM   38  C29 UNL     1       2.477   8.416  23.007  1.00  0.00     0.140 C 
HETATM   39  O7  UNL     1       1.701   7.756  22.339  1.00  0.00    -0.650 OA
BRANCH  38  40
HETATM   40  O8  UNL     1       2.193   8.755  24.276  1.00  0.00    -0.776 OA
HETATM   41  H40 UNL     1       1.327   8.332  24.455  1.00  0.00     0.167 HD
ENDBRANCH  38  40
ENDBRANCH  37  38
ENDBRANCH  36  37
BRANCH  36  42
HETATM   42  C30 UNL     1       4.810  11.045  21.688  1.00  0.00    -0.052 A 
HETATM   43  C31 UNL     1       5.306  11.400  22.952  1.00  0.00     0.007 A 
HETATM   44  C32 UNL     1       6.352  12.316  23.072  1.00  0.00     0.001 A 
HETATM   45  C33 UNL     1       6.914  12.889  21.933  1.00  0.00     0.000 A 
HETATM   46  C34 UNL     1       6.435  12.541  20.672  1.00  0.00     0.001 A 
HETATM   47  C35 UNL     1       5.389  11.625  20.550  1.00  0.00     0.007 A 
ENDBRANCH  36  42
ENDBRANCH  35  36
ENDBRANCH  33  35
ENDBRANCH  30  31
ENDBRANCH  29  30
ENDBRANCH  27  29
ENDBRANCH  26  27
ENDBRANCH  25  26
ENDBRANCH   1  25
TORSDOF 14
ENDMDL
