MODEL 1
REMARK minimizedAffinity -10.4097195
REMARK  8 active torsions:
REMARK  status: ('A' for Active; 'I' for Inactive)
REMARK    1  A    between atoms: C12_12  and  O1_13 
REMARK    2  A    between atoms: C17_18  and  O2_19 
REMARK    3  A    between atoms: C18_20  and  C19_21 
REMARK    4  A    between atoms: C19_21  and  C21_23 
REMARK    5  A    between atoms: C21_23  and  C22_24 
REMARK    6  A    between atoms: C22_24  and  C23_25 
REMARK    7  A    between atoms: C24_26  and  C26_28 
REMARK    8  A    between atoms: C26_28  and  O3_29 
ROOT
HETATM    1  C1  UNL     1       3.079  52.692 -16.701  1.00  0.00     0.044 C 
HETATM    2  C2  UNL     1       2.224  51.823 -15.814  1.00  0.00    -0.074 C 
HETATM    3  C3  UNL     1       1.129  51.109 -16.184  1.00  0.00    -0.044 C 
HETATM    4  C4  UNL     1       0.364  51.257 -17.459  1.00  0.00    -0.048 C 
HETATM    5  C5  UNL     1      -0.516  50.298 -17.863  1.00  0.00    -0.064 C 
HETATM    6  C6  UNL     1      -0.723  48.996 -17.132  1.00  0.00     0.036 C 
HETATM    7  C7  UNL     1       0.268  48.775 -16.002  1.00  0.00     0.014 C 
HETATM    8  C8  UNL     1       0.506  50.075 -15.216  1.00  0.00     0.030 C 
HETATM    9  C9  UNL     1       1.293  49.807 -13.881  1.00  0.00    -0.014 C 
HETATM   10  C10 UNL     1       2.455  48.800 -14.064  1.00  0.00     0.018 C 
HETATM   11  C11 UNL     1       0.339  49.212 -12.820  1.00  0.00     0.018 C 
HETATM   12  C12 UNL     1       1.812  51.171 -13.376  1.00  0.00     0.130 C 
HETATM   13  C13 UNL     1       2.755  51.809 -14.395  1.00  0.00     0.067 C 
HETATM   14  C14 UNL     1      -1.462  50.548 -19.041  1.00  0.00    -0.010 C 
HETATM   15  C15 UNL     1      -2.746  51.151 -18.380  1.00  0.00     0.021 C 
HETATM   16  C16 UNL     1      -1.912  49.372 -19.930  1.00  0.00     0.046 C 
HETATM   17  C17 UNL     1      -2.414  50.038 -21.236  1.00  0.00     0.124 C 
HETATM   18  C18 UNL     1      -1.844  51.490 -21.244  1.00  0.00     0.027 C 
HETATM   19  C27 UNL     1      -0.763  51.451 -20.124  1.00  0.00    -0.026 C 
HETATM   20  C28 UNL     1       0.565  50.826 -20.650  1.00  0.00     0.016 C 
HETATM   21  C29 UNL     1      -0.447  52.791 -19.456  1.00  0.00     0.015 C 
HETATM   22  C30 UNL     1       0.477  52.580 -18.235  1.00  0.00     0.040 C 
ENDROOT
BRANCH  18  23
HETATM   23  C19 UNL     1      -1.580  52.204 -22.607  1.00  0.00    -0.011 C 
HETATM   24  C20 UNL     1      -2.931  52.381 -23.333  1.00  0.00     0.010 C 
BRANCH  23  25
HETATM   25  C21 UNL     1      -0.542  51.582 -23.573  1.00  0.00     0.008 C 
BRANCH  25  26
HETATM   26  C22 UNL     1       0.359  52.576 -24.323  1.00  0.00     0.028 C 
BRANCH  26  27
HETATM   27  C23 UNL     1       0.220  52.510 -25.820  1.00  0.00    -0.022 C 
HETATM   28  C24 UNL     1       1.086  51.969 -26.703  1.00  0.00    -0.064 C 
HETATM   29  C25 UNL     1       0.763  51.951 -28.176  1.00  0.00     0.045 C 
BRANCH  28  30
HETATM   30  C26 UNL     1       2.408  51.348 -26.342  1.00  0.00     0.197 C 
BRANCH  30  31
HETATM   31  O3  UNL     1       3.305  51.501 -27.433  1.00  0.00    -0.397 OA
HETATM   32  H41 UNL     1       3.306  52.450 -27.656  1.00  0.00     0.209 HD
ENDBRANCH  30  31
ENDBRANCH  28  30
ENDBRANCH  26  27
ENDBRANCH  25  26
ENDBRANCH  23  25
ENDBRANCH  18  23
BRANCH  17  33
HETATM   33  O2  UNL     1      -2.014  49.261 -22.346  1.00  0.00    -0.395 OA
HETATM   34  H25 UNL     1      -2.416  48.380 -22.252  1.00  0.00     0.210 HD
ENDBRANCH  17  33
BRANCH  12  35
HETATM   35  O1  UNL     1       2.467  51.064 -12.110  1.00  0.00    -0.394 OA
HETATM   36  H16 UNL     1       3.326  50.631 -12.242  1.00  0.00     0.210 HD
ENDBRANCH  12  35
TORSDOF 8
ENDMDL
MODEL 2
REMARK minimizedAffinity -10.1823721
REMARK  8 active torsions:
REMARK  status: ('A' for Active; 'I' for Inactive)
REMARK    1  A    between atoms: C12_12  and  O1_13 
REMARK    2  A    between atoms: C17_18  and  O2_19 
REMARK    3  A    between atoms: C18_20  and  C19_21 
REMARK    4  A    between atoms: C19_21  and  C21_23 
REMARK    5  A    between atoms: C21_23  and  C22_24 
REMARK    6  A    between atoms: C22_24  and  C23_25 
REMARK    7  A    between atoms: C24_26  and  C26_28 
REMARK    8  A    between atoms: C26_28  and  O3_29 
ROOT
HETATM    1  C1  UNL     1      -4.932  48.431 -28.986  1.00  0.00     0.044 C 
HETATM    2  C2  UNL     1      -5.904  47.703 -28.092  1.00  0.00    -0.074 C 
HETATM    3  C3  UNL     1      -5.994  47.795 -26.739  1.00  0.00    -0.044 C 
HETATM    4  C4  UNL     1      -4.977  48.395 -25.823  1.00  0.00    -0.048 C 
HETATM    5  C5  UNL     1      -5.296  48.712 -24.536  1.00  0.00    -0.064 C 
HETATM    6  C6  UNL     1      -6.684  48.580 -23.964  1.00  0.00     0.036 C 
HETATM    7  C7  UNL     1      -7.733  48.228 -25.004  1.00  0.00     0.014 C 
HETATM    8  C8  UNL     1      -7.199  47.177 -25.992  1.00  0.00     0.030 C 
HETATM    9  C9  UNL     1      -8.349  46.589 -26.889  1.00  0.00    -0.014 C 
HETATM   10  C10 UNL     1      -9.333  47.676 -27.387  1.00  0.00     0.018 C 
HETATM   11  C11 UNL     1      -9.177  45.566 -26.077  1.00  0.00     0.018 C 
HETATM   12  C12 UNL     1      -7.678  45.860 -28.072  1.00  0.00     0.130 C 
HETATM   13  C13 UNL     1      -6.837  46.828 -28.905  1.00  0.00     0.067 C 
HETATM   14  C14 UNL     1      -4.208  49.112 -23.535  1.00  0.00    -0.010 C 
HETATM   15  C15 UNL     1      -3.781  47.759 -22.874  1.00  0.00     0.021 C 
HETATM   16  C16 UNL     1      -4.534  50.097 -22.396  1.00  0.00     0.046 C 
HETATM   17  C17 UNL     1      -3.154  50.626 -21.928  1.00  0.00     0.124 C 
HETATM   18  C18 UNL     1      -2.140  50.290 -23.063  1.00  0.00     0.027 C 
HETATM   19  C27 UNL     1      -3.061  49.910 -24.260  1.00  0.00    -0.026 C 
HETATM   20  C28 UNL     1      -3.592  51.184 -24.983  1.00  0.00     0.016 C 
HETATM   21  C29 UNL     1      -2.449  48.970 -25.302  1.00  0.00     0.015 C 
HETATM   22  C30 UNL     1      -3.524  48.511 -26.312  1.00  0.00     0.040 C 
ENDROOT
BRANCH  18  23
HETATM   23  C19 UNL     1      -0.879  51.190 -23.259  1.00  0.00    -0.011 C 
HETATM   24  C20 UNL     1      -0.207  51.390 -21.885  1.00  0.00     0.010 C 
BRANCH  23  25
HETATM   25  C21 UNL     1      -1.057  52.558 -23.961  1.00  0.00     0.008 C 
BRANCH  25  26
HETATM   26  C22 UNL     1       0.172  53.091 -24.717  1.00  0.00     0.028 C 
BRANCH  26  27
HETATM   27  C23 UNL     1       0.149  52.801 -26.193  1.00  0.00    -0.022 C 
HETATM   28  C24 UNL     1       1.018  52.045 -26.897  1.00  0.00    -0.064 C 
HETATM   29  C25 UNL     1       0.816  51.823 -28.374  1.00  0.00     0.045 C 
BRANCH  28  30
HETATM   30  C26 UNL     1       2.231  51.366 -26.320  1.00  0.00     0.197 C 
BRANCH  30  31
HETATM   31  O3  UNL     1       3.302  51.464 -27.248  1.00  0.00    -0.397 OA
HETATM   32  H41 UNL     1       3.387  52.409 -27.471  1.00  0.00     0.209 HD
ENDBRANCH  30  31
ENDBRANCH  28  30
ENDBRANCH  26  27
ENDBRANCH  25  26
ENDBRANCH  23  25
ENDBRANCH  18  23
BRANCH  17  33
HETATM   33  O2  UNL     1      -3.251  52.005 -21.639  1.00  0.00    -0.395 OA
HETATM   34  H25 UNL     1      -3.903  52.114 -20.924  1.00  0.00     0.210 HD
ENDBRANCH  17  33
BRANCH  12  35
HETATM   35  O1  UNL     1      -8.629  45.201 -28.911  1.00  0.00    -0.394 OA
HETATM   36  H16 UNL     1      -9.111  45.873 -29.420  1.00  0.00     0.210 HD
ENDBRANCH  12  35
TORSDOF 8
ENDMDL
MODEL 3
REMARK minimizedAffinity -9.67136002
REMARK  8 active torsions:
REMARK  status: ('A' for Active; 'I' for Inactive)
REMARK    1  A    between atoms: C12_12  and  O1_13 
REMARK    2  A    between atoms: C17_18  and  O2_19 
REMARK    3  A    between atoms: C18_20  and  C19_21 
REMARK    4  A    between atoms: C19_21  and  C21_23 
REMARK    5  A    between atoms: C21_23  and  C22_24 
REMARK    6  A    between atoms: C22_24  and  C23_25 
REMARK    7  A    between atoms: C24_26  and  C26_28 
REMARK    8  A    between atoms: C26_28  and  O3_29 
ROOT
HETATM    1  C1  UNL     1       0.313  52.954 -23.383  1.00  0.00     0.044 C 
HETATM    2  C2  UNL     1      -0.464  51.955 -24.202  1.00  0.00    -0.074 C 
HETATM    3  C3  UNL     1      -1.273  50.968 -23.733  1.00  0.00    -0.044 C 
HETATM    4  C4  UNL     1      -1.337  50.472 -22.325  1.00  0.00    -0.048 C 
HETATM    5  C5  UNL     1      -2.382  49.707 -21.899  1.00  0.00    -0.064 C 
HETATM    6  C6  UNL     1      -3.579  49.382 -22.756  1.00  0.00     0.036 C 
HETATM    7  C7  UNL     1      -3.597  50.131 -24.077  1.00  0.00     0.014 C 
HETATM    8  C8  UNL     1      -2.191  50.184 -24.699  1.00  0.00     0.030 C 
HETATM    9  C9  UNL     1      -2.236  50.693 -26.186  1.00  0.00    -0.014 C 
HETATM   10  C10 UNL     1      -3.204  51.886 -26.381  1.00  0.00     0.018 C 
HETATM   11  C11 UNL     1      -2.724  49.557 -27.115  1.00  0.00     0.018 C 
HETATM   12  C12 UNL     1      -0.794  51.075 -26.581  1.00  0.00     0.130 C 
HETATM   13  C13 UNL     1      -0.258  52.192 -25.685  1.00  0.00     0.067 C 
HETATM   14  C14 UNL     1      -2.341  49.011 -20.536  1.00  0.00    -0.010 C 
HETATM   15  C15 UNL     1      -1.713  47.610 -20.840  1.00  0.00     0.021 C 
HETATM   16  C16 UNL     1      -3.647  48.770 -19.755  1.00  0.00     0.046 C 
HETATM   17  C17 UNL     1      -3.192  48.526 -18.294  1.00  0.00     0.124 C 
HETATM   18  C18 UNL     1      -1.730  49.060 -18.188  1.00  0.00     0.027 C 
HETATM   19  C27 UNL     1      -1.564  49.896 -19.492  1.00  0.00    -0.026 C 
HETATM   20  C28 UNL     1      -2.193  51.313 -19.331  1.00  0.00     0.016 C 
HETATM   21  C29 UNL     1      -0.131  50.048 -20.009  1.00  0.00     0.015 C 
HETATM   22  C30 UNL     1      -0.129  50.713 -21.404  1.00  0.00     0.040 C 
ENDROOT
BRANCH  18  23
HETATM   23  C19 UNL     1      -1.199  49.578 -16.815  1.00  0.00    -0.011 C 
HETATM   24  C20 UNL     1      -2.143  50.693 -16.317  1.00  0.00     0.010 C 
BRANCH  23  25
HETATM   25  C21 UNL     1       0.271  50.058 -16.730  1.00  0.00     0.008 C 
BRANCH  25  26
HETATM   26  C22 UNL     1       0.475  51.567 -16.523  1.00  0.00     0.028 C 
BRANCH  26  27
HETATM   27  C23 UNL     1       1.902  52.015 -16.693  1.00  0.00    -0.022 C 
HETATM   28  C24 UNL     1       2.896  51.955 -15.783  1.00  0.00    -0.064 C 
HETATM   29  C25 UNL     1       4.288  52.411 -16.141  1.00  0.00     0.045 C 
BRANCH  28  30
HETATM   30  C26 UNL     1       2.745  51.449 -14.374  1.00  0.00     0.197 C 
BRANCH  30  31
HETATM   31  O3  UNL     1       2.829  52.546 -13.476  1.00  0.00    -0.397 OA
HETATM   32  H41 UNL     1       2.179  53.203 -13.783  1.00  0.00     0.209 HD
ENDBRANCH  30  31
ENDBRANCH  28  30
ENDBRANCH  26  27
ENDBRANCH  25  26
ENDBRANCH  23  25
ENDBRANCH  18  23
BRANCH  17  33
HETATM   33  O2  UNL     1      -4.094  49.155 -17.407  1.00  0.00    -0.395 OA
HETATM   34  H25 UNL     1      -4.972  48.758 -17.547  1.00  0.00     0.210 HD
ENDBRANCH  17  33
BRANCH  12  35
HETATM   35  O1  UNL     1      -0.694  51.466 -27.952  1.00  0.00    -0.394 OA
HETATM   36  H16 UNL     1      -1.101  52.342 -28.054  1.00  0.00     0.210 HD
ENDBRANCH  12  35
TORSDOF 8
ENDMDL
MODEL 4
REMARK minimizedAffinity -9.64596558
REMARK  8 active torsions:
REMARK  status: ('A' for Active; 'I' for Inactive)
REMARK    1  A    between atoms: C12_12  and  O1_13 
REMARK    2  A    between atoms: C17_18  and  O2_19 
REMARK    3  A    between atoms: C18_20  and  C19_21 
REMARK    4  A    between atoms: C19_21  and  C21_23 
REMARK    5  A    between atoms: C21_23  and  C22_24 
REMARK    6  A    between atoms: C22_24  and  C23_25 
REMARK    7  A    between atoms: C24_26  and  C26_28 
REMARK    8  A    between atoms: C26_28  and  O3_29 
ROOT
HETATM    1  C1  UNL     1       0.819  53.807 -21.501  1.00  0.00     0.044 C 
HETATM    2  C2  UNL     1       0.396  52.848 -22.585  1.00  0.00    -0.074 C 
HETATM    3  C3  UNL     1      -0.401  51.757 -22.442  1.00  0.00    -0.044 C 
HETATM    4  C4  UNL     1      -0.787  51.104 -21.154  1.00  0.00    -0.048 C 
HETATM    5  C5  UNL     1      -1.822  50.219 -21.101  1.00  0.00    -0.064 C 
HETATM    6  C6  UNL     1      -2.707  49.899 -22.279  1.00  0.00     0.036 C 
HETATM    7  C7  UNL     1      -2.450  50.787 -23.484  1.00  0.00     0.014 C 
HETATM    8  C8  UNL     1      -0.943  51.016 -23.688  1.00  0.00     0.030 C 
HETATM    9  C9  UNL     1      -0.642  51.681 -25.080  1.00  0.00    -0.014 C 
HETATM   10  C10 UNL     1      -1.641  52.811 -25.432  1.00  0.00     0.018 C 
HETATM   11  C11 UNL     1      -0.743  50.621 -26.201  1.00  0.00     0.018 C 
HETATM   12  C12 UNL     1       0.806  52.214 -25.028  1.00  0.00     0.130 C 
HETATM   13  C13 UNL     1       0.964  53.262 -23.927  1.00  0.00     0.067 C 
HETATM   14  C14 UNL     1      -2.074  49.382 -19.844  1.00  0.00    -0.010 C 
HETATM   15  C15 UNL     1      -1.246  48.075 -20.082  1.00  0.00     0.021 C 
HETATM   16  C16 UNL     1      -3.509  48.956 -19.477  1.00  0.00     0.046 C 
HETATM   17  C17 UNL     1      -3.436  48.588 -17.973  1.00  0.00     0.124 C 
HETATM   18  C18 UNL     1      -2.120  49.217 -17.423  1.00  0.00     0.027 C 
HETATM   19  C27 UNL     1      -1.700  50.202 -18.554  1.00  0.00    -0.026 C 
HETATM   20  C28 UNL     1      -2.493  51.540 -18.452  1.00  0.00     0.016 C 
HETATM   21  C29 UNL     1      -0.205  50.520 -18.641  1.00  0.00     0.015 C 
HETATM   22  C30 UNL     1       0.100  51.333 -19.919  1.00  0.00     0.040 C 
ENDROOT
BRANCH  18  23
HETATM   23  C19 UNL     1      -2.030  49.619 -15.918  1.00  0.00    -0.011 C 
HETATM   24  C20 UNL     1      -2.106  48.334 -15.066  1.00  0.00     0.010 C 
BRANCH  23  25
HETATM   25  C21 UNL     1      -3.033  50.667 -15.377  1.00  0.00     0.008 C 
BRANCH  25  26
HETATM   26  C22 UNL     1      -2.570  51.473 -14.153  1.00  0.00     0.028 C 
BRANCH  26  27
HETATM   27  C23 UNL     1      -3.178  51.013 -12.857  1.00  0.00    -0.022 C 
HETATM   28  C24 UNL     1      -3.724  51.777 -11.887  1.00  0.00    -0.064 C 
HETATM   29  C25 UNL     1      -4.333  51.139 -10.664  1.00  0.00     0.045 C 
BRANCH  28  30
HETATM   30  C26 UNL     1      -3.791  53.280 -11.910  1.00  0.00     0.197 C 
BRANCH  30  31
HETATM   31  O3  UNL     1      -4.325  53.701 -13.157  1.00  0.00    -0.397 OA
HETATM   32  H41 UNL     1      -5.164  53.217 -13.274  1.00  0.00     0.209 HD
ENDBRANCH  30  31
ENDBRANCH  28  30
ENDBRANCH  26  27
ENDBRANCH  25  26
ENDBRANCH  23  25
ENDBRANCH  18  23
BRANCH  17  33
HETATM   33  O2  UNL     1      -4.603  49.043 -17.319  1.00  0.00    -0.395 OA
HETATM   34  H25 UNL     1      -5.366  48.598 -17.729  1.00  0.00     0.210 HD
ENDBRANCH  17  33
BRANCH  12  35
HETATM   35  O1  UNL     1       1.226  52.761 -26.280  1.00  0.00    -0.394 OA
HETATM   36  H16 UNL     1       0.772  53.609 -26.415  1.00  0.00     0.210 HD
ENDBRANCH  12  35
TORSDOF 8
ENDMDL
MODEL 5
REMARK minimizedAffinity -9.41752052
REMARK  8 active torsions:
REMARK  status: ('A' for Active; 'I' for Inactive)
REMARK    1  A    between atoms: C12_12  and  O1_13 
REMARK    2  A    between atoms: C17_18  and  O2_19 
REMARK    3  A    between atoms: C18_20  and  C19_21 
REMARK    4  A    between atoms: C19_21  and  C21_23 
REMARK    5  A    between atoms: C21_23  and  C22_24 
REMARK    6  A    between atoms: C22_24  and  C23_25 
REMARK    7  A    between atoms: C24_26  and  C26_28 
REMARK    8  A    between atoms: C26_28  and  O3_29 
ROOT
HETATM    1  C1  UNL     1      -5.524  48.116 -28.438  1.00  0.00     0.044 C 
HETATM    2  C2  UNL     1      -6.596  47.385 -27.671  1.00  0.00    -0.074 C 
HETATM    3  C3  UNL     1      -6.882  47.509 -26.349  1.00  0.00    -0.044 C 
HETATM    4  C4  UNL     1      -6.023  48.162 -25.315  1.00  0.00    -0.048 C 
HETATM    5  C5  UNL     1      -6.532  48.504 -24.097  1.00  0.00    -0.064 C 
HETATM    6  C6  UNL     1      -7.984  48.347 -23.726  1.00  0.00     0.036 C 
HETATM    7  C7  UNL     1      -8.864  47.937 -24.895  1.00  0.00     0.014 C 
HETATM    8  C8  UNL     1      -8.167  46.877 -25.764  1.00  0.00     0.030 C 
HETATM    9  C9  UNL     1      -9.161  46.233 -26.798  1.00  0.00    -0.014 C 
HETATM   10  C10 UNL     1     -10.089  47.277 -27.465  1.00  0.00     0.018 C 
HETATM   11  C11 UNL     1     -10.071  45.208 -26.083  1.00  0.00     0.018 C 
HETATM   12  C12 UNL     1      -8.308  45.493 -27.851  1.00  0.00     0.130 C 
HETATM   13  C13 UNL     1      -7.380  46.462 -28.583  1.00  0.00     0.067 C 
HETATM   14  C14 UNL     1      -5.609  48.960 -22.963  1.00  0.00    -0.010 C 
HETATM   15  C15 UNL     1      -5.249  47.638 -22.206  1.00  0.00     0.021 C 
HETATM   16  C16 UNL     1      -6.121  49.965 -21.912  1.00  0.00     0.046 C 
HETATM   17  C17 UNL     1      -4.837  50.545 -21.267  1.00  0.00     0.124 C 
HETATM   18  C18 UNL     1      -3.661  50.209 -22.235  1.00  0.00     0.027 C 
HETATM   19  C27 UNL     1      -4.390  49.771 -23.539  1.00  0.00    -0.026 C 
HETATM   20  C28 UNL     1      -4.843  51.011 -24.369  1.00  0.00     0.016 C 
HETATM   21  C29 UNL     1      -3.611  48.823 -24.453  1.00  0.00     0.015 C 
HETATM   22  C30 UNL     1      -4.518  48.307 -25.593  1.00  0.00     0.040 C 
ENDROOT
BRANCH  18  23
HETATM   23  C19 UNL     1      -2.408  51.140 -22.275  1.00  0.00    -0.011 C 
HETATM   24  C20 UNL     1      -2.558  52.105 -23.470  1.00  0.00     0.010 C 
BRANCH  23  25
HETATM   25  C21 UNL     1      -1.007  50.483 -22.302  1.00  0.00     0.008 C 
BRANCH  25  26
HETATM   26  C22 UNL     1       0.015  51.034 -21.293  1.00  0.00     0.028 C 
BRANCH  26  27
HETATM   27  C23 UNL     1       0.724  52.274 -21.764  1.00  0.00    -0.022 C 
HETATM   28  C24 UNL     1       0.918  53.421 -21.079  1.00  0.00    -0.064 C 
HETATM   29  C25 UNL     1       1.697  54.556 -21.694  1.00  0.00     0.045 C 
BRANCH  28  30
HETATM   30  C26 UNL     1       0.410  53.689 -19.688  1.00  0.00     0.197 C 
BRANCH  30  31
HETATM   31  O3  UNL     1       1.370  53.231 -18.747  1.00  0.00    -0.397 OA
HETATM   32  H41 UNL     1       2.218  53.642 -18.998  1.00  0.00     0.209 HD
ENDBRANCH  30  31
ENDBRANCH  28  30
ENDBRANCH  26  27
ENDBRANCH  25  26
ENDBRANCH  23  25
ENDBRANCH  18  23
BRANCH  17  33
HETATM   33  O2  UNL     1      -5.008  51.929 -21.037  1.00  0.00    -0.395 OA
HETATM   34  H25 UNL     1      -5.759  52.037 -20.426  1.00  0.00     0.210 HD
ENDBRANCH  17  33
BRANCH  12  35
HETATM   35  O1  UNL     1      -9.111  44.785 -28.797  1.00  0.00    -0.394 OA
HETATM   36  H16 UNL     1      -9.532  45.429 -29.390  1.00  0.00     0.210 HD
ENDBRANCH  12  35
TORSDOF 8
ENDMDL
MODEL 6
REMARK minimizedAffinity -9.35307407
REMARK  8 active torsions:
REMARK  status: ('A' for Active; 'I' for Inactive)
REMARK    1  A    between atoms: C12_12  and  O1_13 
REMARK    2  A    between atoms: C17_18  and  O2_19 
REMARK    3  A    between atoms: C18_20  and  C19_21 
REMARK    4  A    between atoms: C19_21  and  C21_23 
REMARK    5  A    between atoms: C21_23  and  C22_24 
REMARK    6  A    between atoms: C22_24  and  C23_25 
REMARK    7  A    between atoms: C24_26  and  C26_28 
REMARK    8  A    between atoms: C26_28  and  O3_29 
ROOT
HETATM    1  C1  UNL     1      -1.715  48.227 -16.845  1.00  0.00     0.044 C 
HETATM    2  C2  UNL     1      -0.567  49.183 -16.638  1.00  0.00    -0.074 C 
HETATM    3  C3  UNL     1      -0.107  50.107 -17.522  1.00  0.00    -0.044 C 
HETATM    4  C4  UNL     1      -0.433  50.180 -18.978  1.00  0.00    -0.048 C 
HETATM    5  C5  UNL     1      -0.171  51.307 -19.699  1.00  0.00    -0.064 C 
HETATM    6  C6  UNL     1       0.366  52.578 -19.092  1.00  0.00     0.036 C 
HETATM    7  C7  UNL     1       0.423  52.545 -17.575  1.00  0.00     0.014 C 
HETATM    8  C8  UNL     1       0.916  51.177 -17.072  1.00  0.00     0.030 C 
HETATM    9  C9  UNL     1       1.257  51.214 -15.537  1.00  0.00    -0.014 C 
HETATM   10  C10 UNL     1       0.210  52.000 -14.711  1.00  0.00     0.018 C 
HETATM   11  C11 UNL     1       2.621  51.909 -15.319  1.00  0.00     0.018 C 
HETATM   12  C12 UNL     1       1.362  49.750 -15.057  1.00  0.00     0.130 C 
HETATM   13  C13 UNL     1       0.038  49.013 -15.259  1.00  0.00     0.067 C 
HETATM   14  C14 UNL     1      -0.292  51.307 -21.225  1.00  0.00    -0.010 C 
HETATM   15  C15 UNL     1       1.138  50.912 -21.722  1.00  0.00     0.021 C 
HETATM   16  C16 UNL     1      -0.694  52.598 -21.966  1.00  0.00     0.046 C 
HETATM   17  C17 UNL     1      -1.182  52.116 -23.356  1.00  0.00     0.124 C 
HETATM   18  C18 UNL     1      -1.464  50.588 -23.224  1.00  0.00     0.027 C 
HETATM   19  C27 UNL     1      -1.461  50.359 -21.683  1.00  0.00    -0.026 C 
HETATM   20  C28 UNL     1      -2.830  50.761 -21.057  1.00  0.00     0.016 C 
HETATM   21  C29 UNL     1      -1.102  48.945 -21.220  1.00  0.00     0.015 C 
HETATM   22  C30 UNL     1      -0.932  48.908 -19.684  1.00  0.00     0.040 C 
ENDROOT
BRANCH  18  23
HETATM   23  C19 UNL     1      -2.534  49.922 -24.145  1.00  0.00    -0.011 C 
HETATM   24  C20 UNL     1      -3.051  48.647 -23.446  1.00  0.00     0.010 C 
BRANCH  23  25
HETATM   25  C21 UNL     1      -2.145  49.597 -25.607  1.00  0.00     0.008 C 
BRANCH  25  26
HETATM   26  C22 UNL     1      -1.494  50.743 -26.401  1.00  0.00     0.028 C 
BRANCH  26  27
HETATM   27  C23 UNL     1       0.010  50.704 -26.400  1.00  0.00    -0.022 C 
HETATM   28  C24 UNL     1       0.858  51.706 -26.713  1.00  0.00    -0.064 C 
HETATM   29  C25 UNL     1       2.349  51.503 -26.613  1.00  0.00     0.045 C 
BRANCH  28  30
HETATM   30  C26 UNL     1       0.440  53.076 -27.171  1.00  0.00     0.197 C 
BRANCH  30  31
HETATM   31  O3  UNL     1       0.348  53.934 -26.043  1.00  0.00    -0.397 OA
HETATM   32  H41 UNL     1       1.199  53.863 -25.573  1.00  0.00     0.209 HD
ENDBRANCH  30  31
ENDBRANCH  28  30
ENDBRANCH  26  27
ENDBRANCH  25  26
ENDBRANCH  23  25
ENDBRANCH  18  23
BRANCH  17  33
HETATM   33  O2  UNL     1      -2.310  52.872 -23.748  1.00  0.00    -0.395 OA
HETATM   34  H25 UNL     1      -2.037  53.805 -23.802  1.00  0.00     0.210 HD
ENDBRANCH  17  33
BRANCH  12  35
HETATM   35  O1  UNL     1       1.763  49.657 -13.689  1.00  0.00    -0.394 OA
HETATM   36  H16 UNL     1       1.019  49.933 -13.129  1.00  0.00     0.210 HD
ENDBRANCH  12  35
TORSDOF 8
ENDMDL
MODEL 7
REMARK minimizedAffinity -9.31688786
REMARK  8 active torsions:
REMARK  status: ('A' for Active; 'I' for Inactive)
REMARK    1  A    between atoms: C12_12  and  O1_13 
REMARK    2  A    between atoms: C17_18  and  O2_19 
REMARK    3  A    between atoms: C18_20  and  C19_21 
REMARK    4  A    between atoms: C19_21  and  C21_23 
REMARK    5  A    between atoms: C21_23  and  C22_24 
REMARK    6  A    between atoms: C22_24  and  C23_25 
REMARK    7  A    between atoms: C24_26  and  C26_28 
REMARK    8  A    between atoms: C26_28  and  O3_29 
ROOT
HETATM    1  C1  UNL     1       0.661  52.546 -22.575  1.00  0.00     0.044 C 
HETATM    2  C2  UNL     1       0.457  52.139 -24.012  1.00  0.00    -0.074 C 
HETATM    3  C3  UNL     1      -0.668  51.606 -24.556  1.00  0.00    -0.044 C 
HETATM    4  C4  UNL     1      -1.830  51.036 -23.808  1.00  0.00    -0.048 C 
HETATM    5  C5  UNL     1      -3.022  50.814 -24.431  1.00  0.00    -0.064 C 
HETATM    6  C6  UNL     1      -3.299  51.198 -25.861  1.00  0.00     0.036 C 
HETATM    7  C7  UNL     1      -2.186  52.016 -26.493  1.00  0.00     0.014 C 
HETATM    8  C8  UNL     1      -0.806  51.470 -26.091  1.00  0.00     0.030 C 
HETATM    9  C9  UNL     1       0.342  52.111 -26.954  1.00  0.00    -0.014 C 
HETATM   10  C10 UNL     1       0.154  53.634 -27.164  1.00  0.00     0.018 C 
HETATM   11  C11 UNL     1       0.371  51.461 -28.356  1.00  0.00     0.018 C 
HETATM   12  C12 UNL     1       1.675  51.808 -26.236  1.00  0.00     0.130 C 
HETATM   13  C13 UNL     1       1.696  52.423 -24.837  1.00  0.00     0.067 C 
HETATM   14  C14 UNL     1      -4.135  50.026 -23.734  1.00  0.00    -0.010 C 
HETATM   15  C15 UNL     1      -3.877  48.542 -24.158  1.00  0.00     0.021 C 
HETATM   16  C16 UNL     1      -5.611  50.342 -24.044  1.00  0.00     0.046 C 
HETATM   17  C17 UNL     1      -6.399  49.741 -22.852  1.00  0.00     0.124 C 
HETATM   18  C18 UNL     1      -5.365  49.503 -21.709  1.00  0.00     0.027 C 
HETATM   19  C27 UNL     1      -4.119  50.307 -22.185  1.00  0.00    -0.026 C 
HETATM   20  C28 UNL     1      -4.274  51.823 -21.856  1.00  0.00     0.016 C 
HETATM   21  C29 UNL     1      -2.769  49.822 -21.654  1.00  0.00     0.015 C 
HETATM   22  C30 UNL     1      -1.613  50.566 -22.360  1.00  0.00     0.040 C 
ENDROOT
BRANCH  18  23
HETATM   23  C19 UNL     1      -5.840  49.541 -20.222  1.00  0.00    -0.011 C 
HETATM   24  C20 UNL     1      -5.077  48.451 -19.441  1.00  0.00     0.010 C 
BRANCH  23  25
HETATM   25  C21 UNL     1      -7.356  49.431 -19.933  1.00  0.00     0.008 C 
BRANCH  25  26
HETATM   26  C22 UNL     1      -7.950  48.013 -19.984  1.00  0.00     0.028 C 
BRANCH  26  27
HETATM   27  C23 UNL     1      -9.453  47.987 -20.041  1.00  0.00    -0.022 C 
HETATM   28  C24 UNL     1     -10.316  48.001 -19.002  1.00  0.00    -0.064 C 
HETATM   29  C25 UNL     1     -11.804  48.016 -19.245  1.00  0.00     0.045 C 
BRANCH  28  30
HETATM   30  C26 UNL     1      -9.917  48.007 -17.552  1.00  0.00     0.197 C 
BRANCH  30  31
HETATM   31  O3  UNL     1     -11.074  47.814 -16.752  1.00  0.00    -0.397 OA
HETATM   32  H41 UNL     1     -11.511  47.010 -17.089  1.00  0.00     0.209 HD
ENDBRANCH  30  31
ENDBRANCH  28  30
ENDBRANCH  26  27
ENDBRANCH  25  26
ENDBRANCH  23  25
ENDBRANCH  18  23
BRANCH  17  33
HETATM   33  O2  UNL     1      -7.453  50.613 -22.495  1.00  0.00    -0.395 OA
HETATM   34  H25 UNL     1      -8.040  50.698 -23.266  1.00  0.00     0.210 HD
ENDBRANCH  17  33
BRANCH  12  35
HETATM   35  O1  UNL     1       2.806  52.264 -26.982  1.00  0.00    -0.394 OA
HETATM   36  H16 UNL     1       2.840  53.233 -26.931  1.00  0.00     0.210 HD
ENDBRANCH  12  35
TORSDOF 8
ENDMDL
MODEL 8
REMARK minimizedAffinity -9.31130695
REMARK  8 active torsions:
REMARK  status: ('A' for Active; 'I' for Inactive)
REMARK    1  A    between atoms: C12_12  and  O1_13 
REMARK    2  A    between atoms: C17_18  and  O2_19 
REMARK    3  A    between atoms: C18_20  and  C19_21 
REMARK    4  A    between atoms: C19_21  and  C21_23 
REMARK    5  A    between atoms: C21_23  and  C22_24 
REMARK    6  A    between atoms: C22_24  and  C23_25 
REMARK    7  A    between atoms: C24_26  and  C26_28 
REMARK    8  A    between atoms: C26_28  and  O3_29 
ROOT
HETATM    1  C1  UNL     1      -2.368  48.860 -26.681  1.00  0.00     0.044 C 
HETATM    2  C2  UNL     1      -1.842  50.203 -26.240  1.00  0.00    -0.074 C 
HETATM    3  C3  UNL     1      -1.680  50.636 -24.962  1.00  0.00    -0.044 C 
HETATM    4  C4  UNL     1      -2.253  50.006 -23.735  1.00  0.00    -0.048 C 
HETATM    5  C5  UNL     1      -1.783  50.331 -22.497  1.00  0.00    -0.064 C 
HETATM    6  C6  UNL     1      -0.616  51.256 -22.265  1.00  0.00     0.036 C 
HETATM    7  C7  UNL     1       0.102  51.653 -23.543  1.00  0.00     0.014 C 
HETATM    8  C8  UNL     1      -0.902  51.941 -24.672  1.00  0.00     0.030 C 
HETATM    9  C9  UNL     1      -0.206  52.627 -25.904  1.00  0.00    -0.014 C 
HETATM   10  C10 UNL     1       1.166  51.994 -26.244  1.00  0.00     0.018 C 
HETATM   11  C11 UNL     1       0.048  54.121 -25.598  1.00  0.00     0.018 C 
HETATM   12  C12 UNL     1      -1.180  52.521 -27.096  1.00  0.00     0.130 C 
HETATM   13  C13 UNL     1      -1.473  51.059 -27.435  1.00  0.00     0.067 C 
HETATM   14  C14 UNL     1      -2.513  49.865 -21.234  1.00  0.00    -0.010 C 
HETATM   15  C15 UNL     1      -3.521  51.021 -20.925  1.00  0.00     0.021 C 
HETATM   16  C16 UNL     1      -1.718  49.591 -19.942  1.00  0.00     0.046 C 
HETATM   17  C17 UNL     1      -2.657  48.703 -19.086  1.00  0.00     0.124 C 
HETATM   18  C18 UNL     1      -3.740  48.136 -20.054  1.00  0.00     0.027 C 
HETATM   19  C27 UNL     1      -3.152  48.445 -21.463  1.00  0.00    -0.026 C 
HETATM   20  C28 UNL     1      -2.093  47.377 -21.872  1.00  0.00     0.016 C 
HETATM   21  C29 UNL     1      -4.173  48.588 -22.594  1.00  0.00     0.015 C 
HETATM   22  C30 UNL     1      -3.483  49.095 -23.881  1.00  0.00     0.040 C 
ENDROOT
BRANCH  18  23
HETATM   23  C19 UNL     1      -4.414  46.764 -19.735  1.00  0.00    -0.011 C 
HETATM   24  C20 UNL     1      -3.777  45.688 -20.639  1.00  0.00     0.010 C 
BRANCH  23  25
HETATM   25  C21 UNL     1      -5.957  46.669 -19.812  1.00  0.00     0.008 C 
BRANCH  25  26
HETATM   26  C22 UNL     1      -6.696  47.975 -20.146  1.00  0.00     0.028 C 
BRANCH  26  27
HETATM   27  C23 UNL     1      -8.195  47.847 -20.117  1.00  0.00    -0.022 C 
HETATM   28  C24 UNL     1      -9.046  48.352 -19.200  1.00  0.00    -0.064 C 
HETATM   29  C25 UNL     1     -10.534  48.165 -19.353  1.00  0.00     0.045 C 
BRANCH  28  30
HETATM   30  C26 UNL     1      -8.634  49.128 -17.978  1.00  0.00     0.197 C 
BRANCH  30  31
HETATM   31  O3  UNL     1      -8.015  48.243 -17.055  1.00  0.00    -0.397 OA
HETATM   32  H41 UNL     1      -7.311  47.782 -17.547  1.00  0.00     0.209 HD
ENDBRANCH  30  31
ENDBRANCH  28  30
ENDBRANCH  26  27
ENDBRANCH  25  26
ENDBRANCH  23  25
ENDBRANCH  18  23
BRANCH  17  33
HETATM   33  O2  UNL     1      -1.897  47.706 -18.433  1.00  0.00    -0.395 OA
HETATM   34  H25 UNL     1      -1.254  48.154 -17.856  1.00  0.00     0.210 HD
ENDBRANCH  17  33
BRANCH  12  35
HETATM   35  O1  UNL     1      -0.691  53.197 -28.256  1.00  0.00    -0.394 OA
HETATM   36  H16 UNL     1       0.041  52.680 -28.631  1.00  0.00     0.210 HD
ENDBRANCH  12  35
TORSDOF 8
ENDMDL
MODEL 9
REMARK minimizedAffinity -9.19077492
REMARK  8 active torsions:
REMARK  status: ('A' for Active; 'I' for Inactive)
REMARK    1  A    between atoms: C12_12  and  O1_13 
REMARK    2  A    between atoms: C17_18  and  O2_19 
REMARK    3  A    between atoms: C18_20  and  C19_21 
REMARK    4  A    between atoms: C19_21  and  C21_23 
REMARK    5  A    between atoms: C21_23  and  C22_24 
REMARK    6  A    between atoms: C22_24  and  C23_25 
REMARK    7  A    between atoms: C24_26  and  C26_28 
REMARK    8  A    between atoms: C26_28  and  O3_29 
ROOT
HETATM    1  C1  UNL     1       0.808  54.069 -24.257  1.00  0.00     0.044 C 
HETATM    2  C2  UNL     1       0.025  52.871 -24.731  1.00  0.00    -0.074 C 
HETATM    3  C3  UNL     1      -0.603  51.949 -23.955  1.00  0.00    -0.044 C 
HETATM    4  C4  UNL     1      -0.412  51.749 -22.487  1.00  0.00    -0.048 C 
HETATM    5  C5  UNL     1      -1.303  51.017 -21.759  1.00  0.00    -0.064 C 
HETATM    6  C6  UNL     1      -2.572  50.440 -22.331  1.00  0.00     0.036 C 
HETATM    7  C7  UNL     1      -2.857  50.899 -23.750  1.00  0.00     0.014 C 
HETATM    8  C8  UNL     1      -1.569  50.921 -24.591  1.00  0.00     0.030 C 
HETATM    9  C9  UNL     1      -1.880  51.109 -26.121  1.00  0.00    -0.014 C 
HETATM   10  C10 UNL     1      -2.981  52.166 -26.382  1.00  0.00     0.018 C 
HETATM   11  C11 UNL     1      -2.380  49.775 -26.722  1.00  0.00     0.018 C 
HETATM   12  C12 UNL     1      -0.556  51.501 -26.811  1.00  0.00     0.130 C 
HETATM   13  C13 UNL     1      -0.011  52.812 -26.245  1.00  0.00     0.067 C 
HETATM   14  C14 UNL     1      -0.994  50.621 -20.312  1.00  0.00    -0.010 C 
HETATM   15  C15 UNL     1      -0.279  49.234 -20.439  1.00  0.00     0.021 C 
HETATM   16  C16 UNL     1      -2.143  50.454 -19.298  1.00  0.00     0.046 C 
HETATM   17  C17 UNL     1      -1.457  50.549 -17.911  1.00  0.00     0.124 C 
HETATM   18  C18 UNL     1      -0.057  51.194 -18.148  1.00  0.00     0.027 C 
HETATM   19  C27 UNL     1      -0.167  51.753 -19.598  1.00  0.00    -0.026 C 
HETATM   20  C28 UNL     1      -0.906  53.126 -19.612  1.00  0.00     0.016 C 
HETATM   21  C29 UNL     1       1.153  51.895 -20.360  1.00  0.00     0.015 C 
HETATM   22  C30 UNL     1       0.886  52.257 -21.838  1.00  0.00     0.040 C 
ENDROOT
BRANCH  18  23
HETATM   23  C19 UNL     1       0.613  52.018 -17.005  1.00  0.00    -0.011 C 
HETATM   24  C20 UNL     1       1.938  52.602 -17.539  1.00  0.00     0.010 C 
BRANCH  23  25
HETATM   25  C21 UNL     1       0.856  51.323 -15.644  1.00  0.00     0.008 C 
BRANCH  25  26
HETATM   26  C22 UNL     1       2.312  51.302 -15.149  1.00  0.00     0.028 C 
BRANCH  26  27
HETATM   27  C23 UNL     1       2.456  51.575 -13.677  1.00  0.00    -0.022 C 
HETATM   28  C24 UNL     1       3.060  50.799 -12.752  1.00  0.00    -0.064 C 
HETATM   29  C25 UNL     1       3.152  51.252 -11.317  1.00  0.00     0.045 C 
BRANCH  28  30
HETATM   30  C26 UNL     1       3.686  49.459 -13.028  1.00  0.00     0.197 C 
BRANCH  30  31
HETATM   31  O3  UNL     1       5.025  49.653 -13.459  1.00  0.00    -0.397 OA
HETATM   32  H41 UNL     1       5.453  50.212 -12.785  1.00  0.00     0.209 HD
ENDBRANCH  30  31
ENDBRANCH  28  30
ENDBRANCH  26  27
ENDBRANCH  25  26
ENDBRANCH  23  25
ENDBRANCH  18  23
BRANCH  17  33
HETATM   33  O2  UNL     1      -2.281  51.282 -17.027  1.00  0.00    -0.395 OA
HETATM   34  H25 UNL     1      -3.125  50.804 -16.943  1.00  0.00     0.210 HD
ENDBRANCH  17  33
BRANCH  12  35
HETATM   35  O1  UNL     1      -0.696  51.608 -28.229  1.00  0.00    -0.394 OA
HETATM   36  H16 UNL     1      -1.200  52.414 -28.430  1.00  0.00     0.210 HD
ENDBRANCH  12  35
TORSDOF 8
ENDMDL
