MODEL 1
REMARK minimizedAffinity -7.83869839
REMARK CNNscore 0.568829298
REMARK CNNaffinity 6.67281961
REMARK  4 active torsions:
REMARK  status: ('A' for Active; 'I' for Inactive)
REMARK    1  A    between atoms: C4_4  and  C5_5 
REMARK    2  A    between atoms: C5_5  and  C6_6 
REMARK    3  A    between atoms: C6_6  and  C7_7 
REMARK    4  A    between atoms: C7_7  and  C9_9 
ROOT
HETATM    1  C9  UNL     1       0.372  52.240  -9.337  1.00  0.00    -0.002 C 
HETATM    2  C10 UNL     1       0.121  52.669  -7.886  1.00  0.00     0.006 C 
HETATM    3  C11 UNL     1       1.044  53.855  -7.683  1.00  0.00     0.011 C 
HETATM    4  C12 UNL     1       0.866  54.702  -8.963  1.00  0.00    -0.032 C 
HETATM    5  C13 UNL     1      -0.411  55.571  -8.743  1.00  0.00     0.016 C 
HETATM    6  C14 UNL     1       2.083  55.683  -9.212  1.00  0.00     0.004 C 
HETATM    7  C15 UNL     1       2.355  56.574  -7.978  1.00  0.00     0.007 C 
HETATM    8  C16 UNL     1       3.585  57.459  -8.118  1.00  0.00     0.007 C 
HETATM    9  C17 UNL     1       4.904  56.682  -8.275  1.00  0.00     0.010 C 
HETATM   10  C18 UNL     1       5.624  56.282  -6.940  1.00  0.00     0.018 C 
HETATM   11  C19 UNL     1       5.970  57.537  -6.109  1.00  0.00     0.023 C 
HETATM   12  C20 UNL     1       4.816  55.318  -6.058  1.00  0.00     0.023 C 
HETATM   13  C21 UNL     1       6.962  55.594  -7.269  1.00  0.00     0.135 C 
HETATM   14  O1  UNL     1       7.847  55.443  -6.422  1.00  0.00    -0.297 OA
HETATM   15  C22 UNL     1       7.183  55.114  -8.679  1.00  0.00     0.080 C 
HETATM   16  C23 UNL     1       5.902  54.491  -9.193  1.00  0.00     0.018 C 
HETATM   17  C24 UNL     1       4.764  55.502  -9.254  1.00  0.00    -0.026 A 
HETATM   18  C25 UNL     1       4.247  55.847 -10.631  1.00  0.00     0.021 A 
HETATM   19  C26 UNL     1       3.373  55.006  -9.714  1.00  0.00    -0.027 A 
HETATM   20  C27 UNL     1       3.203  53.572 -10.168  1.00  0.00     0.011 C 
HETATM   21  C28 UNL     1       1.925  53.439 -10.978  1.00  0.00     0.011 C 
HETATM   22  C29 UNL     1       0.648  53.606 -10.113  1.00  0.00    -0.032 C 
HETATM   23  C30 UNL     1      -0.484  54.001 -11.089  1.00  0.00     0.016 C 
ENDROOT
BRANCH   1  24
HETATM   24  C7  UNL     1      -0.709  51.257  -9.893  1.00  0.00    -0.014 C 
HETATM   25  C8  UNL     1      -0.062  49.974 -10.440  1.00  0.00     0.010 C 
BRANCH  24  26
HETATM   26  C6  UNL     1      -1.760  50.885  -8.809  1.00  0.00     0.008 C 
BRANCH  26  27
HETATM   27  C5  UNL     1      -3.220  51.042  -9.263  1.00  0.00     0.028 C 
BRANCH  27  28
HETATM   28  C4  UNL     1      -3.289  51.436 -10.715  1.00  0.00    -0.025 C 
HETATM   29  C2  UNL     1      -3.649  52.623 -11.243  1.00  0.00    -0.091 C 
HETATM   30  C1  UNL     1      -3.647  52.821 -12.738  1.00  0.00     0.042 C 
HETATM   31  C3  UNL     1      -4.074  53.840 -10.468  1.00  0.00     0.042 C 
ENDBRANCH  27  28
ENDBRANCH  26  27
ENDBRANCH  24  26
ENDBRANCH   1  24
TORSDOF 4
ENDMDL
MODEL 2
REMARK minimizedAffinity -7.25503254
REMARK CNNscore 0.447821528
REMARK CNNaffinity 6.53236771
REMARK  4 active torsions:
REMARK  status: ('A' for Active; 'I' for Inactive)
REMARK    1  A    between atoms: C4_4  and  C5_5 
REMARK    2  A    between atoms: C5_5  and  C6_6 
REMARK    3  A    between atoms: C6_6  and  C7_7 
REMARK    4  A    between atoms: C7_7  and  C9_9 
ROOT
HETATM    1  C9  UNL     1       0.525  51.932  -9.619  1.00  0.00    -0.002 C 
HETATM    2  C10 UNL     1       0.271  52.239  -8.138  1.00  0.00     0.006 C 
HETATM    3  C11 UNL     1       1.109  53.472  -7.864  1.00  0.00     0.011 C 
HETATM    4  C12 UNL     1       0.846  54.392  -9.078  1.00  0.00    -0.032 C 
HETATM    5  C13 UNL     1      -0.486  55.146  -8.779  1.00  0.00     0.016 C 
HETATM    6  C14 UNL     1       1.984  55.475  -9.273  1.00  0.00     0.004 C 
HETATM    7  C15 UNL     1       2.214  56.295  -7.983  1.00  0.00     0.007 C 
HETATM    8  C16 UNL     1       3.373  57.275  -8.077  1.00  0.00     0.007 C 
HETATM    9  C17 UNL     1       4.742  56.610  -8.307  1.00  0.00     0.010 C 
HETATM   10  C18 UNL     1       5.515  56.172  -7.014  1.00  0.00     0.018 C 
HETATM   11  C19 UNL     1       5.785  57.388  -6.101  1.00  0.00     0.023 C 
HETATM   12  C20 UNL     1       4.796  55.092  -6.192  1.00  0.00     0.023 C 
HETATM   13  C21 UNL     1       6.893  55.609  -7.409  1.00  0.00     0.135 C 
HETATM   14  O1  UNL     1       7.802  55.465  -6.588  1.00  0.00    -0.297 OA
HETATM   15  C22 UNL     1       7.121  55.246  -8.853  1.00  0.00     0.080 C 
HETATM   16  C23 UNL     1       5.879  54.569  -9.392  1.00  0.00     0.018 C 
HETATM   17  C24 UNL     1       4.669  55.494  -9.365  1.00  0.00    -0.026 A 
HETATM   18  C25 UNL     1       4.103  55.896 -10.707  1.00  0.00     0.021 A 
HETATM   19  C26 UNL     1       3.309  54.931  -9.840  1.00  0.00    -0.027 A 
HETATM   20  C27 UNL     1       3.235  53.523 -10.393  1.00  0.00     0.011 C 
HETATM   21  C28 UNL     1       1.955  53.353 -11.192  1.00  0.00     0.011 C 
HETATM   22  C29 UNL     1       0.686  53.365 -10.300  1.00  0.00    -0.032 C 
HETATM   23  C30 UNL     1      -0.490  53.743 -11.229  1.00  0.00     0.016 C 
ENDROOT
BRANCH   1  24
HETATM   24  C7  UNL     1      -0.493  50.913 -10.228  1.00  0.00    -0.014 C 
HETATM   25  C8  UNL     1      -1.942  51.336  -9.936  1.00  0.00     0.010 C 
BRANCH  24  26
HETATM   26  C6  UNL     1      -0.298  50.754 -11.763  1.00  0.00     0.008 C 
BRANCH  26  27
HETATM   27  C5  UNL     1       1.012  50.059 -12.166  1.00  0.00     0.028 C 
BRANCH  27  28
HETATM   28  C4  UNL     1       1.681  50.795 -13.297  1.00  0.00    -0.025 C 
HETATM   29  C2  UNL     1       2.973  50.747 -13.678  1.00  0.00    -0.091 C 
HETATM   30  C1  UNL     1       3.451  51.564 -14.852  1.00  0.00     0.042 C 
HETATM   31  C3  UNL     1       4.052  49.921 -13.031  1.00  0.00     0.042 C 
ENDBRANCH  27  28
ENDBRANCH  26  27
ENDBRANCH  24  26
ENDBRANCH   1  24
TORSDOF 4
ENDMDL
MODEL 3
REMARK minimizedAffinity -7.91587973
REMARK CNNscore 0.222930104
REMARK CNNaffinity 6.31245422
REMARK  4 active torsions:
REMARK  status: ('A' for Active; 'I' for Inactive)
REMARK    1  A    between atoms: C4_4  and  C5_5 
REMARK    2  A    between atoms: C5_5  and  C6_6 
REMARK    3  A    between atoms: C6_6  and  C7_7 
REMARK    4  A    between atoms: C7_7  and  C9_9 
ROOT
HETATM    1  C9  UNL     1      -1.168  50.957 -17.792  1.00  0.00    -0.002 C 
HETATM    2  C10 UNL     1       0.253  51.320 -17.345  1.00  0.00     0.006 C 
HETATM    3  C11 UNL     1       0.218  51.176 -15.837  1.00  0.00     0.011 C 
HETATM    4  C12 UNL     1      -0.539  49.850 -15.596  1.00  0.00    -0.032 C 
HETATM    5  C13 UNL     1       0.513  48.708 -15.750  1.00  0.00     0.016 C 
HETATM    6  C14 UNL     1      -1.146  49.757 -14.137  1.00  0.00     0.004 C 
HETATM    7  C15 UNL     1      -0.067  49.996 -13.057  1.00  0.00     0.007 C 
HETATM    8  C16 UNL     1      -0.614  50.029 -11.638  1.00  0.00     0.007 C 
HETATM    9  C17 UNL     1      -1.614  51.170 -11.377  1.00  0.00     0.010 C 
HETATM   10  C18 UNL     1      -0.990  52.537 -10.927  1.00  0.00     0.018 C 
HETATM   11  C19 UNL     1      -0.193  52.366  -9.615  1.00  0.00     0.023 C 
HETATM   12  C20 UNL     1      -0.074  53.182 -11.976  1.00  0.00     0.023 C 
HETATM   13  C21 UNL     1      -2.121  53.538 -10.624  1.00  0.00     0.135 C 
HETATM   14  O1  UNL     1      -1.924  54.574  -9.984  1.00  0.00    -0.297 OA
HETATM   15  C22 UNL     1      -3.506  53.213 -11.119  1.00  0.00     0.080 C 
HETATM   16  C23 UNL     1      -3.405  52.632 -12.514  1.00  0.00     0.018 C 
HETATM   17  C24 UNL     1      -2.622  51.325 -12.531  1.00  0.00    -0.026 A 
HETATM   18  C25 UNL     1      -3.400  50.083 -12.897  1.00  0.00     0.021 A 
HETATM   19  C26 UNL     1      -2.391  50.632 -13.894  1.00  0.00    -0.027 A 
HETATM   20  C27 UNL     1      -3.013  51.216 -15.145  1.00  0.00     0.011 C 
HETATM   21  C28 UNL     1      -3.041  50.165 -16.241  1.00  0.00     0.011 C 
HETATM   22  C29 UNL     1      -1.627  49.818 -16.774  1.00  0.00    -0.032 C 
HETATM   23  C30 UNL     1      -1.742  48.420 -17.423  1.00  0.00     0.016 C 
ENDROOT
BRANCH   1  24
HETATM   24  C7  UNL     1      -1.292  50.696 -19.329  1.00  0.00    -0.014 C 
HETATM   25  C8  UNL     1      -2.586  51.305 -19.892  1.00  0.00     0.010 C 
BRANCH  24  26
HETATM   26  C6  UNL     1      -0.071  51.261 -20.108  1.00  0.00     0.008 C 
BRANCH  26  27
HETATM   27  C5  UNL     1      -0.406  52.435 -21.043  1.00  0.00     0.028 C 
BRANCH  27  28
HETATM   28  C4  UNL     1       0.253  52.254 -22.385  1.00  0.00    -0.025 C 
HETATM   29  C2  UNL     1      -0.317  52.272 -23.606  1.00  0.00    -0.091 C 
HETATM   30  C1  UNL     1       0.526  52.075 -24.841  1.00  0.00     0.042 C 
HETATM   31  C3  UNL     1      -1.778  52.482 -23.893  1.00  0.00     0.042 C 
ENDBRANCH  27  28
ENDBRANCH  26  27
ENDBRANCH  24  26
ENDBRANCH   1  24
TORSDOF 4
ENDMDL
MODEL 4
REMARK minimizedAffinity -7.27709818
REMARK CNNscore 0.210750729
REMARK CNNaffinity 5.05050516
REMARK  4 active torsions:
REMARK  status: ('A' for Active; 'I' for Inactive)
REMARK    1  A    between atoms: C4_4  and  C5_5 
REMARK    2  A    between atoms: C5_5  and  C6_6 
REMARK    3  A    between atoms: C6_6  and  C7_7 
REMARK    4  A    between atoms: C7_7  and  C9_9 
ROOT
HETATM    1  C9  UNL     1     -13.610  44.311 -26.504  1.00  0.00    -0.002 C 
HETATM    2  C10 UNL     1     -14.265  42.925 -26.550  1.00  0.00     0.006 C 
HETATM    3  C11 UNL     1     -15.706  43.180 -26.156  1.00  0.00     0.011 C 
HETATM    4  C12 UNL     1     -16.105  44.440 -26.957  1.00  0.00    -0.032 C 
HETATM    5  C13 UNL     1     -16.509  43.947 -28.382  1.00  0.00     0.016 C 
HETATM    6  C14 UNL     1     -17.352  45.185 -26.330  1.00  0.00     0.004 C 
HETATM    7  C15 UNL     1     -18.553  44.228 -26.148  1.00  0.00     0.007 C 
HETATM    8  C16 UNL     1     -19.743  44.863 -25.445  1.00  0.00     0.007 C 
HETATM    9  C17 UNL     1     -19.452  45.321 -24.005  1.00  0.00     0.010 C 
HETATM   10  C18 UNL     1     -19.658  44.239 -22.888  1.00  0.00     0.018 C 
HETATM   11  C19 UNL     1     -21.117  43.732 -22.883  1.00  0.00     0.023 C 
HETATM   12  C20 UNL     1     -18.720  43.029 -23.009  1.00  0.00     0.023 C 
HETATM   13  C21 UNL     1     -19.413  44.877 -21.508  1.00  0.00     0.135 C 
HETATM   14  O1  UNL     1     -19.784  44.339 -20.462  1.00  0.00    -0.297 OA
HETATM   15  C22 UNL     1     -18.711  46.209 -21.459  1.00  0.00     0.080 C 
HETATM   16  C23 UNL     1     -17.583  46.208 -22.469  1.00  0.00     0.018 C 
HETATM   17  C24 UNL     1     -18.096  46.042 -23.894  1.00  0.00    -0.026 A 
HETATM   18  C25 UNL     1     -17.899  47.220 -24.819  1.00  0.00     0.021 A 
HETATM   19  C26 UNL     1     -17.057  45.972 -25.039  1.00  0.00    -0.027 A 
HETATM   20  C27 UNL     1     -15.587  46.157 -24.727  1.00  0.00     0.011 C 
HETATM   21  C28 UNL     1     -14.833  46.499 -26.000  1.00  0.00     0.011 C 
HETATM   22  C29 UNL     1     -14.756  45.308 -26.990  1.00  0.00    -0.032 C 
HETATM   23  C30 UNL     1     -14.491  45.922 -28.383  1.00  0.00     0.016 C 
ENDROOT
BRANCH   1  24
HETATM   24  C7  UNL     1     -12.212  44.364 -27.204  1.00  0.00    -0.014 C 
HETATM   25  C8  UNL     1     -12.142  43.374 -28.378  1.00  0.00     0.010 C 
BRANCH  24  26
HETATM   26  C6  UNL     1     -11.878  45.795 -27.712  1.00  0.00     0.008 C 
BRANCH  26  27
HETATM   27  C5  UNL     1     -11.230  45.836 -29.105  1.00  0.00     0.028 C 
BRANCH  27  28
HETATM   28  C4  UNL     1     -10.469  47.121 -29.302  1.00  0.00    -0.025 C 
HETATM   29  C2  UNL     1     -10.000  47.647 -30.451  1.00  0.00    -0.091 C 
HETATM   30  C1  UNL     1      -9.259  48.961 -30.438  1.00  0.00     0.042 C 
HETATM   31  C3  UNL     1     -10.142  47.042 -31.820  1.00  0.00     0.042 C 
ENDBRANCH  27  28
ENDBRANCH  26  27
ENDBRANCH  24  26
ENDBRANCH   1  24
TORSDOF 4
ENDMDL
MODEL 5
REMARK minimizedAffinity -8.22848701
REMARK CNNscore 0.205762431
REMARK CNNaffinity 6.38184881
REMARK  4 active torsions:
REMARK  status: ('A' for Active; 'I' for Inactive)
REMARK    1  A    between atoms: C4_4  and  C5_5 
REMARK    2  A    between atoms: C5_5  and  C6_6 
REMARK    3  A    between atoms: C6_6  and  C7_7 
REMARK    4  A    between atoms: C7_7  and  C9_9 
ROOT
HETATM    1  C9  UNL     1      -2.240  50.448 -23.861  1.00  0.00    -0.002 C 
HETATM    2  C10 UNL     1      -2.871  49.270 -24.613  1.00  0.00     0.006 C 
HETATM    3  C11 UNL     1      -3.734  48.583 -23.573  1.00  0.00     0.011 C 
HETATM    4  C12 UNL     1      -4.459  49.741 -22.851  1.00  0.00    -0.032 C 
HETATM    5  C13 UNL     1      -5.693  50.106 -23.734  1.00  0.00     0.016 C 
HETATM    6  C14 UNL     1      -4.992  49.322 -21.421  1.00  0.00     0.004 C 
HETATM    7  C15 UNL     1      -5.880  48.058 -21.494  1.00  0.00     0.007 C 
HETATM    8  C16 UNL     1      -6.329  47.544 -20.135  1.00  0.00     0.007 C 
HETATM    9  C17 UNL     1      -5.176  47.098 -19.219  1.00  0.00     0.010 C 
HETATM   10  C18 UNL     1      -4.714  45.607 -19.378  1.00  0.00     0.018 C 
HETATM   11  C19 UNL     1      -5.883  44.640 -19.086  1.00  0.00     0.023 C 
HETATM   12  C20 UNL     1      -4.138  45.275 -20.762  1.00  0.00     0.023 C 
HETATM   13  C21 UNL     1      -3.622  45.298 -18.337  1.00  0.00     0.135 C 
HETATM   14  O1  UNL     1      -3.297  44.143 -18.052  1.00  0.00    -0.297 OA
HETATM   15  C22 UNL     1      -2.955  46.458 -17.644  1.00  0.00     0.080 C 
HETATM   16  C23 UNL     1      -2.703  47.555 -18.657  1.00  0.00     0.018 C 
HETATM   17  C24 UNL     1      -4.001  48.092 -19.248  1.00  0.00    -0.026 A 
HETATM   18  C25 UNL     1      -4.344  49.526 -18.919  1.00  0.00     0.021 A 
HETATM   19  C26 UNL     1      -3.907  49.188 -20.336  1.00  0.00    -0.027 A 
HETATM   20  C27 UNL     1      -2.554  49.751 -20.716  1.00  0.00     0.011 C 
HETATM   21  C28 UNL     1      -2.734  51.078 -21.433  1.00  0.00     0.011 C 
HETATM   22  C29 UNL     1      -3.370  50.918 -22.838  1.00  0.00    -0.032 C 
HETATM   23  C30 UNL     1      -3.988  52.290 -23.189  1.00  0.00     0.016 C 
ENDROOT
BRANCH   1  24
HETATM   24  C7  UNL     1      -1.581  51.508 -24.803  1.00  0.00    -0.014 C 
HETATM   25  C8  UNL     1      -2.637  52.208 -25.673  1.00  0.00     0.010 C 
BRANCH  24  26
HETATM   26  C6  UNL     1      -0.782  52.573 -23.999  1.00  0.00     0.008 C 
BRANCH  26  27
HETATM   27  C5  UNL     1       0.523  53.027 -24.673  1.00  0.00     0.028 C 
BRANCH  27  28
HETATM   28  C4  UNL     1       0.484  52.750 -26.153  1.00  0.00    -0.025 C 
HETATM   29  C2  UNL     1       1.322  51.987 -26.883  1.00  0.00    -0.091 C 
HETATM   30  C1  UNL     1       1.109  51.829 -28.367  1.00  0.00     0.042 C 
HETATM   31  C3  UNL     1       2.510  51.230 -26.355  1.00  0.00     0.042 C 
ENDBRANCH  27  28
ENDBRANCH  26  27
ENDBRANCH  24  26
ENDBRANCH   1  24
TORSDOF 4
ENDMDL
MODEL 6
REMARK minimizedAffinity -7.23440552
REMARK CNNscore 0.198448181
REMARK CNNaffinity 5.55315399
REMARK  4 active torsions:
REMARK  status: ('A' for Active; 'I' for Inactive)
REMARK    1  A    between atoms: C4_4  and  C5_5 
REMARK    2  A    between atoms: C5_5  and  C6_6 
REMARK    3  A    between atoms: C6_6  and  C7_7 
REMARK    4  A    between atoms: C7_7  and  C9_9 
ROOT
HETATM    1  C9  UNL     1      -7.034  47.268 -28.363  1.00  0.00    -0.002 C 
HETATM    2  C10 UNL     1      -6.384  47.549 -29.722  1.00  0.00     0.006 C 
HETATM    3  C11 UNL     1      -7.393  47.038 -30.731  1.00  0.00     0.011 C 
HETATM    4  C12 UNL     1      -8.752  47.556 -30.209  1.00  0.00    -0.032 C 
HETATM    5  C13 UNL     1      -8.887  49.027 -30.714  1.00  0.00     0.016 C 
HETATM    6  C14 UNL     1      -9.975  46.732 -30.784  1.00  0.00     0.004 C 
HETATM    7  C15 UNL     1      -9.947  46.677 -32.328  1.00  0.00     0.007 C 
HETATM    8  C16 UNL     1     -11.035  45.804 -32.932  1.00  0.00     0.007 C 
HETATM    9  C17 UNL     1     -10.941  44.319 -32.538  1.00  0.00     0.010 C 
HETATM   10  C18 UNL     1     -10.032  43.425 -33.453  1.00  0.00     0.018 C 
HETATM   11  C19 UNL     1     -10.540  43.443 -34.911  1.00  0.00     0.023 C 
HETATM   12  C20 UNL     1      -8.550  43.828 -33.446  1.00  0.00     0.023 C 
HETATM   13  C21 UNL     1     -10.114  41.962 -32.979  1.00  0.00     0.135 C 
HETATM   14  O1  UNL     1      -9.737  41.023 -33.684  1.00  0.00    -0.297 OA
HETATM   15  C22 UNL     1     -10.694  41.691 -31.616  1.00  0.00     0.080 C 
HETATM   16  C23 UNL     1     -10.186  42.739 -30.648  1.00  0.00     0.018 C 
HETATM   17  C24 UNL     1     -10.637  44.140 -31.039  1.00  0.00    -0.026 A 
HETATM   18  C25 UNL     1     -11.591  44.827 -30.089  1.00  0.00     0.021 A 
HETATM   19  C26 UNL     1     -10.157  45.329 -30.173  1.00  0.00    -0.027 A 
HETATM   20  C27 UNL     1      -9.336  45.064 -28.929  1.00  0.00     0.011 C 
HETATM   21  C28 UNL     1      -9.370  46.283 -28.024  1.00  0.00     0.011 C 
HETATM   22  C29 UNL     1      -8.594  47.489 -28.614  1.00  0.00    -0.032 C 
HETATM   23  C30 UNL     1      -9.159  48.748 -27.918  1.00  0.00     0.016 C 
ENDROOT
BRANCH   1  24
HETATM   24  C7  UNL     1      -6.344  48.015 -27.175  1.00  0.00    -0.014 C 
HETATM   25  C8  UNL     1      -6.679  47.347 -25.831  1.00  0.00     0.010 C 
BRANCH  24  26
HETATM   26  C6  UNL     1      -4.801  48.076 -27.353  1.00  0.00     0.008 C 
BRANCH  26  27
HETATM   27  C5  UNL     1      -4.023  48.325 -26.050  1.00  0.00     0.028 C 
BRANCH  27  28
HETATM   28  C4  UNL     1      -2.677  48.934 -26.340  1.00  0.00    -0.025 C 
HETATM   29  C2  UNL     1      -2.336  50.237 -26.368  1.00  0.00    -0.091 C 
HETATM   30  C1  UNL     1      -0.918  50.647 -26.677  1.00  0.00     0.042 C 
HETATM   31  C3  UNL     1      -3.261  51.395 -26.109  1.00  0.00     0.042 C 
ENDBRANCH  27  28
ENDBRANCH  26  27
ENDBRANCH  24  26
ENDBRANCH   1  24
TORSDOF 4
ENDMDL
MODEL 7
REMARK minimizedAffinity -8.35138321
REMARK CNNscore 0.193827599
REMARK CNNaffinity 5.96545792
REMARK  4 active torsions:
REMARK  status: ('A' for Active; 'I' for Inactive)
REMARK    1  A    between atoms: C4_4  and  C5_5 
REMARK    2  A    between atoms: C5_5  and  C6_6 
REMARK    3  A    between atoms: C6_6  and  C7_7 
REMARK    4  A    between atoms: C7_7  and  C9_9 
ROOT
HETATM    1  C9  UNL     1      -3.501  48.501 -24.080  1.00  0.00    -0.002 C 
HETATM    2  C10 UNL     1      -4.909  49.094 -23.961  1.00  0.00     0.006 C 
HETATM    3  C11 UNL     1      -5.246  48.961 -22.488  1.00  0.00     0.011 C 
HETATM    4  C12 UNL     1      -3.963  49.420 -21.760  1.00  0.00    -0.032 C 
HETATM    5  C13 UNL     1      -4.021  50.979 -21.704  1.00  0.00     0.016 C 
HETATM    6  C14 UNL     1      -3.888  48.884 -20.272  1.00  0.00     0.004 C 
HETATM    7  C15 UNL     1      -5.156  49.256 -19.470  1.00  0.00     0.007 C 
HETATM    8  C16 UNL     1      -5.189  48.670 -18.067  1.00  0.00     0.007 C 
HETATM    9  C17 UNL     1      -5.201  47.131 -18.029  1.00  0.00     0.010 C 
HETATM   10  C18 UNL     1      -6.615  46.456 -18.099  1.00  0.00     0.018 C 
HETATM   11  C19 UNL     1      -7.498  46.915 -16.917  1.00  0.00     0.023 C 
HETATM   12  C20 UNL     1      -7.371  46.725 -19.408  1.00  0.00     0.023 C 
HETATM   13  C21 UNL     1      -6.459  44.930 -17.961  1.00  0.00     0.135 C 
HETATM   14  O1  UNL     1      -7.414  44.196 -17.695  1.00  0.00    -0.297 OA
HETATM   15  C22 UNL     1      -5.085  44.340 -18.143  1.00  0.00     0.080 C 
HETATM   16  C23 UNL     1      -4.400  45.038 -19.298  1.00  0.00     0.018 C 
HETATM   17  C24 UNL     1      -4.200  46.524 -19.028  1.00  0.00    -0.026 A 
HETATM   18  C25 UNL     1      -2.770  46.993 -18.894  1.00  0.00     0.021 A 
HETATM   19  C26 UNL     1      -3.554  47.386 -20.137  1.00  0.00    -0.027 A 
HETATM   20  C27 UNL     1      -3.066  46.725 -21.409  1.00  0.00     0.011 C 
HETATM   21  C28 UNL     1      -2.093  47.646 -22.124  1.00  0.00     0.011 C 
HETATM   22  C29 UNL     1      -2.782  48.904 -22.715  1.00  0.00    -0.032 C 
HETATM   23  C30 UNL     1      -1.670  49.962 -22.892  1.00  0.00     0.016 C 
ENDROOT
BRANCH   1  24
HETATM   24  C7  UNL     1      -2.796  48.835 -25.436  1.00  0.00    -0.014 C 
HETATM   25  C8  UNL     1      -3.614  48.314 -26.629  1.00  0.00     0.010 C 
BRANCH  24  26
HETATM   26  C6  UNL     1      -2.558  50.363 -25.598  1.00  0.00     0.008 C 
BRANCH  26  27
HETATM   27  C5  UNL     1      -1.634  50.739 -26.768  1.00  0.00     0.028 C 
BRANCH  27  28
HETATM   28  C4  UNL     1      -0.195  50.768 -26.324  1.00  0.00    -0.025 C 
HETATM   29  C2  UNL     1       0.859  51.339 -26.940  1.00  0.00    -0.091 C 
HETATM   30  C1  UNL     1       2.233  51.261 -26.324  1.00  0.00     0.042 C 
HETATM   31  C3  UNL     1       0.817  52.090 -28.243  1.00  0.00     0.042 C 
ENDBRANCH  27  28
ENDBRANCH  26  27
ENDBRANCH  24  26
ENDBRANCH   1  24
TORSDOF 4
ENDMDL
MODEL 8
REMARK minimizedAffinity -7.87735128
REMARK CNNscore 0.188871339
REMARK CNNaffinity 6.47590637
REMARK  4 active torsions:
REMARK  status: ('A' for Active; 'I' for Inactive)
REMARK    1  A    between atoms: C4_4  and  C5_5 
REMARK    2  A    between atoms: C5_5  and  C6_6 
REMARK    3  A    between atoms: C6_6  and  C7_7 
REMARK    4  A    between atoms: C7_7  and  C9_9 
ROOT
HETATM    1  C9  UNL     1      -0.402  50.194 -19.829  1.00  0.00    -0.002 C 
HETATM    2  C10 UNL     1      -0.936  48.813 -19.433  1.00  0.00     0.006 C 
HETATM    3  C11 UNL     1      -0.919  48.827 -17.917  1.00  0.00     0.011 C 
HETATM    4  C12 UNL     1      -1.501  50.209 -17.540  1.00  0.00    -0.032 C 
HETATM    5  C13 UNL     1      -3.054  50.062 -17.591  1.00  0.00     0.016 C 
HETATM    6  C14 UNL     1      -1.102  50.652 -16.074  1.00  0.00     0.004 C 
HETATM    7  C15 UNL     1      -1.484  49.576 -15.032  1.00  0.00     0.007 C 
HETATM    8  C16 UNL     1      -1.024  49.899 -13.619  1.00  0.00     0.007 C 
HETATM    9  C17 UNL     1       0.504  49.998 -13.462  1.00  0.00     0.010 C 
HETATM   10  C18 UNL     1       1.248  48.652 -13.154  1.00  0.00     0.018 C 
HETATM   11  C19 UNL     1       0.729  48.031 -11.838  1.00  0.00     0.023 C 
HETATM   12  C20 UNL     1       1.133  47.604 -14.270  1.00  0.00     0.023 C 
HETATM   13  C21 UNL     1       2.747  48.936 -12.941  1.00  0.00     0.135 C 
HETATM   14  O1  UNL     1       3.499  48.117 -12.407  1.00  0.00    -0.297 OA
HETATM   15  C22 UNL     1       3.286  50.269 -13.389  1.00  0.00     0.080 C 
HETATM   16  C23 UNL     1       2.662  50.628 -14.721  1.00  0.00     0.018 C 
HETATM   17  C24 UNL     1       1.150  50.786 -14.616  1.00  0.00    -0.026 A 
HETATM   18  C25 UNL     1       0.604  52.175 -14.852  1.00  0.00     0.021 A 
HETATM   19  C26 UNL     1       0.360  51.106 -15.907  1.00  0.00    -0.027 A 
HETATM   20  C27 UNL     1       1.107  51.337 -17.203  1.00  0.00     0.011 C 
HETATM   21  C28 UNL     1       0.208  52.061 -18.191  1.00  0.00     0.011 C 
HETATM   22  C29 UNL     1      -0.958  51.174 -18.700  1.00  0.00    -0.032 C 
HETATM   23  C30 UNL     1      -2.047  52.146 -19.208  1.00  0.00     0.016 C 
ENDROOT
BRANCH   1  24
HETATM   24  C7  UNL     1      -0.648  50.551 -21.331  1.00  0.00    -0.014 C 
HETATM   25  C8  UNL     1      -2.143  50.473 -21.682  1.00  0.00     0.010 C 
BRANCH  24  26
HETATM   26  C6  UNL     1      -0.107  51.966 -21.682  1.00  0.00     0.008 C 
BRANCH  26  27
HETATM   27  C5  UNL     1      -0.547  52.488 -23.059  1.00  0.00     0.028 C 
BRANCH  27  28
HETATM   28  C4  UNL     1       0.558  52.330 -24.069  1.00  0.00    -0.025 C 
HETATM   29  C2  UNL     1       0.525  51.682 -25.251  1.00  0.00    -0.091 C 
HETATM   30  C1  UNL     1       1.749  51.641 -26.131  1.00  0.00     0.042 C 
HETATM   31  C3  UNL     1      -0.662  50.957 -25.825  1.00  0.00     0.042 C 
ENDBRANCH  27  28
ENDBRANCH  26  27
ENDBRANCH  24  26
ENDBRANCH   1  24
TORSDOF 4
ENDMDL
MODEL 9
REMARK minimizedAffinity -7.79559135
REMARK CNNscore 0.166724056
REMARK CNNaffinity 5.98125458
REMARK  4 active torsions:
REMARK  status: ('A' for Active; 'I' for Inactive)
REMARK    1  A    between atoms: C4_4  and  C5_5 
REMARK    2  A    between atoms: C5_5  and  C6_6 
REMARK    3  A    between atoms: C6_6  and  C7_7 
REMARK    4  A    between atoms: C7_7  and  C9_9 
ROOT
HETATM    1  C9  UNL     1      -3.927  50.737 -22.894  1.00  0.00    -0.002 C 
HETATM    2  C10 UNL     1      -4.038  51.529 -21.586  1.00  0.00     0.006 C 
HETATM    3  C11 UNL     1      -4.752  50.585 -20.638  1.00  0.00     0.011 C 
HETATM    4  C12 UNL     1      -4.060  49.222 -20.862  1.00  0.00    -0.032 C 
HETATM    5  C13 UNL     1      -2.768  49.234 -19.986  1.00  0.00     0.016 C 
HETATM    6  C14 UNL     1      -4.955  48.005 -20.389  1.00  0.00     0.004 C 
HETATM    7  C15 UNL     1      -5.411  48.173 -18.921  1.00  0.00     0.007 C 
HETATM    8  C16 UNL     1      -6.367  47.088 -18.448  1.00  0.00     0.007 C 
HETATM    9  C17 UNL     1      -7.700  47.045 -19.216  1.00  0.00     0.010 C 
HETATM   10  C18 UNL     1      -8.838  47.973 -18.662  1.00  0.00     0.018 C 
HETATM   11  C19 UNL     1      -9.180  47.604 -17.202  1.00  0.00     0.023 C 
HETATM   12  C20 UNL     1      -8.508  49.471 -18.725  1.00  0.00     0.023 C 
HETATM   13  C21 UNL     1     -10.122  47.748 -19.482  1.00  0.00     0.135 C 
HETATM   14  O1  UNL     1     -11.227  48.125 -19.085  1.00  0.00    -0.297 OA
HETATM   15  C22 UNL     1     -10.004  47.027 -20.799  1.00  0.00     0.080 C 
HETATM   16  C23 UNL     1      -8.762  47.513 -21.516  1.00  0.00     0.018 C 
HETATM   17  C24 UNL     1      -7.493  47.195 -20.734  1.00  0.00    -0.026 A 
HETATM   18  C25 UNL     1      -6.544  46.206 -21.370  1.00  0.00     0.021 A 
HETATM   19  C26 UNL     1      -6.141  47.672 -21.314  1.00  0.00    -0.027 A 
HETATM   20  C27 UNL     1      -6.106  48.354 -22.665  1.00  0.00     0.011 C 
HETATM   21  C28 UNL     1      -4.692  48.319 -23.220  1.00  0.00     0.011 C 
HETATM   22  C29 UNL     1      -3.715  49.227 -22.428  1.00  0.00    -0.032 C 
HETATM   23  C30 UNL     1      -2.296  48.685 -22.715  1.00  0.00     0.016 C 
ENDROOT
BRANCH   1  24
HETATM   24  C7  UNL     1      -2.925  51.363 -23.919  1.00  0.00    -0.014 C 
HETATM   25  C8  UNL     1      -3.667  51.960 -25.125  1.00  0.00     0.010 C 
BRANCH  24  26
HETATM   26  C6  UNL     1      -2.039  52.458 -23.261  1.00  0.00     0.008 C 
BRANCH  26  27
HETATM   27  C5  UNL     1      -0.622  51.989 -22.893  1.00  0.00     0.028 C 
BRANCH  27  28
HETATM   28  C4  UNL     1      -0.409  52.052 -21.403  1.00  0.00    -0.025 C 
HETATM   29  C2  UNL     1       0.396  52.878 -20.708  1.00  0.00    -0.091 C 
HETATM   30  C1  UNL     1       0.466  52.785 -19.204  1.00  0.00     0.042 C 
HETATM   31  C3  UNL     1       1.281  53.945 -21.293  1.00  0.00     0.042 C 
ENDBRANCH  27  28
ENDBRANCH  26  27
ENDBRANCH  24  26
ENDBRANCH   1  24
TORSDOF 4
ENDMDL
