MODEL 1
REMARK minimizedAffinity -6.90150642
REMARK CNNscore 0.531028926
REMARK CNNaffinity 6.73872566
REMARK  12 active torsions:
REMARK  status: ('A' for Active; 'I' for Inactive)
REMARK    1  A    between atoms: C2_2  and  C34_40 
REMARK    2  A    between atoms: C3_3  and  C4_4 
REMARK    3  A    between atoms: C4_4  and  O1_5 
REMARK    4  A    between atoms: C4_4  and  C5_6 
REMARK    5  A    between atoms: C5_6  and  C6_7 
REMARK    6  A    between atoms: C6_7  and  C8_9 
REMARK    7  A    between atoms: C10_11  and  O2_12 
REMARK    8  A    between atoms: C11_13  and  C12_14 
REMARK    9  A    between atoms: C12_14  and  C13_15 
REMARK   10  A    between atoms: C13_15  and  O3_16 
REMARK   11  A    between atoms: C33_38  and  O6_39 
REMARK   12  A    between atoms: C34_40  and  O8_42 
ROOT
HETATM    1  C8  UNL     1      -2.431  15.798   4.461  1.00  0.00     0.002 C 
HETATM    2  C9  UNL     1      -3.233  15.945   3.127  1.00  0.00     0.038 C 
HETATM    3  C10 UNL     1      -2.235  15.691   1.978  1.00  0.00     0.132 C 
HETATM    4  C11 UNL     1      -0.998  15.041   2.656  1.00  0.00     0.022 C 
HETATM    5  C14 UNL     1       0.364  15.117   1.942  1.00  0.00    -0.029 C 
HETATM    6  C15 UNL     1       1.523  15.180   2.654  1.00  0.00     0.003 C 
HETATM    7  C16 UNL     1       1.435  15.107   4.176  1.00  0.00     0.157 C 
HETATM    8  O4  UNL     1       2.418  14.811   4.854  1.00  0.00    -0.293 OA
HETATM    9  C17 UNL     1       0.133  15.425   4.890  1.00  0.00     0.094 C 
HETATM   10  C18 UNL     1      -0.948  15.970   3.956  1.00  0.00    -0.015 C 
HETATM   11  C19 UNL     1      -0.728  17.542   3.764  1.00  0.00     0.011 C 
HETATM   12  C20 UNL     1       0.371  18.107   2.857  1.00  0.00     0.001 C 
HETATM   13  C21 UNL     1       1.744  18.247   3.517  1.00  0.00     0.000 C 
HETATM   14  C22 UNL     1       2.889  18.030   2.528  1.00  0.00     0.001 C 
HETATM   15  C23 UNL     1       3.606  16.668   2.630  1.00  0.00     0.015 C 
HETATM   16  C24 UNL     1       2.935  15.373   2.030  1.00  0.00    -0.004 C 
HETATM   17  C25 UNL     1       3.828  14.128   2.332  1.00  0.00     0.022 C 
HETATM   18  C26 UNL     1       5.284  14.290   1.892  1.00  0.00     0.080 C 
HETATM   19  C27 UNL     1       5.434  15.129   0.647  1.00  0.00     0.135 C 
HETATM   20  O5  UNL     1       6.505  15.680   0.399  1.00  0.00    -0.297 OA
HETATM   21  C28 UNL     1       4.244  15.171  -0.313  1.00  0.00     0.018 C 
HETATM   22  C29 UNL     1       4.475  16.262  -1.381  1.00  0.00     0.023 C 
HETATM   23  C30 UNL     1       4.283  13.808  -1.040  1.00  0.00     0.023 C 
HETATM   24  C31 UNL     1       2.887  15.501   0.444  1.00  0.00     0.017 C 
HETATM   25  C32 UNL     1       1.726  14.686  -0.140  1.00  0.00     0.043 C 
HETATM   26  C33 UNL     1       0.379  15.096   0.428  1.00  0.00     0.149 C 
ENDROOT
BRANCH   1  27
HETATM   27  C6  UNL     1      -2.999  16.675   5.624  1.00  0.00    -0.011 C 
HETATM   28  C7  UNL     1      -2.899  15.952   6.973  1.00  0.00     0.010 C 
BRANCH  27  29
HETATM   29  C5  UNL     1      -4.469  17.086   5.286  1.00  0.00     0.040 C 
BRANCH  29  30
HETATM   30  C4  UNL     1      -4.909  18.480   5.773  1.00  0.00     0.142 C 
BRANCH  30  31
HETATM   31  C3  UNL     1      -5.372  18.485   7.205  1.00  0.00     0.018 C 
HETATM   32  C2  UNL     1      -6.595  18.191   7.693  1.00  0.00     0.010 C 
HETATM   33  C1  UNL     1      -7.785  17.749   6.889  1.00  0.00     0.055 C 
BRANCH  32  34
HETATM   34  C34 UNL     1      -6.878  18.302   9.149  1.00  0.00     0.171 C 
HETATM   35  O7  UNL     1      -7.971  18.190   9.668  1.00  0.00    -0.646 OA
BRANCH  34  36
HETATM   36  O8  UNL     1      -5.785  18.551   9.892  1.00  0.00    -0.773 OA
HETATM   37  H50 UNL     1      -6.139  18.606  10.803  1.00  0.00     0.167 HD
ENDBRANCH  34  36
ENDBRANCH  32  34
ENDBRANCH  30  31
BRANCH  30  38
HETATM   38  O1  UNL     1      -3.823  19.388   5.636  1.00  0.00    -0.392 OA
HETATM   39  H6  UNL     1      -4.048  20.201   6.120  1.00  0.00     0.210 HD
ENDBRANCH  30  38
ENDBRANCH  29  30
ENDBRANCH  27  29
ENDBRANCH   1  27
BRANCH   3  40
HETATM   40  O2  UNL     1      -2.811  14.920   0.932  1.00  0.00    -0.394 OA
HETATM   41  H17 UNL     1      -3.692  15.299   0.734  1.00  0.00     0.210 HD
ENDBRANCH   3  40
BRANCH   4  42
HETATM   42  C12 UNL     1      -1.167  13.467   2.933  1.00  0.00     0.043 C 
BRANCH  42  43
HETATM   43  C13 UNL     1      -0.036  12.452   2.718  1.00  0.00     0.165 C 
BRANCH  43  44
HETATM   44  O3  UNL     1      -0.505  11.170   2.340  1.00  0.00    -0.401 OA
HETATM   45  H22 UNL     1      -1.306  10.986   2.867  1.00  0.00     0.209 HD
ENDBRANCH  43  44
ENDBRANCH  42  43
ENDBRANCH   4  42
BRANCH  26  46
HETATM   46  O6  UNL     1      -0.526  14.136  -0.096  1.00  0.00    -0.391 OA
HETATM   47  H49 UNL     1      -1.432  14.450   0.092  1.00  0.00     0.210 HD
ENDBRANCH  26  46
TORSDOF 12
ENDMDL
MODEL 2
REMARK minimizedAffinity -8.42361259
REMARK CNNscore 0.49278295
REMARK CNNaffinity 6.89735794
REMARK  12 active torsions:
REMARK  status: ('A' for Active; 'I' for Inactive)
REMARK    1  A    between atoms: C2_2  and  C34_40 
REMARK    2  A    between atoms: C3_3  and  C4_4 
REMARK    3  A    between atoms: C4_4  and  O1_5 
REMARK    4  A    between atoms: C4_4  and  C5_6 
REMARK    5  A    between atoms: C5_6  and  C6_7 
REMARK    6  A    between atoms: C6_7  and  C8_9 
REMARK    7  A    between atoms: C10_11  and  O2_12 
REMARK    8  A    between atoms: C11_13  and  C12_14 
REMARK    9  A    between atoms: C12_14  and  C13_15 
REMARK   10  A    between atoms: C13_15  and  O3_16 
REMARK   11  A    between atoms: C33_38  and  O6_39 
REMARK   12  A    between atoms: C34_40  and  O8_42 
ROOT
HETATM    1  C8  UNL     1      -8.230   6.398  14.551  1.00  0.00     0.002 C 
HETATM    2  C9  UNL     1      -8.658   5.992  13.103  1.00  0.00     0.038 C 
HETATM    3  C10 UNL     1      -7.384   5.502  12.384  1.00  0.00     0.132 C 
HETATM    4  C11 UNL     1      -6.345   5.276  13.516  1.00  0.00     0.022 C 
HETATM    5  C14 UNL     1      -4.847   5.285  13.159  1.00  0.00    -0.029 C 
HETATM    6  C15 UNL     1      -3.920   5.727  14.053  1.00  0.00     0.003 C 
HETATM    7  C16 UNL     1      -4.403   6.151  15.437  1.00  0.00     0.157 C 
HETATM    8  O4  UNL     1      -3.621   6.224  16.385  1.00  0.00    -0.293 OA
HETATM    9  C17 UNL     1      -5.858   6.519  15.669  1.00  0.00     0.094 C 
HETATM   10  C18 UNL     1      -6.675   6.581  14.378  1.00  0.00    -0.015 C 
HETATM   11  C19 UNL     1      -6.473   8.015  13.701  1.00  0.00     0.011 C 
HETATM   12  C20 UNL     1      -5.197   8.384  12.937  1.00  0.00     0.001 C 
HETATM   13  C21 UNL     1      -4.051   8.908  13.805  1.00  0.00     0.000 C 
HETATM   14  C22 UNL     1      -2.680   8.525  13.252  1.00  0.00     0.001 C 
HETATM   15  C23 UNL     1      -1.963   7.377  13.992  1.00  0.00     0.015 C 
HETATM   16  C24 UNL     1      -2.402   5.882  13.748  1.00  0.00    -0.004 C 
HETATM   17  C25 UNL     1      -1.572   4.932  14.669  1.00  0.00     0.022 C 
HETATM   18  C26 UNL     1      -0.060   5.123  14.553  1.00  0.00     0.080 C 
HETATM   19  C27 UNL     1       0.380   5.515  13.163  1.00  0.00     0.135 C 
HETATM   20  O5  UNL     1       1.457   6.085  12.995  1.00  0.00    -0.297 OA
HETATM   21  C28 UNL     1      -0.516   5.085  12.001  1.00  0.00     0.018 C 
HETATM   22  C29 UNL     1      -0.055   5.781  10.703  1.00  0.00     0.023 C 
HETATM   23  C30 UNL     1      -0.234   3.575  11.832  1.00  0.00     0.023 C 
HETATM   24  C31 UNL     1      -2.036   5.470  12.254  1.00  0.00     0.017 C 
HETATM   25  C32 UNL     1      -2.970   4.367  11.742  1.00  0.00     0.043 C 
HETATM   26  C33 UNL     1      -4.434   4.766  11.799  1.00  0.00     0.149 C 
ENDROOT
BRANCH   1  27
HETATM   27  C6  UNL     1      -9.118   7.530  15.163  1.00  0.00    -0.011 C 
HETATM   28  C7  UNL     1      -8.948   7.616  16.685  1.00  0.00     0.010 C 
BRANCH  27  29
HETATM   29  C5  UNL     1     -10.607   7.296  14.750  1.00  0.00     0.040 C 
BRANCH  29  30
HETATM   30  C4  UNL     1     -11.554   8.499  14.922  1.00  0.00     0.142 C 
BRANCH  30  31
HETATM   31  C3  UNL     1     -12.688   8.503  13.932  1.00  0.00     0.018 C 
HETATM   32  C2  UNL     1     -13.564   7.514  13.656  1.00  0.00     0.010 C 
HETATM   33  C1  UNL     1     -13.617   6.169  14.321  1.00  0.00     0.055 C 
BRANCH  32  34
HETATM   34  C34 UNL     1     -14.595   7.689  12.598  1.00  0.00     0.171 C 
HETATM   35  O7  UNL     1     -15.415   6.856  12.265  1.00  0.00    -0.646 OA
BRANCH  34  36
HETATM   36  O8  UNL     1     -14.556   8.893  12.002  1.00  0.00    -0.773 OA
HETATM   37  H50 UNL     1     -15.274   8.841  11.339  1.00  0.00     0.167 HD
ENDBRANCH  34  36
ENDBRANCH  32  34
ENDBRANCH  30  31
BRANCH  30  38
HETATM   38  O1  UNL     1     -12.091   8.489  16.238  1.00  0.00    -0.392 OA
HETATM   39  H6  UNL     1     -12.823   9.128  16.270  1.00  0.00     0.210 HD
ENDBRANCH  30  38
ENDBRANCH  29  30
ENDBRANCH  27  29
ENDBRANCH   1  27
BRANCH   3  40
HETATM   40  O2  UNL     1      -7.635   4.362  11.573  1.00  0.00    -0.394 OA
HETATM   41  H17 UNL     1      -8.446   4.538  11.055  1.00  0.00     0.210 HD
ENDBRANCH   3  40
BRANCH   4  42
HETATM   42  C12 UNL     1      -6.520   3.875  14.282  1.00  0.00     0.043 C 
BRANCH  42  43
HETATM   43  C13 UNL     1      -7.597   2.846  13.911  1.00  0.00     0.165 C 
BRANCH  43  44
HETATM   44  O3  UNL     1      -7.219   2.011  12.831  1.00  0.00    -0.401 OA
HETATM   45  H22 UNL     1      -6.756   2.570  12.178  1.00  0.00     0.209 HD
ENDBRANCH  43  44
ENDBRANCH  42  43
ENDBRANCH   4  42
BRANCH  26  46
HETATM   46  O6  UNL     1      -5.132   3.580  11.450  1.00  0.00    -0.391 OA
HETATM   47  H49 UNL     1      -6.067   3.820  11.299  1.00  0.00     0.210 HD
ENDBRANCH  26  46
TORSDOF 12
ENDMDL
MODEL 3
REMARK minimizedAffinity -7.00882483
REMARK CNNscore 0.424183249
REMARK CNNaffinity 5.83251238
REMARK  12 active torsions:
REMARK  status: ('A' for Active; 'I' for Inactive)
REMARK    1  A    between atoms: C2_2  and  C34_40 
REMARK    2  A    between atoms: C3_3  and  C4_4 
REMARK    3  A    between atoms: C4_4  and  O1_5 
REMARK    4  A    between atoms: C4_4  and  C5_6 
REMARK    5  A    between atoms: C5_6  and  C6_7 
REMARK    6  A    between atoms: C6_7  and  C8_9 
REMARK    7  A    between atoms: C10_11  and  O2_12 
REMARK    8  A    between atoms: C11_13  and  C12_14 
REMARK    9  A    between atoms: C12_14  and  C13_15 
REMARK   10  A    between atoms: C13_15  and  O3_16 
REMARK   11  A    between atoms: C33_38  and  O6_39 
REMARK   12  A    between atoms: C34_40  and  O8_42 
ROOT
HETATM    1  C8  UNL     1     -15.868  -3.439  14.307  1.00  0.00     0.002 C 
HETATM    2  C9  UNL     1     -16.950  -3.675  13.203  1.00  0.00     0.038 C 
HETATM    3  C10 UNL     1     -17.436  -2.282  12.752  1.00  0.00     0.132 C 
HETATM    4  C11 UNL     1     -16.382  -1.287  13.311  1.00  0.00     0.022 C 
HETATM    5  C14 UNL     1     -16.783   0.186  13.506  1.00  0.00    -0.029 C 
HETATM    6  C15 UNL     1     -16.238   0.931  14.506  1.00  0.00     0.003 C 
HETATM    7  C16 UNL     1     -15.173   0.283  15.385  1.00  0.00     0.157 C 
HETATM    8  O4  UNL     1     -14.404   0.969  16.059  1.00  0.00    -0.293 OA
HETATM    9  C17 UNL     1     -15.055  -1.229  15.468  1.00  0.00     0.094 C 
HETATM   10  C18 UNL     1     -16.188  -1.960  14.748  1.00  0.00    -0.015 C 
HETATM   11  C19 UNL     1     -17.451  -2.055  15.724  1.00  0.00     0.011 C 
HETATM   12  C20 UNL     1     -18.367  -0.856  15.992  1.00  0.00     0.001 C 
HETATM   13  C21 UNL     1     -17.893   0.083  17.102  1.00  0.00     0.000 C 
HETATM   14  C22 UNL     1     -18.284   1.537  16.841  1.00  0.00     0.001 C 
HETATM   15  C23 UNL     1     -17.144   2.455  16.354  1.00  0.00     0.015 C 
HETATM   16  C24 UNL     1     -16.661   2.388  14.854  1.00  0.00    -0.004 C 
HETATM   17  C25 UNL     1     -15.455   3.359  14.646  1.00  0.00     0.022 C 
HETATM   18  C26 UNL     1     -15.726   4.791  15.109  1.00  0.00     0.080 C 
HETATM   19  C27 UNL     1     -17.164   5.209  14.920  1.00  0.00     0.135 C 
HETATM   20  O5  UNL     1     -17.630   6.133  15.585  1.00  0.00    -0.297 OA
HETATM   21  C28 UNL     1     -17.955   4.507  13.817  1.00  0.00     0.018 C 
HETATM   22  C29 UNL     1     -19.451   4.871  13.935  1.00  0.00     0.023 C 
HETATM   23  C30 UNL     1     -17.437   5.140  12.505  1.00  0.00     0.023 C 
HETATM   24  C31 UNL     1     -17.823   2.927  13.910  1.00  0.00     0.017 C 
HETATM   25  C32 UNL     1     -17.729   2.305  12.510  1.00  0.00     0.043 C 
HETATM   26  C33 UNL     1     -17.782   0.788  12.540  1.00  0.00     0.149 C 
ENDROOT
BRANCH   1  27
HETATM   27  C6  UNL     1     -15.789  -4.599  15.352  1.00  0.00    -0.011 C 
HETATM   28  C7  UNL     1     -15.297  -5.902  14.709  1.00  0.00     0.010 C 
BRANCH  27  29
HETATM   29  C5  UNL     1     -17.184  -4.771  16.036  1.00  0.00     0.040 C 
BRANCH  29  30
HETATM   30  C4  UNL     1     -17.165  -5.010  17.558  1.00  0.00     0.142 C 
BRANCH  30  31
HETATM   31  C3  UNL     1     -16.656  -6.376  17.934  1.00  0.00     0.018 C 
HETATM   32  C2  UNL     1     -17.348  -7.529  18.041  1.00  0.00     0.010 C 
HETATM   33  C1  UNL     1     -18.814  -7.710  17.769  1.00  0.00     0.055 C 
BRANCH  32  34
HETATM   34  C34 UNL     1     -16.672  -8.781  18.478  1.00  0.00     0.171 C 
HETATM   35  O7  UNL     1     -15.634  -8.842  19.107  1.00  0.00    -0.646 OA
BRANCH  34  36
HETATM   36  O8  UNL     1     -17.321  -9.899  18.110  1.00  0.00    -0.773 OA
HETATM   37  H50 UNL     1     -16.751 -10.615  18.456  1.00  0.00     0.167 HD
ENDBRANCH  34  36
ENDBRANCH  32  34
ENDBRANCH  30  31
BRANCH  30  38
HETATM   38  O1  UNL     1     -16.345  -4.026  18.177  1.00  0.00    -0.392 OA
HETATM   39  H6  UNL     1     -16.186  -4.301  19.096  1.00  0.00     0.210 HD
ENDBRANCH  30  38
ENDBRANCH  29  30
ENDBRANCH  27  29
ENDBRANCH   1  27
BRANCH   3  40
HETATM   40  O2  UNL     1     -17.627  -2.214  11.345  1.00  0.00    -0.394 OA
HETATM   41  H17 UNL     1     -18.125  -3.012  11.074  1.00  0.00     0.210 HD
ENDBRANCH   3  40
BRANCH   4  42
HETATM   42  C12 UNL     1     -15.056  -1.179  12.410  1.00  0.00     0.043 C 
BRANCH  42  43
HETATM   43  C13 UNL     1     -14.401  -2.391  11.734  1.00  0.00     0.165 C 
BRANCH  43  44
HETATM   44  O3  UNL     1     -13.134  -2.714  12.279  1.00  0.00    -0.401 OA
HETATM   45  H22 UNL     1     -12.669  -1.873  12.453  1.00  0.00     0.209 HD
ENDBRANCH  43  44
ENDBRANCH  42  43
ENDBRANCH   4  42
BRANCH  26  46
HETATM   46  O6  UNL     1     -17.517   0.405  11.199  1.00  0.00    -0.391 OA
HETATM   47  H49 UNL     1     -17.710  -0.549  11.119  1.00  0.00     0.210 HD
ENDBRANCH  26  46
TORSDOF 12
ENDMDL
MODEL 4
REMARK minimizedAffinity -8.22546673
REMARK CNNscore 0.376337379
REMARK CNNaffinity 6.54414034
REMARK  12 active torsions:
REMARK  status: ('A' for Active; 'I' for Inactive)
REMARK    1  A    between atoms: C2_2  and  C34_40 
REMARK    2  A    between atoms: C3_3  and  C4_4 
REMARK    3  A    between atoms: C4_4  and  O1_5 
REMARK    4  A    between atoms: C4_4  and  C5_6 
REMARK    5  A    between atoms: C5_6  and  C6_7 
REMARK    6  A    between atoms: C6_7  and  C8_9 
REMARK    7  A    between atoms: C10_11  and  O2_12 
REMARK    8  A    between atoms: C11_13  and  C12_14 
REMARK    9  A    between atoms: C12_14  and  C13_15 
REMARK   10  A    between atoms: C13_15  and  O3_16 
REMARK   11  A    between atoms: C33_38  and  O6_39 
REMARK   12  A    between atoms: C34_40  and  O8_42 
ROOT
HETATM    1  C8  UNL     1       0.794   6.872  12.640  1.00  0.00     0.002 C 
HETATM    2  C9  UNL     1       1.551   8.059  11.960  1.00  0.00     0.038 C 
HETATM    3  C10 UNL     1       1.254   9.317  12.802  1.00  0.00     0.132 C 
HETATM    4  C11 UNL     1       0.662   8.779  14.133  1.00  0.00     0.022 C 
HETATM    5  C14 UNL     1      -0.208   9.716  14.990  1.00  0.00    -0.029 C 
HETATM    6  C15 UNL     1      -1.228   9.225  15.746  1.00  0.00     0.003 C 
HETATM    7  C16 UNL     1      -1.440   7.713  15.770  1.00  0.00     0.157 C 
HETATM    8  O4  UNL     1      -2.087   7.179  16.670  1.00  0.00    -0.293 OA
HETATM    9  C17 UNL     1      -0.876   6.837  14.665  1.00  0.00     0.094 C 
HETATM   10  C18 UNL     1      -0.271   7.638  13.512  1.00  0.00    -0.015 C 
HETATM   11  C19 UNL     1      -1.437   8.068  12.507  1.00  0.00     0.011 C 
HETATM   12  C20 UNL     1      -2.405   9.213  12.823  1.00  0.00     0.001 C 
HETATM   13  C21 UNL     1      -3.618   8.820  13.668  1.00  0.00     0.000 C 
HETATM   14  C22 UNL     1      -4.079   9.951  14.586  1.00  0.00     0.001 C 
HETATM   15  C23 UNL     1      -3.702   9.795  16.074  1.00  0.00     0.015 C 
HETATM   16  C24 UNL     1      -2.231  10.099  16.553  1.00  0.00    -0.004 C 
HETATM   17  C25 UNL     1      -2.100   9.792  18.079  1.00  0.00     0.022 C 
HETATM   18  C26 UNL     1      -3.152  10.489  18.943  1.00  0.00     0.080 C 
HETATM   19  C27 UNL     1      -3.555  11.841  18.405  1.00  0.00     0.135 C 
HETATM   20  O5  UNL     1      -4.635  12.335  18.725  1.00  0.00    -0.297 OA
HETATM   21  C28 UNL     1      -2.532  12.582  17.546  1.00  0.00     0.018 C 
HETATM   22  C29 UNL     1      -3.197  13.807  16.882  1.00  0.00     0.023 C 
HETATM   23  C30 UNL     1      -1.494  13.122  18.556  1.00  0.00     0.023 C 
HETATM   24  C31 UNL     1      -1.945  11.657  16.396  1.00  0.00     0.017 C 
HETATM   25  C32 UNL     1      -0.448  11.924  16.191  1.00  0.00     0.043 C 
HETATM   26  C33 UNL     1       0.117  11.195  14.986  1.00  0.00     0.149 C 
ENDROOT
BRANCH   1  27
HETATM   27  C6  UNL     1       0.366   5.754  11.634  1.00  0.00    -0.011 C 
HETATM   28  C7  UNL     1      -0.594   4.750  12.285  1.00  0.00     0.010 C 
BRANCH  27  29
HETATM   29  C5  UNL     1       1.645   5.059  11.063  1.00  0.00     0.040 C 
BRANCH  29  30
HETATM   30  C4  UNL     1       2.555   5.937  10.182  1.00  0.00     0.142 C 
BRANCH  30  31
HETATM   31  C3  UNL     1       4.016   5.789  10.513  1.00  0.00     0.018 C 
HETATM   32  C2  UNL     1       4.966   6.746  10.562  1.00  0.00     0.010 C 
HETATM   33  C1  UNL     1       4.757   8.213  10.322  1.00  0.00     0.055 C 
BRANCH  32  34
HETATM   34  C34 UNL     1       6.380   6.395  10.862  1.00  0.00     0.171 C 
HETATM   35  O7  UNL     1       7.245   7.175  11.208  1.00  0.00    -0.646 OA
BRANCH  34  36
HETATM   36  O8  UNL     1       6.653   5.086  10.716  1.00  0.00    -0.773 OA
HETATM   37  H50 UNL     1       7.605   5.028  10.934  1.00  0.00     0.167 HD
ENDBRANCH  34  36
ENDBRANCH  32  34
ENDBRANCH  30  31
BRANCH  30  38
HETATM   38  O1  UNL     1       2.355   5.594   8.816  1.00  0.00    -0.392 OA
HETATM   39  H6  UNL     1       3.063   6.009   8.295  1.00  0.00     0.210 HD
ENDBRANCH  30  38
ENDBRANCH  29  30
ENDBRANCH  27  29
ENDBRANCH   1  27
BRANCH   3  40
HETATM   40  O2  UNL     1       2.402  10.140  12.953  1.00  0.00    -0.394 OA
HETATM   41  H17 UNL     1       2.819  10.234  12.072  1.00  0.00     0.210 HD
ENDBRANCH   3  40
BRANCH   4  42
HETATM   42  C12 UNL     1       1.775   8.274  15.176  1.00  0.00     0.043 C 
BRANCH  42  43
HETATM   43  C13 UNL     1       1.907   8.837  16.598  1.00  0.00     0.165 C 
BRANCH  43  44
HETATM   44  O3  UNL     1       3.077   9.616  16.780  1.00  0.00    -0.401 OA
HETATM   45  H22 UNL     1       3.802   9.169  16.305  1.00  0.00     0.209 HD
ENDBRANCH  43  44
ENDBRANCH  42  43
ENDBRANCH   4  42
BRANCH  26  46
HETATM   46  O6  UNL     1       1.515  11.429  15.061  1.00  0.00    -0.391 OA
HETATM   47  H49 UNL     1       1.912  11.133  14.219  1.00  0.00     0.210 HD
ENDBRANCH  26  46
TORSDOF 12
ENDMDL
MODEL 5
REMARK minimizedAffinity -7.90539122
REMARK CNNscore 0.369976223
REMARK CNNaffinity 5.98918295
REMARK  12 active torsions:
REMARK  status: ('A' for Active; 'I' for Inactive)
REMARK    1  A    between atoms: C2_2  and  C34_40 
REMARK    2  A    between atoms: C3_3  and  C4_4 
REMARK    3  A    between atoms: C4_4  and  O1_5 
REMARK    4  A    between atoms: C4_4  and  C5_6 
REMARK    5  A    between atoms: C5_6  and  C6_7 
REMARK    6  A    between atoms: C6_7  and  C8_9 
REMARK    7  A    between atoms: C10_11  and  O2_12 
REMARK    8  A    between atoms: C11_13  and  C12_14 
REMARK    9  A    between atoms: C12_14  and  C13_15 
REMARK   10  A    between atoms: C13_15  and  O3_16 
REMARK   11  A    between atoms: C33_38  and  O6_39 
REMARK   12  A    between atoms: C34_40  and  O8_42 
ROOT
HETATM    1  C8  UNL     1      -3.326   7.823  14.139  1.00  0.00     0.002 C 
HETATM    2  C9  UNL     1      -2.702   8.379  12.818  1.00  0.00     0.038 C 
HETATM    3  C10 UNL     1      -1.664   9.444  13.230  1.00  0.00     0.132 C 
HETATM    4  C11 UNL     1      -1.437   9.217  14.750  1.00  0.00     0.022 C 
HETATM    5  C14 UNL     1      -0.881  10.376  15.597  1.00  0.00    -0.029 C 
HETATM    6  C15 UNL     1      -1.234  10.515  16.904  1.00  0.00     0.003 C 
HETATM    7  C16 UNL     1      -2.142   9.455  17.520  1.00  0.00     0.157 C 
HETATM    8  O4  UNL     1      -2.218   9.318  18.741  1.00  0.00    -0.293 OA
HETATM    9  C17 UNL     1      -2.995   8.560  16.637  1.00  0.00     0.094 C 
HETATM   10  C18 UNL     1      -2.961   8.964  15.163  1.00  0.00    -0.015 C 
HETATM   11  C19 UNL     1      -4.023  10.133  14.917  1.00  0.00     0.011 C 
HETATM   12  C20 UNL     1      -3.755  11.581  15.341  1.00  0.00     0.001 C 
HETATM   13  C21 UNL     1      -4.107  11.904  16.795  1.00  0.00     0.000 C 
HETATM   14  C22 UNL     1      -3.181  12.959  17.397  1.00  0.00     0.001 C 
HETATM   15  C23 UNL     1      -2.108  12.425  18.369  1.00  0.00     0.015 C 
HETATM   16  C24 UNL     1      -0.818  11.711  17.809  1.00  0.00    -0.004 C 
HETATM   17  C25 UNL     1       0.060  11.203  18.997  1.00  0.00     0.022 C 
HETATM   18  C26 UNL     1       0.390  12.283  20.028  1.00  0.00     0.080 C 
HETATM   19  C27 UNL     1       0.543  13.655  19.418  1.00  0.00     0.135 C 
HETATM   20  O5  UNL     1       0.405  14.659  20.114  1.00  0.00    -0.297 OA
HETATM   21  C28 UNL     1       0.966  13.722  17.950  1.00  0.00     0.018 C 
HETATM   22  C29 UNL     1       0.824  15.169  17.432  1.00  0.00     0.023 C 
HETATM   23  C30 UNL     1       2.475  13.391  17.965  1.00  0.00     0.023 C 
HETATM   24  C31 UNL     1       0.071  12.780  17.035  1.00  0.00     0.017 C 
HETATM   25  C32 UNL     1       0.922  12.107  15.950  1.00  0.00     0.043 C 
HETATM   26  C33 UNL     1       0.085  11.339  14.943  1.00  0.00     0.149 C 
ENDROOT
BRANCH   1  27
HETATM   27  C6  UNL     1      -4.800   7.329  13.966  1.00  0.00    -0.011 C 
HETATM   28  C7  UNL     1      -5.731   7.966  15.005  1.00  0.00     0.010 C 
BRANCH  27  29
HETATM   29  C5  UNL     1      -4.829   5.767  14.031  1.00  0.00     0.040 C 
BRANCH  29  30
HETATM   30  C4  UNL     1      -5.633   5.060  12.923  1.00  0.00     0.142 C 
BRANCH  30  31
HETATM   31  C3  UNL     1      -5.030   3.746  12.505  1.00  0.00     0.018 C 
HETATM   32  C2  UNL     1      -3.803   3.509  11.996  1.00  0.00     0.010 C 
HETATM   33  C1  UNL     1      -2.730   4.533  11.761  1.00  0.00     0.055 C 
BRANCH  32  34
HETATM   34  C34 UNL     1      -3.402   2.134  11.593  1.00  0.00     0.171 C 
HETATM   35  O7  UNL     1      -2.262   1.751  11.422  1.00  0.00    -0.646 OA
BRANCH  34  36
HETATM   36  O8  UNL     1      -4.442   1.300  11.418  1.00  0.00    -0.773 OA
HETATM   37  H50 UNL     1      -4.016   0.461  11.148  1.00  0.00     0.167 HD
ENDBRANCH  34  36
ENDBRANCH  32  34
ENDBRANCH  30  31
BRANCH  30  38
HETATM   38  O1  UNL     1      -6.961   4.835  13.379  1.00  0.00    -0.392 OA
HETATM   39  H6  UNL     1      -7.393   4.224  12.758  1.00  0.00     0.210 HD
ENDBRANCH  30  38
ENDBRANCH  29  30
ENDBRANCH  27  29
ENDBRANCH   1  27
BRANCH   3  40
HETATM   40  O2  UNL     1      -0.487   9.374  12.438  1.00  0.00    -0.394 OA
HETATM   41  H17 UNL     1      -0.762   9.304  11.501  1.00  0.00     0.210 HD
ENDBRANCH   3  40
BRANCH   4  42
HETATM   42  C12 UNL     1      -0.420   8.017  15.077  1.00  0.00     0.043 C 
BRANCH  42  43
HETATM   43  C13 UNL     1       0.069   7.020  14.018  1.00  0.00     0.165 C 
BRANCH  43  44
HETATM   44  O3  UNL     1       1.064   6.136  14.504  1.00  0.00    -0.401 OA
HETATM   45  H22 UNL     1       1.660   6.656  15.076  1.00  0.00     0.209 HD
ENDBRANCH  43  44
ENDBRANCH  42  43
ENDBRANCH   4  42
BRANCH  26  46
HETATM   46  O6  UNL     1       1.041  10.665  14.138  1.00  0.00    -0.391 OA
HETATM   47  H49 UNL     1       0.571  10.296  13.366  1.00  0.00     0.210 HD
ENDBRANCH  26  46
TORSDOF 12
ENDMDL
MODEL 6
REMARK minimizedAffinity -7.57416058
REMARK CNNscore 0.364837766
REMARK CNNaffinity 6.1284008
REMARK  12 active torsions:
REMARK  status: ('A' for Active; 'I' for Inactive)
REMARK    1  A    between atoms: C2_2  and  C34_40 
REMARK    2  A    between atoms: C3_3  and  C4_4 
REMARK    3  A    between atoms: C4_4  and  O1_5 
REMARK    4  A    between atoms: C4_4  and  C5_6 
REMARK    5  A    between atoms: C5_6  and  C6_7 
REMARK    6  A    between atoms: C6_7  and  C8_9 
REMARK    7  A    between atoms: C10_11  and  O2_12 
REMARK    8  A    between atoms: C11_13  and  C12_14 
REMARK    9  A    between atoms: C12_14  and  C13_15 
REMARK   10  A    between atoms: C13_15  and  O3_16 
REMARK   11  A    between atoms: C33_38  and  O6_39 
REMARK   12  A    between atoms: C34_40  and  O8_42 
ROOT
HETATM    1  C8  UNL     1      -9.541 -10.267  14.016  1.00  0.00     0.002 C 
HETATM    2  C9  UNL     1      -8.247 -11.123  13.821  1.00  0.00     0.038 C 
HETATM    3  C10 UNL     1      -7.922 -11.100  12.313  1.00  0.00     0.132 C 
HETATM    4  C11 UNL     1      -8.787  -9.948  11.732  1.00  0.00     0.022 C 
HETATM    5  C14 UNL     1      -9.117  -9.955  10.229  1.00  0.00    -0.029 C 
HETATM    6  C15 UNL     1     -10.290  -9.440   9.770  1.00  0.00     0.003 C 
HETATM    7  C16 UNL     1     -11.237  -8.799  10.781  1.00  0.00     0.157 C 
HETATM    8  O4  UNL     1     -12.121  -8.024  10.417  1.00  0.00    -0.293 OA
HETATM    9  C17 UNL     1     -11.124  -9.126  12.259  1.00  0.00     0.094 C 
HETATM   10  C18 UNL     1     -10.126 -10.246  12.553  1.00  0.00    -0.015 C 
HETATM   11  C19 UNL     1     -10.850 -11.657  12.348  1.00  0.00     0.011 C 
HETATM   12  C20 UNL     1     -11.125 -12.238  10.957  1.00  0.00     0.001 C 
HETATM   13  C21 UNL     1     -12.422 -11.758  10.301  1.00  0.00     0.000 C 
HETATM   14  C22 UNL     1     -12.306 -11.668   8.781  1.00  0.00     0.001 C 
HETATM   15  C23 UNL     1     -12.154 -10.244   8.209  1.00  0.00     0.015 C 
HETATM   16  C24 UNL     1     -10.764  -9.503   8.289  1.00  0.00    -0.004 C 
HETATM   17  C25 UNL     1     -10.903  -8.059   7.710  1.00  0.00     0.022 C 
HETATM   18  C26 UNL     1     -11.511  -8.010   6.308  1.00  0.00     0.080 C 
HETATM   19  C27 UNL     1     -11.142  -9.205   5.463  1.00  0.00     0.135 C 
HETATM   20  O5  UNL     1     -11.842  -9.521   4.502  1.00  0.00    -0.297 OA
HETATM   21  C28 UNL     1      -9.832  -9.918   5.798  1.00  0.00     0.018 C 
HETATM   22  C29 UNL     1      -9.745 -11.245   5.015  1.00  0.00     0.023 C 
HETATM   23  C30 UNL     1      -8.730  -8.989   5.241  1.00  0.00     0.023 C 
HETATM   24  C31 UNL     1      -9.722 -10.252   7.347  1.00  0.00     0.017 C 
HETATM   25  C32 UNL     1      -8.285 -10.051   7.847  1.00  0.00     0.043 C 
HETATM   26  C33 UNL     1      -8.090 -10.528   9.275  1.00  0.00     0.149 C 
ENDROOT
BRANCH   1  27
HETATM   27  C6  UNL     1     -10.410 -10.727  15.231  1.00  0.00    -0.011 C 
HETATM   28  C7  UNL     1     -11.908 -10.551  14.950  1.00  0.00     0.010 C 
BRANCH  27  29
HETATM   29  C5  UNL     1      -9.957  -9.951  16.510  1.00  0.00     0.040 C 
BRANCH  29  30
HETATM   30  C4  UNL     1     -10.966  -9.921  17.675  1.00  0.00     0.142 C 
BRANCH  30  31
HETATM   31  C3  UNL     1     -10.339 -10.242  19.005  1.00  0.00     0.018 C 
HETATM   32  C2  UNL     1      -9.408  -9.541  19.686  1.00  0.00     0.010 C 
HETATM   33  C1  UNL     1      -8.804  -8.233  19.265  1.00  0.00     0.055 C 
BRANCH  32  34
HETATM   34  C34 UNL     1      -8.869 -10.051  20.975  1.00  0.00     0.171 C 
HETATM   35  O7  UNL     1      -9.370  -9.881  22.069  1.00  0.00    -0.646 OA
BRANCH  34  36
HETATM   36  O8  UNL     1      -7.726 -10.747  20.843  1.00  0.00    -0.773 OA
HETATM   37  H50 UNL     1      -7.504 -10.994  21.764  1.00  0.00     0.167 HD
ENDBRANCH  34  36
ENDBRANCH  32  34
ENDBRANCH  30  31
BRANCH  30  38
HETATM   38  O1  UNL     1     -11.562  -8.632  17.745  1.00  0.00    -0.392 OA
HETATM   39  H6  UNL     1     -12.041  -8.567  18.589  1.00  0.00     0.210 HD
ENDBRANCH  30  38
ENDBRANCH  29  30
ENDBRANCH  27  29
ENDBRANCH   1  27
BRANCH   3  40
HETATM   40  O2  UNL     1      -6.527 -10.974  12.071  1.00  0.00    -0.394 OA
HETATM   41  H17 UNL     1      -6.065 -11.608  12.657  1.00  0.00     0.210 HD
ENDBRANCH   3  40
BRANCH   4  42
HETATM   42  C12 UNL     1      -8.149  -8.490  11.950  1.00  0.00     0.043 C 
BRANCH  42  43
HETATM   43  C13 UNL     1      -6.662  -8.263  12.259  1.00  0.00     0.165 C 
BRANCH  43  44
HETATM   44  O3  UNL     1      -6.351  -6.907  12.523  1.00  0.00    -0.401 OA
HETATM   45  H22 UNL     1      -6.863  -6.362  11.896  1.00  0.00     0.209 HD
ENDBRANCH  43  44
ENDBRANCH  42  43
ENDBRANCH   4  42
BRANCH  26  46
HETATM   46  O6  UNL     1      -6.773 -10.113   9.604  1.00  0.00    -0.391 OA
HETATM   47  H49 UNL     1      -6.528 -10.543  10.446  1.00  0.00     0.210 HD
ENDBRANCH  26  46
TORSDOF 12
ENDMDL
MODEL 7
REMARK minimizedAffinity -7.74445105
REMARK CNNscore 0.354635745
REMARK CNNaffinity 6.24905634
REMARK  12 active torsions:
REMARK  status: ('A' for Active; 'I' for Inactive)
REMARK    1  A    between atoms: C2_2  and  C34_40 
REMARK    2  A    between atoms: C3_3  and  C4_4 
REMARK    3  A    between atoms: C4_4  and  O1_5 
REMARK    4  A    between atoms: C4_4  and  C5_6 
REMARK    5  A    between atoms: C5_6  and  C6_7 
REMARK    6  A    between atoms: C6_7  and  C8_9 
REMARK    7  A    between atoms: C10_11  and  O2_12 
REMARK    8  A    between atoms: C11_13  and  C12_14 
REMARK    9  A    between atoms: C12_14  and  C13_15 
REMARK   10  A    between atoms: C13_15  and  O3_16 
REMARK   11  A    between atoms: C33_38  and  O6_39 
REMARK   12  A    between atoms: C34_40  and  O8_42 
ROOT
HETATM    1  C8  UNL     1       1.576  11.763  17.518  1.00  0.00     0.002 C 
HETATM    2  C9  UNL     1       0.210  11.795  16.758  1.00  0.00     0.038 C 
HETATM    3  C10 UNL     1       0.389  10.941  15.486  1.00  0.00     0.132 C 
HETATM    4  C11 UNL     1       1.698  10.138  15.721  1.00  0.00     0.022 C 
HETATM    5  C14 UNL     1       2.458   9.585  14.502  1.00  0.00    -0.029 C 
HETATM    6  C15 UNL     1       3.814   9.465  14.520  1.00  0.00     0.003 C 
HETATM    7  C16 UNL     1       4.550   9.834  15.805  1.00  0.00     0.157 C 
HETATM    8  O4  UNL     1       5.694   9.433  16.016  1.00  0.00    -0.293 OA
HETATM    9  C17 UNL     1       3.892  10.727  16.843  1.00  0.00     0.094 C 
HETATM   10  C18 UNL     1       2.562  11.315  16.373  1.00  0.00    -0.015 C 
HETATM   11  C19 UNL     1       2.849  12.625  15.502  1.00  0.00     0.011 C 
HETATM   12  C20 UNL     1       3.351  12.548  14.056  1.00  0.00     0.001 C 
HETATM   13  C21 UNL     1       4.867  12.416  13.904  1.00  0.00     0.000 C 
HETATM   14  C22 UNL     1       5.260  11.592  12.678  1.00  0.00     0.001 C 
HETATM   15  C23 UNL     1       5.732  10.153  12.969  1.00  0.00     0.015 C 
HETATM   16  C24 UNL     1       4.679   9.027  13.303  1.00  0.00    -0.004 C 
HETATM   17  C25 UNL     1       5.421   7.691  13.628  1.00  0.00     0.022 C 
HETATM   18  C26 UNL     1       6.418   7.259  12.552  1.00  0.00     0.080 C 
HETATM   19  C27 UNL     1       5.983   7.643  11.158  1.00  0.00     0.135 C 
HETATM   20  O5  UNL     1       6.814   7.739  10.257  1.00  0.00    -0.297 OA
HETATM   21  C28 UNL     1       4.482   7.802  10.915  1.00  0.00     0.018 C 
HETATM   22  C29 UNL     1       4.243   8.436   9.528  1.00  0.00     0.023 C 
HETATM   23  C30 UNL     1       3.943   6.355  10.851  1.00  0.00     0.023 C 
HETATM   24  C31 UNL     1       3.803   8.735  12.006  1.00  0.00     0.017 C 
HETATM   25  C32 UNL     1       2.414   8.205  12.388  1.00  0.00     0.043 C 
HETATM   26  C33 UNL     1       1.653   9.156  13.293  1.00  0.00     0.149 C 
ENDROOT
BRANCH   1  27
HETATM   27  C6  UNL     1       1.844  13.052  18.361  1.00  0.00    -0.011 C 
HETATM   28  C7  UNL     1       3.280  13.559  18.172  1.00  0.00     0.010 C 
BRANCH  27  29
HETATM   29  C5  UNL     1       1.517  12.762  19.862  1.00  0.00     0.040 C 
BRANCH  29  30
HETATM   30  C4  UNL     1       2.648  12.119  20.688  1.00  0.00     0.142 C 
BRANCH  30  31
HETATM   31  C3  UNL     1       2.236  10.830  21.348  1.00  0.00     0.018 C 
HETATM   32  C2  UNL     1       2.886  10.129  22.299  1.00  0.00     0.010 C 
HETATM   33  C1  UNL     1       4.185  10.513  22.948  1.00  0.00     0.055 C 
BRANCH  32  34
HETATM   34  C34 UNL     1       2.340   8.838  22.797  1.00  0.00     0.171 C 
HETATM   35  O7  UNL     1       1.939   7.925  22.102  1.00  0.00    -0.646 OA
BRANCH  34  36
HETATM   36  O8  UNL     1       2.314   8.745  24.137  1.00  0.00    -0.773 OA
HETATM   37  H50 UNL     1       1.924   7.861  24.295  1.00  0.00     0.167 HD
ENDBRANCH  34  36
ENDBRANCH  32  34
ENDBRANCH  30  31
BRANCH  30  38
HETATM   38  O1  UNL     1       3.762  11.868  19.841  1.00  0.00    -0.392 OA
HETATM   39  H6  UNL     1       4.382  11.295  20.322  1.00  0.00     0.210 HD
ENDBRANCH  30  38
ENDBRANCH  29  30
ENDBRANCH  27  29
ENDBRANCH   1  27
BRANCH   3  40
HETATM   40  O2  UNL     1      -0.755  10.143  15.214  1.00  0.00    -0.394 OA
HETATM   41  H17 UNL     1      -1.544  10.714  15.307  1.00  0.00     0.210 HD
ENDBRANCH   3  40
BRANCH   4  42
HETATM   42  C12 UNL     1       1.499   8.834  16.638  1.00  0.00     0.043 C 
BRANCH  42  43
HETATM   43  C13 UNL     1       1.631   7.403  16.099  1.00  0.00     0.165 C 
BRANCH  43  44
HETATM   44  O3  UNL     1       0.439   6.648  16.228  1.00  0.00    -0.401 OA
HETATM   45  H22 UNL     1       0.048   6.867  17.095  1.00  0.00     0.209 HD
ENDBRANCH  43  44
ENDBRANCH  42  43
ENDBRANCH   4  42
BRANCH  26  46
HETATM   46  O6  UNL     1       0.490   8.431  13.662  1.00  0.00    -0.391 OA
HETATM   47  H49 UNL     1      -0.121   9.053  14.101  1.00  0.00     0.210 HD
ENDBRANCH  26  46
TORSDOF 12
ENDMDL
MODEL 8
REMARK minimizedAffinity -9.8115797
REMARK CNNscore 0.351860195
REMARK CNNaffinity 6.76194382
REMARK  12 active torsions:
REMARK  status: ('A' for Active; 'I' for Inactive)
REMARK    1  A    between atoms: C2_2  and  C34_40 
REMARK    2  A    between atoms: C3_3  and  C4_4 
REMARK    3  A    between atoms: C4_4  and  O1_5 
REMARK    4  A    between atoms: C4_4  and  C5_6 
REMARK    5  A    between atoms: C5_6  and  C6_7 
REMARK    6  A    between atoms: C6_7  and  C8_9 
REMARK    7  A    between atoms: C10_11  and  O2_12 
REMARK    8  A    between atoms: C11_13  and  C12_14 
REMARK    9  A    between atoms: C12_14  and  C13_15 
REMARK   10  A    between atoms: C13_15  and  O3_16 
REMARK   11  A    between atoms: C33_38  and  O6_39 
REMARK   12  A    between atoms: C34_40  and  O8_42 
ROOT
HETATM    1  C8  UNL     1      -2.307   7.648  13.560  1.00  0.00     0.002 C 
HETATM    2  C9  UNL     1      -1.992   7.192  15.021  1.00  0.00     0.038 C 
HETATM    3  C10 UNL     1      -0.460   7.263  15.188  1.00  0.00     0.132 C 
HETATM    4  C11 UNL     1       0.038   8.103  13.980  1.00  0.00     0.022 C 
HETATM    5  C14 UNL     1       1.503   7.959  13.531  1.00  0.00    -0.029 C 
HETATM    6  C15 UNL     1       1.849   8.104  12.222  1.00  0.00     0.003 C 
HETATM    7  C16 UNL     1       0.754   8.477  11.227  1.00  0.00     0.157 C 
HETATM    8  O4  UNL     1       1.033   8.956  10.128  1.00  0.00    -0.293 OA
HETATM    9  C17 UNL     1      -0.708   8.238  11.563  1.00  0.00     0.094 C 
HETATM   10  C18 UNL     1      -0.907   7.459  12.863  1.00  0.00    -0.015 C 
HETATM   11  C19 UNL     1      -0.774   5.895  12.559  1.00  0.00     0.011 C 
HETATM   12  C20 UNL     1       0.583   5.219  12.337  1.00  0.00     0.001 C 
HETATM   13  C21 UNL     1       1.113   5.290  10.903  1.00  0.00     0.000 C 
HETATM   14  C22 UNL     1       2.639   5.365  10.850  1.00  0.00     0.001 C 
HETATM   15  C23 UNL     1       3.224   6.757  10.534  1.00  0.00     0.015 C 
HETATM   16  C24 UNL     1       3.278   7.866  11.653  1.00  0.00    -0.004 C 
HETATM   17  C25 UNL     1       3.843   9.193  11.054  1.00  0.00     0.022 C 
HETATM   18  C26 UNL     1       5.181   9.026  10.332  1.00  0.00     0.080 C 
HETATM   19  C27 UNL     1       6.056   7.963  10.951  1.00  0.00     0.135 C 
HETATM   20  O5  UNL     1       6.944   7.432  10.287  1.00  0.00    -0.297 OA
HETATM   21  C28 UNL     1       5.846   7.663  12.435  1.00  0.00     0.018 C 
HETATM   22  C29 UNL     1       6.632   6.394  12.827  1.00  0.00     0.023 C 
HETATM   23  C30 UNL     1       6.507   8.852  13.168  1.00  0.00     0.023 C 
HETATM   24  C31 UNL     1       4.314   7.419  12.777  1.00  0.00     0.017 C 
HETATM   25  C32 UNL     1       3.954   8.036  14.135  1.00  0.00     0.043 C 
HETATM   26  C33 UNL     1       2.550   7.676  14.587  1.00  0.00     0.149 C 
ENDROOT
BRANCH   1  27
HETATM   27  C6  UNL     1      -3.601   6.994  12.974  1.00  0.00    -0.011 C 
HETATM   28  C7  UNL     1      -4.826   7.895  13.173  1.00  0.00     0.010 C 
BRANCH  27  29
HETATM   29  C5  UNL     1      -3.799   5.582  13.616  1.00  0.00     0.040 C 
BRANCH  29  30
HETATM   30  C4  UNL     1      -4.275   4.468  12.664  1.00  0.00     0.142 C 
BRANCH  30  31
HETATM   31  C3  UNL     1      -3.223   3.422  12.408  1.00  0.00     0.018 C 
HETATM   32  C2  UNL     1      -2.661   3.067  11.235  1.00  0.00     0.010 C 
HETATM   33  C1  UNL     1      -2.948   3.680   9.895  1.00  0.00     0.055 C 
BRANCH  32  34
HETATM   34  C34 UNL     1      -1.663   1.964  11.175  1.00  0.00     0.171 C 
HETATM   35  O7  UNL     1      -0.459   2.093  11.275  1.00  0.00    -0.646 OA
BRANCH  34  36
HETATM   36  O8  UNL     1      -2.213   0.751  10.989  1.00  0.00    -0.773 OA
HETATM   37  H50 UNL     1      -1.438   0.154  10.961  1.00  0.00     0.167 HD
ENDBRANCH  34  36
ENDBRANCH  32  34
ENDBRANCH  30  31
BRANCH  30  38
HETATM   38  O1  UNL     1      -5.425   3.840  13.217  1.00  0.00    -0.392 OA
HETATM   39  H6  UNL     1      -5.595   3.026  12.713  1.00  0.00     0.210 HD
ENDBRANCH  30  38
ENDBRANCH  29  30
ENDBRANCH  27  29
ENDBRANCH   1  27
BRANCH   3  40
HETATM   40  O2  UNL     1      -0.085   7.775  16.460  1.00  0.00    -0.394 OA
HETATM   41  H17 UNL     1      -0.625   7.317  17.136  1.00  0.00     0.210 HD
ENDBRANCH   3  40
BRANCH   4  42
HETATM   42  C12 UNL     1      -0.116   9.688  14.190  1.00  0.00     0.043 C 
BRANCH  42  43
HETATM   43  C13 UNL     1      -1.475  10.399  14.241  1.00  0.00     0.165 C 
BRANCH  43  44
HETATM   44  O3  UNL     1      -1.420  11.737  13.780  1.00  0.00    -0.401 OA
HETATM   45  H22 UNL     1      -0.591  12.128  14.116  1.00  0.00     0.209 HD
ENDBRANCH  43  44
ENDBRANCH  42  43
ENDBRANCH   4  42
BRANCH  26  46
HETATM   46  O6  UNL     1       2.349   8.459  15.754  1.00  0.00    -0.391 OA
HETATM   47  H49 UNL     1       1.533   8.141  16.188  1.00  0.00     0.210 HD
ENDBRANCH  26  46
TORSDOF 12
ENDMDL
MODEL 9
REMARK minimizedAffinity -7.43732405
REMARK CNNscore 0.311932355
REMARK CNNaffinity 5.89046669
REMARK  12 active torsions:
REMARK  status: ('A' for Active; 'I' for Inactive)
REMARK    1  A    between atoms: C2_2  and  C34_40 
REMARK    2  A    between atoms: C3_3  and  C4_4 
REMARK    3  A    between atoms: C4_4  and  O1_5 
REMARK    4  A    between atoms: C4_4  and  C5_6 
REMARK    5  A    between atoms: C5_6  and  C6_7 
REMARK    6  A    between atoms: C6_7  and  C8_9 
REMARK    7  A    between atoms: C10_11  and  O2_12 
REMARK    8  A    between atoms: C11_13  and  C12_14 
REMARK    9  A    between atoms: C12_14  and  C13_15 
REMARK   10  A    between atoms: C13_15  and  O3_16 
REMARK   11  A    between atoms: C33_38  and  O6_39 
REMARK   12  A    between atoms: C34_40  and  O8_42 
ROOT
HETATM    1  C8  UNL     1     -15.715  -3.745  13.901  1.00  0.00     0.002 C 
HETATM    2  C9  UNL     1     -16.765  -3.931  12.758  1.00  0.00     0.038 C 
HETATM    3  C10 UNL     1     -17.285  -2.523  12.400  1.00  0.00     0.132 C 
HETATM    4  C11 UNL     1     -16.275  -1.542  13.055  1.00  0.00     0.022 C 
HETATM    5  C14 UNL     1     -16.727  -0.100  13.349  1.00  0.00    -0.029 C 
HETATM    6  C15 UNL     1     -16.227   0.585  14.414  1.00  0.00     0.003 C 
HETATM    7  C16 UNL     1     -15.160  -0.095  15.268  1.00  0.00     0.157 C 
HETATM    8  O4  UNL     1     -14.428   0.562  16.008  1.00  0.00    -0.293 OA
HETATM    9  C17 UNL     1     -14.996  -1.605  15.242  1.00  0.00     0.094 C 
HETATM   10  C18 UNL     1     -16.090  -2.314  14.443  1.00  0.00    -0.015 C 
HETATM   11  C19 UNL     1     -17.370  -2.519  15.379  1.00  0.00     0.011 C 
HETATM   12  C20 UNL     1     -18.329  -1.372  15.714  1.00  0.00     0.001 C 
HETATM   13  C21 UNL     1     -17.908  -0.503  16.901  1.00  0.00     0.000 C 
HETATM   14  C22 UNL     1     -18.340   0.953  16.739  1.00  0.00     0.001 C 
HETATM   15  C23 UNL     1     -17.219   1.939  16.347  1.00  0.00     0.015 C 
HETATM   16  C24 UNL     1     -16.702   1.998  14.859  1.00  0.00    -0.004 C 
HETATM   17  C25 UNL     1     -15.524   3.017  14.751  1.00  0.00     0.022 C 
HETATM   18  C26 UNL     1     -15.850   4.402  15.312  1.00  0.00     0.080 C 
HETATM   19  C27 UNL     1     -17.296   4.790  15.121  1.00  0.00     0.135 C 
HETATM   20  O5  UNL     1     -17.805   5.647  15.841  1.00  0.00    -0.297 OA
HETATM   21  C28 UNL     1     -18.041   4.149  13.950  1.00  0.00     0.018 C 
HETATM   22  C29 UNL     1     -19.549   4.458  14.060  1.00  0.00     0.023 C 
HETATM   23  C30 UNL     1     -17.516   4.893  12.701  1.00  0.00     0.023 C 
HETATM   24  C31 UNL     1     -17.861   2.571  13.929  1.00  0.00     0.017 C 
HETATM   25  C32 UNL     1     -17.718   2.058  12.491  1.00  0.00     0.043 C 
HETATM   26  C33 UNL     1     -17.723   0.542  12.407  1.00  0.00     0.149 C 
ENDROOT
BRANCH   1  27
HETATM   27  C6  UNL     1     -15.621  -4.977  14.860  1.00  0.00    -0.011 C 
HETATM   28  C7  UNL     1     -15.633  -4.546  16.332  1.00  0.00     0.010 C 
BRANCH  27  29
HETATM   29  C5  UNL     1     -14.348  -5.811  14.502  1.00  0.00     0.040 C 
BRANCH  29  30
HETATM   30  C4  UNL     1     -13.240  -5.846  15.573  1.00  0.00     0.142 C 
BRANCH  30  31
HETATM   31  C3  UNL     1     -12.280  -6.991  15.390  1.00  0.00     0.018 C 
HETATM   32  C2  UNL     1     -12.101  -8.070  16.179  1.00  0.00     0.010 C 
HETATM   33  C1  UNL     1     -12.868  -8.387  17.431  1.00  0.00     0.055 C 
BRANCH  32  34
HETATM   34  C34 UNL     1     -11.058  -9.081  15.857  1.00  0.00     0.171 C 
HETATM   35  O7  UNL     1     -11.132  -9.919  14.980  1.00  0.00    -0.646 OA
BRANCH  34  36
HETATM   36  O8  UNL     1      -9.971  -9.002  16.644  1.00  0.00    -0.773 OA
HETATM   37  H50 UNL     1      -9.401  -9.727  16.316  1.00  0.00     0.167 HD
ENDBRANCH  34  36
ENDBRANCH  32  34
ENDBRANCH  30  31
BRANCH  30  38
HETATM   38  O1  UNL     1     -12.513  -4.624  15.534  1.00  0.00    -0.392 OA
HETATM   39  H6  UNL     1     -11.709  -4.735  16.070  1.00  0.00     0.210 HD
ENDBRANCH  30  38
ENDBRANCH  29  30
ENDBRANCH  27  29
ENDBRANCH   1  27
BRANCH   3  40
HETATM   40  O2  UNL     1     -17.449  -2.356  10.998  1.00  0.00    -0.394 OA
HETATM   41  H17 UNL     1     -17.915  -3.147  10.657  1.00  0.00     0.210 HD
ENDBRANCH   3  40
BRANCH   4  42
HETATM   42  C12 UNL     1     -14.935  -1.327  12.196  1.00  0.00     0.043 C 
BRANCH  42  43
HETATM   43  C13 UNL     1     -14.246  -2.459  11.421  1.00  0.00     0.165 C 
BRANCH  43  44
HETATM   44  O3  UNL     1     -13.808  -2.063  10.133  1.00  0.00    -0.401 OA
HETATM   45  H22 UNL     1     -14.500  -1.488   9.754  1.00  0.00     0.209 HD
ENDBRANCH  43  44
ENDBRANCH  42  43
ENDBRANCH   4  42
BRANCH  26  46
HETATM   46  O6  UNL     1     -17.418   0.268  11.048  1.00  0.00    -0.391 OA
HETATM   47  H49 UNL     1     -17.579  -0.683  10.894  1.00  0.00     0.210 HD
ENDBRANCH  26  46
TORSDOF 12
ENDMDL
