MODEL 1
REMARK minimizedAffinity -7.91951847
REMARK CNNscore 0.525439501
REMARK CNNaffinity 6.75629425
REMARK  15 active torsions:
REMARK  status: ('A' for Active; 'I' for Inactive)
REMARK    1  A    between atoms: C4_5  and  O2_6 
REMARK    2  A    between atoms: C7_10  and  O4_11 
REMARK    3  A    between atoms: O4_11  and  C8_12 
REMARK    4  A    between atoms: C8_12  and  C9_14 
REMARK    5  A    between atoms: C9_14  and  C11_16 
REMARK    6  A    between atoms: C11_16  and  O6_17 
REMARK    7  A    between atoms: C11_16  and  C12_18 
REMARK    8  A    between atoms: C14_20  and  C15_21 
REMARK    9  A    between atoms: C15_21  and  C16_22 
REMARK   10  A    between atoms: C15_21  and  C17_24 
REMARK   11  A    between atoms: C16_22  and  O7_23 
REMARK   12  A    between atoms: C17_24  and  C18_25 
REMARK   13  A    between atoms: C18_25  and  C19_26 
REMARK   14  A    between atoms: C19_26  and  C20_27 
REMARK   15  A    between atoms: C20_27  and  C21_28 
ROOT
HETATM    1  O4  UNL     1      -2.097   7.134  13.386  1.00  0.00    -0.312 OA
ENDROOT
BRANCH   1   2
HETATM    2  C7  UNL     1      -1.110   6.084  13.322  1.00  0.00     0.170 C 
HETATM    3  C6  UNL     1       0.095   6.501  12.505  1.00  0.00     0.127 A 
HETATM    4  C5  UNL     1       0.184   6.098  11.047  1.00  0.00     0.223 A 
HETATM    5  O3  UNL     1       0.867   5.359  12.077  1.00  0.00    -0.360 OA
HETATM    6  C27 UNL     1       0.974   7.636  13.041  1.00  0.00    -0.003 C 
HETATM    7  C4  UNL     1       1.060   6.818  10.070  1.00  0.00     0.199 C 
HETATM    8  O1  UNL     1       1.886   5.864   9.399  1.00  0.00    -0.348 OA
HETATM    9  C30 UNL     1       1.996   7.885  10.677  1.00  0.00     0.082 C 
HETATM   10  C3  UNL     1       3.060   6.544   8.945  1.00  0.00     0.205 C 
HETATM   11  C2  UNL     1       3.248   7.712   9.854  1.00  0.00    -0.056 C 
HETATM   12  C1  UNL     1       4.349   8.471   9.919  1.00  0.00     0.017 C 
HETATM   13  C29 UNL     1       2.273   7.724  12.184  1.00  0.00     0.027 C 
HETATM   14  C25 UNL     1       1.353   7.298  14.529  1.00  0.00    -0.007 C 
HETATM   15  C28 UNL     1       0.224   8.982  12.927  1.00  0.00     0.019 C 
HETATM   16  C24 UNL     1       0.124   6.914  15.380  1.00  0.00     0.007 C 
HETATM   17  C26 UNL     1       2.131   8.411  15.247  1.00  0.00     0.011 C 
HETATM   18  C23 UNL     1      -0.674   5.768  14.756  1.00  0.00     0.036 C 
BRANCH   7  19
HETATM   19  O2  UNL     1       0.239   7.448   9.087  1.00  0.00    -0.363 OA
HETATM   20  H5  UNL     1      -0.351   6.751   8.761  1.00  0.00     0.213 HD
ENDBRANCH   7  19
ENDBRANCH   1   2
BRANCH   1  21
HETATM   21  C8  UNL     1      -3.403   6.777  13.257  1.00  0.00     0.266 C 
HETATM   22  O5  UNL     1      -3.788   5.792  12.646  1.00  0.00    -0.265 OA
BRANCH  21  23
HETATM   23  C9  UNL     1      -4.321   7.814  13.881  1.00  0.00     0.114 C 
HETATM   24  C10 UNL     1      -3.684   9.205  13.966  1.00  0.00     0.023 C 
BRANCH  23  25
HETATM   25  C11 UNL     1      -4.866   7.317  15.240  1.00  0.00     0.159 C 
BRANCH  25  26
HETATM   26  O6  UNL     1      -3.880   6.436  15.805  1.00  0.00    -0.390 OA
HETATM   27  H13 UNL     1      -3.244   6.993  16.284  1.00  0.00     0.210 HD
ENDBRANCH  25  26
BRANCH  25  28
HETATM   28  C12 UNL     1      -6.218   6.601  15.192  1.00  0.00    -0.058 C 
HETATM   29  C13 UNL     1      -7.127   6.907  16.357  1.00  0.00     0.046 C 
HETATM   30  C14 UNL     1      -6.552   5.736  14.210  1.00  0.00    -0.015 C 
BRANCH  30  31
HETATM   31  C15 UNL     1      -7.877   5.021  14.021  1.00  0.00     0.032 C 
BRANCH  31  32
HETATM   32  C16 UNL     1      -7.648   3.552  13.619  1.00  0.00     0.172 C 
BRANCH  32  33
HETATM   33  O7  UNL     1      -8.739   3.018  12.878  1.00  0.00    -0.400 OA
HETATM   34  H21 UNL     1      -8.730   3.455  12.010  1.00  0.00     0.209 HD
ENDBRANCH  32  33
ENDBRANCH  31  32
BRANCH  31  35
HETATM   35  C17 UNL     1      -8.743   5.794  13.002  1.00  0.00     0.010 C 
BRANCH  35  36
HETATM   36  C18 UNL     1      -9.793   6.684  13.677  1.00  0.00     0.001 C 
BRANCH  36  37
HETATM   37  C19 UNL     1     -10.888   7.160  12.718  1.00  0.00     0.000 C 
BRANCH  37  38
HETATM   38  C20 UNL     1     -11.556   8.457  13.181  1.00  0.00    -0.000 C 
BRANCH  38  39
HETATM   39  C21 UNL     1     -13.007   8.222  13.609  1.00  0.00    -0.005 C 
HETATM   40  C22 UNL     1     -13.553   6.926  13.024  1.00  0.00     0.005 C 
ENDBRANCH  38  39
ENDBRANCH  37  38
ENDBRANCH  36  37
ENDBRANCH  35  36
ENDBRANCH  31  35
ENDBRANCH  30  31
ENDBRANCH  25  28
ENDBRANCH  23  25
ENDBRANCH  21  23
ENDBRANCH   1  21
TORSDOF 15
ENDMDL
MODEL 2
REMARK minimizedAffinity -7.02690935
REMARK CNNscore 0.507652581
REMARK CNNaffinity 7.16903162
REMARK  15 active torsions:
REMARK  status: ('A' for Active; 'I' for Inactive)
REMARK    1  A    between atoms: C4_5  and  O2_6 
REMARK    2  A    between atoms: C7_10  and  O4_11 
REMARK    3  A    between atoms: O4_11  and  C8_12 
REMARK    4  A    between atoms: C8_12  and  C9_14 
REMARK    5  A    between atoms: C9_14  and  C11_16 
REMARK    6  A    between atoms: C11_16  and  O6_17 
REMARK    7  A    between atoms: C11_16  and  C12_18 
REMARK    8  A    between atoms: C14_20  and  C15_21 
REMARK    9  A    between atoms: C15_21  and  C16_22 
REMARK   10  A    between atoms: C15_21  and  C17_24 
REMARK   11  A    between atoms: C16_22  and  O7_23 
REMARK   12  A    between atoms: C17_24  and  C18_25 
REMARK   13  A    between atoms: C18_25  and  C19_26 
REMARK   14  A    between atoms: C19_26  and  C20_27 
REMARK   15  A    between atoms: C20_27  and  C21_28 
ROOT
HETATM    1  O4  UNL     1      -2.484   8.612  15.970  1.00  0.00    -0.312 OA
ENDROOT
BRANCH   1   2
HETATM    2  C7  UNL     1      -2.966   8.732  14.615  1.00  0.00     0.170 C 
HETATM    3  C6  UNL     1      -3.076   7.381  13.941  1.00  0.00     0.127 A 
HETATM    4  C5  UNL     1      -1.949   6.896  13.052  1.00  0.00     0.223 A 
HETATM    5  O3  UNL     1      -3.132   7.507  12.504  1.00  0.00    -0.360 OA
HETATM    6  C27 UNL     1      -4.106   6.385  14.483  1.00  0.00    -0.003 C 
HETATM    7  C4  UNL     1      -1.752   5.448  12.727  1.00  0.00     0.199 C 
HETATM    8  O1  UNL     1      -1.660   5.301  11.308  1.00  0.00    -0.348 OA
HETATM    9  C30 UNL     1      -2.869   4.500  13.213  1.00  0.00     0.082 C 
HETATM   10  C3  UNL     1      -2.056   3.965  10.980  1.00  0.00     0.205 C 
HETATM   11  C2  UNL     1      -2.965   3.516  12.074  1.00  0.00    -0.056 C 
HETATM   12  C1  UNL     1      -3.733   2.419  12.039  1.00  0.00     0.017 C 
HETATM   13  C29 UNL     1      -4.221   5.182  13.498  1.00  0.00     0.027 C 
HETATM   14  C25 UNL     1      -5.494   7.119  14.573  1.00  0.00    -0.007 C 
HETATM   15  C28 UNL     1      -3.647   5.847  15.857  1.00  0.00     0.019 C 
HETATM   16  C24 UNL     1      -5.398   8.478  15.298  1.00  0.00     0.007 C 
HETATM   17  C26 UNL     1      -6.606   6.282  15.223  1.00  0.00     0.011 C 
HETATM   18  C23 UNL     1      -4.346   9.393  14.669  1.00  0.00     0.036 C 
BRANCH   7  19
HETATM   19  O2  UNL     1      -0.516   5.011  13.289  1.00  0.00    -0.363 OA
HETATM   20  H5  UNL     1       0.146   5.652  12.986  1.00  0.00     0.213 HD
ENDBRANCH   7  19
ENDBRANCH   1   2
BRANCH   1  21
HETATM   21  C8  UNL     1      -1.874   9.696  16.518  1.00  0.00     0.266 C 
HETATM   22  O5  UNL     1      -2.321  10.334  17.458  1.00  0.00    -0.265 OA
BRANCH  21  23
HETATM   23  C9  UNL     1      -0.620  10.071  15.745  1.00  0.00     0.114 C 
HETATM   24  C10 UNL     1      -0.919  10.585  14.333  1.00  0.00     0.023 C 
BRANCH  23  25
HETATM   25  C11 UNL     1       0.401   8.910  15.761  1.00  0.00     0.159 C 
BRANCH  25  26
HETATM   26  O6  UNL     1       1.146   9.005  16.986  1.00  0.00    -0.390 OA
HETATM   27  H13 UNL     1       0.631   8.539  17.667  1.00  0.00     0.210 HD
ENDBRANCH  25  26
BRANCH  25  28
HETATM   28  C12 UNL     1       1.372   8.865  14.579  1.00  0.00    -0.058 C 
HETATM   29  C13 UNL     1       2.185  10.122  14.393  1.00  0.00     0.046 C 
HETATM   30  C14 UNL     1       1.463   7.804  13.748  1.00  0.00    -0.015 C 
BRANCH  30  31
HETATM   31  C15 UNL     1       2.427   7.619  12.590  1.00  0.00     0.032 C 
BRANCH  31  32
HETATM   32  C16 UNL     1       3.876   7.870  13.045  1.00  0.00     0.172 C 
BRANCH  32  33
HETATM   33  O7  UNL     1       4.158   7.276  14.306  1.00  0.00    -0.400 OA
HETATM   34  H21 UNL     1       4.168   6.314  14.169  1.00  0.00     0.209 HD
ENDBRANCH  32  33
ENDBRANCH  31  32
BRANCH  31  35
HETATM   35  C17 UNL     1       2.002   8.524  11.412  1.00  0.00     0.010 C 
BRANCH  35  36
HETATM   36  C18 UNL     1       0.531   8.333  11.024  1.00  0.00     0.001 C 
BRANCH  36  37
HETATM   37  C19 UNL     1       0.348   7.796   9.601  1.00  0.00     0.000 C 
BRANCH  37  38
HETATM   38  C20 UNL     1       1.366   8.376   8.616  1.00  0.00    -0.000 C 
BRANCH  38  39
HETATM   39  C21 UNL     1       2.216   7.278   7.972  1.00  0.00    -0.005 C 
HETATM   40  C22 UNL     1       1.822   7.056   6.517  1.00  0.00     0.005 C 
ENDBRANCH  38  39
ENDBRANCH  37  38
ENDBRANCH  36  37
ENDBRANCH  35  36
ENDBRANCH  31  35
ENDBRANCH  30  31
ENDBRANCH  25  28
ENDBRANCH  23  25
ENDBRANCH  21  23
ENDBRANCH   1  21
TORSDOF 15
ENDMDL
MODEL 3
REMARK minimizedAffinity -8.05560684
REMARK CNNscore 0.455580115
REMARK CNNaffinity 6.77336884
REMARK  15 active torsions:
REMARK  status: ('A' for Active; 'I' for Inactive)
REMARK    1  A    between atoms: C4_5  and  O2_6 
REMARK    2  A    between atoms: C7_10  and  O4_11 
REMARK    3  A    between atoms: O4_11  and  C8_12 
REMARK    4  A    between atoms: C8_12  and  C9_14 
REMARK    5  A    between atoms: C9_14  and  C11_16 
REMARK    6  A    between atoms: C11_16  and  O6_17 
REMARK    7  A    between atoms: C11_16  and  C12_18 
REMARK    8  A    between atoms: C14_20  and  C15_21 
REMARK    9  A    between atoms: C15_21  and  C16_22 
REMARK   10  A    between atoms: C15_21  and  C17_24 
REMARK   11  A    between atoms: C16_22  and  O7_23 
REMARK   12  A    between atoms: C17_24  and  C18_25 
REMARK   13  A    between atoms: C18_25  and  C19_26 
REMARK   14  A    between atoms: C19_26  and  C20_27 
REMARK   15  A    between atoms: C20_27  and  C21_28 
ROOT
HETATM    1  O4  UNL     1      -0.328   7.214  11.634  1.00  0.00    -0.312 OA
ENDROOT
BRANCH   1   2
HETATM    2  C7  UNL     1       0.415   8.375  11.207  1.00  0.00     0.170 C 
HETATM    3  C6  UNL     1       1.906   8.118  11.221  1.00  0.00     0.127 A 
HETATM    4  C5  UNL     1       2.728   8.552  12.419  1.00  0.00     0.223 A 
HETATM    5  O3  UNL     1       2.658   9.351  11.223  1.00  0.00    -0.360 OA
HETATM    6  C27 UNL     1       2.471   7.088  10.237  1.00  0.00    -0.003 C 
HETATM    7  C4  UNL     1       4.067   7.956  12.728  1.00  0.00     0.199 C 
HETATM    8  O1  UNL     1       5.015   9.013  12.895  1.00  0.00    -0.348 OA
HETATM    9  C30 UNL     1       4.632   7.000  11.657  1.00  0.00     0.082 C 
HETATM   10  C3  UNL     1       6.314   8.485  12.606  1.00  0.00     0.205 C 
HETATM   11  C2  UNL     1       6.103   7.334  11.681  1.00  0.00    -0.056 C 
HETATM   12  C1  UNL     1       7.068   6.711  10.992  1.00  0.00     0.017 C 
HETATM   13  C29 UNL     1       4.028   7.169  10.250  1.00  0.00     0.027 C 
HETATM   14  C25 UNL     1       1.943   7.445   8.801  1.00  0.00    -0.007 C 
HETATM   15  C28 UNL     1       2.054   5.664  10.669  1.00  0.00     0.019 C 
HETATM   16  C24 UNL     1       0.416   7.667   8.770  1.00  0.00     0.007 C 
HETATM   17  C26 UNL     1       2.322   6.422   7.720  1.00  0.00     0.011 C 
HETATM   18  C23 UNL     1      -0.035   8.719   9.785  1.00  0.00     0.036 C 
BRANCH   7  19
HETATM   19  O2  UNL     1       3.984   7.248  13.965  1.00  0.00    -0.363 OA
HETATM   20  H5  UNL     1       3.594   7.875  14.594  1.00  0.00     0.213 HD
ENDBRANCH   7  19
ENDBRANCH   1   2
BRANCH   1  21
HETATM   21  C8  UNL     1      -0.951   7.275  12.840  1.00  0.00     0.266 C 
HETATM   22  O5  UNL     1      -0.379   7.483  13.899  1.00  0.00    -0.265 OA
BRANCH  21  23
HETATM   23  C9  UNL     1      -2.430   6.950  12.714  1.00  0.00     0.114 C 
HETATM   24  C10 UNL     1      -3.330   8.179  12.879  1.00  0.00     0.023 C 
BRANCH  23  25
HETATM   25  C11 UNL     1      -2.819   5.788  13.657  1.00  0.00     0.159 C 
BRANCH  25  26
HETATM   26  O6  UNL     1      -1.603   5.242  14.195  1.00  0.00    -0.390 OA
HETATM   27  H13 UNL     1      -1.374   5.775  14.975  1.00  0.00     0.210 HD
ENDBRANCH  25  26
BRANCH  25  28
HETATM   28  C12 UNL     1      -3.642   4.665  13.022  1.00  0.00    -0.058 C 
HETATM   29  C13 UNL     1      -2.847   3.729  12.145  1.00  0.00     0.046 C 
HETATM   30  C14 UNL     1      -4.976   4.547  13.199  1.00  0.00    -0.015 C 
BRANCH  30  31
HETATM   31  C15 UNL     1      -5.882   3.448  12.677  1.00  0.00     0.032 C 
BRANCH  31  32
HETATM   32  C16 UNL     1      -5.970   3.500  11.141  1.00  0.00     0.172 C 
BRANCH  32  33
HETATM   33  O7  UNL     1      -5.556   2.283  10.533  1.00  0.00    -0.400 OA
HETATM   34  H21 UNL     1      -6.236   1.620  10.739  1.00  0.00     0.209 HD
ENDBRANCH  32  33
ENDBRANCH  31  32
BRANCH  31  35
HETATM   35  C17 UNL     1      -7.264   3.546  13.361  1.00  0.00     0.010 C 
BRANCH  35  36
HETATM   36  C18 UNL     1      -8.188   4.560  12.677  1.00  0.00     0.001 C 
BRANCH  36  37
HETATM   37  C19 UNL     1      -8.405   5.832  13.503  1.00  0.00     0.000 C 
BRANCH  37  38
HETATM   38  C20 UNL     1      -7.821   5.726  14.914  1.00  0.00    -0.000 C 
BRANCH  38  39
HETATM   39  C21 UNL     1      -8.646   6.524  15.927  1.00  0.00    -0.005 C 
HETATM   40  C22 UNL     1      -9.511   7.569  15.235  1.00  0.00     0.005 C 
ENDBRANCH  38  39
ENDBRANCH  37  38
ENDBRANCH  36  37
ENDBRANCH  35  36
ENDBRANCH  31  35
ENDBRANCH  30  31
ENDBRANCH  25  28
ENDBRANCH  23  25
ENDBRANCH  21  23
ENDBRANCH   1  21
TORSDOF 15
ENDMDL
MODEL 4
REMARK minimizedAffinity -7.2766695
REMARK CNNscore 0.445608824
REMARK CNNaffinity 6.70303869
REMARK  15 active torsions:
REMARK  status: ('A' for Active; 'I' for Inactive)
REMARK    1  A    between atoms: C4_5  and  O2_6 
REMARK    2  A    between atoms: C7_10  and  O4_11 
REMARK    3  A    between atoms: O4_11  and  C8_12 
REMARK    4  A    between atoms: C8_12  and  C9_14 
REMARK    5  A    between atoms: C9_14  and  C11_16 
REMARK    6  A    between atoms: C11_16  and  O6_17 
REMARK    7  A    between atoms: C11_16  and  C12_18 
REMARK    8  A    between atoms: C14_20  and  C15_21 
REMARK    9  A    between atoms: C15_21  and  C16_22 
REMARK   10  A    between atoms: C15_21  and  C17_24 
REMARK   11  A    between atoms: C16_22  and  O7_23 
REMARK   12  A    between atoms: C17_24  and  C18_25 
REMARK   13  A    between atoms: C18_25  and  C19_26 
REMARK   14  A    between atoms: C19_26  and  C20_27 
REMARK   15  A    between atoms: C20_27  and  C21_28 
ROOT
HETATM    1  O4  UNL     1       0.746   5.742  11.709  1.00  0.00    -0.312 OA
ENDROOT
BRANCH   1   2
HETATM    2  C7  UNL     1       0.696   7.184  11.723  1.00  0.00     0.170 C 
HETATM    3  C6  UNL     1       2.077   7.791  11.590  1.00  0.00     0.127 A 
HETATM    4  C5  UNL     1       2.826   8.224  12.834  1.00  0.00     0.223 A 
HETATM    5  O3  UNL     1       2.097   9.167  12.027  1.00  0.00    -0.360 OA
HETATM    6  C27 UNL     1       2.833   7.583  10.274  1.00  0.00    -0.003 C 
HETATM    7  C4  UNL     1       4.313   8.395  12.854  1.00  0.00     0.199 C 
HETATM    8  O1  UNL     1       4.623   9.690  13.372  1.00  0.00    -0.348 OA
HETATM    9  C30 UNL     1       5.014   8.269  11.485  1.00  0.00     0.082 C 
HETATM   10  C3  UNL     1       5.906  10.069  12.863  1.00  0.00     0.205 C 
HETATM   11  C2  UNL     1       6.087   9.326  11.583  1.00  0.00    -0.056 C 
HETATM   12  C1  UNL     1       7.045   9.567  10.679  1.00  0.00     0.017 C 
HETATM   13  C29 UNL     1       4.101   8.490  10.264  1.00  0.00     0.027 C 
HETATM   14  C25 UNL     1       1.884   8.000   9.093  1.00  0.00    -0.007 C 
HETATM   15  C28 UNL     1       3.288   6.110  10.156  1.00  0.00     0.019 C 
HETATM   16  C24 UNL     1       0.488   7.352   9.199  1.00  0.00     0.007 C 
HETATM   17  C26 UNL     1       2.460   7.725   7.696  1.00  0.00     0.011 C 
HETATM   18  C23 UNL     1      -0.177   7.630  10.548  1.00  0.00     0.036 C 
BRANCH   7  19
HETATM   19  O2  UNL     1       4.878   7.428  13.738  1.00  0.00    -0.363 OA
HETATM   20  H5  UNL     1       4.386   7.520  14.569  1.00  0.00     0.213 HD
ENDBRANCH   7  19
ENDBRANCH   1   2
BRANCH   1  21
HETATM   21  C8  UNL     1      -0.435   5.072  11.776  1.00  0.00     0.266 C 
HETATM   22  O5  UNL     1      -0.989   4.560  10.815  1.00  0.00    -0.265 OA
BRANCH  21  23
HETATM   23  C9  UNL     1      -1.024   5.132  13.175  1.00  0.00     0.114 C 
HETATM   24  C10 UNL     1      -2.547   4.963  13.191  1.00  0.00     0.023 C 
BRANCH  23  25
HETATM   25  C11 UNL     1      -0.552   6.406  13.914  1.00  0.00     0.159 C 
BRANCH  25  26
HETATM   26  O6  UNL     1       0.223   5.985  15.049  1.00  0.00    -0.390 OA
HETATM   27  H13 UNL     1       1.134   5.851  14.736  1.00  0.00     0.210 HD
ENDBRANCH  25  26
BRANCH  25  28
HETATM   28  C12 UNL     1      -1.661   7.352  14.380  1.00  0.00    -0.058 C 
HETATM   29  C13 UNL     1      -1.241   8.322  15.457  1.00  0.00     0.046 C 
HETATM   30  C14 UNL     1      -2.921   7.295  13.896  1.00  0.00    -0.015 C 
BRANCH  30  31
HETATM   31  C15 UNL     1      -4.080   8.215  14.231  1.00  0.00     0.032 C 
BRANCH  31  32
HETATM   32  C16 UNL     1      -4.544   7.998  15.683  1.00  0.00     0.172 C 
BRANCH  32  33
HETATM   33  O7  UNL     1      -4.423   9.176  16.471  1.00  0.00    -0.400 OA
HETATM   34  H21 UNL     1      -5.096   9.800  16.150  1.00  0.00     0.209 HD
ENDBRANCH  32  33
ENDBRANCH  31  32
BRANCH  31  35
HETATM   35  C17 UNL     1      -5.216   8.015  13.202  1.00  0.00     0.010 C 
BRANCH  35  36
HETATM   36  C18 UNL     1      -5.788   6.593  13.228  1.00  0.00     0.001 C 
BRANCH  36  37
HETATM   37  C19 UNL     1      -7.154   6.505  13.917  1.00  0.00     0.000 C 
BRANCH  37  38
HETATM   38  C20 UNL     1      -7.380   5.159  14.610  1.00  0.00    -0.000 C 
BRANCH  38  39
HETATM   39  C21 UNL     1      -6.882   3.992  13.752  1.00  0.00    -0.005 C 
HETATM   40  C22 UNL     1      -7.978   3.481  12.826  1.00  0.00     0.005 C 
ENDBRANCH  38  39
ENDBRANCH  37  38
ENDBRANCH  36  37
ENDBRANCH  35  36
ENDBRANCH  31  35
ENDBRANCH  30  31
ENDBRANCH  25  28
ENDBRANCH  23  25
ENDBRANCH  21  23
ENDBRANCH   1  21
TORSDOF 15
ENDMDL
MODEL 5
REMARK minimizedAffinity -8.08869076
REMARK CNNscore 0.432133019
REMARK CNNaffinity 6.61292124
REMARK  15 active torsions:
REMARK  status: ('A' for Active; 'I' for Inactive)
REMARK    1  A    between atoms: C4_5  and  O2_6 
REMARK    2  A    between atoms: C7_10  and  O4_11 
REMARK    3  A    between atoms: O4_11  and  C8_12 
REMARK    4  A    between atoms: C8_12  and  C9_14 
REMARK    5  A    between atoms: C9_14  and  C11_16 
REMARK    6  A    between atoms: C11_16  and  O6_17 
REMARK    7  A    between atoms: C11_16  and  C12_18 
REMARK    8  A    between atoms: C14_20  and  C15_21 
REMARK    9  A    between atoms: C15_21  and  C16_22 
REMARK   10  A    between atoms: C15_21  and  C17_24 
REMARK   11  A    between atoms: C16_22  and  O7_23 
REMARK   12  A    between atoms: C17_24  and  C18_25 
REMARK   13  A    between atoms: C18_25  and  C19_26 
REMARK   14  A    between atoms: C19_26  and  C20_27 
REMARK   15  A    between atoms: C20_27  and  C21_28 
ROOT
HETATM    1  O4  UNL     1      -0.301   7.233  11.320  1.00  0.00    -0.312 OA
ENDROOT
BRANCH   1   2
HETATM    2  C7  UNL     1       0.504   8.351  10.891  1.00  0.00     0.170 C 
HETATM    3  C6  UNL     1       1.983   8.047  11.004  1.00  0.00     0.127 A 
HETATM    4  C5  UNL     1       2.749   8.507  12.228  1.00  0.00     0.223 A 
HETATM    5  O3  UNL     1       2.775   9.255  10.998  1.00  0.00    -0.360 OA
HETATM    6  C27 UNL     1       2.568   6.959  10.098  1.00  0.00    -0.003 C 
HETATM    7  C4  UNL     1       4.046   7.884  12.641  1.00  0.00     0.199 C 
HETATM    8  O1  UNL     1       5.018   8.917  12.819  1.00  0.00    -0.348 OA
HETATM    9  C30 UNL     1       4.640   6.864  11.646  1.00  0.00     0.082 C 
HETATM   10  C3  UNL     1       6.313   8.336  12.630  1.00  0.00     0.205 C 
HETATM   11  C2  UNL     1       6.117   7.153  11.743  1.00  0.00    -0.056 C 
HETATM   12  C1  UNL     1       7.098   6.471  11.138  1.00  0.00     0.017 C 
HETATM   13  C29 UNL     1       4.124   6.991  10.200  1.00  0.00     0.027 C 
HETATM   14  C25 UNL     1       2.136   7.269   8.619  1.00  0.00    -0.007 C 
HETATM   15  C28 UNL     1       2.080   5.568  10.563  1.00  0.00     0.019 C 
HETATM   16  C24 UNL     1       0.622   7.537   8.489  1.00  0.00     0.007 C 
HETATM   17  C26 UNL     1       2.542   6.189   7.606  1.00  0.00     0.011 C 
HETATM   18  C23 UNL     1       0.149   8.645   9.431  1.00  0.00     0.036 C 
BRANCH   7  19
HETATM   19  O2  UNL     1       3.869   7.233  13.898  1.00  0.00    -0.363 OA
HETATM   20  H5  UNL     1       3.464   7.899  14.477  1.00  0.00     0.213 HD
ENDBRANCH   7  19
ENDBRANCH   1   2
BRANCH   1  21
HETATM   21  C8  UNL     1      -1.117   7.421  12.392  1.00  0.00     0.266 C 
HETATM   22  O5  UNL     1      -1.817   8.408  12.557  1.00  0.00    -0.265 OA
BRANCH  21  23
HETATM   23  C9  UNL     1      -0.966   6.297  13.402  1.00  0.00     0.114 C 
HETATM   24  C10 UNL     1       0.495   6.001  13.757  1.00  0.00     0.023 C 
BRANCH  23  25
HETATM   25  C11 UNL     1      -1.741   5.039  12.942  1.00  0.00     0.159 C 
BRANCH  25  26
HETATM   26  O6  UNL     1      -1.169   4.611  11.695  1.00  0.00    -0.390 OA
HETATM   27  H13 UNL     1      -0.410   4.043  11.911  1.00  0.00     0.210 HD
ENDBRANCH  25  26
BRANCH  25  28
HETATM   28  C12 UNL     1      -3.251   5.214  12.775  1.00  0.00    -0.058 C 
HETATM   29  C13 UNL     1      -3.865   4.345  11.704  1.00  0.00     0.046 C 
HETATM   30  C14 UNL     1      -3.968   6.104  13.496  1.00  0.00    -0.015 C 
BRANCH  30  31
HETATM   31  C15 UNL     1      -5.470   6.320  13.464  1.00  0.00     0.032 C 
BRANCH  31  32
HETATM   32  C16 UNL     1      -5.802   7.824  13.496  1.00  0.00     0.172 C 
BRANCH  32  33
HETATM   33  O7  UNL     1      -4.797   8.613  12.871  1.00  0.00    -0.400 OA
HETATM   34  H21 UNL     1      -4.846   8.429  11.918  1.00  0.00     0.209 HD
ENDBRANCH  32  33
ENDBRANCH  31  32
BRANCH  31  35
HETATM   35  C17 UNL     1      -6.132   5.535  14.619  1.00  0.00     0.010 C 
BRANCH  35  36
HETATM   36  C18 UNL     1      -7.530   5.021  14.255  1.00  0.00     0.001 C 
BRANCH  36  37
HETATM   37  C19 UNL     1      -7.561   3.519  13.957  1.00  0.00     0.000 C 
BRANCH  37  38
HETATM   38  C20 UNL     1      -7.033   3.183  12.560  1.00  0.00    -0.000 C 
BRANCH  38  39
HETATM   39  C21 UNL     1      -6.968   1.671  12.331  1.00  0.00    -0.005 C 
HETATM   40  C22 UNL     1      -6.031   1.326  11.181  1.00  0.00     0.005 C 
ENDBRANCH  38  39
ENDBRANCH  37  38
ENDBRANCH  36  37
ENDBRANCH  35  36
ENDBRANCH  31  35
ENDBRANCH  30  31
ENDBRANCH  25  28
ENDBRANCH  23  25
ENDBRANCH  21  23
ENDBRANCH   1  21
TORSDOF 15
ENDMDL
MODEL 6
REMARK minimizedAffinity -7.04815292
REMARK CNNscore 0.390813142
REMARK CNNaffinity 5.85412645
REMARK  15 active torsions:
REMARK  status: ('A' for Active; 'I' for Inactive)
REMARK    1  A    between atoms: C4_5  and  O2_6 
REMARK    2  A    between atoms: C7_10  and  O4_11 
REMARK    3  A    between atoms: O4_11  and  C8_12 
REMARK    4  A    between atoms: C8_12  and  C9_14 
REMARK    5  A    between atoms: C9_14  and  C11_16 
REMARK    6  A    between atoms: C11_16  and  O6_17 
REMARK    7  A    between atoms: C11_16  and  C12_18 
REMARK    8  A    between atoms: C14_20  and  C15_21 
REMARK    9  A    between atoms: C15_21  and  C16_22 
REMARK   10  A    between atoms: C15_21  and  C17_24 
REMARK   11  A    between atoms: C16_22  and  O7_23 
REMARK   12  A    between atoms: C17_24  and  C18_25 
REMARK   13  A    between atoms: C18_25  and  C19_26 
REMARK   14  A    between atoms: C19_26  and  C20_27 
REMARK   15  A    between atoms: C20_27  and  C21_28 
ROOT
HETATM    1  O4  UNL     1       0.337  10.376  18.639  1.00  0.00    -0.312 OA
ENDROOT
BRANCH   1   2
HETATM    2  C7  UNL     1       0.089  10.955  17.341  1.00  0.00     0.170 C 
HETATM    3  C6  UNL     1      -1.204  10.445  16.741  1.00  0.00     0.127 A 
HETATM    4  C5  UNL     1      -1.167   9.295  15.755  1.00  0.00     0.223 A 
HETATM    5  O3  UNL     1      -1.250  10.663  15.314  1.00  0.00    -0.360 OA
HETATM    6  C27 UNL     1      -2.519  10.818  17.433  1.00  0.00    -0.003 C 
HETATM    7  C4  UNL     1      -2.367   8.445  15.472  1.00  0.00     0.199 C 
HETATM    8  O1  UNL     1      -2.578   8.400  14.059  1.00  0.00    -0.348 OA
HETATM    9  C30 UNL     1      -3.685   8.921  16.117  1.00  0.00     0.082 C 
HETATM   10  C3  UNL     1      -3.964   8.121  13.833  1.00  0.00     0.205 C 
HETATM   11  C2  UNL     1      -4.693   8.612  15.038  1.00  0.00    -0.056 C 
HETATM   12  C1  UNL     1      -6.022   8.751  15.133  1.00  0.00     0.017 C 
HETATM   13  C29 UNL     1      -3.713  10.408  16.518  1.00  0.00     0.027 C 
HETATM   14  C25 UNL     1      -2.535  12.376  17.644  1.00  0.00    -0.007 C 
HETATM   15  C28 UNL     1      -2.645  10.054  18.771  1.00  0.00     0.019 C 
HETATM   16  C24 UNL     1      -1.237  12.898  18.295  1.00  0.00     0.007 C 
HETATM   17  C26 UNL     1      -3.740  12.889  18.446  1.00  0.00     0.011 C 
HETATM   18  C23 UNL     1       0.010  12.474  17.518  1.00  0.00     0.036 C 
BRANCH   7  19
HETATM   19  O2  UNL     1      -2.105   7.113  15.914  1.00  0.00    -0.363 OA
HETATM   20  H5  UNL     1      -1.256   6.871  15.513  1.00  0.00     0.213 HD
ENDBRANCH   7  19
ENDBRANCH   1   2
BRANCH   1  21
HETATM   21  C8  UNL     1       1.625  10.331  19.072  1.00  0.00     0.266 C 
HETATM   22  O5  UNL     1       2.569   9.976  18.383  1.00  0.00    -0.265 OA
BRANCH  21  23
HETATM   23  C9  UNL     1       1.722  10.680  20.547  1.00  0.00     0.114 C 
HETATM   24  C10 UNL     1       1.756  12.191  20.804  1.00  0.00     0.023 C 
BRANCH  23  25
HETATM   25  C11 UNL     1       2.900   9.929  21.212  1.00  0.00     0.159 C 
BRANCH  25  26
HETATM   26  O6  UNL     1       2.388   8.687  21.721  1.00  0.00    -0.390 OA
HETATM   27  H13 UNL     1       2.416   8.047  20.990  1.00  0.00     0.210 HD
ENDBRANCH  25  26
BRANCH  25  28
HETATM   28  C12 UNL     1       3.617  10.682  22.334  1.00  0.00    -0.058 C 
HETATM   29  C13 UNL     1       3.051  10.435  23.711  1.00  0.00     0.046 C 
HETATM   30  C14 UNL     1       4.645  11.528  22.106  1.00  0.00    -0.015 C 
BRANCH  30  31
HETATM   31  C15 UNL     1       5.471  12.275  23.137  1.00  0.00     0.032 C 
BRANCH  31  32
HETATM   32  C16 UNL     1       5.294  13.796  22.975  1.00  0.00     0.172 C 
BRANCH  32  33
HETATM   33  O7  UNL     1       3.941  14.204  23.139  1.00  0.00    -0.400 OA
HETATM   34  H21 UNL     1       3.725  14.088  24.080  1.00  0.00     0.209 HD
ENDBRANCH  32  33
ENDBRANCH  31  32
BRANCH  31  35
HETATM   35  C17 UNL     1       6.948  11.829  23.041  1.00  0.00     0.010 C 
BRANCH  35  36
HETATM   36  C18 UNL     1       7.902  13.003  22.789  1.00  0.00     0.001 C 
BRANCH  36  37
HETATM   37  C19 UNL     1       8.530  12.980  21.392  1.00  0.00     0.000 C 
BRANCH  37  38
HETATM   38  C20 UNL     1       9.921  12.340  21.381  1.00  0.00    -0.000 C 
BRANCH  38  39
HETATM   39  C21 UNL     1      10.743  12.799  20.173  1.00  0.00    -0.005 C 
HETATM   40  C22 UNL     1      12.001  11.956  20.009  1.00  0.00     0.005 C 
ENDBRANCH  38  39
ENDBRANCH  37  38
ENDBRANCH  36  37
ENDBRANCH  35  36
ENDBRANCH  31  35
ENDBRANCH  30  31
ENDBRANCH  25  28
ENDBRANCH  23  25
ENDBRANCH  21  23
ENDBRANCH   1  21
TORSDOF 15
ENDMDL
MODEL 7
REMARK minimizedAffinity -6.65391588
REMARK CNNscore 0.294762254
REMARK CNNaffinity 6.29851294
REMARK  15 active torsions:
REMARK  status: ('A' for Active; 'I' for Inactive)
REMARK    1  A    between atoms: C4_5  and  O2_6 
REMARK    2  A    between atoms: C7_10  and  O4_11 
REMARK    3  A    between atoms: O4_11  and  C8_12 
REMARK    4  A    between atoms: C8_12  and  C9_14 
REMARK    5  A    between atoms: C9_14  and  C11_16 
REMARK    6  A    between atoms: C11_16  and  O6_17 
REMARK    7  A    between atoms: C11_16  and  C12_18 
REMARK    8  A    between atoms: C14_20  and  C15_21 
REMARK    9  A    between atoms: C15_21  and  C16_22 
REMARK   10  A    between atoms: C15_21  and  C17_24 
REMARK   11  A    between atoms: C16_22  and  O7_23 
REMARK   12  A    between atoms: C17_24  and  C18_25 
REMARK   13  A    between atoms: C18_25  and  C19_26 
REMARK   14  A    between atoms: C19_26  and  C20_27 
REMARK   15  A    between atoms: C20_27  and  C21_28 
ROOT
HETATM    1  O4  UNL     1       6.334   8.831  12.725  1.00  0.00    -0.312 OA
ENDROOT
BRANCH   1   2
HETATM    2  C7  UNL     1       7.092   8.404  13.876  1.00  0.00     0.170 C 
HETATM    3  C6  UNL     1       8.202   9.379  14.206  1.00  0.00     0.127 A 
HETATM    4  C5  UNL     1       9.607   9.108  13.706  1.00  0.00     0.223 A 
HETATM    5  O3  UNL     1       9.207   8.774  15.048  1.00  0.00    -0.360 OA
HETATM    6  C27 UNL     1       7.813  10.784  14.674  1.00  0.00    -0.003 C 
HETATM    7  C4  UNL     1      10.634  10.190  13.582  1.00  0.00     0.199 C 
HETATM    8  O1  UNL     1      11.821   9.781  14.265  1.00  0.00    -0.348 OA
HETATM    9  C30 UNL     1      10.226  11.563  14.156  1.00  0.00     0.082 C 
HETATM   10  C3  UNL     1      12.535  10.962  14.646  1.00  0.00     0.205 C 
HETATM   11  C2  UNL     1      11.519  12.047  14.764  1.00  0.00    -0.056 C 
HETATM   12  C1  UNL     1      11.732  13.248  15.318  1.00  0.00     0.017 C 
HETATM   13  C29 UNL     1       9.086  11.521  15.192  1.00  0.00     0.027 C 
HETATM   14  C25 UNL     1       6.780  10.639  15.850  1.00  0.00    -0.007 C 
HETATM   15  C28 UNL     1       7.232  11.592  13.491  1.00  0.00     0.019 C 
HETATM   16  C24 UNL     1       5.622   9.680  15.505  1.00  0.00     0.007 C 
HETATM   17  C26 UNL     1       6.197  11.972  16.342  1.00  0.00     0.011 C 
HETATM   18  C23 UNL     1       6.124   8.306  15.059  1.00  0.00     0.036 C 
BRANCH   7  19
HETATM   19  O2  UNL     1      10.963  10.360  12.204  1.00  0.00    -0.363 OA
HETATM   20  H5  UNL     1      11.178   9.472  11.879  1.00  0.00     0.213 HD
ENDBRANCH   7  19
ENDBRANCH   1   2
BRANCH   1  21
HETATM   21  C8  UNL     1       6.573   8.198  11.546  1.00  0.00     0.266 C 
HETATM   22  O5  UNL     1       7.298   8.636  10.665  1.00  0.00    -0.265 OA
BRANCH  21  23
HETATM   23  C9  UNL     1       5.743   6.931  11.423  1.00  0.00     0.114 C 
HETATM   24  C10 UNL     1       6.582   5.697  11.078  1.00  0.00     0.023 C 
BRANCH  23  25
HETATM   25  C11 UNL     1       4.558   7.144  10.453  1.00  0.00     0.159 C 
BRANCH  25  26
HETATM   26  O6  UNL     1       4.658   8.481   9.934  1.00  0.00    -0.390 OA
HETATM   27  H13 UNL     1       5.255   8.444   9.168  1.00  0.00     0.210 HD
ENDBRANCH  25  26
BRANCH  25  28
HETATM   28  C12 UNL     1       3.165   6.934  11.050  1.00  0.00    -0.058 C 
HETATM   29  C13 UNL     1       2.598   5.552  10.838  1.00  0.00     0.046 C 
HETATM   30  C14 UNL     1       2.484   7.917  11.679  1.00  0.00    -0.015 C 
BRANCH  30  31
HETATM   31  C15 UNL     1       1.134   7.812  12.363  1.00  0.00     0.032 C 
BRANCH  31  32
HETATM   32  C16 UNL     1       0.952   6.418  12.992  1.00  0.00     0.172 C 
BRANCH  32  33
HETATM   33  O7  UNL     1       1.723   6.254  14.176  1.00  0.00    -0.400 OA
HETATM   34  H21 UNL     1       1.322   6.821  14.855  1.00  0.00     0.209 HD
ENDBRANCH  32  33
ENDBRANCH  31  32
BRANCH  31  35
HETATM   35  C17 UNL     1       0.014   8.168  11.360  1.00  0.00     0.010 C 
BRANCH  35  36
HETATM   36  C18 UNL     1       0.171   7.441  10.019  1.00  0.00     0.001 C 
BRANCH  36  37
HETATM   37  C19 UNL     1       0.213   8.391   8.819  1.00  0.00     0.000 C 
BRANCH  37  38
HETATM   38  C20 UNL     1       1.601   8.469   8.176  1.00  0.00    -0.000 C 
BRANCH  38  39
HETATM   39  C21 UNL     1       1.739   7.484   7.013  1.00  0.00    -0.005 C 
HETATM   40  C22 UNL     1       2.416   6.194   7.458  1.00  0.00     0.005 C 
ENDBRANCH  38  39
ENDBRANCH  37  38
ENDBRANCH  36  37
ENDBRANCH  35  36
ENDBRANCH  31  35
ENDBRANCH  30  31
ENDBRANCH  25  28
ENDBRANCH  23  25
ENDBRANCH  21  23
ENDBRANCH   1  21
TORSDOF 15
ENDMDL
MODEL 8
REMARK minimizedAffinity -6.65548086
REMARK CNNscore 0.238894999
REMARK CNNaffinity 5.53781748
REMARK  15 active torsions:
REMARK  status: ('A' for Active; 'I' for Inactive)
REMARK    1  A    between atoms: C4_5  and  O2_6 
REMARK    2  A    between atoms: C7_10  and  O4_11 
REMARK    3  A    between atoms: O4_11  and  C8_12 
REMARK    4  A    between atoms: C8_12  and  C9_14 
REMARK    5  A    between atoms: C9_14  and  C11_16 
REMARK    6  A    between atoms: C11_16  and  O6_17 
REMARK    7  A    between atoms: C11_16  and  C12_18 
REMARK    8  A    between atoms: C14_20  and  C15_21 
REMARK    9  A    between atoms: C15_21  and  C16_22 
REMARK   10  A    between atoms: C15_21  and  C17_24 
REMARK   11  A    between atoms: C16_22  and  O7_23 
REMARK   12  A    between atoms: C17_24  and  C18_25 
REMARK   13  A    between atoms: C18_25  and  C19_26 
REMARK   14  A    between atoms: C19_26  and  C20_27 
REMARK   15  A    between atoms: C20_27  and  C21_28 
ROOT
HETATM    1  O4  UNL     1       1.733   9.816  17.726  1.00  0.00    -0.312 OA
ENDROOT
BRANCH   1   2
HETATM    2  C7  UNL     1       1.572  10.525  16.480  1.00  0.00     0.170 C 
HETATM    3  C6  UNL     1       1.715   9.601  15.289  1.00  0.00     0.127 A 
HETATM    4  C5  UNL     1       3.048   9.503  14.576  1.00  0.00     0.223 A 
HETATM    5  O3  UNL     1       1.986  10.336  14.076  1.00  0.00    -0.360 OA
HETATM    6  C27 UNL     1       0.658   8.510  15.091  1.00  0.00    -0.003 C 
HETATM    7  C4  UNL     1       3.414   8.329  13.722  1.00  0.00     0.199 C 
HETATM    8  O1  UNL     1       3.843   8.803  12.443  1.00  0.00    -0.348 OA
HETATM    9  C30 UNL     1       2.283   7.308  13.475  1.00  0.00     0.082 C 
HETATM   10  C3  UNL     1       3.627   7.755  11.493  1.00  0.00     0.205 C 
HETATM   11  C2  UNL     1       2.522   6.914  12.039  1.00  0.00    -0.056 C 
HETATM   12  C1  UNL     1       1.861   5.970  11.356  1.00  0.00     0.017 C 
HETATM   13  C29 UNL     1       0.858   7.853  13.691  1.00  0.00     0.027 C 
HETATM   14  C25 UNL     1      -0.760   9.186  15.151  1.00  0.00    -0.007 C 
HETATM   15  C28 UNL     1       0.822   7.415  16.170  1.00  0.00     0.019 C 
HETATM   16  C24 UNL     1      -0.928  10.097  16.385  1.00  0.00     0.007 C 
HETATM   17  C26 UNL     1      -1.932   8.195  15.096  1.00  0.00     0.011 C 
HETATM   18  C23 UNL     1       0.175  11.152  16.479  1.00  0.00     0.036 C 
BRANCH   7  19
HETATM   19  O2  UNL     1       4.514   7.644  14.321  1.00  0.00    -0.363 OA
HETATM   20  H5  UNL     1       5.182   8.328  14.488  1.00  0.00     0.213 HD
ENDBRANCH   7  19
ENDBRANCH   1   2
BRANCH   1  21
HETATM   21  C8  UNL     1       2.489  10.404  18.690  1.00  0.00     0.266 C 
HETATM   22  O5  UNL     1       3.581  10.914  18.492  1.00  0.00    -0.265 OA
BRANCH  21  23
HETATM   23  C9  UNL     1       1.847  10.254  20.060  1.00  0.00     0.114 C 
HETATM   24  C10 UNL     1       1.210  11.551  20.568  1.00  0.00     0.023 C 
BRANCH  23  25
HETATM   25  C11 UNL     1       2.845   9.637  21.068  1.00  0.00     0.159 C 
BRANCH  25  26
HETATM   26  O6  UNL     1       2.163   8.576  21.756  1.00  0.00    -0.390 OA
HETATM   27  H13 UNL     1       2.253   7.778  21.207  1.00  0.00     0.210 HD
ENDBRANCH  25  26
BRANCH  25  28
HETATM   28  C12 UNL     1       3.439  10.607  22.091  1.00  0.00    -0.058 C 
HETATM   29  C13 UNL     1       3.089  10.292  23.525  1.00  0.00     0.046 C 
HETATM   30  C14 UNL     1       4.179  11.681  21.737  1.00  0.00    -0.015 C 
BRANCH  30  31
HETATM   31  C15 UNL     1       4.869  12.670  22.658  1.00  0.00     0.032 C 
BRANCH  31  32
HETATM   32  C16 UNL     1       4.051  13.969  22.770  1.00  0.00     0.172 C 
BRANCH  32  33
HETATM   33  O7  UNL     1       4.202  14.804  21.627  1.00  0.00    -0.400 OA
HETATM   34  H21 UNL     1       3.750  14.358  20.891  1.00  0.00     0.209 HD
ENDBRANCH  32  33
ENDBRANCH  31  32
BRANCH  31  35
HETATM   35  C17 UNL     1       6.315  12.911  22.169  1.00  0.00     0.010 C 
BRANCH  35  36
HETATM   36  C18 UNL     1       7.340  12.841  23.307  1.00  0.00     0.001 C 
BRANCH  36  37
HETATM   37  C19 UNL     1       8.555  11.970  22.972  1.00  0.00     0.000 C 
BRANCH  37  38
HETATM   38  C20 UNL     1       9.574  12.694  22.088  1.00  0.00    -0.000 C 
BRANCH  38  39
HETATM   39  C21 UNL     1       9.722  12.014  20.724  1.00  0.00    -0.005 C 
HETATM   40  C22 UNL     1      11.178  11.974  20.281  1.00  0.00     0.005 C 
ENDBRANCH  38  39
ENDBRANCH  37  38
ENDBRANCH  36  37
ENDBRANCH  35  36
ENDBRANCH  31  35
ENDBRANCH  30  31
ENDBRANCH  25  28
ENDBRANCH  23  25
ENDBRANCH  21  23
ENDBRANCH   1  21
TORSDOF 15
ENDMDL
MODEL 9
REMARK minimizedAffinity -7.5107975
REMARK CNNscore 0.238440812
REMARK CNNaffinity 5.55788994
REMARK  15 active torsions:
REMARK  status: ('A' for Active; 'I' for Inactive)
REMARK    1  A    between atoms: C4_5  and  O2_6 
REMARK    2  A    between atoms: C7_10  and  O4_11 
REMARK    3  A    between atoms: O4_11  and  C8_12 
REMARK    4  A    between atoms: C8_12  and  C9_14 
REMARK    5  A    between atoms: C9_14  and  C11_16 
REMARK    6  A    between atoms: C11_16  and  O6_17 
REMARK    7  A    between atoms: C11_16  and  C12_18 
REMARK    8  A    between atoms: C14_20  and  C15_21 
REMARK    9  A    between atoms: C15_21  and  C16_22 
REMARK   10  A    between atoms: C15_21  and  C17_24 
REMARK   11  A    between atoms: C16_22  and  O7_23 
REMARK   12  A    between atoms: C17_24  and  C18_25 
REMARK   13  A    between atoms: C18_25  and  C19_26 
REMARK   14  A    between atoms: C19_26  and  C20_27 
REMARK   15  A    between atoms: C20_27  and  C21_28 
ROOT
HETATM    1  O4  UNL     1      -3.229   8.870  15.398  1.00  0.00    -0.312 OA
ENDROOT
BRANCH   1   2
HETATM    2  C7  UNL     1      -3.421   8.986  13.973  1.00  0.00     0.170 C 
HETATM    3  C6  UNL     1      -2.303   8.314  13.204  1.00  0.00     0.127 A 
HETATM    4  C5  UNL     1      -1.144   9.145  12.691  1.00  0.00     0.223 A 
HETATM    5  O3  UNL     1      -2.245   8.779  11.838  1.00  0.00    -0.360 OA
HETATM    6  C27 UNL     1      -2.165   6.792  13.312  1.00  0.00    -0.003 C 
HETATM    7  C4  UNL     1       0.181   8.541  12.343  1.00  0.00     0.199 C 
HETATM    8  O1  UNL     1       0.543   8.952  11.023  1.00  0.00    -0.348 OA
HETATM    9  C30 UNL     1       0.237   7.000  12.375  1.00  0.00     0.082 C 
HETATM   10  C3  UNL     1       1.436   7.969  10.489  1.00  0.00     0.205 C 
HETATM   11  C2  UNL     1       1.129   6.693  11.197  1.00  0.00    -0.056 C 
HETATM   12  C1  UNL     1       1.577   5.483  10.837  1.00  0.00     0.017 C 
HETATM   13  C29 UNL     1      -1.128   6.297  12.258  1.00  0.00     0.027 C 
HETATM   14  C25 UNL     1      -3.568   6.152  13.004  1.00  0.00    -0.007 C 
HETATM   15  C28 UNL     1      -1.651   6.408  14.718  1.00  0.00     0.019 C 
HETATM   16  C24 UNL     1      -4.706   6.803  13.817  1.00  0.00     0.007 C 
HETATM   17  C26 UNL     1      -3.620   4.629  13.199  1.00  0.00     0.011 C 
HETATM   18  C23 UNL     1      -4.755   8.320  13.628  1.00  0.00     0.036 C 
BRANCH   7  19
HETATM   19  O2  UNL     1       1.170   9.045  13.240  1.00  0.00    -0.363 OA
HETATM   20  H5  UNL     1       1.073  10.010  13.213  1.00  0.00     0.213 HD
ENDBRANCH   7  19
ENDBRANCH   1   2
BRANCH   1  21
HETATM   21  C8  UNL     1      -3.295  10.010  16.136  1.00  0.00     0.266 C 
HETATM   22  O5  UNL     1      -4.004  10.965  15.861  1.00  0.00    -0.265 OA
BRANCH  21  23
HETATM   23  C9  UNL     1      -2.300   9.982  17.284  1.00  0.00     0.114 C 
HETATM   24  C10 UNL     1      -2.831  10.654  18.554  1.00  0.00     0.023 C 
BRANCH  23  25
HETATM   25  C11 UNL     1      -0.929  10.540  16.835  1.00  0.00     0.159 C 
BRANCH  25  26
HETATM   26  O6  UNL     1      -0.408   9.652  15.831  1.00  0.00    -0.390 OA
HETATM   27  H13 UNL     1      -0.783   9.936  14.980  1.00  0.00     0.210 HD
ENDBRANCH  25  26
BRANCH  25  28
HETATM   28  C12 UNL     1       0.110  10.718  17.943  1.00  0.00    -0.058 C 
HETATM   29  C13 UNL     1       1.528  10.419  17.523  1.00  0.00     0.046 C 
HETATM   30  C14 UNL     1      -0.221  11.073  19.205  1.00  0.00    -0.015 C 
BRANCH  30  31
HETATM   31  C15 UNL     1       0.721  11.341  20.364  1.00  0.00     0.032 C 
BRANCH  31  32
HETATM   32  C16 UNL     1       1.212  12.801  20.337  1.00  0.00     0.172 C 
BRANCH  32  33
HETATM   33  O7  UNL     1       2.463  12.938  19.674  1.00  0.00    -0.400 OA
HETATM   34  H21 UNL     1       2.300  12.776  18.729  1.00  0.00     0.209 HD
ENDBRANCH  32  33
ENDBRANCH  31  32
BRANCH  31  35
HETATM   35  C17 UNL     1       1.878  10.318  20.340  1.00  0.00     0.010 C 
BRANCH  35  36
HETATM   36  C18 UNL     1       2.188   9.748  21.729  1.00  0.00     0.001 C 
BRANCH  36  37
HETATM   37  C19 UNL     1       3.689   9.650  22.019  1.00  0.00     0.000 C 
BRANCH  37  38
HETATM   38  C20 UNL     1       4.406  10.996  21.882  1.00  0.00    -0.000 C 
BRANCH  38  39
HETATM   39  C21 UNL     1       5.461  11.187  22.975  1.00  0.00    -0.005 C 
HETATM   40  C22 UNL     1       5.962  12.625  23.014  1.00  0.00     0.005 C 
ENDBRANCH  38  39
ENDBRANCH  37  38
ENDBRANCH  36  37
ENDBRANCH  35  36
ENDBRANCH  31  35
ENDBRANCH  30  31
ENDBRANCH  25  28
ENDBRANCH  23  25
ENDBRANCH  21  23
ENDBRANCH   1  21
TORSDOF 15
ENDMDL
