MODEL 1
REMARK minimizedAffinity -8.94414139
REMARK  5 active torsions:
REMARK  status: ('A' for Active; 'I' for Inactive)
REMARK    1  A    between atoms: C4_4  and  C5_5 
REMARK    2  A    between atoms: C5_5  and  C6_6 
REMARK    3  A    between atoms: C6_6  and  C7_7 
REMARK    4  A    between atoms: C7_7  and  C9_9 
REMARK    5  A    between atoms: C26_29  and  O4_30 
ROOT
HETATM    1  C9  UNL     1      -4.155   8.715  14.591  1.00  0.00    -0.001 C 
HETATM    2  C10 UNL     1      -3.700   9.270  15.976  1.00  0.00     0.007 C 
HETATM    3  C11 UNL     1      -2.182   9.055  16.097  1.00  0.00     0.024 C 
HETATM    4  C12 UNL     1      -1.767   8.547  14.737  1.00  0.00     0.092 C 
HETATM    5  C13 UNL     1      -1.442   9.706  13.762  1.00  0.00     0.272 C 
HETATM    6  O1  UNL     1      -1.875  10.846  13.786  1.00  0.00    -0.264 OA
HETATM    7  O2  UNL     1      -0.559   9.239  12.808  1.00  0.00    -0.305 OA
HETATM    8  C14 UNL     1      -0.257   7.849  13.088  1.00  0.00     0.113 C 
HETATM    9  C15 UNL     1      -1.351   7.010  12.357  1.00  0.00     0.043 C 
HETATM   10  C16 UNL     1      -2.801   7.459  12.697  1.00  0.00     0.014 C 
HETATM   11  C17 UNL     1      -2.996   7.736  14.212  1.00  0.00    -0.020 C 
HETATM   12  C18 UNL     1      -3.172   6.377  14.940  1.00  0.00     0.017 C 
HETATM   13  C19 UNL     1      -0.507   7.794  14.564  1.00  0.00     0.137 A 
HETATM   14  O3  UNL     1      -0.201   6.644  15.331  1.00  0.00    -0.364 OA
HETATM   15  C20 UNL     1       0.623   7.804  15.569  1.00  0.00     0.162 A 
HETATM   16  C21 UNL     1       2.042   7.695  15.098  1.00  0.00     0.041 C 
HETATM   17  C22 UNL     1       2.192   8.274  13.672  1.00  0.00     0.009 C 
HETATM   18  C23 UNL     1       3.676   8.538  13.164  1.00  0.00    -0.017 C 
HETATM   19  C24 UNL     1       3.817  10.067  12.909  1.00  0.00     0.018 C 
HETATM   20  C25 UNL     1       4.748   8.188  14.225  1.00  0.00     0.018 C 
HETATM   21  C26 UNL     1       4.037   7.827  11.830  1.00  0.00     0.126 C 
HETATM   22  C27 UNL     1       2.944   7.820  10.757  1.00  0.00     0.033 C 
HETATM   23  C28 UNL     1       1.525   8.074  11.260  1.00  0.00     0.015 C 
HETATM   24  C29 UNL     1       1.232   7.525  12.674  1.00  0.00    -0.004 C 
HETATM   25  C30 UNL     1       1.430   5.987  12.684  1.00  0.00     0.019 C 
ENDROOT
BRANCH   1  26
HETATM   26  C7  UNL     1      -5.622   8.191  14.620  1.00  0.00    -0.014 C 
HETATM   27  C8  UNL     1      -5.920   7.414  15.908  1.00  0.00     0.010 C 
BRANCH  26  28
HETATM   28  C6  UNL     1      -5.920   7.279  13.394  1.00  0.00     0.008 C 
BRANCH  28  29
HETATM   29  C5  UNL     1      -6.459   5.887  13.766  1.00  0.00     0.028 C 
BRANCH  29  30
HETATM   30  C4  UNL     1      -5.895   4.773  12.931  1.00  0.00    -0.025 C 
HETATM   31  C2  UNL     1      -6.486   3.613  12.579  1.00  0.00    -0.091 C 
HETATM   32  C1  UNL     1      -7.875   3.191  12.967  1.00  0.00     0.042 C 
HETATM   33  C3  UNL     1      -5.743   2.602  11.746  1.00  0.00     0.042 C 
ENDBRANCH  29  30
ENDBRANCH  28  29
ENDBRANCH  26  28
ENDBRANCH   1  26
BRANCH  21  34
HETATM   34  O4  UNL     1       4.456   6.484  12.079  1.00  0.00    -0.395 OA
HETATM   35  H39 UNL     1       4.805   6.123  11.245  1.00  0.00     0.210 HD
ENDBRANCH  21  34
TORSDOF 5
ENDMDL
MODEL 2
REMARK minimizedAffinity -8.85980892
REMARK  5 active torsions:
REMARK  status: ('A' for Active; 'I' for Inactive)
REMARK    1  A    between atoms: C4_4  and  C5_5 
REMARK    2  A    between atoms: C5_5  and  C6_6 
REMARK    3  A    between atoms: C6_6  and  C7_7 
REMARK    4  A    between atoms: C7_7  and  C9_9 
REMARK    5  A    between atoms: C26_29  and  O4_30 
ROOT
HETATM    1  C9  UNL     1      -1.171   6.132  13.672  1.00  0.00    -0.001 C 
HETATM    2  C10 UNL     1       0.190   6.738  13.209  1.00  0.00     0.007 C 
HETATM    3  C11 UNL     1       0.239   8.203  13.675  1.00  0.00     0.024 C 
HETATM    4  C12 UNL     1      -0.994   8.365  14.530  1.00  0.00     0.092 C 
HETATM    5  C13 UNL     1      -0.729   7.973  16.005  1.00  0.00     0.272 C 
HETATM    6  O1  UNL     1       0.107   7.195  16.433  1.00  0.00    -0.264 OA
HETATM    7  O2  UNL     1      -1.626   8.654  16.805  1.00  0.00    -0.305 OA
HETATM    8  C14 UNL     1      -2.464   9.489  15.967  1.00  0.00     0.113 C 
HETATM    9  C15 UNL     1      -3.668   8.597  15.529  1.00  0.00     0.043 C 
HETATM   10  C16 UNL     1      -3.234   7.242  14.900  1.00  0.00     0.014 C 
HETATM   11  C17 UNL     1      -2.054   7.402  13.904  1.00  0.00    -0.020 C 
HETATM   12  C18 UNL     1      -2.617   7.925  12.557  1.00  0.00     0.017 C 
HETATM   13  C19 UNL     1      -1.564   9.703  14.788  1.00  0.00     0.137 A 
HETATM   14  O3  UNL     1      -1.904  10.596  13.743  1.00  0.00    -0.364 OA
HETATM   15  C20 UNL     1      -0.803  10.994  14.586  1.00  0.00     0.162 A 
HETATM   16  C21 UNL     1      -1.069  12.166  15.484  1.00  0.00     0.041 C 
HETATM   17  C22 UNL     1      -1.550  11.693  16.875  1.00  0.00     0.009 C 
HETATM   18  C23 UNL     1      -1.554  12.782  18.034  1.00  0.00    -0.017 C 
HETATM   19  C24 UNL     1      -0.557  12.301  19.129  1.00  0.00     0.018 C 
HETATM   20  C25 UNL     1      -1.032  14.162  17.566  1.00  0.00     0.018 C 
HETATM   21  C26 UNL     1      -2.928  12.973  18.735  1.00  0.00     0.126 C 
HETATM   22  C27 UNL     1      -3.728  11.695  19.002  1.00  0.00     0.033 C 
HETATM   23  C28 UNL     1      -3.333  10.482  18.163  1.00  0.00     0.015 C 
HETATM   24  C29 UNL     1      -2.849  10.814  16.734  1.00  0.00    -0.004 C 
HETATM   25  C30 UNL     1      -3.983  11.531  15.956  1.00  0.00     0.019 C 
ENDROOT
BRANCH   1  26
HETATM   26  C7  UNL     1      -1.674   5.013  12.711  1.00  0.00    -0.014 C 
HETATM   27  C8  UNL     1      -0.963   5.071  11.354  1.00  0.00     0.010 C 
BRANCH  26  28
HETATM   28  C6  UNL     1      -3.212   5.112  12.486  1.00  0.00     0.008 C 
BRANCH  28  29
HETATM   29  C5  UNL     1      -3.886   3.765  12.175  1.00  0.00     0.028 C 
BRANCH  29  30
HETATM   30  C4  UNL     1      -5.320   3.686  12.616  1.00  0.00    -0.025 C 
HETATM   31  C2  UNL     1      -6.248   2.770  12.273  1.00  0.00    -0.091 C 
HETATM   32  C1  UNL     1      -6.023   1.606  11.349  1.00  0.00     0.042 C 
HETATM   33  C3  UNL     1      -7.652   2.871  12.808  1.00  0.00     0.042 C 
ENDBRANCH  29  30
ENDBRANCH  28  29
ENDBRANCH  26  28
ENDBRANCH   1  26
BRANCH  21  34
HETATM   34  O4  UNL     1      -3.740  13.887  17.996  1.00  0.00    -0.395 OA
HETATM   35  H39 UNL     1      -4.526  14.088  18.534  1.00  0.00     0.210 HD
ENDBRANCH  21  34
TORSDOF 5
ENDMDL
MODEL 3
REMARK minimizedAffinity -8.80863476
REMARK  5 active torsions:
REMARK  status: ('A' for Active; 'I' for Inactive)
REMARK    1  A    between atoms: C4_4  and  C5_5 
REMARK    2  A    between atoms: C5_5  and  C6_6 
REMARK    3  A    between atoms: C6_6  and  C7_7 
REMARK    4  A    between atoms: C7_7  and  C9_9 
REMARK    5  A    between atoms: C26_29  and  O4_30 
ROOT
HETATM    1  C9  UNL     1      -3.555   7.335  13.211  1.00  0.00    -0.001 C 
HETATM    2  C10 UNL     1      -4.071   8.754  13.603  1.00  0.00     0.007 C 
HETATM    3  C11 UNL     1      -2.898   9.528  14.229  1.00  0.00     0.024 C 
HETATM    4  C12 UNL     1      -1.706   8.622  14.035  1.00  0.00     0.092 C 
HETATM    5  C13 UNL     1      -1.021   8.855  12.665  1.00  0.00     0.272 C 
HETATM    6  O1  UNL     1      -1.525   9.285  11.642  1.00  0.00    -0.264 OA
HETATM    7  O2  UNL     1       0.304   8.477  12.770  1.00  0.00    -0.305 OA
HETATM    8  C14 UNL     1       0.557   8.021  14.123  1.00  0.00     0.113 C 
HETATM    9  C15 UNL     1       0.212   6.499  14.140  1.00  0.00     0.043 C 
HETATM   10  C16 UNL     1      -1.205   6.181  13.583  1.00  0.00     0.014 C 
HETATM   11  C17 UNL     1      -2.282   7.170  14.104  1.00  0.00    -0.020 C 
HETATM   12  C18 UNL     1      -2.679   6.750  15.544  1.00  0.00     0.017 C 
HETATM   13  C19 UNL     1      -0.502   8.767  14.878  1.00  0.00     0.137 A 
HETATM   14  O3  UNL     1      -0.561   8.751  16.292  1.00  0.00    -0.364 OA
HETATM   15  C20 UNL     1      -0.186  10.006  15.687  1.00  0.00     0.162 A 
HETATM   16  C21 UNL     1       1.241  10.420  15.891  1.00  0.00     0.041 C 
HETATM   17  C22 UNL     1       2.123   9.949  14.712  1.00  0.00     0.009 C 
HETATM   18  C23 UNL     1       3.576  10.588  14.611  1.00  0.00    -0.017 C 
HETATM   19  C24 UNL     1       3.646  11.378  13.271  1.00  0.00     0.018 C 
HETATM   20  C25 UNL     1       3.858  11.624  15.726  1.00  0.00     0.018 C 
HETATM   21  C26 UNL     1       4.735   9.553  14.580  1.00  0.00     0.126 C 
HETATM   22  C27 UNL     1       4.488   8.295  13.743  1.00  0.00     0.033 C 
HETATM   23  C28 UNL     1       3.025   7.982  13.438  1.00  0.00     0.015 C 
HETATM   24  C29 UNL     1       2.031   8.385  14.551  1.00  0.00    -0.004 C 
HETATM   25  C30 UNL     1       2.378   7.622  15.855  1.00  0.00     0.019 C 
ENDROOT
BRANCH   1  26
HETATM   26  C7  UNL     1      -4.682   6.261  13.276  1.00  0.00    -0.014 C 
HETATM   27  C8  UNL     1      -5.539   6.416  14.538  1.00  0.00     0.010 C 
BRANCH  26  28
HETATM   28  C6  UNL     1      -4.091   4.820  13.234  1.00  0.00     0.008 C 
BRANCH  28  29
HETATM   29  C5  UNL     1      -3.785   4.311  11.816  1.00  0.00     0.028 C 
BRANCH  29  30
HETATM   30  C4  UNL     1      -4.372   2.961  11.514  1.00  0.00    -0.025 C 
HETATM   31  C2  UNL     1      -5.653   2.562  11.640  1.00  0.00    -0.091 C 
HETATM   32  C1  UNL     1      -6.789   3.418  12.125  1.00  0.00     0.042 C 
HETATM   33  C3  UNL     1      -6.046   1.147  11.302  1.00  0.00     0.042 C 
ENDBRANCH  29  30
ENDBRANCH  28  29
ENDBRANCH  26  28
ENDBRANCH   1  26
BRANCH  21  34
HETATM   34  O4  UNL     1       5.094   9.168  15.909  1.00  0.00    -0.395 OA
HETATM   35  H39 UNL     1       5.907   8.636  15.854  1.00  0.00     0.210 HD
ENDBRANCH  21  34
TORSDOF 5
ENDMDL
MODEL 4
REMARK minimizedAffinity -8.69602013
REMARK  5 active torsions:
REMARK  status: ('A' for Active; 'I' for Inactive)
REMARK    1  A    between atoms: C4_4  and  C5_5 
REMARK    2  A    between atoms: C5_5  and  C6_6 
REMARK    3  A    between atoms: C6_6  and  C7_7 
REMARK    4  A    between atoms: C7_7  and  C9_9 
REMARK    5  A    between atoms: C26_29  and  O4_30 
ROOT
HETATM    1  C9  UNL     1      -2.902   4.788  13.413  1.00  0.00    -0.001 C 
HETATM    2  C10 UNL     1      -1.882   5.201  12.308  1.00  0.00     0.007 C 
HETATM    3  C11 UNL     1      -1.543   6.689  12.508  1.00  0.00     0.024 C 
HETATM    4  C12 UNL     1      -2.228   7.057  13.802  1.00  0.00     0.092 C 
HETATM    5  C13 UNL     1      -1.329   6.771  15.032  1.00  0.00     0.272 C 
HETATM    6  O1  UNL     1      -0.433   5.950  15.128  1.00  0.00    -0.264 OA
HETATM    7  O2  UNL     1      -1.714   7.612  16.058  1.00  0.00    -0.305 OA
HETATM    8  C14 UNL     1      -2.800   8.454  15.594  1.00  0.00     0.113 C 
HETATM    9  C15 UNL     1      -4.115   7.659  15.870  1.00  0.00     0.043 C 
HETATM   10  C16 UNL     1      -4.095   6.215  15.292  1.00  0.00     0.014 C 
HETATM   11  C17 UNL     1      -3.507   6.160  13.857  1.00  0.00    -0.020 C 
HETATM   12  C18 UNL     1      -4.603   6.618  12.859  1.00  0.00     0.017 C 
HETATM   13  C19 UNL     1      -2.541   8.465  14.118  1.00  0.00     0.137 A 
HETATM   14  O3  UNL     1      -3.279   9.292  13.237  1.00  0.00    -0.364 OA
HETATM   15  C20 UNL     1      -1.893   9.645  13.428  1.00  0.00     0.162 A 
HETATM   16  C21 UNL     1      -1.649  10.914  14.190  1.00  0.00     0.041 C 
HETATM   17  C22 UNL     1      -1.453  10.620  15.695  1.00  0.00     0.009 C 
HETATM   18  C23 UNL     1      -0.860  11.802  16.579  1.00  0.00    -0.017 C 
HETATM   19  C24 UNL     1       0.504  11.317  17.151  1.00  0.00     0.018 C 
HETATM   20  C25 UNL     1      -0.543  13.072  15.752  1.00  0.00     0.018 C 
HETATM   21  C26 UNL     1      -1.739  12.200  17.797  1.00  0.00     0.126 C 
HETATM   22  C27 UNL     1      -2.389  11.043  18.561  1.00  0.00     0.033 C 
HETATM   23  C28 UNL     1      -2.495   9.725  17.797  1.00  0.00     0.015 C 
HETATM   24  C29 UNL     1      -2.714   9.875  16.275  1.00  0.00    -0.004 C 
HETATM   25  C30 UNL     1      -4.039  10.636  16.015  1.00  0.00     0.019 C 
ENDROOT
BRANCH   1  26
HETATM   26  C7  UNL     1      -3.852   3.648  12.938  1.00  0.00    -0.014 C 
HETATM   27  C8  UNL     1      -3.198   2.779  11.856  1.00  0.00     0.010 C 
BRANCH  26  28
HETATM   28  C6  UNL     1      -5.192   4.221  12.391  1.00  0.00     0.008 C 
BRANCH  28  29
HETATM   29  C5  UNL     1      -6.445   3.619  13.048  1.00  0.00     0.028 C 
BRANCH  29  30
HETATM   30  C4  UNL     1      -7.178   4.572  13.950  1.00  0.00    -0.025 C 
HETATM   31  C2  UNL     1      -8.105   5.491  13.614  1.00  0.00    -0.091 C 
HETATM   32  C1  UNL     1      -8.607   5.754  12.222  1.00  0.00     0.042 C 
HETATM   33  C3  UNL     1      -8.717   6.376  14.668  1.00  0.00     0.042 C 
ENDBRANCH  29  30
ENDBRANCH  28  29
ENDBRANCH  26  28
ENDBRANCH   1  26
BRANCH  21  34
HETATM   34  O4  UNL     1      -2.752  13.126  17.399  1.00  0.00    -0.395 OA
HETATM   35  H39 UNL     1      -3.185  13.457  18.205  1.00  0.00     0.210 HD
ENDBRANCH  21  34
TORSDOF 5
ENDMDL
MODEL 5
REMARK minimizedAffinity -8.67391396
REMARK  5 active torsions:
REMARK  status: ('A' for Active; 'I' for Inactive)
REMARK    1  A    between atoms: C4_4  and  C5_5 
REMARK    2  A    between atoms: C5_5  and  C6_6 
REMARK    3  A    between atoms: C6_6  and  C7_7 
REMARK    4  A    between atoms: C7_7  and  C9_9 
REMARK    5  A    between atoms: C26_29  and  O4_30 
ROOT
HETATM    1  C9  UNL     1      -6.651   7.089  14.019  1.00  0.00    -0.001 C 
HETATM    2  C10 UNL     1      -6.725   8.460  14.760  1.00  0.00     0.007 C 
HETATM    3  C11 UNL     1      -5.302   8.828  15.217  1.00  0.00     0.024 C 
HETATM    4  C12 UNL     1      -4.424   7.770  14.595  1.00  0.00     0.092 C 
HETATM    5  C13 UNL     1      -3.976   8.159  13.164  1.00  0.00     0.272 C 
HETATM    6  O1  UNL     1      -4.546   8.895  12.377  1.00  0.00    -0.264 OA
HETATM    7  O2  UNL     1      -2.787   7.511  12.888  1.00  0.00    -0.305 OA
HETATM    8  C14 UNL     1      -2.400   6.727  14.045  1.00  0.00     0.113 C 
HETATM    9  C15 UNL     1      -3.092   5.338  13.880  1.00  0.00     0.043 C 
HETATM   10  C16 UNL     1      -4.623   5.438  13.625  1.00  0.00     0.014 C 
HETATM   11  C17 UNL     1      -5.310   6.482  14.546  1.00  0.00    -0.020 C 
HETATM   12  C18 UNL     1      -5.515   5.843  15.945  1.00  0.00     0.017 C 
HETATM   13  C19 UNL     1      -3.083   7.483  15.144  1.00  0.00     0.137 A 
HETATM   14  O3  UNL     1      -2.874   7.168  16.508  1.00  0.00    -0.364 OA
HETATM   15  C20 UNL     1      -2.329   8.425  16.056  1.00  0.00     0.162 A 
HETATM   16  C21 UNL     1      -0.832   8.492  15.988  1.00  0.00     0.041 C 
HETATM   17  C22 UNL     1      -0.331   8.128  14.572  1.00  0.00     0.009 C 
HETATM   18  C23 UNL     1       1.186   8.472  14.244  1.00  0.00    -0.017 C 
HETATM   19  C24 UNL     1       1.190   9.508  13.081  1.00  0.00     0.018 C 
HETATM   20  C25 UNL     1       1.917   9.160  15.423  1.00  0.00     0.018 C 
HETATM   21  C26 UNL     1       2.033   7.260  13.764  1.00  0.00     0.126 C 
HETATM   22  C27 UNL     1       1.336   6.292  12.805  1.00  0.00     0.033 C 
HETATM   23  C28 UNL     1      -0.191   6.351  12.802  1.00  0.00     0.015 C 
HETATM   24  C29 UNL     1      -0.827   6.688  14.170  1.00  0.00    -0.004 C 
HETATM   25  C30 UNL     1      -0.434   5.603  15.206  1.00  0.00     0.019 C 
ENDROOT
BRANCH   1  26
HETATM   26  C7  UNL     1      -7.970   6.273  14.162  1.00  0.00    -0.014 C 
HETATM   27  C8  UNL     1      -8.768   6.697  15.401  1.00  0.00     0.010 C 
BRANCH  26  28
HETATM   28  C6  UNL     1      -7.683   4.744  14.239  1.00  0.00     0.008 C 
BRANCH  28  29
HETATM   29  C5  UNL     1      -7.984   3.985  12.936  1.00  0.00     0.028 C 
BRANCH  29  30
HETATM   30  C4  UNL     1      -6.846   3.981  11.956  1.00  0.00    -0.025 C 
HETATM   31  C2  UNL     1      -6.146   2.926  11.495  1.00  0.00    -0.091 C 
HETATM   32  C1  UNL     1      -6.374   1.492  11.884  1.00  0.00     0.042 C 
HETATM   33  C3  UNL     1      -5.015   3.128  10.520  1.00  0.00     0.042 C 
ENDBRANCH  29  30
ENDBRANCH  28  29
ENDBRANCH  26  28
ENDBRANCH   1  26
BRANCH  21  34
HETATM   34  O4  UNL     1       2.534   6.529  14.885  1.00  0.00    -0.395 OA
HETATM   35  H39 UNL     1       3.169   5.871  14.550  1.00  0.00     0.210 HD
ENDBRANCH  21  34
TORSDOF 5
ENDMDL
MODEL 6
REMARK minimizedAffinity -8.66054535
REMARK  5 active torsions:
REMARK  status: ('A' for Active; 'I' for Inactive)
REMARK    1  A    between atoms: C4_4  and  C5_5 
REMARK    2  A    between atoms: C5_5  and  C6_6 
REMARK    3  A    between atoms: C6_6  and  C7_7 
REMARK    4  A    between atoms: C7_7  and  C9_9 
REMARK    5  A    between atoms: C26_29  and  O4_30 
ROOT
HETATM    1  C9  UNL     1      -2.091   6.517  13.590  1.00  0.00    -0.001 C 
HETATM    2  C10 UNL     1      -2.037   5.792  12.209  1.00  0.00     0.007 C 
HETATM    3  C11 UNL     1      -0.713   6.175  11.525  1.00  0.00     0.024 C 
HETATM    4  C12 UNL     1       0.036   6.960  12.574  1.00  0.00     0.092 C 
HETATM    5  C13 UNL     1       0.874   6.039  13.495  1.00  0.00     0.272 C 
HETATM    6  O1  UNL     1       0.672   4.866  13.763  1.00  0.00    -0.264 OA
HETATM    7  O2  UNL     1       1.927   6.773  14.005  1.00  0.00    -0.305 OA
HETATM    8  C14 UNL     1       1.861   8.121  13.474  1.00  0.00     0.113 C 
HETATM    9  C15 UNL     1       0.945   8.927  14.446  1.00  0.00     0.043 C 
HETATM   10  C16 UNL     1      -0.429   8.244  14.707  1.00  0.00     0.014 C 
HETATM   11  C17 UNL     1      -1.069   7.686  13.407  1.00  0.00    -0.020 C 
HETATM   12  C18 UNL     1      -1.723   8.864  12.638  1.00  0.00     0.017 C 
HETATM   13  C19 UNL     1       1.122   7.886  12.192  1.00  0.00     0.137 A 
HETATM   14  O3  UNL     1       0.939   8.915  11.237  1.00  0.00    -0.364 OA
HETATM   15  C20 UNL     1       1.829   7.846  10.855  1.00  0.00     0.162 A 
HETATM   16  C21 UNL     1       3.281   8.216  10.767  1.00  0.00     0.041 C 
HETATM   17  C22 UNL     1       4.004   7.917  12.100  1.00  0.00     0.009 C 
HETATM   18  C23 UNL     1       5.594   7.937  12.067  1.00  0.00    -0.017 C 
HETATM   19  C24 UNL     1       6.086   6.506  12.432  1.00  0.00     0.018 C 
HETATM   20  C25 UNL     1       6.163   8.232  10.658  1.00  0.00     0.018 C 
HETATM   21  C26 UNL     1       6.248   8.909  13.088  1.00  0.00     0.126 C 
HETATM   22  C27 UNL     1       5.599   8.962  14.474  1.00  0.00     0.033 C 
HETATM   23  C28 UNL     1       4.164   8.446  14.550  1.00  0.00     0.015 C 
HETATM   24  C29 UNL     1       3.317   8.699  13.282  1.00  0.00    -0.004 C 
HETATM   25  C30 UNL     1       3.219  10.225  13.021  1.00  0.00     0.019 C 
ENDROOT
BRANCH   1  26
HETATM   26  C7  UNL     1      -3.551   6.836  14.030  1.00  0.00    -0.014 C 
HETATM   27  C8  UNL     1      -3.875   6.227  15.400  1.00  0.00     0.010 C 
BRANCH  26  28
HETATM   28  C6  UNL     1      -4.582   6.316  12.984  1.00  0.00     0.008 C 
BRANCH  28  29
HETATM   29  C5  UNL     1      -5.391   5.097  13.456  1.00  0.00     0.028 C 
BRANCH  29  30
HETATM   30  C4  UNL     1      -5.310   3.916  12.529  1.00  0.00    -0.025 C 
HETATM   31  C2  UNL     1      -6.232   2.957  12.319  1.00  0.00    -0.091 C 
HETATM   32  C1  UNL     1      -7.573   2.875  12.994  1.00  0.00     0.042 C 
HETATM   33  C3  UNL     1      -5.957   1.832  11.356  1.00  0.00     0.042 C 
ENDBRANCH  29  30
ENDBRANCH  28  29
ENDBRANCH  26  28
ENDBRANCH   1  26
BRANCH  21  34
HETATM   34  O4  UNL     1       6.309  10.230  12.549  1.00  0.00    -0.395 OA
HETATM   35  H39 UNL     1       6.847  10.773  13.152  1.00  0.00     0.210 HD
ENDBRANCH  21  34
TORSDOF 5
ENDMDL
MODEL 7
REMARK minimizedAffinity -8.59213257
REMARK  5 active torsions:
REMARK  status: ('A' for Active; 'I' for Inactive)
REMARK    1  A    between atoms: C4_4  and  C5_5 
REMARK    2  A    between atoms: C5_5  and  C6_6 
REMARK    3  A    between atoms: C6_6  and  C7_7 
REMARK    4  A    between atoms: C7_7  and  C9_9 
REMARK    5  A    between atoms: C26_29  and  O4_30 
ROOT
HETATM    1  C9  UNL     1      -1.882   5.841  12.633  1.00  0.00    -0.001 C 
HETATM    2  C10 UNL     1      -2.777   5.142  13.702  1.00  0.00     0.007 C 
HETATM    3  C11 UNL     1      -2.942   6.109  14.887  1.00  0.00     0.024 C 
HETATM    4  C12 UNL     1      -2.295   7.389  14.418  1.00  0.00     0.092 C 
HETATM    5  C13 UNL     1      -3.292   8.292  13.649  1.00  0.00     0.272 C 
HETATM    6  O1  UNL     1      -4.286   7.950  13.031  1.00  0.00    -0.264 OA
HETATM    7  O2  UNL     1      -2.868   9.602  13.759  1.00  0.00    -0.305 OA
HETATM    8  C14 UNL     1      -1.662   9.640  14.563  1.00  0.00     0.113 C 
HETATM    9  C15 UNL     1      -0.473   9.431  13.574  1.00  0.00     0.043 C 
HETATM   10  C16 UNL     1      -0.634   8.173  12.674  1.00  0.00     0.014 C 
HETATM   11  C17 UNL     1      -1.140   6.938  13.466  1.00  0.00    -0.020 C 
HETATM   12  C18 UNL     1       0.060   6.320  14.231  1.00  0.00     0.017 C 
HETATM   13  C19 UNL     1      -1.831   8.401  15.389  1.00  0.00     0.137 A 
HETATM   14  O3  UNL     1      -0.947   8.085  16.449  1.00  0.00    -0.364 OA
HETATM   15  C20 UNL     1      -2.289   8.456  16.830  1.00  0.00     0.162 A 
HETATM   16  C21 UNL     1      -2.420   9.780  17.522  1.00  0.00     0.041 C 
HETATM   17  C22 UNL     1      -2.738  10.901  16.506  1.00  0.00     0.009 C 
HETATM   18  C23 UNL     1      -3.233  12.287  17.107  1.00  0.00    -0.017 C 
HETATM   19  C24 UNL     1      -4.678  12.535  16.581  1.00  0.00     0.018 C 
HETATM   20  C25 UNL     1      -3.344  12.269  18.651  1.00  0.00     0.018 C 
HETATM   21  C26 UNL     1      -2.384  13.517  16.677  1.00  0.00     0.126 C 
HETATM   22  C27 UNL     1      -1.926  13.537  15.217  1.00  0.00     0.033 C 
HETATM   23  C28 UNL     1      -1.938  12.187  14.502  1.00  0.00     0.015 C 
HETATM   24  C29 UNL     1      -1.614  10.975  15.404  1.00  0.00    -0.004 C 
HETATM   25  C30 UNL     1      -0.192  11.139  16.002  1.00  0.00     0.019 C 
ENDROOT
BRANCH   1  26
HETATM   26  C7  UNL     1      -1.052   4.818  11.802  1.00  0.00    -0.014 C 
HETATM   27  C8  UNL     1      -0.017   5.518  10.912  1.00  0.00     0.010 C 
BRANCH  26  28
HETATM   28  C6  UNL     1      -1.974   3.933  10.912  1.00  0.00     0.008 C 
BRANCH  28  29
HETATM   29  C5  UNL     1      -3.474   4.094  11.213  1.00  0.00     0.028 C 
BRANCH  29  30
HETATM   30  C4  UNL     1      -4.265   2.826  11.060  1.00  0.00    -0.025 C 
HETATM   31  C2  UNL     1      -5.489   2.543  11.548  1.00  0.00    -0.091 C 
HETATM   32  C1  UNL     1      -6.335   3.473  12.372  1.00  0.00     0.042 C 
HETATM   33  C3  UNL     1      -6.114   1.194  11.303  1.00  0.00     0.042 C 
ENDBRANCH  29  30
ENDBRANCH  28  29
ENDBRANCH  26  28
ENDBRANCH   1  26
BRANCH  21  34
HETATM   34  O4  UNL     1      -1.245  13.657  17.527  1.00  0.00    -0.395 OA
HETATM   35  H39 UNL     1      -0.822  14.508  17.319  1.00  0.00     0.210 HD
ENDBRANCH  21  34
TORSDOF 5
ENDMDL
MODEL 8
REMARK minimizedAffinity -8.49513531
REMARK  5 active torsions:
REMARK  status: ('A' for Active; 'I' for Inactive)
REMARK    1  A    between atoms: C4_4  and  C5_5 
REMARK    2  A    between atoms: C5_5  and  C6_6 
REMARK    3  A    between atoms: C6_6  and  C7_7 
REMARK    4  A    between atoms: C7_7  and  C9_9 
REMARK    5  A    between atoms: C26_29  and  O4_30 
ROOT
HETATM    1  C9  UNL     1      -5.391   5.929  14.407  1.00  0.00    -0.001 C 
HETATM    2  C10 UNL     1      -4.874   5.119  13.178  1.00  0.00     0.007 C 
HETATM    3  C11 UNL     1      -3.570   5.776  12.694  1.00  0.00     0.024 C 
HETATM    4  C12 UNL     1      -3.271   6.827  13.735  1.00  0.00     0.092 C 
HETATM    5  C13 UNL     1      -2.448   6.253  14.915  1.00  0.00     0.272 C 
HETATM    6  O1  UNL     1      -2.411   5.100  15.309  1.00  0.00    -0.264 OA
HETATM    7  O2  UNL     1      -1.737   7.286  15.494  1.00  0.00    -0.305 OA
HETATM    8  C14 UNL     1      -2.015   8.512  14.771  1.00  0.00     0.113 C 
HETATM    9  C15 UNL     1      -3.284   9.131  15.436  1.00  0.00     0.043 C 
HETATM   10  C16 UNL     1      -4.473   8.133  15.542  1.00  0.00     0.014 C 
HETATM   11  C17 UNL     1      -4.670   7.306  14.243  1.00  0.00    -0.020 C 
HETATM   12  C18 UNL     1      -5.414   8.189  13.207  1.00  0.00     0.017 C 
HETATM   13  C19 UNL     1      -2.388   7.970  13.424  1.00  0.00     0.137 A 
HETATM   14  O3  UNL     1      -2.611   8.819  12.314  1.00  0.00    -0.364 OA
HETATM   15  C20 UNL     1      -1.427   7.996  12.256  1.00  0.00     0.162 A 
HETATM   16  C21 UNL     1      -0.125   8.730  12.377  1.00  0.00     0.041 C 
HETATM   17  C22 UNL     1       0.352   8.761  13.847  1.00  0.00     0.009 C 
HETATM   18  C23 UNL     1       1.860   9.201  14.097  1.00  0.00    -0.017 C 
HETATM   19  C24 UNL     1       2.597   7.994  14.747  1.00  0.00     0.018 C 
HETATM   20  C25 UNL     1       2.624   9.505  12.785  1.00  0.00     0.018 C 
HETATM   21  C26 UNL     1       2.028  10.404  15.068  1.00  0.00     0.126 C 
HETATM   22  C27 UNL     1       1.109  10.410  16.292  1.00  0.00     0.033 C 
HETATM   23  C28 UNL     1      -0.141   9.539  16.184  1.00  0.00     0.015 C 
HETATM   24  C29 UNL     1      -0.737   9.438  14.761  1.00  0.00    -0.004 C 
HETATM   25  C30 UNL     1      -1.146  10.851  14.269  1.00  0.00     0.019 C 
ENDROOT
BRANCH   1  26
HETATM   26  C7  UNL     1      -6.944   5.885  14.527  1.00  0.00    -0.014 C 
HETATM   27  C8  UNL     1      -7.403   4.864  15.575  1.00  0.00     0.010 C 
BRANCH  26  28
HETATM   28  C6  UNL     1      -7.607   5.545  13.159  1.00  0.00     0.008 C 
BRANCH  28  29
HETATM   29  C5  UNL     1      -9.115   5.840  13.105  1.00  0.00     0.028 C 
BRANCH  29  30
HETATM   30  C4  UNL     1      -9.547   6.975  13.989  1.00  0.00    -0.025 C 
HETATM   31  C2  UNL     1     -10.691   7.684  13.937  1.00  0.00    -0.091 C 
HETATM   32  C1  UNL     1     -11.803   7.472  12.947  1.00  0.00     0.042 C 
HETATM   33  C3  UNL     1     -10.936   8.811  14.907  1.00  0.00     0.042 C 
ENDBRANCH  29  30
ENDBRANCH  28  29
ENDBRANCH  26  28
ENDBRANCH   1  26
BRANCH  21  34
HETATM   34  O4  UNL     1       1.878  11.637  14.363  1.00  0.00    -0.395 OA
HETATM   35  H39 UNL     1       2.129  12.357  14.968  1.00  0.00     0.210 HD
ENDBRANCH  21  34
TORSDOF 5
ENDMDL
MODEL 9
REMARK minimizedAffinity -8.37251854
REMARK  5 active torsions:
REMARK  status: ('A' for Active; 'I' for Inactive)
REMARK    1  A    between atoms: C4_4  and  C5_5 
REMARK    2  A    between atoms: C5_5  and  C6_6 
REMARK    3  A    between atoms: C6_6  and  C7_7 
REMARK    4  A    between atoms: C7_7  and  C9_9 
REMARK    5  A    between atoms: C26_29  and  O4_30 
ROOT
HETATM    1  C9  UNL     1      -3.146   3.921  12.556  1.00  0.00    -0.001 C 
HETATM    2  C10 UNL     1      -2.698   4.079  11.070  1.00  0.00     0.007 C 
HETATM    3  C11 UNL     1      -1.730   5.273  10.992  1.00  0.00     0.024 C 
HETATM    4  C12 UNL     1      -1.507   5.668  12.432  1.00  0.00     0.092 C 
HETATM    5  C13 UNL     1      -0.343   4.873  13.075  1.00  0.00     0.272 C 
HETATM    6  O1  UNL     1       0.067   3.767  12.765  1.00  0.00    -0.264 OA
HETATM    7  O2  UNL     1       0.182   5.627  14.107  1.00  0.00    -0.305 OA
HETATM    8  C14 UNL     1      -0.542   6.881  14.189  1.00  0.00     0.113 C 
HETATM    9  C15 UNL     1      -1.765   6.617  15.121  1.00  0.00     0.043 C 
HETATM   10  C16 UNL     1      -2.612   5.385  14.693  1.00  0.00     0.014 C 
HETATM   11  C17 UNL     1      -2.849   5.333  13.160  1.00  0.00    -0.020 C 
HETATM   12  C18 UNL     1      -3.988   6.325  12.805  1.00  0.00     0.017 C 
HETATM   13  C19 UNL     1      -1.028   7.022  12.778  1.00  0.00     0.137 A 
HETATM   14  O3  UNL     1      -1.680   8.195  12.328  1.00  0.00    -0.364 OA
HETATM   15  C20 UNL     1      -0.362   7.956  11.791  1.00  0.00     0.162 A 
HETATM   16  C21 UNL     1       0.706   8.899  12.260  1.00  0.00     0.041 C 
HETATM   17  C22 UNL     1       1.446   8.322  13.488  1.00  0.00     0.009 C 
HETATM   18  C23 UNL     1       2.809   9.033  13.896  1.00  0.00    -0.017 C 
HETATM   19  C24 UNL     1       3.946   7.980  13.751  1.00  0.00     0.018 C 
HETATM   20  C25 UNL     1       3.189  10.197  12.949  1.00  0.00     0.018 C 
HETATM   21  C26 UNL     1       2.856   9.543  15.364  1.00  0.00     0.126 C 
HETATM   22  C27 UNL     1       2.233   8.620  16.414  1.00  0.00     0.033 C 
HETATM   23  C28 UNL     1       1.253   7.578  15.879  1.00  0.00     0.015 C 
HETATM   24  C29 UNL     1       0.428   8.035  14.655  1.00  0.00    -0.004 C 
HETATM   25  C30 UNL     1      -0.420   9.277  15.037  1.00  0.00     0.019 C 
ENDROOT
BRANCH   1  26
HETATM   26  C7  UNL     1      -4.578   3.321  12.677  1.00  0.00    -0.014 C 
HETATM   27  C8  UNL     1      -4.909   2.401  11.495  1.00  0.00     0.010 C 
BRANCH  26  28
HETATM   28  C6  UNL     1      -5.655   4.443  12.767  1.00  0.00     0.008 C 
BRANCH  28  29
HETATM   29  C5  UNL     1      -6.906   4.046  13.568  1.00  0.00     0.028 C 
BRANCH  29  30
HETATM   30  C4  UNL     1      -7.798   5.203  13.918  1.00  0.00    -0.025 C 
HETATM   31  C2  UNL     1      -7.695   6.048  14.963  1.00  0.00    -0.091 C 
HETATM   32  C1  UNL     1      -6.631   5.998  16.023  1.00  0.00     0.042 C 
HETATM   33  C3  UNL     1      -8.709   7.146  15.158  1.00  0.00     0.042 C 
ENDBRANCH  29  30
ENDBRANCH  28  29
ENDBRANCH  26  28
ENDBRANCH   1  26
BRANCH  21  34
HETATM   34  O4  UNL     1       2.256  10.835  15.462  1.00  0.00    -0.395 OA
HETATM   35  H39 UNL     1       2.431  11.177  16.357  1.00  0.00     0.210 HD
ENDBRANCH  21  34
TORSDOF 5
ENDMDL
