MODEL 1
REMARK minimizedAffinity -8.21020412
REMARK  7 active torsions:
REMARK  status: ('A' for Active; 'I' for Inactive)
REMARK    1  A    between atoms: O1_2  and  C2_3 
REMARK    2  A    between atoms: C2_3  and  C3_5 
REMARK    3  A    between atoms: C14_16  and  C15_17 
REMARK    4  A    between atoms: C15_17  and  O4_19 
REMARK    5  A    between atoms: O4_19  and  C16_20 
REMARK    6  A    between atoms: C16_20  and  C17_21 
REMARK    7  A    between atoms: C17_21  and  N1_22 
ROOT
HETATM    1  C3  UNL     1       0.268  52.930 -25.211  1.00  0.00     0.049 C 
HETATM    2  C4  UNL     1       1.444  52.029 -25.655  1.00  0.00     0.026 C 
HETATM    3  C5  UNL     1       0.533  53.386 -23.758  1.00  0.00     0.020 C 
HETATM    4  C6  UNL     1       0.436  52.275 -22.722  1.00  0.00     0.002 C 
HETATM    5  C7  UNL     1      -0.494  51.129 -23.106  1.00  0.00     0.010 C 
HETATM    6  C8  UNL     1      -1.681  51.518 -24.024  1.00  0.00    -0.034 C 
HETATM    7  C9  UNL     1      -2.608  52.493 -23.249  1.00  0.00     0.016 C 
HETATM    8  C10 UNL     1      -2.476  50.191 -24.386  1.00  0.00     0.006 C 
HETATM    9  C11 UNL     1      -3.259  49.577 -23.204  1.00  0.00     0.010 C 
HETATM   10  C12 UNL     1      -3.935  48.261 -23.585  1.00  0.00     0.035 C 
HETATM   11  C13 UNL     1      -4.844  48.426 -24.786  1.00  0.00    -0.070 C 
HETATM   12  C14 UNL     1      -6.126  48.011 -24.698  1.00  0.00     0.085 C 
HETATM   13  C20 UNL     1      -4.170  49.066 -25.995  1.00  0.00     0.022 C 
HETATM   14  C21 UNL     1      -3.262  48.032 -26.679  1.00  0.00     0.015 C 
HETATM   15  C22 UNL     1      -3.438  50.374 -25.585  1.00  0.00     0.068 C 
HETATM   16  C23 UNL     1      -2.709  50.968 -26.776  1.00  0.00     0.132 C 
HETATM   17  O5  UNL     1      -3.257  51.119 -27.867  1.00  0.00    -0.298 OA
HETATM   18  C24 UNL     1      -1.266  51.353 -26.570  1.00  0.00     0.085 C 
HETATM   19  C25 UNL     1      -1.153  52.253 -25.330  1.00  0.00     0.019 C 
ENDROOT
BRANCH  12  20
HETATM   20  C15 UNL     1      -7.231  47.984 -25.684  1.00  0.00     0.283 C 
HETATM   21  O3  UNL     1      -7.083  47.479 -26.789  1.00  0.00    -0.260 OA
BRANCH  20  22
HETATM   22  O4  UNL     1      -8.336  48.621 -25.246  1.00  0.00    -0.316 OA
BRANCH  22  23
HETATM   23  C16 UNL     1      -9.562  47.871 -25.325  1.00  0.00     0.209 C 
BRANCH  23  24
HETATM   24  C17 UNL     1     -10.418  48.373 -26.500  1.00  0.00     0.298 C 
BRANCH  24  25
HETATM   25  N1  UNL     1     -11.555  47.495 -26.832  1.00  0.00     0.082 N 
HETATM   26  C18 UNL     1     -12.159  46.975 -25.601  1.00  0.00     0.309 C 
HETATM   27  C19 UNL     1     -12.572  48.204 -27.614  1.00  0.00     0.309 C 
ENDBRANCH  24  25
ENDBRANCH  23  24
ENDBRANCH  22  23
ENDBRANCH  20  22
ENDBRANCH  12  20
BRANCH   1  28
HETATM   28  C2  UNL     1       0.260  54.210 -26.082  1.00  0.00     0.267 C 
HETATM   29  O2  UNL     1       0.129  55.346 -25.644  1.00  0.00    -0.264 OA
BRANCH  28  30
HETATM   30  O1  UNL     1       0.369  53.913 -27.405  1.00  0.00    -0.326 OA
HETATM   31  C1  UNL     1      -0.712  54.391 -28.209  1.00  0.00     0.213 C 
ENDBRANCH  28  30
ENDBRANCH   1  28
TORSDOF 7
ENDMDL
MODEL 2
REMARK minimizedAffinity -8.13302994
REMARK  7 active torsions:
REMARK  status: ('A' for Active; 'I' for Inactive)
REMARK    1  A    between atoms: O1_2  and  C2_3 
REMARK    2  A    between atoms: C2_3  and  C3_5 
REMARK    3  A    between atoms: C14_16  and  C15_17 
REMARK    4  A    between atoms: C15_17  and  O4_19 
REMARK    5  A    between atoms: O4_19  and  C16_20 
REMARK    6  A    between atoms: C16_20  and  C17_21 
REMARK    7  A    between atoms: C17_21  and  N1_22 
ROOT
HETATM    1  C3  UNL     1       0.047  52.985 -25.279  1.00  0.00     0.049 C 
HETATM    2  C4  UNL     1       1.238  52.108 -25.731  1.00  0.00     0.026 C 
HETATM    3  C5  UNL     1       0.315  53.447 -23.828  1.00  0.00     0.020 C 
HETATM    4  C6  UNL     1       0.249  52.335 -22.791  1.00  0.00     0.002 C 
HETATM    5  C7  UNL     1      -0.661  51.170 -23.167  1.00  0.00     0.010 C 
HETATM    6  C8  UNL     1      -1.863  51.535 -24.074  1.00  0.00    -0.034 C 
HETATM    7  C9  UNL     1      -2.803  52.490 -23.292  1.00  0.00     0.016 C 
HETATM    8  C10 UNL     1      -2.634  50.191 -24.429  1.00  0.00     0.006 C 
HETATM    9  C11 UNL     1      -3.394  49.563 -23.240  1.00  0.00     0.010 C 
HETATM   10  C12 UNL     1      -4.047  48.233 -23.614  1.00  0.00     0.035 C 
HETATM   11  C13 UNL     1      -4.969  48.379 -24.808  1.00  0.00    -0.070 C 
HETATM   12  C14 UNL     1      -6.241  47.938 -24.709  1.00  0.00     0.085 C 
HETATM   13  C20 UNL     1      -4.318  49.031 -26.023  1.00  0.00     0.022 C 
HETATM   14  C21 UNL     1      -3.395  48.015 -26.715  1.00  0.00     0.015 C 
HETATM   15  C22 UNL     1      -3.610  50.354 -25.620  1.00  0.00     0.068 C 
HETATM   16  C23 UNL     1      -2.902  50.962 -26.818  1.00  0.00     0.132 C 
HETATM   17  O5  UNL     1      -3.463  51.101 -27.904  1.00  0.00    -0.298 OA
HETATM   18  C24 UNL     1      -1.465  51.376 -26.624  1.00  0.00     0.085 C 
HETATM   19  C25 UNL     1      -1.361  52.279 -25.385  1.00  0.00     0.019 C 
ENDROOT
BRANCH  12  20
HETATM   20  C15 UNL     1      -7.354  47.888 -25.686  1.00  0.00     0.283 C 
HETATM   21  O3  UNL     1      -8.418  48.450 -25.465  1.00  0.00    -0.260 OA
BRANCH  20  22
HETATM   22  O4  UNL     1      -7.072  47.121 -26.759  1.00  0.00    -0.316 OA
BRANCH  22  23
HETATM   23  C16 UNL     1      -7.382  47.700 -28.040  1.00  0.00     0.209 C 
BRANCH  23  24
HETATM   24  C17 UNL     1      -6.221  47.473 -29.021  1.00  0.00     0.298 C 
BRANCH  24  25
HETATM   25  N1  UNL     1      -6.549  47.793 -30.423  1.00  0.00     0.082 N 
HETATM   26  C18 UNL     1      -7.767  48.607 -30.476  1.00  0.00     0.309 C 
HETATM   27  C19 UNL     1      -5.453  48.509 -31.083  1.00  0.00     0.309 C 
ENDBRANCH  24  25
ENDBRANCH  23  24
ENDBRANCH  22  23
ENDBRANCH  20  22
ENDBRANCH  12  20
BRANCH   1  28
HETATM   28  C2  UNL     1       0.006  54.263 -26.150  1.00  0.00     0.267 C 
HETATM   29  O2  UNL     1       0.545  55.322 -25.854  1.00  0.00    -0.264 OA
BRANCH  28  30
HETATM   30  O1  UNL     1      -0.747  54.081 -27.269  1.00  0.00    -0.326 OA
HETATM   31  C1  UNL     1       0.010  53.897 -28.467  1.00  0.00     0.213 C 
ENDBRANCH  28  30
ENDBRANCH   1  28
TORSDOF 7
ENDMDL
MODEL 3
REMARK minimizedAffinity -7.98799276
REMARK  7 active torsions:
REMARK  status: ('A' for Active; 'I' for Inactive)
REMARK    1  A    between atoms: O1_2  and  C2_3 
REMARK    2  A    between atoms: C2_3  and  C3_5 
REMARK    3  A    between atoms: C14_16  and  C15_17 
REMARK    4  A    between atoms: C15_17  and  O4_19 
REMARK    5  A    between atoms: O4_19  and  C16_20 
REMARK    6  A    between atoms: C16_20  and  C17_21 
REMARK    7  A    between atoms: C17_21  and  N1_22 
ROOT
HETATM    1  C3  UNL     1      -0.308  52.414 -25.333  1.00  0.00     0.049 C 
HETATM    2  C4  UNL     1      -0.396  53.954 -25.460  1.00  0.00     0.026 C 
HETATM    3  C5  UNL     1      -1.534  51.803 -26.049  1.00  0.00     0.020 C 
HETATM    4  C6  UNL     1      -2.864  52.063 -25.356  1.00  0.00     0.002 C 
HETATM    5  C7  UNL     1      -2.764  52.264 -23.848  1.00  0.00     0.010 C 
HETATM    6  C8  UNL     1      -1.596  51.516 -23.156  1.00  0.00    -0.034 C 
HETATM    7  C9  UNL     1      -1.828  49.988 -23.303  1.00  0.00     0.016 C 
HETATM    8  C10 UNL     1      -1.600  51.917 -21.618  1.00  0.00     0.006 C 
HETATM    9  C11 UNL     1      -2.785  51.336 -20.814  1.00  0.00     0.010 C 
HETATM   10  C12 UNL     1      -2.787  51.819 -19.365  1.00  0.00     0.035 C 
HETATM   11  C13 UNL     1      -1.478  51.505 -18.669  1.00  0.00    -0.070 C 
HETATM   12  C14 UNL     1      -1.505  50.839 -17.495  1.00  0.00     0.085 C 
HETATM   13  C20 UNL     1      -0.242  52.003 -19.410  1.00  0.00     0.022 C 
HETATM   14  C21 UNL     1      -0.111  53.523 -19.222  1.00  0.00     0.015 C 
HETATM   15  C22 UNL     1      -0.279  51.554 -20.898  1.00  0.00     0.068 C 
HETATM   16  C23 UNL     1       0.916  52.112 -21.649  1.00  0.00     0.132 C 
HETATM   17  O5  UNL     1       2.062  52.020 -21.211  1.00  0.00    -0.298 OA
HETATM   18  C24 UNL     1       0.636  52.807 -22.957  1.00  0.00     0.085 C 
HETATM   19  C25 UNL     1      -0.214  51.887 -23.848  1.00  0.00     0.019 C 
ENDROOT
BRANCH  12  20
HETATM   20  C15 UNL     1      -0.431  50.432 -16.559  1.00  0.00     0.283 C 
HETATM   21  O3  UNL     1       0.417  49.611 -16.884  1.00  0.00    -0.260 OA
BRANCH  20  22
HETATM   22  O4  UNL     1      -0.553  51.005 -15.344  1.00  0.00    -0.316 OA
BRANCH  22  23
HETATM   23  C16 UNL     1       0.535  51.857 -14.943  1.00  0.00     0.209 C 
BRANCH  23  24
HETATM   24  C17 UNL     1       1.430  52.181 -16.151  1.00  0.00     0.298 C 
BRANCH  24  25
HETATM   25  N1  UNL     1       2.852  51.851 -15.949  1.00  0.00     0.082 N 
HETATM   26  C18 UNL     1       3.685  53.010 -16.283  1.00  0.00     0.309 C 
HETATM   27  C19 UNL     1       3.119  51.439 -14.568  1.00  0.00     0.309 C 
ENDBRANCH  24  25
ENDBRANCH  23  24
ENDBRANCH  22  23
ENDBRANCH  20  22
ENDBRANCH  12  20
BRANCH   1  28
HETATM   28  C2  UNL     1       0.943  51.918 -26.095  1.00  0.00     0.267 C 
HETATM   29  O2  UNL     1       2.096  52.204 -25.797  1.00  0.00    -0.264 OA
BRANCH  28  30
HETATM   30  O1  UNL     1       0.603  51.160 -27.172  1.00  0.00    -0.326 OA
HETATM   31  C1  UNL     1       1.015  51.700 -28.429  1.00  0.00     0.213 C 
ENDBRANCH  28  30
ENDBRANCH   1  28
TORSDOF 7
ENDMDL
MODEL 4
REMARK minimizedAffinity -7.79579306
REMARK  7 active torsions:
REMARK  status: ('A' for Active; 'I' for Inactive)
REMARK    1  A    between atoms: O1_2  and  C2_3 
REMARK    2  A    between atoms: C2_3  and  C3_5 
REMARK    3  A    between atoms: C14_16  and  C15_17 
REMARK    4  A    between atoms: C15_17  and  O4_19 
REMARK    5  A    between atoms: O4_19  and  C16_20 
REMARK    6  A    between atoms: C16_20  and  C17_21 
REMARK    7  A    between atoms: C17_21  and  N1_22 
ROOT
HETATM    1  C3  UNL     1      -0.397  52.421 -25.291  1.00  0.00     0.049 C 
HETATM    2  C4  UNL     1      -0.511  53.962 -25.373  1.00  0.00     0.026 C 
HETATM    3  C5  UNL     1      -1.632  51.810 -25.991  1.00  0.00     0.020 C 
HETATM    4  C6  UNL     1      -2.946  52.029 -25.255  1.00  0.00     0.002 C 
HETATM    5  C7  UNL     1      -2.808  52.190 -23.745  1.00  0.00     0.010 C 
HETATM    6  C8  UNL     1      -1.610  51.443 -23.106  1.00  0.00    -0.034 C 
HETATM    7  C9  UNL     1      -1.823  49.916 -23.289  1.00  0.00     0.016 C 
HETATM    8  C10 UNL     1      -1.578  51.801 -21.558  1.00  0.00     0.006 C 
HETATM    9  C11 UNL     1      -2.731  51.180 -20.739  1.00  0.00     0.010 C 
HETATM   10  C12 UNL     1      -2.701  51.622 -19.277  1.00  0.00     0.035 C 
HETATM   11  C13 UNL     1      -1.368  51.311 -18.626  1.00  0.00    -0.070 C 
HETATM   12  C14 UNL     1      -1.353  50.612 -17.471  1.00  0.00     0.085 C 
HETATM   13  C20 UNL     1      -0.162  51.849 -19.387  1.00  0.00     0.022 C 
HETATM   14  C21 UNL     1      -0.048  53.365 -19.159  1.00  0.00     0.015 C 
HETATM   15  C22 UNL     1      -0.232  51.440 -20.884  1.00  0.00     0.068 C 
HETATM   16  C23 UNL     1       0.933  52.038 -21.652  1.00  0.00     0.132 C 
HETATM   17  O5  UNL     1       2.092  51.952 -21.248  1.00  0.00    -0.298 OA
HETATM   18  C24 UNL     1       0.606  52.764 -22.932  1.00  0.00     0.085 C 
HETATM   19  C25 UNL     1      -0.254  51.854 -23.825  1.00  0.00     0.019 C 
ENDROOT
BRANCH  12  20
HETATM   20  C15 UNL     1      -0.248  50.197 -16.576  1.00  0.00     0.283 C 
HETATM   21  O3  UNL     1       0.153  49.041 -16.557  1.00  0.00    -0.260 OA
BRANCH  20  22
HETATM   22  O4  UNL     1       0.182  51.197 -15.780  1.00  0.00    -0.316 OA
BRANCH  22  23
HETATM   23  C16 UNL     1      -0.073  51.029 -14.373  1.00  0.00     0.209 C 
BRANCH  23  24
HETATM   24  C17 UNL     1       0.454  52.242 -13.589  1.00  0.00     0.298 C 
BRANCH  24  25
HETATM   25  N1  UNL     1      -0.454  52.711 -12.527  1.00  0.00     0.082 N 
HETATM   26  C18 UNL     1      -1.049  51.562 -11.837  1.00  0.00     0.309 C 
HETATM   27  C19 UNL     1       0.244  53.558 -11.555  1.00  0.00     0.309 C 
ENDBRANCH  24  25
ENDBRANCH  23  24
ENDBRANCH  22  23
ENDBRANCH  20  22
ENDBRANCH  12  20
BRANCH   1  28
HETATM   28  C2  UNL     1       0.841  51.966 -26.101  1.00  0.00     0.267 C 
HETATM   29  O2  UNL     1       1.995  52.287 -25.843  1.00  0.00    -0.264 OA
BRANCH  28  30
HETATM   30  O1  UNL     1       0.485  51.202 -27.169  1.00  0.00    -0.326 OA
HETATM   31  C1  UNL     1       0.813  51.770 -28.438  1.00  0.00     0.213 C 
ENDBRANCH  28  30
ENDBRANCH   1  28
TORSDOF 7
ENDMDL
MODEL 5
REMARK minimizedAffinity -7.70226002
REMARK  7 active torsions:
REMARK  status: ('A' for Active; 'I' for Inactive)
REMARK    1  A    between atoms: O1_2  and  C2_3 
REMARK    2  A    between atoms: C2_3  and  C3_5 
REMARK    3  A    between atoms: C14_16  and  C15_17 
REMARK    4  A    between atoms: C15_17  and  O4_19 
REMARK    5  A    between atoms: O4_19  and  C16_20 
REMARK    6  A    between atoms: C16_20  and  C17_21 
REMARK    7  A    between atoms: C17_21  and  N1_22 
ROOT
HETATM    1  C3  UNL     1      -6.056  48.552 -22.518  1.00  0.00     0.049 C 
HETATM    2  C4  UNL     1      -5.596  47.102 -22.233  1.00  0.00     0.026 C 
HETATM    3  C5  UNL     1      -6.552  48.620 -23.981  1.00  0.00     0.020 C 
HETATM    4  C6  UNL     1      -5.457  48.467 -25.025  1.00  0.00     0.002 C 
HETATM    5  C7  UNL     1      -4.075  48.920 -24.566  1.00  0.00     0.010 C 
HETATM    6  C8  UNL     1      -4.067  50.055 -23.511  1.00  0.00    -0.034 C 
HETATM    7  C9  UNL     1      -4.673  51.333 -24.151  1.00  0.00     0.016 C 
HETATM    8  C10 UNL     1      -2.558  50.325 -23.093  1.00  0.00     0.006 C 
HETATM    9  C11 UNL     1      -1.705  50.995 -24.193  1.00  0.00     0.010 C 
HETATM   10  C12 UNL     1      -0.246  51.156 -23.771  1.00  0.00     0.035 C 
HETATM   11  C13 UNL     1      -0.121  51.924 -22.470  1.00  0.00    -0.070 C 
HETATM   12  C14 UNL     1       0.692  53.000 -22.422  1.00  0.00     0.085 C 
HETATM   13  C20 UNL     1      -0.963  51.361 -21.330  1.00  0.00     0.022 C 
HETATM   14  C21 UNL     1      -0.293  50.092 -20.779  1.00  0.00     0.015 C 
HETATM   15  C22 UNL     1      -2.432  51.149 -21.788  1.00  0.00     0.068 C 
HETATM   16  C23 UNL     1      -3.250  50.522 -20.673  1.00  0.00     0.132 C 
HETATM   17  O5  UNL     1      -3.228  50.960 -19.524  1.00  0.00    -0.298 OA
HETATM   18  C24 UNL     1      -4.083  49.318 -21.033  1.00  0.00     0.085 C 
HETATM   19  C25 UNL     1      -4.953  49.649 -22.256  1.00  0.00     0.019 C 
ENDROOT
BRANCH  12  20
HETATM   20  C15 UNL     1       1.065  53.914 -21.318  1.00  0.00     0.283 C 
HETATM   21  O3  UNL     1       1.872  54.819 -21.488  1.00  0.00    -0.260 OA
BRANCH  20  22
HETATM   22  O4  UNL     1       0.480  53.586 -20.148  1.00  0.00    -0.316 OA
BRANCH  22  23
HETATM   23  C16 UNL     1       1.361  53.074 -19.130  1.00  0.00     0.209 C 
BRANCH  23  24
HETATM   24  C17 UNL     1       0.545  52.463 -17.980  1.00  0.00     0.298 C 
BRANCH  24  25
HETATM   25  N1  UNL     1       1.365  51.809 -16.944  1.00  0.00     0.082 N 
HETATM   26  C18 UNL     1       2.545  52.628 -16.651  1.00  0.00     0.309 C 
HETATM   27  C19 UNL     1       0.603  51.590 -15.711  1.00  0.00     0.309 C 
ENDBRANCH  24  25
ENDBRANCH  23  24
ENDBRANCH  22  23
ENDBRANCH  20  22
ENDBRANCH  12  20
BRANCH   1  28
HETATM   28  C2  UNL     1      -7.275  48.877 -21.621  1.00  0.00     0.267 C 
HETATM   29  O2  UNL     1      -7.329  49.817 -20.839  1.00  0.00    -0.264 OA
BRANCH  28  30
HETATM   30  O1  UNL     1      -8.266  47.956 -21.774  1.00  0.00    -0.326 OA
HETATM   31  C1  UNL     1      -9.033  47.713 -20.593  1.00  0.00     0.213 C 
ENDBRANCH  28  30
ENDBRANCH   1  28
TORSDOF 7
ENDMDL
MODEL 6
REMARK minimizedAffinity -7.66780281
REMARK  7 active torsions:
REMARK  status: ('A' for Active; 'I' for Inactive)
REMARK    1  A    between atoms: O1_2  and  C2_3 
REMARK    2  A    between atoms: C2_3  and  C3_5 
REMARK    3  A    between atoms: C14_16  and  C15_17 
REMARK    4  A    between atoms: C15_17  and  O4_19 
REMARK    5  A    between atoms: O4_19  and  C16_20 
REMARK    6  A    between atoms: C16_20  and  C17_21 
REMARK    7  A    between atoms: C17_21  and  N1_22 
ROOT
HETATM    1  C3  UNL     1      -0.909  52.046 -25.319  1.00  0.00     0.049 C 
HETATM    2  C4  UNL     1      -1.022  53.579 -25.488  1.00  0.00     0.026 C 
HETATM    3  C5  UNL     1      -2.212  51.407 -25.851  1.00  0.00     0.020 C 
HETATM    4  C6  UNL     1      -3.444  51.689 -25.003  1.00  0.00     0.002 C 
HETATM    5  C7  UNL     1      -3.154  51.944 -23.528  1.00  0.00     0.010 C 
HETATM    6  C8  UNL     1      -1.903  51.225 -22.965  1.00  0.00    -0.034 C 
HETATM    7  C9  UNL     1      -2.142  49.692 -23.027  1.00  0.00     0.016 C 
HETATM    8  C10 UNL     1      -1.713  51.680 -21.454  1.00  0.00     0.006 C 
HETATM    9  C11 UNL     1      -2.783  51.126 -20.486  1.00  0.00     0.010 C 
HETATM   10  C12 UNL     1      -2.603  51.661 -19.066  1.00  0.00     0.035 C 
HETATM   11  C13 UNL     1      -1.214  51.375 -18.532  1.00  0.00    -0.070 C 
HETATM   12  C14 UNL     1      -1.087  50.751 -17.342  1.00  0.00     0.085 C 
HETATM   13  C20 UNL     1      -0.086  51.848 -19.442  1.00  0.00     0.022 C 
HETATM   14  C21 UNL     1       0.058  53.374 -19.326  1.00  0.00     0.015 C 
HETATM   15  C22 UNL     1      -0.309  51.346 -20.896  1.00  0.00     0.068 C 
HETATM   16  C23 UNL     1       0.777  51.879 -21.813  1.00  0.00     0.132 C 
HETATM   17  O5  UNL     1       1.970  51.804 -21.522  1.00  0.00    -0.298 OA
HETATM   18  C24 UNL     1       0.327  52.525 -23.099  1.00  0.00     0.085 C 
HETATM   19  C25 UNL     1      -0.623  51.572 -23.840  1.00  0.00     0.019 C 
ENDROOT
BRANCH  12  20
HETATM   20  C15 UNL     1       0.100  50.380 -16.537  1.00  0.00     0.283 C 
HETATM   21  O3  UNL     1       0.411  49.208 -16.368  1.00  0.00    -0.260 OA
BRANCH  20  22
HETATM   22  O4  UNL     1       0.713  51.449 -15.988  1.00  0.00    -0.316 OA
BRANCH  22  23
HETATM   23  C16 UNL     1       1.231  51.258 -14.658  1.00  0.00     0.209 C 
BRANCH  23  24
HETATM   24  C17 UNL     1       2.748  51.505 -14.638  1.00  0.00     0.298 C 
BRANCH  24  25
HETATM   25  N1  UNL     1       3.427  50.968 -13.445  1.00  0.00     0.082 N 
HETATM   26  C18 UNL     1       2.436  50.609 -12.426  1.00  0.00     0.309 C 
HETATM   27  C19 UNL     1       4.241  49.793 -13.771  1.00  0.00     0.309 C 
ENDBRANCH  24  25
ENDBRANCH  23  24
ENDBRANCH  22  23
ENDBRANCH  20  22
ENDBRANCH  12  20
BRANCH   1  28
HETATM   28  C2  UNL     1       0.239  51.525 -26.216  1.00  0.00     0.267 C 
HETATM   29  O2  UNL     1       0.080  51.010 -27.316  1.00  0.00    -0.264 OA
BRANCH  28  30
HETATM   30  O1  UNL     1       1.449  51.666 -25.611  1.00  0.00    -0.326 OA
HETATM   31  C1  UNL     1       2.568  51.384 -26.454  1.00  0.00     0.213 C 
ENDBRANCH  28  30
ENDBRANCH   1  28
TORSDOF 7
ENDMDL
MODEL 7
REMARK minimizedAffinity -7.20049238
REMARK  7 active torsions:
REMARK  status: ('A' for Active; 'I' for Inactive)
REMARK    1  A    between atoms: O1_2  and  C2_3 
REMARK    2  A    between atoms: C2_3  and  C3_5 
REMARK    3  A    between atoms: C14_16  and  C15_17 
REMARK    4  A    between atoms: C15_17  and  O4_19 
REMARK    5  A    between atoms: O4_19  and  C16_20 
REMARK    6  A    between atoms: C16_20  and  C17_21 
REMARK    7  A    between atoms: C17_21  and  N1_22 
ROOT
HETATM    1  C3  UNL     1      -1.250  51.808 -25.267  1.00  0.00     0.049 C 
HETATM    2  C4  UNL     1      -1.537  53.310 -25.501  1.00  0.00     0.026 C 
HETATM    3  C5  UNL     1      -2.515  51.010 -25.659  1.00  0.00     0.020 C 
HETATM    4  C6  UNL     1      -3.702  51.214 -24.729  1.00  0.00     0.002 C 
HETATM    5  C7  UNL     1      -3.329  51.580 -23.296  1.00  0.00     0.010 C 
HETATM    6  C8  UNL     1      -1.969  51.024 -22.803  1.00  0.00    -0.034 C 
HETATM    7  C9  UNL     1      -2.049  49.474 -22.771  1.00  0.00     0.016 C 
HETATM    8  C10 UNL     1      -1.714  51.581 -21.336  1.00  0.00     0.006 C 
HETATM    9  C11 UNL     1      -2.642  50.978 -20.258  1.00  0.00     0.010 C 
HETATM   10  C12 UNL     1      -2.412  51.607 -18.886  1.00  0.00     0.035 C 
HETATM   11  C13 UNL     1      -0.963  51.494 -18.454  1.00  0.00    -0.070 C 
HETATM   12  C14 UNL     1      -0.681  50.955 -17.249  1.00  0.00     0.085 C 
HETATM   13  C20 UNL     1       0.035  52.027 -19.475  1.00  0.00     0.022 C 
HETATM   14  C21 UNL     1       0.026  53.564 -19.445  1.00  0.00     0.015 C 
HETATM   15  C22 UNL     1      -0.244  51.423 -20.879  1.00  0.00     0.068 C 
HETATM   16  C23 UNL     1       0.707  52.011 -21.907  1.00  0.00     0.132 C 
HETATM   17  O5  UNL     1       1.920  52.075 -21.712  1.00  0.00    -0.298 OA
HETATM   18  C24 UNL     1       0.095  52.535 -23.181  1.00  0.00     0.085 C 
HETATM   19  C25 UNL     1      -0.804  51.450 -23.796  1.00  0.00     0.019 C 
ENDROOT
BRANCH  12  20
HETATM   20  C15 UNL     1       0.597  50.753 -16.527  1.00  0.00     0.283 C 
HETATM   21  O3  UNL     1       1.458  51.622 -16.505  1.00  0.00    -0.260 OA
BRANCH  20  22
HETATM   22  O4  UNL     1       0.702  49.521 -15.987  1.00  0.00    -0.316 OA
BRANCH  22  23
HETATM   23  C16 UNL     1       0.754  49.470 -14.550  1.00  0.00     0.209 C 
BRANCH  23  24
HETATM   24  C17 UNL     1       1.782  48.422 -14.092  1.00  0.00     0.298 C 
BRANCH  24  25
HETATM   25  N1  UNL     1       1.600  47.095 -14.707  1.00  0.00     0.082 N 
HETATM   26  C18 UNL     1       2.760  46.247 -14.413  1.00  0.00     0.309 C 
HETATM   27  C19 UNL     1       0.380  46.440 -14.226  1.00  0.00     0.309 C 
ENDBRANCH  24  25
ENDBRANCH  23  24
ENDBRANCH  22  23
ENDBRANCH  20  22
ENDBRANCH  12  20
BRANCH   1  28
HETATM   28  C2  UNL     1      -0.126  51.356 -26.229  1.00  0.00     0.267 C 
HETATM   29  O2  UNL     1       0.339  50.224 -26.271  1.00  0.00    -0.264 OA
BRANCH  28  30
HETATM   30  O1  UNL     1       0.320  52.388 -26.996  1.00  0.00    -0.326 OA
HETATM   31  C1  UNL     1       1.030  51.989 -28.170  1.00  0.00     0.213 C 
ENDBRANCH  28  30
ENDBRANCH   1  28
TORSDOF 7
ENDMDL
MODEL 8
REMARK minimizedAffinity -7.16905928
REMARK  7 active torsions:
REMARK  status: ('A' for Active; 'I' for Inactive)
REMARK    1  A    between atoms: O1_2  and  C2_3 
REMARK    2  A    between atoms: C2_3  and  C3_5 
REMARK    3  A    between atoms: C14_16  and  C15_17 
REMARK    4  A    between atoms: C15_17  and  O4_19 
REMARK    5  A    between atoms: O4_19  and  C16_20 
REMARK    6  A    between atoms: C16_20  and  C17_21 
REMARK    7  A    between atoms: C17_21  and  N1_22 
ROOT
HETATM    1  C3  UNL     1      -1.114  51.753 -25.844  1.00  0.00     0.049 C 
HETATM    2  C4  UNL     1      -0.113  50.796 -26.534  1.00  0.00     0.026 C 
HETATM    3  C5  UNL     1      -0.368  53.062 -25.500  1.00  0.00     0.020 C 
HETATM    4  C6  UNL     1       0.679  52.921 -24.405  1.00  0.00     0.002 C 
HETATM    5  C7  UNL     1       0.406  51.802 -23.407  1.00  0.00     0.010 C 
HETATM    6  C8  UNL     1      -1.090  51.470 -23.176  1.00  0.00    -0.034 C 
HETATM    7  C9  UNL     1      -1.778  52.704 -22.533  1.00  0.00     0.016 C 
HETATM    8  C10 UNL     1      -1.171  50.231 -22.184  1.00  0.00     0.006 C 
HETATM    9  C11 UNL     1      -0.754  50.552 -20.732  1.00  0.00     0.010 C 
HETATM   10  C12 UNL     1      -0.770  49.310 -19.842  1.00  0.00     0.035 C 
HETATM   11  C13 UNL     1      -2.122  48.625 -19.861  1.00  0.00    -0.070 C 
HETATM   12  C14 UNL     1      -2.737  48.362 -18.688  1.00  0.00     0.085 C 
HETATM   13  C20 UNL     1      -2.639  48.305 -21.258  1.00  0.00     0.022 C 
HETATM   14  C21 UNL     1      -1.885  47.086 -21.815  1.00  0.00     0.015 C 
HETATM   15  C22 UNL     1      -2.566  49.561 -22.170  1.00  0.00     0.068 C 
HETATM   16  C23 UNL     1      -3.014  49.218 -23.580  1.00  0.00     0.132 C 
HETATM   17  O5  UNL     1      -4.055  48.600 -23.801  1.00  0.00    -0.298 OA
HETATM   18  C24 UNL     1      -2.114  49.656 -24.707  1.00  0.00     0.085 C 
HETATM   19  C25 UNL     1      -1.807  51.155 -24.558  1.00  0.00     0.019 C 
ENDROOT
BRANCH  12  20
HETATM   20  C15 UNL     1      -4.009  47.675 -18.367  1.00  0.00     0.283 C 
HETATM   21  O3  UNL     1      -4.136  46.468 -18.522  1.00  0.00    -0.260 OA
BRANCH  20  22
HETATM   22  O4  UNL     1      -4.977  48.528 -17.971  1.00  0.00    -0.316 OA
BRANCH  22  23
HETATM   23  C16 UNL     1      -6.213  48.454 -18.704  1.00  0.00     0.209 C 
BRANCH  23  24
HETATM   24  C17 UNL     1      -6.037  49.061 -20.106  1.00  0.00     0.298 C 
BRANCH  24  25
HETATM   25  N1  UNL     1      -7.304  49.443 -20.757  1.00  0.00     0.082 N 
HETATM   26  C18 UNL     1      -7.044  49.880 -22.133  1.00  0.00     0.309 C 
HETATM   27  C19 UNL     1      -8.260  48.333 -20.769  1.00  0.00     0.309 C 
ENDBRANCH  24  25
ENDBRANCH  23  24
ENDBRANCH  22  23
ENDBRANCH  20  22
ENDBRANCH  12  20
BRANCH   1  28
HETATM   28  C2  UNL     1      -2.226  52.128 -26.854  1.00  0.00     0.267 C 
HETATM   29  O2  UNL     1      -2.256  53.170 -27.497  1.00  0.00    -0.264 OA
BRANCH  28  30
HETATM   30  O1  UNL     1      -3.197  51.177 -26.903  1.00  0.00    -0.326 OA
HETATM   31  C1  UNL     1      -3.272  50.472 -28.144  1.00  0.00     0.213 C 
ENDBRANCH  28  30
ENDBRANCH   1  28
TORSDOF 7
ENDMDL
MODEL 9
REMARK minimizedAffinity -7.12934542
REMARK  7 active torsions:
REMARK  status: ('A' for Active; 'I' for Inactive)
REMARK    1  A    between atoms: O1_2  and  C2_3 
REMARK    2  A    between atoms: C2_3  and  C3_5 
REMARK    3  A    between atoms: C14_16  and  C15_17 
REMARK    4  A    between atoms: C15_17  and  O4_19 
REMARK    5  A    between atoms: O4_19  and  C16_20 
REMARK    6  A    between atoms: C16_20  and  C17_21 
REMARK    7  A    between atoms: C17_21  and  N1_22 
ROOT
HETATM    1  C3  UNL     1      -3.339  49.220 -26.289  1.00  0.00     0.049 C 
HETATM    2  C4  UNL     1      -2.242  48.226 -26.738  1.00  0.00     0.026 C 
HETATM    3  C5  UNL     1      -3.273  50.458 -27.212  1.00  0.00     0.020 C 
HETATM    4  C6  UNL     1      -2.029  51.315 -27.028  1.00  0.00     0.002 C 
HETATM    5  C7  UNL     1      -1.416  51.252 -25.633  1.00  0.00     0.010 C 
HETATM    6  C8  UNL     1      -2.416  50.976 -24.482  1.00  0.00    -0.034 C 
HETATM    7  C9  UNL     1      -3.405  52.169 -24.388  1.00  0.00     0.016 C 
HETATM    8  C10 UNL     1      -1.588  50.856 -23.131  1.00  0.00     0.006 C 
HETATM    9  C11 UNL     1      -0.988  52.190 -22.634  1.00  0.00     0.010 C 
HETATM   10  C12 UNL     1      -0.134  52.004 -21.381  1.00  0.00     0.035 C 
HETATM   11  C13 UNL     1      -0.912  51.331 -20.268  1.00  0.00    -0.070 C 
HETATM   12  C14 UNL     1      -0.952  51.917 -19.052  1.00  0.00     0.085 C 
HETATM   13  C20 UNL     1      -1.579  50.023 -20.676  1.00  0.00     0.022 C 
HETATM   14  C21 UNL     1      -0.519  48.913 -20.760  1.00  0.00     0.015 C 
HETATM   15  C22 UNL     1      -2.400  50.211 -21.982  1.00  0.00     0.068 C 
HETATM   16  C23 UNL     1      -3.003  48.889 -22.424  1.00  0.00     0.132 C 
HETATM   17  O5  UNL     1      -3.616  48.161 -21.645  1.00  0.00    -0.298 OA
HETATM   18  C24 UNL     1      -2.802  48.496 -23.865  1.00  0.00     0.085 C 
HETATM   19  C25 UNL     1      -3.245  49.653 -24.774  1.00  0.00     0.019 C 
ENDROOT
BRANCH  12  20
HETATM   20  C15 UNL     1      -1.568  51.502 -17.770  1.00  0.00     0.283 C 
HETATM   21  O3  UNL     1      -2.780  51.374 -17.660  1.00  0.00    -0.260 OA
BRANCH  20  22
HETATM   22  O4  UNL     1      -0.664  51.364 -16.778  1.00  0.00    -0.316 OA
BRANCH  22  23
HETATM   23  C16 UNL     1       0.335  50.347 -16.980  1.00  0.00     0.209 C 
BRANCH  23  24
HETATM   24  C17 UNL     1      -0.288  48.951 -16.822  1.00  0.00     0.298 C 
BRANCH  24  25
HETATM   25  N1  UNL     1      -0.006  48.312 -15.523  1.00  0.00     0.082 N 
HETATM   26  C18 UNL     1       1.081  49.024 -14.843  1.00  0.00     0.309 C 
HETATM   27  C19 UNL     1      -1.193  48.295 -14.662  1.00  0.00     0.309 C 
ENDBRANCH  24  25
ENDBRANCH  23  24
ENDBRANCH  22  23
ENDBRANCH  20  22
ENDBRANCH  12  20
BRANCH   1  28
HETATM   28  C2  UNL     1      -4.726  48.573 -26.515  1.00  0.00     0.267 C 
HETATM   29  O2  UNL     1      -5.545  48.360 -25.630  1.00  0.00    -0.264 OA
BRANCH  28  30
HETATM   30  O1  UNL     1      -4.907  48.222 -27.817  1.00  0.00    -0.326 OA
HETATM   31  C1  UNL     1      -6.192  47.670 -28.108  1.00  0.00     0.213 C 
ENDBRANCH  28  30
ENDBRANCH   1  28
TORSDOF 7
ENDMDL
