MODEL 1
REMARK minimizedAffinity -7.29060459
REMARK CNNscore 0.695780098
REMARK CNNaffinity 6.14433813
REMARK  5 active torsions:
REMARK  status: ('A' for Active; 'I' for Inactive)
REMARK    1  A    between atoms: C2_2  and  C4_4 
REMARK    2  A    between atoms: C7_7  and  C8_8 
REMARK    3  A    between atoms: C8_8  and  O2_10 
REMARK    4  A    between atoms: C22_25  and  C24_27 
REMARK    5  A    between atoms: C24_27  and  O4_28 
ROOT
HETATM    1  C4  UNL     1     -17.420  46.622 -21.997  1.00  0.00     0.019 C 
HETATM    2  C5  UNL     1     -18.903  46.313 -21.655  1.00  0.00     0.011 C 
HETATM    3  C6  UNL     1     -19.364  45.230 -22.647  1.00  0.00     0.021 C 
HETATM    4  C7  UNL     1     -18.444  45.427 -23.858  1.00  0.00     0.050 C 
HETATM    5  C9  UNL     1     -18.320  44.212 -24.784  1.00  0.00     0.022 C 
HETATM    6  C10 UNL     1     -17.177  44.422 -25.797  1.00  0.00     0.011 C 
HETATM    7  C11 UNL     1     -15.763  44.754 -25.183  1.00  0.00    -0.032 C 
HETATM    8  C12 UNL     1     -15.310  43.442 -24.464  1.00  0.00     0.016 C 
HETATM    9  C13 UNL     1     -15.937  45.908 -24.129  1.00  0.00     0.000 C 
HETATM   10  C14 UNL     1     -14.620  46.186 -23.401  1.00  0.00     0.006 C 
HETATM   11  C15 UNL     1     -13.393  46.182 -24.307  1.00  0.00     0.006 C 
HETATM   12  C16 UNL     1     -13.723  46.423 -25.799  1.00  0.00     0.003 C 
HETATM   13  C17 UNL     1     -12.418  46.760 -26.687  1.00  0.00    -0.035 C 
HETATM   14  C18 UNL     1     -12.836  47.556 -27.955  1.00  0.00     0.016 C 
HETATM   15  C19 UNL     1     -11.420  47.640 -25.892  1.00  0.00     0.017 C 
HETATM   16  C20 UNL     1     -10.185  48.061 -26.667  1.00  0.00     0.080 C 
HETATM   17  C21 UNL     1      -9.601  47.011 -27.579  1.00  0.00     0.137 C 
HETATM   18  O3  UNL     1      -8.532  47.257 -28.149  1.00  0.00    -0.297 OA
HETATM   19  C22 UNL     1     -10.286  45.655 -27.801  1.00  0.00     0.042 C 
HETATM   20  C23 UNL     1     -10.431  45.473 -29.326  1.00  0.00     0.026 C 
HETATM   21  C25 UNL     1     -11.642  45.458 -27.027  1.00  0.00     0.012 C 
HETATM   22  C26 UNL     1     -12.566  44.403 -27.665  1.00  0.00     0.007 C 
HETATM   23  C27 UNL     1     -13.745  44.045 -26.762  1.00  0.00     0.011 C 
HETATM   24  C28 UNL     1     -14.654  45.232 -26.331  1.00  0.00    -0.032 C 
HETATM   25  C29 UNL     1     -15.416  45.716 -27.593  1.00  0.00     0.016 C 
HETATM   26  C30 UNL     1     -17.095  45.633 -23.144  1.00  0.00     0.017 C 
ENDROOT
BRANCH   4  27
HETATM   27  C8  UNL     1     -19.051  46.582 -24.664  1.00  0.00     0.149 C 
HETATM   28  O1  UNL     1     -18.503  47.650 -24.885  1.00  0.00    -0.649 OA
BRANCH  27  29
HETATM   29  O2  UNL     1     -20.256  46.350 -25.210  1.00  0.00    -0.776 OA
HETATM   30  H11 UNL     1     -20.443  47.171 -25.711  1.00  0.00     0.167 HD
ENDBRANCH  27  29
ENDBRANCH   4  27
BRANCH   1  31
HETATM   31  C2  UNL     1     -16.547  46.554 -20.750  1.00  0.00    -0.088 C 
HETATM   32  C1  UNL     1     -15.370  45.903 -20.695  1.00  0.00     0.014 C 
HETATM   33  C3  UNL     1     -17.094  47.257 -19.535  1.00  0.00     0.043 C 
ENDBRANCH   1  31
BRANCH  19  34
HETATM   34  C24 UNL     1      -9.264  44.622 -27.242  1.00  0.00     0.181 C 
BRANCH  34  35
HETATM   35  O4  UNL     1      -8.954  43.562 -28.143  1.00  0.00    -0.400 OA
HETATM   36  H37 UNL     1      -8.921  43.925 -29.052  1.00  0.00     0.209 HD
ENDBRANCH  34  35
ENDBRANCH  19  34
TORSDOF 5
ENDMDL
MODEL 2
REMARK minimizedAffinity -7.03726816
REMARK CNNscore 0.687407374
REMARK CNNaffinity 6.44077826
REMARK  5 active torsions:
REMARK  status: ('A' for Active; 'I' for Inactive)
REMARK    1  A    between atoms: C2_2  and  C4_4 
REMARK    2  A    between atoms: C7_7  and  C8_8 
REMARK    3  A    between atoms: C8_8  and  O2_10 
REMARK    4  A    between atoms: C22_25  and  C24_27 
REMARK    5  A    between atoms: C24_27  and  O4_28 
ROOT
HETATM    1  C4  UNL     1     -12.461  44.545 -24.718  1.00  0.00     0.019 C 
HETATM    2  C5  UNL     1     -13.909  44.422 -24.171  1.00  0.00     0.011 C 
HETATM    3  C6  UNL     1     -14.851  44.641 -25.370  1.00  0.00     0.021 C 
HETATM    4  C7  UNL     1     -14.018  45.492 -26.337  1.00  0.00     0.050 C 
HETATM    5  C9  UNL     1     -14.481  45.454 -27.797  1.00  0.00     0.022 C 
HETATM    6  C10 UNL     1     -13.429  46.111 -28.713  1.00  0.00     0.011 C 
HETATM    7  C11 UNL     1     -11.967  45.526 -28.615  1.00  0.00    -0.032 C 
HETATM    8  C12 UNL     1     -12.059  44.089 -29.222  1.00  0.00     0.016 C 
HETATM    9  C13 UNL     1     -11.566  45.440 -27.096  1.00  0.00     0.000 C 
HETATM   10  C14 UNL     1     -10.208  44.756 -26.928  1.00  0.00     0.006 C 
HETATM   11  C15 UNL     1      -9.162  45.183 -27.951  1.00  0.00     0.006 C 
HETATM   12  C16 UNL     1      -9.462  46.551 -28.609  1.00  0.00     0.003 C 
HETATM   13  C17 UNL     1      -8.201  47.152 -29.417  1.00  0.00    -0.035 C 
HETATM   14  C18 UNL     1      -8.332  48.697 -29.523  1.00  0.00     0.016 C 
HETATM   15  C19 UNL     1      -6.873  46.845 -28.679  1.00  0.00     0.017 C 
HETATM   16  C20 UNL     1      -5.632  47.424 -29.332  1.00  0.00     0.080 C 
HETATM   17  C21 UNL     1      -5.609  47.373 -30.840  1.00  0.00     0.137 C 
HETATM   18  O3  UNL     1      -4.576  47.726 -31.423  1.00  0.00    -0.297 OA
HETATM   19  C22 UNL     1      -6.813  46.886 -31.657  1.00  0.00     0.042 C 
HETATM   20  C23 UNL     1      -7.126  47.986 -32.692  1.00  0.00     0.026 C 
HETATM   21  C25 UNL     1      -8.070  46.467 -30.806  1.00  0.00     0.012 C 
HETATM   22  C26 UNL     1      -9.393  46.532 -31.593  1.00  0.00     0.007 C 
HETATM   23  C27 UNL     1     -10.548  45.880 -30.835  1.00  0.00     0.011 C 
HETATM   24  C28 UNL     1     -10.841  46.454 -29.419  1.00  0.00    -0.032 C 
HETATM   25  C29 UNL     1     -11.414  47.884 -29.607  1.00  0.00     0.016 C 
HETATM   26  C30 UNL     1     -12.662  44.768 -26.238  1.00  0.00     0.017 C 
ENDROOT
BRANCH   4  27
HETATM   27  C8  UNL     1     -14.137  46.937 -25.835  1.00  0.00     0.149 C 
HETATM   28  O1  UNL     1     -15.043  47.367 -25.140  1.00  0.00    -0.649 OA
BRANCH  27  29
HETATM   29  O2  UNL     1     -13.120  47.755 -26.150  1.00  0.00    -0.776 OA
HETATM   30  H11 UNL     1     -13.358  48.597 -25.707  1.00  0.00     0.167 HD
ENDBRANCH  27  29
ENDBRANCH   4  27
BRANCH   1  31
HETATM   31  C2  UNL     1     -11.615  43.351 -24.296  1.00  0.00    -0.088 C 
HETATM   32  C1  UNL     1     -11.873  42.083 -24.665  1.00  0.00     0.014 C 
HETATM   33  C3  UNL     1     -10.446  43.667 -23.399  1.00  0.00     0.043 C 
ENDBRANCH   1  31
BRANCH  19  34
HETATM   34  C24 UNL     1      -6.285  45.613 -32.382  1.00  0.00     0.181 C 
BRANCH  34  35
HETATM   35  O4  UNL     1      -5.292  45.876 -33.371  1.00  0.00    -0.400 OA
HETATM   36  H37 UNL     1      -4.716  46.600 -33.050  1.00  0.00     0.209 HD
ENDBRANCH  34  35
ENDBRANCH  19  34
TORSDOF 5
ENDMDL
MODEL 3
REMARK minimizedAffinity -6.32950735
REMARK CNNscore 0.576989651
REMARK CNNaffinity 6.4473629
REMARK  5 active torsions:
REMARK  status: ('A' for Active; 'I' for Inactive)
REMARK    1  A    between atoms: C2_2  and  C4_4 
REMARK    2  A    between atoms: C7_7  and  C8_8 
REMARK    3  A    between atoms: C8_8  and  O2_10 
REMARK    4  A    between atoms: C22_25  and  C24_27 
REMARK    5  A    between atoms: C24_27  and  O4_28 
ROOT
HETATM    1  C4  UNL     1     -16.579  44.638 -27.054  1.00  0.00     0.019 C 
HETATM    2  C5  UNL     1     -16.295  44.726 -25.530  1.00  0.00     0.011 C 
HETATM    3  C6  UNL     1     -17.191  43.671 -24.855  1.00  0.00     0.021 C 
HETATM    4  C7  UNL     1     -18.359  43.503 -25.835  1.00  0.00     0.050 C 
HETATM    5  C9  UNL     1     -19.140  42.193 -25.695  1.00  0.00     0.022 C 
HETATM    6  C10 UNL     1     -20.101  42.008 -26.886  1.00  0.00     0.011 C 
HETATM    7  C11 UNL     1     -19.444  42.072 -28.319  1.00  0.00    -0.032 C 
HETATM    8  C12 UNL     1     -18.562  40.784 -28.422  1.00  0.00     0.016 C 
HETATM    9  C13 UNL     1     -18.532  43.350 -28.392  1.00  0.00     0.000 C 
HETATM   10  C14 UNL     1     -17.761  43.397 -29.713  1.00  0.00     0.006 C 
HETATM   11  C15 UNL     1     -18.586  43.000 -30.931  1.00  0.00     0.006 C 
HETATM   12  C16 UNL     1     -20.113  43.134 -30.717  1.00  0.00     0.003 C 
HETATM   13  C17 UNL     1     -20.953  43.049 -32.092  1.00  0.00    -0.035 C 
HETATM   14  C18 UNL     1     -22.321  43.765 -31.917  1.00  0.00     0.016 C 
HETATM   15  C19 UNL     1     -20.199  43.760 -33.246  1.00  0.00     0.017 C 
HETATM   16  C20 UNL     1     -20.940  43.786 -34.569  1.00  0.00     0.080 C 
HETATM   17  C21 UNL     1     -21.698  42.528 -34.914  1.00  0.00     0.137 C 
HETATM   18  O3  UNL     1     -22.227  42.449 -36.030  1.00  0.00    -0.297 OA
HETATM   19  C22 UNL     1     -21.814  41.353 -33.934  1.00  0.00     0.042 C 
HETATM   20  C23 UNL     1     -23.317  41.031 -33.798  1.00  0.00     0.026 C 
HETATM   21  C25 UNL     1     -21.105  41.571 -32.545  1.00  0.00     0.012 C 
HETATM   22  C26 UNL     1     -21.680  40.693 -31.418  1.00  0.00     0.007 C 
HETATM   23  C27 UNL     1     -20.815  40.730 -30.159  1.00  0.00     0.011 C 
HETATM   24  C28 UNL     1     -20.568  42.138 -29.546  1.00  0.00    -0.032 C 
HETATM   25  C29 UNL     1     -21.917  42.635 -28.962  1.00  0.00     0.016 C 
HETATM   26  C30 UNL     1     -17.592  43.471 -27.170  1.00  0.00     0.017 C 
ENDROOT
BRANCH   4  27
HETATM   27  C8  UNL     1     -19.319  44.665 -25.547  1.00  0.00     0.149 C 
HETATM   28  O1  UNL     1     -19.614  45.546 -26.338  1.00  0.00    -0.649 OA
BRANCH  27  29
HETATM   29  O2  UNL     1     -19.913  44.653 -24.343  1.00  0.00    -0.776 OA
HETATM   30  H11 UNL     1     -20.509  45.430 -24.373  1.00  0.00     0.167 HD
ENDBRANCH  27  29
ENDBRANCH   4  27
BRANCH   1  31
HETATM   31  C2  UNL     1     -15.283  44.515 -27.845  1.00  0.00    -0.088 C 
HETATM   32  C1  UNL     1     -14.745  45.519 -28.561  1.00  0.00     0.014 C 
HETATM   33  C3  UNL     1     -14.620  43.163 -27.799  1.00  0.00     0.043 C 
ENDBRANCH   1  31
BRANCH  19  34
HETATM   34  C24 UNL     1     -21.088  40.184 -34.660  1.00  0.00     0.181 C 
BRANCH  34  35
HETATM   35  O4  UNL     1     -21.849  39.584 -35.706  1.00  0.00    -0.400 OA
HETATM   36  H37 UNL     1     -22.350  40.287 -36.169  1.00  0.00     0.209 HD
ENDBRANCH  34  35
ENDBRANCH  19  34
TORSDOF 5
ENDMDL
MODEL 4
REMARK minimizedAffinity -6.54802132
REMARK CNNscore 0.396281302
REMARK CNNaffinity 5.69956064
REMARK  5 active torsions:
REMARK  status: ('A' for Active; 'I' for Inactive)
REMARK    1  A    between atoms: C2_2  and  C4_4 
REMARK    2  A    between atoms: C7_7  and  C8_8 
REMARK    3  A    between atoms: C8_8  and  O2_10 
REMARK    4  A    between atoms: C22_25  and  C24_27 
REMARK    5  A    between atoms: C24_27  and  O4_28 
ROOT
HETATM    1  C4  UNL     1      -9.596  45.871 -27.426  1.00  0.00     0.019 C 
HETATM    2  C5  UNL     1      -8.593  45.281 -28.454  1.00  0.00     0.011 C 
HETATM    3  C6  UNL     1      -9.418  44.416 -29.425  1.00  0.00     0.021 C 
HETATM    4  C7  UNL     1     -10.645  44.010 -28.599  1.00  0.00     0.050 C 
HETATM    5  C9  UNL     1     -11.864  43.577 -29.419  1.00  0.00     0.022 C 
HETATM    6  C10 UNL     1     -13.107  43.457 -28.515  1.00  0.00     0.011 C 
HETATM    7  C11 UNL     1     -13.475  44.739 -27.674  1.00  0.00    -0.032 C 
HETATM    8  C12 UNL     1     -13.950  45.795 -28.724  1.00  0.00     0.016 C 
HETATM    9  C13 UNL     1     -12.174  45.251 -26.953  1.00  0.00     0.000 C 
HETATM   10  C14 UNL     1     -12.437  46.572 -26.226  1.00  0.00     0.006 C 
HETATM   11  C15 UNL     1     -13.769  46.623 -25.486  1.00  0.00     0.006 C 
HETATM   12  C16 UNL     1     -14.351  45.228 -25.160  1.00  0.00     0.003 C 
HETATM   13  C17 UNL     1     -15.560  45.282 -24.092  1.00  0.00    -0.035 C 
HETATM   14  C18 UNL     1     -15.685  43.911 -23.370  1.00  0.00     0.016 C 
HETATM   15  C19 UNL     1     -15.292  46.358 -23.007  1.00  0.00     0.017 C 
HETATM   16  C20 UNL     1     -16.347  46.442 -21.921  1.00  0.00     0.080 C 
HETATM   17  C21 UNL     1     -17.773  46.273 -22.385  1.00  0.00     0.137 C 
HETATM   18  O3  UNL     1     -18.682  46.444 -21.564  1.00  0.00    -0.297 OA
HETATM   19  C22 UNL     1     -18.118  45.912 -23.837  1.00  0.00     0.042 C 
HETATM   20  C23 UNL     1     -19.040  44.676 -23.783  1.00  0.00     0.026 C 
HETATM   21  C25 UNL     1     -16.879  45.715 -24.788  1.00  0.00     0.012 C 
HETATM   22  C26 UNL     1     -17.183  44.836 -26.016  1.00  0.00     0.007 C 
HETATM   23  C27 UNL     1     -16.054  44.874 -27.046  1.00  0.00     0.011 C 
HETATM   24  C28 UNL     1     -14.650  44.450 -26.529  1.00  0.00    -0.032 C 
HETATM   25  C29 UNL     1     -14.701  42.926 -26.239  1.00  0.00     0.016 C 
HETATM   26  C30 UNL     1     -10.971  45.352 -27.917  1.00  0.00     0.017 C 
ENDROOT
BRANCH   4  27
HETATM   27  C8  UNL     1     -10.199  42.819 -27.741  1.00  0.00     0.149 C 
HETATM   28  O1  UNL     1      -9.913  42.875 -26.556  1.00  0.00    -0.649 OA
BRANCH  27  29
HETATM   29  O2  UNL     1     -10.190  41.623 -28.352  1.00  0.00    -0.776 OA
HETATM   30  H11 UNL     1      -9.930  41.004 -27.639  1.00  0.00     0.167 HD
ENDBRANCH  27  29
ENDBRANCH   4  27
BRANCH   1  31
HETATM   31  C2  UNL     1      -9.426  47.380 -27.303  1.00  0.00    -0.088 C 
HETATM   32  C1  UNL     1      -9.113  48.007 -26.153  1.00  0.00     0.014 C 
HETATM   33  C3  UNL     1      -9.650  48.165 -28.569  1.00  0.00     0.043 C 
ENDBRANCH   1  31
BRANCH  19  34
HETATM   34  C24 UNL     1     -18.920  47.145 -24.350  1.00  0.00     0.181 C 
BRANCH  34  35
HETATM   35  O4  UNL     1     -20.070  46.812 -25.122  1.00  0.00    -0.400 OA
HETATM   36  H37 UNL     1     -20.485  46.013 -24.736  1.00  0.00     0.209 HD
ENDBRANCH  34  35
ENDBRANCH  19  34
TORSDOF 5
ENDMDL
MODEL 5
REMARK minimizedAffinity -6.23128319
REMARK CNNscore 0.385275841
REMARK CNNaffinity 5.94247103
REMARK  5 active torsions:
REMARK  status: ('A' for Active; 'I' for Inactive)
REMARK    1  A    between atoms: C2_2  and  C4_4 
REMARK    2  A    between atoms: C7_7  and  C8_8 
REMARK    3  A    between atoms: C8_8  and  O2_10 
REMARK    4  A    between atoms: C22_25  and  C24_27 
REMARK    5  A    between atoms: C24_27  and  O4_28 
ROOT
HETATM    1  C4  UNL     1     -12.225  45.830 -27.790  1.00  0.00     0.019 C 
HETATM    2  C5  UNL     1     -12.559  47.189 -27.117  1.00  0.00     0.011 C 
HETATM    3  C6  UNL     1     -12.029  48.287 -28.059  1.00  0.00     0.021 C 
HETATM    4  C7  UNL     1     -10.900  47.592 -28.830  1.00  0.00     0.050 C 
HETATM    5  C9  UNL     1     -10.520  48.252 -30.159  1.00  0.00     0.022 C 
HETATM    6  C10 UNL     1      -9.582  47.334 -30.968  1.00  0.00     0.011 C 
HETATM    7  C11 UNL     1     -10.115  45.876 -31.245  1.00  0.00    -0.032 C 
HETATM    8  C12 UNL     1     -11.310  46.057 -32.236  1.00  0.00     0.016 C 
HETATM    9  C13 UNL     1     -10.632  45.269 -29.889  1.00  0.00     0.000 C 
HETATM   10  C14 UNL     1     -11.284  43.904 -30.115  1.00  0.00     0.006 C 
HETATM   11  C15 UNL     1     -10.534  43.008 -31.094  1.00  0.00     0.006 C 
HETATM   12  C16 UNL     1      -9.045  43.389 -31.267  1.00  0.00     0.003 C 
HETATM   13  C17 UNL     1      -8.185  42.250 -32.019  1.00  0.00    -0.035 C 
HETATM   14  C18 UNL     1      -6.684  42.387 -31.639  1.00  0.00     0.016 C 
HETATM   15  C19 UNL     1      -8.647  40.833 -31.590  1.00  0.00     0.017 C 
HETATM   16  C20 UNL     1      -7.854  39.693 -32.199  1.00  0.00     0.080 C 
HETATM   17  C21 UNL     1      -7.455  39.878 -33.643  1.00  0.00     0.137 C 
HETATM   18  O3  UNL     1      -6.907  38.935 -34.225  1.00  0.00    -0.297 OA
HETATM   19  C22 UNL     1      -7.723  41.186 -34.399  1.00  0.00     0.042 C 
HETATM   20  C23 UNL     1      -6.378  41.635 -35.008  1.00  0.00     0.026 C 
HETATM   21  C25 UNL     1      -8.421  42.315 -33.553  1.00  0.00     0.012 C 
HETATM   22  C26 UNL     1      -8.176  43.734 -34.101  1.00  0.00     0.007 C 
HETATM   23  C27 UNL     1      -9.066  44.776 -33.426  1.00  0.00     0.011 C 
HETATM   24  C28 UNL     1      -8.949  44.868 -31.878  1.00  0.00    -0.032 C 
HETATM   25  C29 UNL     1      -7.550  45.455 -31.552  1.00  0.00     0.016 C 
HETATM   26  C30 UNL     1     -11.569  46.239 -29.133  1.00  0.00     0.017 C 
ENDROOT
BRANCH   4  27
HETATM   27  C8  UNL     1      -9.674  47.635 -27.908  1.00  0.00     0.149 C 
HETATM   28  O1  UNL     1      -9.087  46.657 -27.473  1.00  0.00    -0.649 OA
BRANCH  27  29
HETATM   29  O2  UNL     1      -9.193  48.856 -27.623  1.00  0.00    -0.776 OA
HETATM   30  H11 UNL     1      -8.402  48.669 -27.076  1.00  0.00     0.167 HD
ENDBRANCH  27  29
ENDBRANCH   4  27
BRANCH   1  31
HETATM   31  C2  UNL     1     -13.458  44.939 -27.861  1.00  0.00    -0.088 C 
HETATM   32  C1  UNL     1     -13.561  43.752 -27.236  1.00  0.00     0.014 C 
HETATM   33  C3  UNL     1     -14.589  45.461 -28.709  1.00  0.00     0.043 C 
ENDBRANCH   1  31
BRANCH  19  34
HETATM   34  C24 UNL     1      -8.702  40.769 -35.536  1.00  0.00     0.181 C 
BRANCH  34  35
HETATM   35  O4  UNL     1      -8.297  41.186 -36.837  1.00  0.00    -0.400 OA
HETATM   36  H37 UNL     1      -7.323  41.108 -36.900  1.00  0.00     0.209 HD
ENDBRANCH  34  35
ENDBRANCH  19  34
TORSDOF 5
ENDMDL
MODEL 6
REMARK minimizedAffinity -6.81804752
REMARK CNNscore 0.325697362
REMARK CNNaffinity 5.74739218
REMARK  5 active torsions:
REMARK  status: ('A' for Active; 'I' for Inactive)
REMARK    1  A    between atoms: C2_2  and  C4_4 
REMARK    2  A    between atoms: C7_7  and  C8_8 
REMARK    3  A    between atoms: C8_8  and  O2_10 
REMARK    4  A    between atoms: C22_25  and  C24_27 
REMARK    5  A    between atoms: C24_27  and  O4_28 
ROOT
HETATM    1  C4  UNL     1      -7.599  47.061 -26.338  1.00  0.00     0.019 C 
HETATM    2  C5  UNL     1      -6.328  47.617 -27.037  1.00  0.00     0.011 C 
HETATM    3  C6  UNL     1      -6.739  47.969 -28.479  1.00  0.00     0.021 C 
HETATM    4  C7  UNL     1      -7.935  47.049 -28.752  1.00  0.00     0.050 C 
HETATM    5  C9  UNL     1      -8.857  47.503 -29.889  1.00  0.00     0.022 C 
HETATM    6  C10 UNL     1     -10.154  46.670 -29.897  1.00  0.00     0.011 C 
HETATM    7  C11 UNL     1     -10.967  46.646 -28.546  1.00  0.00    -0.032 C 
HETATM    8  C12 UNL     1     -11.526  48.097 -28.378  1.00  0.00     0.016 C 
HETATM    9  C13 UNL     1      -9.973  46.318 -27.372  1.00  0.00     0.000 C 
HETATM   10  C14 UNL     1     -10.677  46.411 -26.017  1.00  0.00     0.006 C 
HETATM   11  C15 UNL     1     -12.077  45.808 -25.999  1.00  0.00     0.006 C 
HETATM   12  C16 UNL     1     -12.325  44.781 -27.129  1.00  0.00     0.003 C 
HETATM   13  C17 UNL     1     -13.660  43.904 -26.903  1.00  0.00    -0.035 C 
HETATM   14  C18 UNL     1     -13.542  42.559 -27.674  1.00  0.00     0.016 C 
HETATM   15  C19 UNL     1     -13.853  43.566 -25.402  1.00  0.00     0.017 C 
HETATM   16  C20 UNL     1     -15.052  42.689 -25.096  1.00  0.00     0.080 C 
HETATM   17  C21 UNL     1     -16.294  42.984 -25.900  1.00  0.00     0.137 C 
HETATM   18  O3  UNL     1     -17.335  42.379 -25.615  1.00  0.00    -0.297 OA
HETATM   19  C22 UNL     1     -16.302  44.015 -27.037  1.00  0.00     0.042 C 
HETATM   20  C23 UNL     1     -16.871  43.302 -28.282  1.00  0.00     0.026 C 
HETATM   21  C25 UNL     1     -14.920  44.717 -27.310  1.00  0.00     0.012 C 
HETATM   22  C26 UNL     1     -14.789  45.282 -28.737  1.00  0.00     0.007 C 
HETATM   23  C27 UNL     1     -13.560  46.176 -28.894  1.00  0.00     0.011 C 
HETATM   24  C28 UNL     1     -12.194  45.519 -28.546  1.00  0.00    -0.032 C 
HETATM   25  C29 UNL     1     -11.897  44.457 -29.639  1.00  0.00     0.016 C 
HETATM   26  C30 UNL     1      -8.698  47.191 -27.422  1.00  0.00     0.017 C 
ENDROOT
BRANCH   4  27
HETATM   27  C8  UNL     1      -7.339  45.688 -29.136  1.00  0.00     0.149 C 
HETATM   28  O1  UNL     1      -7.563  44.635 -28.560  1.00  0.00    -0.649 OA
BRANCH  27  29
HETATM   29  O2  UNL     1      -6.563  45.672 -30.232  1.00  0.00    -0.776 OA
HETATM   30  H11 UNL     1      -6.327  44.727 -30.332  1.00  0.00     0.167 HD
ENDBRANCH  27  29
ENDBRANCH   4  27
BRANCH   1  31
HETATM   31  C2  UNL     1      -7.843  47.766 -25.011  1.00  0.00    -0.088 C 
HETATM   32  C1  UNL     1      -8.474  48.950 -24.897  1.00  0.00     0.014 C 
HETATM   33  C3  UNL     1      -7.311  47.060 -23.791  1.00  0.00     0.043 C 
ENDBRANCH   1  31
BRANCH  19  34
HETATM   34  C24 UNL     1     -17.301  45.105 -26.551  1.00  0.00     0.181 C 
BRANCH  34  35
HETATM   35  O4  UNL     1     -18.420  45.297 -27.413  1.00  0.00    -0.400 OA
HETATM   36  H37 UNL     1     -18.692  44.426 -27.770  1.00  0.00     0.209 HD
ENDBRANCH  34  35
ENDBRANCH  19  34
TORSDOF 5
ENDMDL
MODEL 7
REMARK minimizedAffinity -6.54965544
REMARK CNNscore 0.285110891
REMARK CNNaffinity 5.33393097
REMARK  5 active torsions:
REMARK  status: ('A' for Active; 'I' for Inactive)
REMARK    1  A    between atoms: C2_2  and  C4_4 
REMARK    2  A    between atoms: C7_7  and  C8_8 
REMARK    3  A    between atoms: C8_8  and  O2_10 
REMARK    4  A    between atoms: C22_25  and  C24_27 
REMARK    5  A    between atoms: C24_27  and  O4_28 
ROOT
HETATM    1  C4  UNL     1     -10.377  47.576 -29.104  1.00  0.00     0.019 C 
HETATM    2  C5  UNL     1      -8.958  48.193 -28.967  1.00  0.00     0.011 C 
HETATM    3  C6  UNL     1      -8.384  47.678 -27.634  1.00  0.00     0.021 C 
HETATM    4  C7  UNL     1      -9.629  47.371 -26.794  1.00  0.00     0.050 C 
HETATM    5  C9  UNL     1      -9.405  46.396 -25.633  1.00  0.00     0.022 C 
HETATM    6  C10 UNL     1     -10.755  45.953 -25.034  1.00  0.00     0.011 C 
HETATM    7  C11 UNL     1     -11.787  45.326 -26.049  1.00  0.00    -0.032 C 
HETATM    8  C12 UNL     1     -11.165  43.956 -26.473  1.00  0.00     0.016 C 
HETATM    9  C13 UNL     1     -11.894  46.274 -27.299  1.00  0.00     0.000 C 
HETATM   10  C14 UNL     1     -12.781  45.654 -28.381  1.00  0.00     0.006 C 
HETATM   11  C15 UNL     1     -14.040  44.982 -27.846  1.00  0.00     0.006 C 
HETATM   12  C16 UNL     1     -14.461  45.481 -26.443  1.00  0.00     0.003 C 
HETATM   13  C17 UNL     1     -15.957  45.032 -26.036  1.00  0.00    -0.035 C 
HETATM   14  C18 UNL     1     -16.527  46.010 -24.970  1.00  0.00     0.016 C 
HETATM   15  C19 UNL     1     -16.902  45.078 -27.264  1.00  0.00     0.017 C 
HETATM   16  C20 UNL     1     -18.349  44.731 -26.968  1.00  0.00     0.080 C 
HETATM   17  C21 UNL     1     -18.558  43.610 -25.980  1.00  0.00     0.137 C 
HETATM   18  O3  UNL     1     -19.711  43.208 -25.785  1.00  0.00    -0.297 OA
HETATM   19  C22 UNL     1     -17.389  42.955 -25.233  1.00  0.00     0.042 C 
HETATM   20  C23 UNL     1     -17.733  43.008 -23.730  1.00  0.00     0.026 C 
HETATM   21  C25 UNL     1     -15.970  43.554 -25.559  1.00  0.00     0.012 C 
HETATM   22  C26 UNL     1     -14.931  43.312 -24.447  1.00  0.00     0.007 C 
HETATM   23  C27 UNL     1     -13.514  43.667 -24.894  1.00  0.00     0.011 C 
HETATM   24  C28 UNL     1     -13.305  45.126 -25.391  1.00  0.00    -0.032 C 
HETATM   25  C29 UNL     1     -13.443  46.061 -24.160  1.00  0.00     0.016 C 
HETATM   26  C30 UNL     1     -10.507  46.676 -27.850  1.00  0.00     0.017 C 
ENDROOT
BRANCH   4  27
HETATM   27  C8  UNL     1     -10.081  48.716 -26.207  1.00  0.00     0.149 C 
HETATM   28  O1  UNL     1      -9.377  49.471 -25.557  1.00  0.00    -0.649 OA
BRANCH  27  29
HETATM   29  O2  UNL     1     -11.336  49.094 -26.499  1.00  0.00    -0.776 OA
HETATM   30  H11 UNL     1     -11.412  49.977 -26.084  1.00  0.00     0.167 HD
ENDBRANCH  27  29
ENDBRANCH   4  27
BRANCH   1  31
HETATM   31  C2  UNL     1     -10.551  46.908 -30.462  1.00  0.00    -0.088 C 
HETATM   32  C1  UNL     1     -10.107  47.435 -31.618  1.00  0.00     0.014 C 
HETATM   33  C3  UNL     1     -11.286  45.593 -30.449  1.00  0.00     0.043 C 
ENDBRANCH   1  31
BRANCH  19  34
HETATM   34  C24 UNL     1     -17.407  41.478 -25.726  1.00  0.00     0.181 C 
BRANCH  34  35
HETATM   35  O4  UNL     1     -17.781  41.325 -27.093  1.00  0.00    -0.400 OA
HETATM   36  H37 UNL     1     -17.400  42.067 -27.606  1.00  0.00     0.209 HD
ENDBRANCH  34  35
ENDBRANCH  19  34
TORSDOF 5
ENDMDL
MODEL 8
REMARK minimizedAffinity -7.23734474
REMARK CNNscore 0.264065683
REMARK CNNaffinity 5.78900528
REMARK  5 active torsions:
REMARK  status: ('A' for Active; 'I' for Inactive)
REMARK    1  A    between atoms: C2_2  and  C4_4 
REMARK    2  A    between atoms: C7_7  and  C8_8 
REMARK    3  A    between atoms: C8_8  and  O2_10 
REMARK    4  A    between atoms: C22_25  and  C24_27 
REMARK    5  A    between atoms: C24_27  and  O4_28 
ROOT
HETATM    1  C4  UNL     1     -13.224  43.966 -26.922  1.00  0.00     0.019 C 
HETATM    2  C5  UNL     1     -14.331  44.241 -25.868  1.00  0.00     0.011 C 
HETATM    3  C6  UNL     1     -14.509  45.769 -25.808  1.00  0.00     0.021 C 
HETATM    4  C7  UNL     1     -13.152  46.313 -26.271  1.00  0.00     0.050 C 
HETATM    5  C9  UNL     1     -13.173  47.756 -26.787  1.00  0.00     0.022 C 
HETATM    6  C10 UNL     1     -11.836  48.103 -27.471  1.00  0.00     0.011 C 
HETATM    7  C11 UNL     1     -11.387  47.140 -28.637  1.00  0.00    -0.032 C 
HETATM    8  C12 UNL     1     -12.408  47.393 -29.794  1.00  0.00     0.016 C 
HETATM    9  C13 UNL     1     -11.510  45.656 -28.131  1.00  0.00     0.000 C 
HETATM   10  C14 UNL     1     -11.214  44.668 -29.261  1.00  0.00     0.006 C 
HETATM   11  C15 UNL     1     -10.033  45.060 -30.141  1.00  0.00     0.006 C 
HETATM   12  C16 UNL     1      -9.053  46.044 -29.460  1.00  0.00     0.003 C 
HETATM   13  C17 UNL     1      -7.650  46.182 -30.245  1.00  0.00    -0.035 C 
HETATM   14  C18 UNL     1      -6.542  46.658 -29.263  1.00  0.00     0.016 C 
HETATM   15  C19 UNL     1      -7.203  44.816 -30.825  1.00  0.00     0.017 C 
HETATM   16  C20 UNL     1      -5.860  44.832 -31.531  1.00  0.00     0.080 C 
HETATM   17  C21 UNL     1      -5.579  46.058 -32.364  1.00  0.00     0.137 C 
HETATM   18  O3  UNL     1      -4.552  46.077 -33.052  1.00  0.00    -0.297 OA
HETATM   19  C22 UNL     1      -6.534  47.260 -32.390  1.00  0.00     0.042 C 
HETATM   20  C23 UNL     1      -5.688  48.509 -32.065  1.00  0.00     0.026 C 
HETATM   21  C25 UNL     1      -7.805  47.122 -31.472  1.00  0.00     0.012 C 
HETATM   22  C26 UNL     1      -8.421  48.476 -31.071  1.00  0.00     0.007 C 
HETATM   23  C27 UNL     1      -9.787  48.314 -30.406  1.00  0.00     0.011 C 
HETATM   24  C28 UNL     1      -9.822  47.413 -29.138  1.00  0.00    -0.032 C 
HETATM   25  C29 UNL     1      -9.060  48.164 -28.013  1.00  0.00     0.016 C 
HETATM   26  C30 UNL     1     -12.873  45.376 -27.461  1.00  0.00     0.017 C 
ENDROOT
BRANCH   4  27
HETATM   27  C8  UNL     1     -12.236  46.260 -25.041  1.00  0.00     0.149 C 
HETATM   28  O1  UNL     1     -11.202  45.616 -24.962  1.00  0.00    -0.649 OA
BRANCH  27  29
HETATM   29  O2  UNL     1     -12.591  47.040 -24.008  1.00  0.00    -0.776 OA
HETATM   30  H11 UNL     1     -11.870  46.903 -23.359  1.00  0.00     0.167 HD
ENDBRANCH  27  29
ENDBRANCH   4  27
BRANCH   1  31
HETATM   31  C2  UNL     1     -13.685  42.928 -27.938  1.00  0.00    -0.088 C 
HETATM   32  C1  UNL     1     -12.905  41.932 -28.397  1.00  0.00     0.014 C 
HETATM   33  C3  UNL     1     -15.098  43.088 -28.435  1.00  0.00     0.043 C 
ENDBRANCH   1  31
BRANCH  19  34
HETATM   34  C24 UNL     1      -7.019  47.322 -33.869  1.00  0.00     0.181 C 
BRANCH  34  35
HETATM   35  O4  UNL     1      -6.066  47.876 -34.772  1.00  0.00    -0.400 OA
HETATM   36  H37 UNL     1      -5.172  47.580 -34.503  1.00  0.00     0.209 HD
ENDBRANCH  34  35
ENDBRANCH  19  34
TORSDOF 5
ENDMDL
MODEL 9
REMARK minimizedAffinity -8.4145813
REMARK CNNscore 0.258932412
REMARK CNNaffinity 6.06703186
REMARK  5 active torsions:
REMARK  status: ('A' for Active; 'I' for Inactive)
REMARK    1  A    between atoms: C2_2  and  C4_4 
REMARK    2  A    between atoms: C7_7  and  C8_8 
REMARK    3  A    between atoms: C8_8  and  O2_10 
REMARK    4  A    between atoms: C22_25  and  C24_27 
REMARK    5  A    between atoms: C24_27  and  O4_28 
ROOT
HETATM    1  C4  UNL     1      -5.851  48.479 -25.964  1.00  0.00     0.019 C 
HETATM    2  C5  UNL     1      -5.918  48.617 -24.418  1.00  0.00     0.011 C 
HETATM    3  C6  UNL     1      -6.894  47.533 -23.924  1.00  0.00     0.021 C 
HETATM    4  C7  UNL     1      -7.805  47.284 -25.131  1.00  0.00     0.050 C 
HETATM    5  C9  UNL     1      -8.540  45.939 -25.123  1.00  0.00     0.022 C 
HETATM    6  C10 UNL     1      -9.202  45.679 -26.491  1.00  0.00     0.011 C 
HETATM    7  C11 UNL     1      -8.246  45.742 -27.744  1.00  0.00    -0.032 C 
HETATM    8  C12 UNL     1      -7.307  44.499 -27.606  1.00  0.00     0.016 C 
HETATM    9  C13 UNL     1      -7.397  47.064 -27.656  1.00  0.00     0.000 C 
HETATM   10  C14 UNL     1      -6.355  47.118 -28.774  1.00  0.00     0.006 C 
HETATM   11  C15 UNL     1      -6.869  46.652 -30.131  1.00  0.00     0.006 C 
HETATM   12  C16 UNL     1      -8.409  46.713 -30.265  1.00  0.00     0.003 C 
HETATM   13  C17 UNL     1      -8.917  46.555 -31.788  1.00  0.00    -0.035 C 
HETATM   14  C18 UNL     1     -10.321  47.204 -31.945  1.00  0.00     0.016 C 
HETATM   15  C19 UNL     1      -7.957  47.275 -32.770  1.00  0.00     0.017 C 
HETATM   16  C20 UNL     1      -8.385  47.234 -34.225  1.00  0.00     0.080 C 
HETATM   17  C21 UNL     1      -8.991  45.931 -34.686  1.00  0.00     0.137 C 
HETATM   18  O3  UNL     1      -9.254  45.800 -35.888  1.00  0.00    -0.297 OA
HETATM   19  C22 UNL     1      -9.271  44.775 -33.716  1.00  0.00     0.042 C 
HETATM   20  C23 UNL     1     -10.751  44.380 -33.906  1.00  0.00     0.026 C 
HETATM   21  C25 UNL     1      -8.900  45.061 -32.214  1.00  0.00     0.012 C 
HETATM   22  C26 UNL     1      -9.672  44.181 -31.212  1.00  0.00     0.007 C 
HETATM   23  C27 UNL     1      -9.112  44.290 -29.795  1.00  0.00     0.011 C 
HETATM   24  C28 UNL     1      -9.070  45.723 -29.191  1.00  0.00    -0.032 C 
HETATM   25  C29 UNL     1     -10.536  46.165 -28.938  1.00  0.00     0.016 C 
HETATM   26  C30 UNL     1      -6.760  47.260 -26.262  1.00  0.00     0.017 C 
ENDROOT
BRANCH   4  27
HETATM   27  C8  UNL     1      -8.856  48.402 -25.102  1.00  0.00     0.149 C 
HETATM   28  O1  UNL     1     -10.054  48.246 -25.275  1.00  0.00    -0.649 OA
BRANCH  27  29
HETATM   29  O2  UNL     1      -8.402  49.629 -24.800  1.00  0.00    -0.776 OA
HETATM   30  H11 UNL     1      -9.214  50.177 -24.786  1.00  0.00     0.167 HD
ENDBRANCH  27  29
ENDBRANCH   4  27
BRANCH   1  31
HETATM   31  C2  UNL     1      -4.407  48.403 -26.443  1.00  0.00    -0.088 C 
HETATM   32  C1  UNL     1      -4.050  48.349 -27.739  1.00  0.00     0.014 C 
HETATM   33  C3  UNL     1      -3.363  48.372 -25.357  1.00  0.00     0.043 C 
ENDBRANCH   1  31
BRANCH  19  34
HETATM   34  C24 UNL     1      -8.350  43.627 -34.224  1.00  0.00     0.181 C 
BRANCH  34  35
HETATM   35  O4  UNL     1      -8.652  43.178 -35.543  1.00  0.00    -0.400 OA
HETATM   36  H37 UNL     1      -8.908  43.952 -36.085  1.00  0.00     0.209 HD
ENDBRANCH  34  35
ENDBRANCH  19  34
TORSDOF 5
ENDMDL
