MODEL 1
REMARK minimizedAffinity -7.86790657
REMARK  9 active torsions:
REMARK  status: ('A' for Active; 'I' for Inactive)
REMARK    1  A    between atoms: C1_2  and  C2_3 
REMARK       I    between atoms: C1_2  and  N1_6 
REMARK    2  A    between atoms: N1_6  and  C3_7 
REMARK    3  A    between atoms: N1_6  and  C5_10 
REMARK    4  A    between atoms: C3_7  and  C4_8 
REMARK    5  A    between atoms: C4_8  and  O2_9 
REMARK    6  A    between atoms: C5_10  and  C6_11 
REMARK    7  A    between atoms: C9_14  and  O3_15 
REMARK    8  A    between atoms: O3_15  and  C10_16 
REMARK    9  A    between atoms: C13_19  and  N2_20 
ROOT
HETATM    1  C6  UNL     1       0.350   6.488  11.766  1.00  0.00    -0.040 A 
HETATM    2  C7  UNL     1      -0.986   6.659  12.159  1.00  0.00     0.011 A 
HETATM    3  C8  UNL     1      -1.847   5.563  12.246  1.00  0.00     0.038 A 
HETATM    4  C9  UNL     1      -1.379   4.287  11.927  1.00  0.00     0.076 A 
HETATM    5  C16 UNL     1      -0.049   4.098  11.559  1.00  0.00     0.038 A 
HETATM    6  C17 UNL     1       0.811   5.195  11.471  1.00  0.00     0.011 A 
ENDROOT
BRANCH   1   7
HETATM    7  C5  UNL     1       1.291   7.668  11.687  1.00  0.00     0.164 C 
BRANCH   7   8
HETATM    8  N1  UNL     1       1.985   7.728  10.396  1.00  0.00    -0.344 N 
HETATM    9  C1  UNL     1       1.208   7.914   9.243  1.00  0.00     0.253 C 
HETATM   10  O1  UNL     1      -0.008   8.112   9.344  1.00  0.00    -0.270 OA
BRANCH   9  11
HETATM   11  C2  UNL     1       1.896   7.861   7.869  1.00  0.00     0.270 C 
HETATM   12 CL1  UNL     1       2.428   6.196   7.553  1.00  0.00    -0.098 Cl
HETATM   13 CL2  UNL     1       3.299   8.961   7.822  1.00  0.00    -0.098 Cl
ENDBRANCH   9  11
BRANCH   8  14
HETATM   14  C3  UNL     1       3.449   7.602  10.426  1.00  0.00     0.152 C 
BRANCH  14  15
HETATM   15  C4  UNL     1       3.926   6.168  10.682  1.00  0.00     0.184 C 
BRANCH  15  16
HETATM   16  O2  UNL     1       4.913   6.178  11.705  1.00  0.00    -0.399 OA
HETATM   17  H6  UNL     1       5.150   5.250  11.884  1.00  0.00     0.209 HD
ENDBRANCH  15  16
ENDBRANCH  14  15
ENDBRANCH   8  14
ENDBRANCH   7   8
ENDBRANCH   1   7
BRANCH   4  18
HETATM   18  O3  UNL     1      -2.170   3.165  12.027  1.00  0.00    -0.311 OA
BRANCH  18  19
HETATM   19  C10 UNL     1      -3.515   3.362  12.247  1.00  0.00     0.076 A 
HETATM   20  C11 UNL     1      -4.008   4.384  13.064  1.00  0.00     0.040 A 
HETATM   21  C12 UNL     1      -5.386   4.553  13.215  1.00  0.00     0.039 A 
HETATM   22  C13 UNL     1      -6.266   3.702  12.530  1.00  0.00     0.103 A 
HETATM   23  C14 UNL     1      -5.774   2.691  11.693  1.00  0.00     0.039 A 
HETATM   24  C15 UNL     1      -4.394   2.530  11.549  1.00  0.00     0.040 A 
BRANCH  22  25
HETATM   25  N2  UNL     1      -7.716   3.876  12.687  1.00  0.00    -0.116 N 
HETATM   26  O4  UNL     1      -8.415   2.856  12.755  1.00  0.00    -0.532 OA
HETATM   27  O5  UNL     1      -8.154   5.035  12.738  1.00  0.00    -0.532 OA
ENDBRANCH  22  25
ENDBRANCH  18  19
ENDBRANCH   4  18
TORSDOF 9
ENDMDL
MODEL 2
REMARK minimizedAffinity -7.83755493
REMARK  9 active torsions:
REMARK  status: ('A' for Active; 'I' for Inactive)
REMARK    1  A    between atoms: C1_2  and  C2_3 
REMARK       I    between atoms: C1_2  and  N1_6 
REMARK    2  A    between atoms: N1_6  and  C3_7 
REMARK    3  A    between atoms: N1_6  and  C5_10 
REMARK    4  A    between atoms: C3_7  and  C4_8 
REMARK    5  A    between atoms: C4_8  and  O2_9 
REMARK    6  A    between atoms: C5_10  and  C6_11 
REMARK    7  A    between atoms: C9_14  and  O3_15 
REMARK    8  A    between atoms: O3_15  and  C10_16 
REMARK    9  A    between atoms: C13_19  and  N2_20 
ROOT
HETATM    1  C6  UNL     1      -0.250   7.365  11.493  1.00  0.00    -0.040 A 
HETATM    2  C7  UNL     1      -1.277   7.551  12.431  1.00  0.00     0.011 A 
HETATM    3  C8  UNL     1      -2.029   6.466  12.886  1.00  0.00     0.038 A 
HETATM    4  C9  UNL     1      -1.768   5.187  12.392  1.00  0.00     0.076 A 
HETATM    5  C16 UNL     1      -0.737   4.982  11.478  1.00  0.00     0.038 A 
HETATM    6  C17 UNL     1       0.014   6.068  11.024  1.00  0.00     0.011 A 
ENDROOT
BRANCH   1   7
HETATM    7  C5  UNL     1       0.579   8.532  11.010  1.00  0.00     0.164 C 
BRANCH   7   8
HETATM    8  N1  UNL     1       1.634   8.108  10.083  1.00  0.00    -0.344 N 
HETATM    9  C1  UNL     1       1.300   7.982   8.726  1.00  0.00     0.253 C 
HETATM   10  O1  UNL     1       0.176   8.313   8.333  1.00  0.00    -0.270 OA
BRANCH   9  11
HETATM   11  C2  UNL     1       2.353   7.425   7.753  1.00  0.00     0.270 C 
HETATM   12 CL1  UNL     1       1.663   7.383   6.117  1.00  0.00    -0.098 Cl
HETATM   13 CL2  UNL     1       2.855   5.784   8.238  1.00  0.00    -0.098 Cl
ENDBRANCH   9  11
BRANCH   8  14
HETATM   14  C3  UNL     1       2.963   7.865  10.660  1.00  0.00     0.152 C 
BRANCH  14  15
HETATM   15  C4  UNL     1       3.080   8.323  12.118  1.00  0.00     0.184 C 
BRANCH  15  16
HETATM   16  O2  UNL     1       3.199   7.184  12.959  1.00  0.00    -0.399 OA
HETATM   17  H6  UNL     1       3.331   7.510  13.868  1.00  0.00     0.209 HD
ENDBRANCH  15  16
ENDBRANCH  14  15
ENDBRANCH   8  14
ENDBRANCH   7   8
ENDBRANCH   1   7
BRANCH   4  18
HETATM   18  O3  UNL     1      -2.453   4.075  12.828  1.00  0.00    -0.311 OA
BRANCH  18  19
HETATM   19  C10 UNL     1      -3.824   4.092  12.704  1.00  0.00     0.076 A 
HETATM   20  C11 UNL     1      -4.519   3.234  11.846  1.00  0.00     0.040 A 
HETATM   21  C12 UNL     1      -5.914   3.276  11.797  1.00  0.00     0.039 A 
HETATM   22  C13 UNL     1      -6.608   4.173  12.622  1.00  0.00     0.103 A 
HETATM   23  C14 UNL     1      -5.915   5.018  13.500  1.00  0.00     0.039 A 
HETATM   24  C15 UNL     1      -4.520   4.968  13.542  1.00  0.00     0.040 A 
BRANCH  22  25
HETATM   25  N2  UNL     1      -8.075   4.221  12.572  1.00  0.00    -0.116 N 
HETATM   26  O4  UNL     1      -8.608   5.313  12.328  1.00  0.00    -0.532 OA
HETATM   27  O5  UNL     1      -8.693   3.167  12.781  1.00  0.00    -0.532 OA
ENDBRANCH  22  25
ENDBRANCH  18  19
ENDBRANCH   4  18
TORSDOF 9
ENDMDL
MODEL 3
REMARK minimizedAffinity -7.62062263
REMARK  9 active torsions:
REMARK  status: ('A' for Active; 'I' for Inactive)
REMARK    1  A    between atoms: C1_2  and  C2_3 
REMARK       I    between atoms: C1_2  and  N1_6 
REMARK    2  A    between atoms: N1_6  and  C3_7 
REMARK    3  A    between atoms: N1_6  and  C5_10 
REMARK    4  A    between atoms: C3_7  and  C4_8 
REMARK    5  A    between atoms: C4_8  and  O2_9 
REMARK    6  A    between atoms: C5_10  and  C6_11 
REMARK    7  A    between atoms: C9_14  and  O3_15 
REMARK    8  A    between atoms: O3_15  and  C10_16 
REMARK    9  A    between atoms: C13_19  and  N2_20 
ROOT
HETATM    1  C6  UNL     1      -3.781   6.278  13.526  1.00  0.00    -0.040 A 
HETATM    2  C7  UNL     1      -4.335   7.540  13.259  1.00  0.00     0.011 A 
HETATM    3  C8  UNL     1      -3.541   8.569  12.748  1.00  0.00     0.038 A 
HETATM    4  C9  UNL     1      -2.184   8.347  12.513  1.00  0.00     0.076 A 
HETATM    5  C16 UNL     1      -1.625   7.093  12.751  1.00  0.00     0.038 A 
HETATM    6  C17 UNL     1      -2.419   6.065  13.262  1.00  0.00     0.011 A 
ENDROOT
BRANCH   1   7
HETATM    7  C5  UNL     1      -4.638   5.155  14.063  1.00  0.00     0.164 C 
BRANCH   7   8
HETATM    8  N1  UNL     1      -5.463   4.546  13.014  1.00  0.00    -0.344 N 
HETATM    9  C1  UNL     1      -4.898   3.510  12.255  1.00  0.00     0.253 C 
HETATM   10  O1  UNL     1      -3.776   3.078  12.541  1.00  0.00    -0.270 OA
BRANCH   9  11
HETATM   11  C2  UNL     1      -5.697   2.938  11.073  1.00  0.00     0.270 C 
HETATM   12 CL1  UNL     1      -5.752   1.168  11.215  1.00  0.00    -0.098 Cl
HETATM   13 CL2  UNL     1      -4.945   3.395   9.522  1.00  0.00    -0.098 Cl
ENDBRANCH   9  11
BRANCH   8  14
HETATM   14  C3  UNL     1      -6.827   5.071  12.859  1.00  0.00     0.152 C 
BRANCH  14  15
HETATM   15  C4  UNL     1      -7.824   4.464  13.851  1.00  0.00     0.184 C 
BRANCH  15  16
HETATM   16  O2  UNL     1      -8.522   3.397  13.222  1.00  0.00    -0.399 OA
HETATM   17  H6  UNL     1      -9.101   2.996  13.895  1.00  0.00     0.209 HD
ENDBRANCH  15  16
ENDBRANCH  14  15
ENDBRANCH   8  14
ENDBRANCH   7   8
ENDBRANCH   1   7
BRANCH   4  18
HETATM   18  O3  UNL     1      -1.360   9.312  11.979  1.00  0.00    -0.311 OA
BRANCH  18  19
HETATM   19  C10 UNL     1      -0.438   8.904  11.042  1.00  0.00     0.076 A 
HETATM   20  C11 UNL     1       0.858   8.500  11.381  1.00  0.00     0.040 A 
HETATM   21  C12 UNL     1       1.733   8.060  10.385  1.00  0.00     0.039 A 
HETATM   22  C13 UNL     1       1.297   8.012   9.053  1.00  0.00     0.103 A 
HETATM   23  C14 UNL     1      -0.008   8.395   8.715  1.00  0.00     0.039 A 
HETATM   24  C15 UNL     1      -0.876   8.834   9.718  1.00  0.00     0.040 A 
BRANCH  22  25
HETATM   25  N2  UNL     1       2.215   7.550   8.003  1.00  0.00    -0.116 N 
HETATM   26  O4  UNL     1       2.466   6.338   7.950  1.00  0.00    -0.532 OA
HETATM   27  O5  UNL     1       2.687   8.401   7.236  1.00  0.00    -0.532 OA
ENDBRANCH  22  25
ENDBRANCH  18  19
ENDBRANCH   4  18
TORSDOF 9
ENDMDL
MODEL 4
REMARK minimizedAffinity -7.53874445
REMARK  9 active torsions:
REMARK  status: ('A' for Active; 'I' for Inactive)
REMARK    1  A    between atoms: C1_2  and  C2_3 
REMARK       I    between atoms: C1_2  and  N1_6 
REMARK    2  A    between atoms: N1_6  and  C3_7 
REMARK    3  A    between atoms: N1_6  and  C5_10 
REMARK    4  A    between atoms: C3_7  and  C4_8 
REMARK    5  A    between atoms: C4_8  and  O2_9 
REMARK    6  A    between atoms: C5_10  and  C6_11 
REMARK    7  A    between atoms: C9_14  and  O3_15 
REMARK    8  A    between atoms: O3_15  and  C10_16 
REMARK    9  A    between atoms: C13_19  and  N2_20 
ROOT
HETATM    1  C6  UNL     1       0.841   5.864  12.230  1.00  0.00    -0.040 A 
HETATM    2  C7  UNL     1      -0.273   5.159  11.751  1.00  0.00     0.011 A 
HETATM    3  C8  UNL     1      -1.392   4.964  12.564  1.00  0.00     0.038 A 
HETATM    4  C9  UNL     1      -1.398   5.462  13.867  1.00  0.00     0.076 A 
HETATM    5  C16 UNL     1      -0.308   6.185  14.348  1.00  0.00     0.038 A 
HETATM    6  C17 UNL     1       0.810   6.379  13.535  1.00  0.00     0.011 A 
ENDROOT
BRANCH   1   7
HETATM    7  C5  UNL     1       2.049   6.094  11.350  1.00  0.00     0.164 C 
BRANCH   7   8
HETATM    8  N1  UNL     1       1.779   7.078  10.296  1.00  0.00    -0.344 N 
HETATM    9  C1  UNL     1       2.055   6.710   8.971  1.00  0.00     0.253 C 
HETATM   10  O1  UNL     1       2.423   5.558   8.714  1.00  0.00    -0.270 OA
BRANCH   9  11
HETATM   11  C2  UNL     1       1.895   7.763   7.861  1.00  0.00     0.270 C 
HETATM   12 CL1  UNL     1       1.787   6.937   6.292  1.00  0.00    -0.098 Cl
HETATM   13 CL2  UNL     1       3.279   8.889   7.855  1.00  0.00    -0.098 Cl
ENDBRANCH   9  11
BRANCH   8  14
HETATM   14  C3  UNL     1       1.225   8.370  10.725  1.00  0.00     0.152 C 
BRANCH  14  15
HETATM   15  C4  UNL     1      -0.292   8.468  10.534  1.00  0.00     0.184 C 
BRANCH  15  16
HETATM   16  O2  UNL     1      -0.568   9.139   9.311  1.00  0.00    -0.399 OA
HETATM   17  H6  UNL     1      -1.535   9.132   9.192  1.00  0.00     0.209 HD
ENDBRANCH  15  16
ENDBRANCH  14  15
ENDBRANCH   8  14
ENDBRANCH   7   8
ENDBRANCH   1   7
BRANCH   4  18
HETATM   18  O3  UNL     1      -2.484   5.331  14.702  1.00  0.00    -0.311 OA
BRANCH  18  19
HETATM   19  C10 UNL     1      -3.712   5.139  14.111  1.00  0.00     0.076 A 
HETATM   20  C11 UNL     1      -3.994   4.044  13.287  1.00  0.00     0.040 A 
HETATM   21  C12 UNL     1      -5.273   3.887  12.749  1.00  0.00     0.039 A 
HETATM   22  C13 UNL     1      -6.271   4.824  13.052  1.00  0.00     0.103 A 
HETATM   23  C14 UNL     1      -5.997   5.911  13.896  1.00  0.00     0.039 A 
HETATM   24  C15 UNL     1      -4.714   6.059  14.429  1.00  0.00     0.040 A 
BRANCH  22  25
HETATM   25  N2  UNL     1      -7.617   4.663  12.487  1.00  0.00    -0.116 N 
HETATM   26  O4  UNL     1      -8.167   3.560  12.613  1.00  0.00    -0.532 OA
HETATM   27  O5  UNL     1      -8.121   5.640  11.915  1.00  0.00    -0.532 OA
ENDBRANCH  22  25
ENDBRANCH  18  19
ENDBRANCH   4  18
TORSDOF 9
ENDMDL
MODEL 5
REMARK minimizedAffinity -7.51604748
REMARK  9 active torsions:
REMARK  status: ('A' for Active; 'I' for Inactive)
REMARK    1  A    between atoms: C1_2  and  C2_3 
REMARK       I    between atoms: C1_2  and  N1_6 
REMARK    2  A    between atoms: N1_6  and  C3_7 
REMARK    3  A    between atoms: N1_6  and  C5_10 
REMARK    4  A    between atoms: C3_7  and  C4_8 
REMARK    5  A    between atoms: C4_8  and  O2_9 
REMARK    6  A    between atoms: C5_10  and  C6_11 
REMARK    7  A    between atoms: C9_14  and  O3_15 
REMARK    8  A    between atoms: O3_15  and  C10_16 
REMARK    9  A    between atoms: C13_19  and  N2_20 
ROOT
HETATM    1  C6  UNL     1      -1.934   5.546  12.795  1.00  0.00    -0.040 A 
HETATM    2  C7  UNL     1      -1.143   4.722  11.980  1.00  0.00     0.011 A 
HETATM    3  C8  UNL     1      -0.111   5.264  11.210  1.00  0.00     0.038 A 
HETATM    4  C9  UNL     1       0.126   6.638  11.239  1.00  0.00     0.076 A 
HETATM    5  C16 UNL     1      -0.635   7.466  12.062  1.00  0.00     0.038 A 
HETATM    6  C17 UNL     1      -1.666   6.924  12.831  1.00  0.00     0.011 A 
ENDROOT
BRANCH   1   7
HETATM    7  C5  UNL     1      -3.040   4.963  13.644  1.00  0.00     0.164 C 
BRANCH   7   8
HETATM    8  N1  UNL     1      -4.210   4.594  12.840  1.00  0.00    -0.344 N 
HETATM    9  C1  UNL     1      -5.478   4.933  13.336  1.00  0.00     0.253 C 
HETATM   10  O1  UNL     1      -5.577   5.602  14.370  1.00  0.00    -0.270 OA
BRANCH   9  11
HETATM   11  C2  UNL     1      -6.724   4.452  12.574  1.00  0.00     0.270 C 
HETATM   12 CL1  UNL     1      -7.942   5.746  12.584  1.00  0.00    -0.098 Cl
HETATM   13 CL2  UNL     1      -7.398   2.983  13.328  1.00  0.00    -0.098 Cl
ENDBRANCH   9  11
BRANCH   8  14
HETATM   14  C3  UNL     1      -3.948   3.908  11.567  1.00  0.00     0.152 C 
BRANCH  14  15
HETATM   15  C4  UNL     1      -4.019   2.382  11.679  1.00  0.00     0.184 C 
BRANCH  15  16
HETATM   16  O2  UNL     1      -2.827   1.817  11.147  1.00  0.00    -0.399 OA
HETATM   17  H6  UNL     1      -2.878   0.854  11.287  1.00  0.00     0.209 HD
ENDBRANCH  15  16
ENDBRANCH  14  15
ENDBRANCH   8  14
ENDBRANCH   7   8
ENDBRANCH   1   7
BRANCH   4  18
HETATM   18  O3  UNL     1       1.150   7.225  10.529  1.00  0.00    -0.311 OA
BRANCH  18  19
HETATM   19  C10 UNL     1       1.925   6.400   9.746  1.00  0.00     0.076 A 
HETATM   20  C11 UNL     1       2.667   5.336  10.270  1.00  0.00     0.040 A 
HETATM   21  C12 UNL     1       3.403   4.512   9.415  1.00  0.00     0.039 A 
HETATM   22  C13 UNL     1       3.380   4.752   8.033  1.00  0.00     0.103 A 
HETATM   23  C14 UNL     1       2.619   5.804   7.505  1.00  0.00     0.039 A 
HETATM   24  C15 UNL     1       1.886   6.622   8.368  1.00  0.00     0.040 A 
BRANCH  22  25
HETATM   25  N2  UNL     1       4.153   3.888   7.132  1.00  0.00    -0.116 N 
HETATM   26  O4  UNL     1       3.843   3.883   5.932  1.00  0.00    -0.532 OA
HETATM   27  O5  UNL     1       5.068   3.213   7.626  1.00  0.00    -0.532 OA
ENDBRANCH  22  25
ENDBRANCH  18  19
ENDBRANCH   4  18
TORSDOF 9
ENDMDL
MODEL 6
REMARK minimizedAffinity -7.50953293
REMARK  9 active torsions:
REMARK  status: ('A' for Active; 'I' for Inactive)
REMARK    1  A    between atoms: C1_2  and  C2_3 
REMARK       I    between atoms: C1_2  and  N1_6 
REMARK    2  A    between atoms: N1_6  and  C3_7 
REMARK    3  A    between atoms: N1_6  and  C5_10 
REMARK    4  A    between atoms: C3_7  and  C4_8 
REMARK    5  A    between atoms: C4_8  and  O2_9 
REMARK    6  A    between atoms: C5_10  and  C6_11 
REMARK    7  A    between atoms: C9_14  and  O3_15 
REMARK    8  A    between atoms: O3_15  and  C10_16 
REMARK    9  A    between atoms: C13_19  and  N2_20 
ROOT
HETATM    1  C6  UNL     1      -0.198   7.267  11.072  1.00  0.00    -0.040 A 
HETATM    2  C7  UNL     1      -0.152   5.868  10.974  1.00  0.00     0.011 A 
HETATM    3  C8  UNL     1      -0.902   5.071  11.841  1.00  0.00     0.038 A 
HETATM    4  C9  UNL     1      -1.693   5.669  12.824  1.00  0.00     0.076 A 
HETATM    5  C16 UNL     1      -1.767   7.057  12.917  1.00  0.00     0.038 A 
HETATM    6  C17 UNL     1      -1.016   7.853  12.050  1.00  0.00     0.011 A 
ENDROOT
BRANCH   1   7
HETATM    7  C5  UNL     1       0.598   8.136  10.125  1.00  0.00     0.164 C 
BRANCH   7   8
HETATM    8  N1  UNL     1       2.026   7.799  10.142  1.00  0.00    -0.344 N 
HETATM    9  C1  UNL     1       2.793   8.255  11.224  1.00  0.00     0.253 C 
HETATM   10  O1  UNL     1       2.245   8.838  12.166  1.00  0.00    -0.270 OA
BRANCH   9  11
HETATM   11  C2  UNL     1       4.312   8.019  11.206  1.00  0.00     0.270 C 
HETATM   12 CL1  UNL     1       5.053   9.108  10.013  1.00  0.00    -0.098 Cl
HETATM   13 CL2  UNL     1       4.684   6.325  10.788  1.00  0.00    -0.098 Cl
ENDBRANCH   9  11
BRANCH   8  14
HETATM   14  C3  UNL     1       2.528   6.993   9.020  1.00  0.00     0.152 C 
BRANCH  14  15
HETATM   15  C4  UNL     1       2.225   7.610   7.651  1.00  0.00     0.184 C 
BRANCH  15  16
HETATM   16  O2  UNL     1       2.926   8.840   7.526  1.00  0.00    -0.399 OA
HETATM   17  H6  UNL     1       2.761   9.175   6.626  1.00  0.00     0.209 HD
ENDBRANCH  15  16
ENDBRANCH  14  15
ENDBRANCH   8  14
ENDBRANCH   7   8
ENDBRANCH   1   7
BRANCH   4  18
HETATM   18  O3  UNL     1      -2.479   4.937  13.684  1.00  0.00    -0.311 OA
BRANCH  18  19
HETATM   19  C10 UNL     1      -3.802   4.772  13.340  1.00  0.00     0.076 A 
HETATM   20  C11 UNL     1      -4.239   3.770  12.467  1.00  0.00     0.040 A 
HETATM   21  C12 UNL     1      -5.601   3.632  12.190  1.00  0.00     0.039 A 
HETATM   22  C13 UNL     1      -6.522   4.494  12.804  1.00  0.00     0.103 A 
HETATM   23  C14 UNL     1      -6.088   5.484  13.697  1.00  0.00     0.039 A 
HETATM   24  C15 UNL     1      -4.724   5.613  13.967  1.00  0.00     0.040 A 
BRANCH  22  25
HETATM   25  N2  UNL     1      -7.955   4.352  12.514  1.00  0.00    -0.116 N 
HETATM   26  O4  UNL     1      -8.505   3.287  12.829  1.00  0.00    -0.532 OA
HETATM   27  O5  UNL     1      -8.529   5.306  11.968  1.00  0.00    -0.532 OA
ENDBRANCH  22  25
ENDBRANCH  18  19
ENDBRANCH   4  18
TORSDOF 9
ENDMDL
MODEL 7
REMARK minimizedAffinity -7.45141506
REMARK  9 active torsions:
REMARK  status: ('A' for Active; 'I' for Inactive)
REMARK    1  A    between atoms: C1_2  and  C2_3 
REMARK       I    between atoms: C1_2  and  N1_6 
REMARK    2  A    between atoms: N1_6  and  C3_7 
REMARK    3  A    between atoms: N1_6  and  C5_10 
REMARK    4  A    between atoms: C3_7  and  C4_8 
REMARK    5  A    between atoms: C4_8  and  O2_9 
REMARK    6  A    between atoms: C5_10  and  C6_11 
REMARK    7  A    between atoms: C9_14  and  O3_15 
REMARK    8  A    between atoms: O3_15  and  C10_16 
REMARK    9  A    between atoms: C13_19  and  N2_20 
ROOT
HETATM    1  C6  UNL     1      -3.796   6.742  14.011  1.00  0.00    -0.040 A 
HETATM    2  C7  UNL     1      -2.468   6.388  13.727  1.00  0.00     0.011 A 
HETATM    3  C8  UNL     1      -1.651   7.240  12.980  1.00  0.00     0.038 A 
HETATM    4  C9  UNL     1      -2.163   8.446  12.500  1.00  0.00     0.076 A 
HETATM    5  C16 UNL     1      -3.472   8.821  12.794  1.00  0.00     0.038 A 
HETATM    6  C17 UNL     1      -4.287   7.969  13.540  1.00  0.00     0.011 A 
ENDROOT
BRANCH   1   7
HETATM    7  C5  UNL     1      -4.680   5.832  14.834  1.00  0.00     0.164 C 
BRANCH   7   8
HETATM    8  N1  UNL     1      -5.904   5.463  14.115  1.00  0.00    -0.344 N 
HETATM    9  C1  UNL     1      -5.803   4.496  13.104  1.00  0.00     0.253 C 
HETATM   10  O1  UNL     1      -4.727   3.920  12.907  1.00  0.00    -0.270 OA
BRANCH   9  11
HETATM   11  C2  UNL     1      -7.046   4.178  12.256  1.00  0.00     0.270 C 
HETATM   12 CL1  UNL     1      -8.064   5.631  12.156  1.00  0.00    -0.098 Cl
HETATM   13 CL2  UNL     1      -7.977   2.838  12.977  1.00  0.00    -0.098 Cl
ENDBRANCH   9  11
BRANCH   8  14
HETATM   14  C3  UNL     1      -7.143   6.135  14.532  1.00  0.00     0.152 C 
BRANCH  14  15
HETATM   15  C4  UNL     1      -7.579   5.769  15.954  1.00  0.00     0.184 C 
BRANCH  15  16
HETATM   16  O2  UNL     1      -7.967   4.402  15.988  1.00  0.00    -0.399 OA
HETATM   17  H6  UNL     1      -8.181   4.186  16.914  1.00  0.00     0.209 HD
ENDBRANCH  15  16
ENDBRANCH  14  15
ENDBRANCH   8  14
ENDBRANCH   7   8
ENDBRANCH   1   7
BRANCH   4  18
HETATM   18  O3  UNL     1      -1.396   9.341  11.788  1.00  0.00    -0.311 OA
BRANCH  18  19
HETATM   19  C10 UNL     1      -0.532   8.822  10.849  1.00  0.00     0.076 A 
HETATM   20  C11 UNL     1      -0.842   8.759   9.487  1.00  0.00     0.040 A 
HETATM   21  C12 UNL     1       0.095   8.256   8.581  1.00  0.00     0.039 A 
HETATM   22  C13 UNL     1       1.347   7.831   9.047  1.00  0.00     0.103 A 
HETATM   23  C14 UNL     1       1.668   7.913  10.409  1.00  0.00     0.039 A 
HETATM   24  C15 UNL     1       0.724   8.418  11.307  1.00  0.00     0.040 A 
BRANCH  22  25
HETATM   25  N2  UNL     1       2.335   7.300   8.098  1.00  0.00    -0.116 N 
HETATM   26  O4  UNL     1       2.165   7.542   6.895  1.00  0.00    -0.532 OA
HETATM   27  O5  UNL     1       3.277   6.639   8.557  1.00  0.00    -0.532 OA
ENDBRANCH  22  25
ENDBRANCH  18  19
ENDBRANCH   4  18
TORSDOF 9
ENDMDL
MODEL 8
REMARK minimizedAffinity -7.39741659
REMARK  9 active torsions:
REMARK  status: ('A' for Active; 'I' for Inactive)
REMARK    1  A    between atoms: C1_2  and  C2_3 
REMARK       I    between atoms: C1_2  and  N1_6 
REMARK    2  A    between atoms: N1_6  and  C3_7 
REMARK    3  A    between atoms: N1_6  and  C5_10 
REMARK    4  A    between atoms: C3_7  and  C4_8 
REMARK    5  A    between atoms: C4_8  and  O2_9 
REMARK    6  A    between atoms: C5_10  and  C6_11 
REMARK    7  A    between atoms: C9_14  and  O3_15 
REMARK    8  A    between atoms: O3_15  and  C10_16 
REMARK    9  A    between atoms: C13_19  and  N2_20 
ROOT
HETATM    1  C6  UNL     1      -0.963   5.277  12.235  1.00  0.00    -0.040 A 
HETATM    2  C7  UNL     1      -1.410   4.618  11.079  1.00  0.00     0.011 A 
HETATM    3  C8  UNL     1      -2.602   3.890  11.093  1.00  0.00     0.038 A 
HETATM    4  C9  UNL     1      -3.348   3.804  12.269  1.00  0.00     0.076 A 
HETATM    5  C16 UNL     1      -2.929   4.472  13.418  1.00  0.00     0.038 A 
HETATM    6  C17 UNL     1      -1.738   5.199  13.403  1.00  0.00     0.011 A 
ENDROOT
BRANCH   1   7
HETATM    7  C5  UNL     1       0.317   6.081  12.222  1.00  0.00     0.164 C 
BRANCH   7   8
HETATM    8  N1  UNL     1       0.282   7.148  11.217  1.00  0.00    -0.344 N 
HETATM    9  C1  UNL     1       1.067   6.989  10.065  1.00  0.00     0.253 C 
HETATM   10  O1  UNL     1       1.685   5.935   9.881  1.00  0.00    -0.270 OA
BRANCH   9  11
HETATM   11  C2  UNL     1       1.142   8.145   9.054  1.00  0.00     0.270 C 
HETATM   12 CL1  UNL     1      -0.379   8.212   8.138  1.00  0.00    -0.098 Cl
HETATM   13 CL2  UNL     1       2.511   7.916   7.934  1.00  0.00    -0.098 Cl
ENDBRANCH   9  11
BRANCH   8  14
HETATM   14  C3  UNL     1      -0.592   8.296  11.501  1.00  0.00     0.152 C 
BRANCH  14  15
HETATM   15  C4  UNL     1      -0.304   8.952  12.856  1.00  0.00     0.184 C 
BRANCH  15  16
HETATM   16  O2  UNL     1      -1.150  10.083  13.017  1.00  0.00    -0.399 OA
HETATM   17  H6  UNL     1      -0.985  10.440  13.909  1.00  0.00     0.209 HD
ENDBRANCH  15  16
ENDBRANCH  14  15
ENDBRANCH   8  14
ENDBRANCH   7   8
ENDBRANCH   1   7
BRANCH   4  18
HETATM   18  O3  UNL     1      -4.547   3.130  12.335  1.00  0.00    -0.311 OA
BRANCH  18  19
HETATM   19  C10 UNL     1      -5.658   3.857  12.697  1.00  0.00     0.076 A 
HETATM   20  C11 UNL     1      -6.908   3.270  12.918  1.00  0.00     0.040 A 
HETATM   21  C12 UNL     1      -7.987   4.060  13.322  1.00  0.00     0.039 A 
HETATM   22  C13 UNL     1      -7.802   5.437  13.516  1.00  0.00     0.103 A 
HETATM   23  C14 UNL     1      -6.544   6.023  13.316  1.00  0.00     0.039 A 
HETATM   24  C15 UNL     1      -5.472   5.224  12.913  1.00  0.00     0.040 A 
BRANCH  22  25
HETATM   25  N2  UNL     1      -8.935   6.271  13.939  1.00  0.00    -0.116 N 
HETATM   26  O4  UNL     1      -8.974   6.631  15.124  1.00  0.00    -0.532 OA
HETATM   27  O5  UNL     1      -9.786   6.562  13.087  1.00  0.00    -0.532 OA
ENDBRANCH  22  25
ENDBRANCH  18  19
ENDBRANCH   4  18
TORSDOF 9
ENDMDL
MODEL 9
REMARK minimizedAffinity -7.38217545
REMARK  9 active torsions:
REMARK  status: ('A' for Active; 'I' for Inactive)
REMARK    1  A    between atoms: C1_2  and  C2_3 
REMARK       I    between atoms: C1_2  and  N1_6 
REMARK    2  A    between atoms: N1_6  and  C3_7 
REMARK    3  A    between atoms: N1_6  and  C5_10 
REMARK    4  A    between atoms: C3_7  and  C4_8 
REMARK    5  A    between atoms: C4_8  and  O2_9 
REMARK    6  A    between atoms: C5_10  and  C6_11 
REMARK    7  A    between atoms: C9_14  and  O3_15 
REMARK    8  A    between atoms: O3_15  and  C10_16 
REMARK    9  A    between atoms: C13_19  and  N2_20 
ROOT
HETATM    1  C6  UNL     1      -0.123   6.976  10.966  1.00  0.00    -0.040 A 
HETATM    2  C7  UNL     1      -0.174   5.574  10.983  1.00  0.00     0.011 A 
HETATM    3  C8  UNL     1      -0.953   4.903  11.929  1.00  0.00     0.038 A 
HETATM    4  C9  UNL     1      -1.675   5.632  12.874  1.00  0.00     0.076 A 
HETATM    5  C16 UNL     1      -1.654   7.025  12.855  1.00  0.00     0.038 A 
HETATM    6  C17 UNL     1      -0.875   7.695  11.909  1.00  0.00     0.011 A 
ENDROOT
BRANCH   1   7
HETATM    7  C5  UNL     1       0.704   7.708   9.934  1.00  0.00     0.164 C 
BRANCH   7   8
HETATM    8  N1  UNL     1       2.130   7.384  10.045  1.00  0.00    -0.344 N 
HETATM    9  C1  UNL     1       2.883   8.070  11.009  1.00  0.00     0.253 C 
HETATM   10  O1  UNL     1       2.324   8.848  11.791  1.00  0.00    -0.270 OA
BRANCH   9  11
HETATM   11  C2  UNL     1       4.402   7.837  11.066  1.00  0.00     0.270 C 
HETATM   12 CL1  UNL     1       4.900   7.676  12.764  1.00  0.00    -0.098 Cl
HETATM   13 CL2  UNL     1       5.278   9.192  10.307  1.00  0.00    -0.098 Cl
ENDBRANCH   9  11
BRANCH   8  14
HETATM   14  C3  UNL     1       2.645   6.350   9.137  1.00  0.00     0.152 C 
BRANCH  14  15
HETATM   15  C4  UNL     1       3.517   5.307   9.844  1.00  0.00     0.184 C 
BRANCH  15  16
HETATM   16  O2  UNL     1       2.724   4.171  10.163  1.00  0.00    -0.399 OA
HETATM   17  H6  UNL     1       3.318   3.507  10.556  1.00  0.00     0.209 HD
ENDBRANCH  15  16
ENDBRANCH  14  15
ENDBRANCH   8  14
ENDBRANCH   7   8
ENDBRANCH   1   7
BRANCH   4  18
HETATM   18  O3  UNL     1      -2.486   5.028  13.809  1.00  0.00    -0.311 OA
BRANCH  18  19
HETATM   19  C10 UNL     1      -3.799   4.812  13.456  1.00  0.00     0.076 A 
HETATM   20  C11 UNL     1      -4.204   3.727  12.671  1.00  0.00     0.040 A 
HETATM   21  C12 UNL     1      -5.558   3.543  12.381  1.00  0.00     0.039 A 
HETATM   22  C13 UNL     1      -6.504   4.444  12.894  1.00  0.00     0.103 A 
HETATM   23  C14 UNL     1      -6.102   5.519  13.699  1.00  0.00     0.039 A 
HETATM   24  C15 UNL     1      -4.745   5.694  13.983  1.00  0.00     0.040 A 
BRANCH  22  25
HETATM   25  N2  UNL     1      -7.928   4.254  12.591  1.00  0.00    -0.116 N 
HETATM   26  O4  UNL     1      -8.434   3.157  12.863  1.00  0.00    -0.532 OA
HETATM   27  O5  UNL     1      -8.538   5.203  12.076  1.00  0.00    -0.532 OA
ENDBRANCH  22  25
ENDBRANCH  18  19
ENDBRANCH   4  18
TORSDOF 9
ENDMDL
