MODEL 1
REMARK minimizedAffinity -7.41971254
REMARK CNNscore 0.633031249
REMARK CNNaffinity 6.58724022
REMARK  8 active torsions:
REMARK  status: ('A' for Active; 'I' for Inactive)
REMARK    1  A    between atoms: C2_2  and  C30_34 
REMARK    2  A    between atoms: C3_3  and  C4_4 
REMARK    3  A    between atoms: C4_4  and  O1_5 
REMARK    4  A    between atoms: C4_4  and  C5_6 
REMARK    5  A    between atoms: C5_6  and  C6_7 
REMARK    6  A    between atoms: C6_7  and  C8_9 
REMARK    7  A    between atoms: C10_11  and  O2_12 
REMARK    8  A    between atoms: C30_34  and  O6_36 
ROOT
HETATM    1  C8  UNL     1       1.142   6.544  11.572  1.00  0.00     0.001 C 
HETATM    2  C9  UNL     1       2.326   6.351  12.568  1.00  0.00     0.038 C 
HETATM    3  C10 UNL     1       1.945   7.066  13.879  1.00  0.00     0.131 C 
HETATM    4  C11 UNL     1       0.416   7.305  13.762  1.00  0.00     0.014 C 
HETATM    5  C12 UNL     1      -0.329   5.992  14.162  1.00  0.00     0.023 C 
HETATM    6  C13 UNL     1      -0.239   8.399  14.605  1.00  0.00    -0.058 C 
HETATM    7  C14 UNL     1      -1.396   8.990  14.210  1.00  0.00    -0.000 C 
HETATM    8  C15 UNL     1      -1.965   8.628  12.846  1.00  0.00     0.157 C 
HETATM    9  O3  UNL     1      -3.080   9.023  12.501  1.00  0.00    -0.293 OA
HETATM   10  C16 UNL     1      -1.169   7.759  11.877  1.00  0.00     0.094 C 
HETATM   11  C17 UNL     1       0.315   7.690  12.240  1.00  0.00    -0.019 C 
HETATM   12  C18 UNL     1       0.966   9.069  11.901  1.00  0.00     0.017 C 
HETATM   13  C19 UNL     1      -2.164  10.022  15.076  1.00  0.00    -0.008 C 
HETATM   14  C20 UNL     1      -1.955  11.397  14.396  1.00  0.00     0.021 C 
HETATM   15  C21 UNL     1      -3.696   9.714  15.132  1.00  0.00     0.022 C 
HETATM   16  C22 UNL     1      -4.420  10.135  16.410  1.00  0.00     0.080 C 
HETATM   17  C23 UNL     1      -3.733  11.287  17.099  1.00  0.00     0.135 C 
HETATM   18  O4  UNL     1      -4.348  12.316  17.376  1.00  0.00    -0.297 OA
HETATM   19  C24 UNL     1      -2.275  11.062  17.512  1.00  0.00     0.018 C 
HETATM   20  C25 UNL     1      -1.526  12.407  17.548  1.00  0.00     0.023 C 
HETATM   21  C26 UNL     1      -2.311  10.520  18.959  1.00  0.00     0.023 C 
HETATM   22  C27 UNL     1      -1.637   9.992  16.562  1.00  0.00     0.014 C 
HETATM   23  C28 UNL     1      -0.106   9.972  16.606  1.00  0.00     0.011 C 
HETATM   24  C29 UNL     1       0.436   8.725  15.917  1.00  0.00     0.036 C 
ENDROOT
BRANCH   1  25
HETATM   25  C6  UNL     1       1.627   6.679  10.093  1.00  0.00    -0.011 C 
HETATM   26  C7  UNL     1       0.532   7.343   9.240  1.00  0.00     0.010 C 
BRANCH  25  27
HETATM   27  C5  UNL     1       2.977   7.441   9.994  1.00  0.00     0.040 C 
BRANCH  27  28
HETATM   28  C4  UNL     1       4.205   6.720  10.582  1.00  0.00     0.142 C 
BRANCH  28  29
HETATM   29  C3  UNL     1       5.387   7.642  10.684  1.00  0.00     0.018 C 
HETATM   30  C2  UNL     1       5.964   8.102  11.814  1.00  0.00     0.010 C 
HETATM   31  C1  UNL     1       5.568   7.744  13.214  1.00  0.00     0.055 C 
BRANCH  30  32
HETATM   32  C30 UNL     1       7.121   9.018  11.635  1.00  0.00     0.171 C 
HETATM   33  O5  UNL     1       7.986   9.266  12.457  1.00  0.00    -0.646 OA
BRANCH  32  34
HETATM   34  O6  UNL     1       7.142   9.586  10.417  1.00  0.00    -0.773 OA
HETATM   35  H44 UNL     1       7.936  10.159  10.444  1.00  0.00     0.167 HD
ENDBRANCH  32  34
ENDBRANCH  30  32
ENDBRANCH  28  29
BRANCH  28  36
HETATM   36  O1  UNL     1       4.587   5.649   9.727  1.00  0.00    -0.392 OA
HETATM   37  H6  UNL     1       5.032   6.025   8.948  1.00  0.00     0.210 HD
ENDBRANCH  28  36
ENDBRANCH  27  28
ENDBRANCH  25  27
ENDBRANCH   1  25
BRANCH   3  38
HETATM   38  O2  UNL     1       2.340   6.317  15.018  1.00  0.00    -0.394 OA
HETATM   39  H17 UNL     1       2.096   5.385  14.885  1.00  0.00     0.210 HD
ENDBRANCH   3  38
TORSDOF 8
ENDMDL
MODEL 2
REMARK minimizedAffinity -9.41339588
REMARK CNNscore 0.625593424
REMARK CNNaffinity 6.77020311
REMARK  8 active torsions:
REMARK  status: ('A' for Active; 'I' for Inactive)
REMARK    1  A    between atoms: C2_2  and  C30_34 
REMARK    2  A    between atoms: C3_3  and  C4_4 
REMARK    3  A    between atoms: C4_4  and  O1_5 
REMARK    4  A    between atoms: C4_4  and  C5_6 
REMARK    5  A    between atoms: C5_6  and  C6_7 
REMARK    6  A    between atoms: C6_7  and  C8_9 
REMARK    7  A    between atoms: C10_11  and  O2_12 
REMARK    8  A    between atoms: C30_34  and  O6_36 
ROOT
HETATM    1  C8  UNL     1      -4.326   6.608  14.909  1.00  0.00     0.001 C 
HETATM    2  C9  UNL     1      -4.755   5.388  14.037  1.00  0.00     0.038 C 
HETATM    3  C10 UNL     1      -3.598   5.092  13.062  1.00  0.00     0.131 C 
HETATM    4  C11 UNL     1      -2.387   5.865  13.648  1.00  0.00     0.014 C 
HETATM    5  C12 UNL     1      -1.754   5.012  14.793  1.00  0.00     0.023 C 
HETATM    6  C13 UNL     1      -1.216   6.226  12.735  1.00  0.00    -0.058 C 
HETATM    7  C14 UNL     1      -0.411   7.283  13.013  1.00  0.00    -0.000 C 
HETATM    8  C15 UNL     1      -0.772   8.180  14.189  1.00  0.00     0.157 C 
HETATM    9  O3  UNL     1      -0.002   9.062  14.572  1.00  0.00    -0.293 OA
HETATM   10  C16 UNL     1      -2.095   7.998  14.927  1.00  0.00     0.094 C 
HETATM   11  C17 UNL     1      -3.106   7.183  14.119  1.00  0.00    -0.019 C 
HETATM   12  C18 UNL     1      -3.619   8.069  12.939  1.00  0.00     0.017 C 
HETATM   13  C19 UNL     1       0.856   7.630  12.189  1.00  0.00    -0.008 C 
HETATM   14  C20 UNL     1       0.509   8.901  11.377  1.00  0.00     0.021 C 
HETATM   15  C21 UNL     1       2.086   7.936  13.105  1.00  0.00     0.022 C 
HETATM   16  C22 UNL     1       3.457   7.593  12.526  1.00  0.00     0.080 C 
HETATM   17  C23 UNL     1       3.462   7.622  11.019  1.00  0.00     0.135 C 
HETATM   18  O4  UNL     1       4.272   8.312  10.402  1.00  0.00    -0.297 OA
HETATM   19  C24 UNL     1       2.477   6.682  10.317  1.00  0.00     0.018 C 
HETATM   20  C25 UNL     1       2.090   7.257   8.942  1.00  0.00     0.023 C 
HETATM   21  C26 UNL     1       3.241   5.362  10.063  1.00  0.00     0.023 C 
HETATM   22  C27 UNL     1       1.262   6.415  11.270  1.00  0.00     0.014 C 
HETATM   23  C28 UNL     1       0.041   5.830  10.553  1.00  0.00     0.011 C 
HETATM   24  C29 UNL     1      -0.975   5.306  11.562  1.00  0.00     0.036 C 
ENDROOT
BRANCH   1  25
HETATM   25  C6  UNL     1      -5.534   7.529  15.275  1.00  0.00    -0.011 C 
HETATM   26  C7  UNL     1      -5.142   9.005  15.096  1.00  0.00     0.010 C 
BRANCH  25  27
HETATM   27  C5  UNL     1      -6.806   7.166  14.462  1.00  0.00     0.040 C 
BRANCH  27  28
HETATM   28  C4  UNL     1      -7.714   6.081  15.072  1.00  0.00     0.142 C 
BRANCH  28  29
HETATM   29  C3  UNL     1      -7.525   4.757  14.387  1.00  0.00     0.018 C 
HETATM   30  C2  UNL     1      -7.825   4.455  13.107  1.00  0.00     0.010 C 
HETATM   31  C1  UNL     1      -8.371   5.403  12.082  1.00  0.00     0.055 C 
BRANCH  30  32
HETATM   32  C30 UNL     1      -7.550   3.059  12.679  1.00  0.00     0.171 C 
HETATM   33  O5  UNL     1      -8.306   2.108  12.769  1.00  0.00    -0.646 OA
BRANCH  32  34
HETATM   34  O6  UNL     1      -6.323   2.917  12.148  1.00  0.00    -0.773 OA
HETATM   35  H44 UNL     1      -6.277   1.965  11.925  1.00  0.00     0.167 HD
ENDBRANCH  32  34
ENDBRANCH  30  32
ENDBRANCH  28  29
BRANCH  28  36
HETATM   36  O1  UNL     1      -9.078   6.446  14.902  1.00  0.00    -0.392 OA
HETATM   37  H6  UNL     1      -9.320   6.294  13.973  1.00  0.00     0.210 HD
ENDBRANCH  28  36
ENDBRANCH  27  28
ENDBRANCH  25  27
ENDBRANCH   1  25
BRANCH   3  38
HETATM   38  O2  UNL     1      -3.389   3.696  12.908  1.00  0.00    -0.394 OA
HETATM   39  H17 UNL     1      -3.406   3.274  13.784  1.00  0.00     0.210 HD
ENDBRANCH   3  38
TORSDOF 8
ENDMDL
MODEL 3
REMARK minimizedAffinity -8.18268967
REMARK CNNscore 0.510411799
REMARK CNNaffinity 6.67887831
REMARK  8 active torsions:
REMARK  status: ('A' for Active; 'I' for Inactive)
REMARK    1  A    between atoms: C2_2  and  C30_34 
REMARK    2  A    between atoms: C3_3  and  C4_4 
REMARK    3  A    between atoms: C4_4  and  O1_5 
REMARK    4  A    between atoms: C4_4  and  C5_6 
REMARK    5  A    between atoms: C5_6  and  C6_7 
REMARK    6  A    between atoms: C6_7  and  C8_9 
REMARK    7  A    between atoms: C10_11  and  O2_12 
REMARK    8  A    between atoms: C30_34  and  O6_36 
ROOT
HETATM    1  C8  UNL     1      -1.520   9.611  15.109  1.00  0.00     0.001 C 
HETATM    2  C9  UNL     1      -0.374   8.754  14.487  1.00  0.00     0.038 C 
HETATM    3  C10 UNL     1      -1.029   7.535  13.809  1.00  0.00     0.131 C 
HETATM    4  C11 UNL     1      -2.530   7.910  13.699  1.00  0.00     0.014 C 
HETATM    5  C12 UNL     1      -2.730   8.821  12.446  1.00  0.00     0.023 C 
HETATM    6  C13 UNL     1      -3.571   6.801  13.547  1.00  0.00    -0.058 C 
HETATM    7  C14 UNL     1      -4.856   6.986  13.943  1.00  0.00    -0.000 C 
HETATM    8  C15 UNL     1      -5.214   8.281  14.660  1.00  0.00     0.157 C 
HETATM    9  O3  UNL     1      -6.387   8.561  14.912  1.00  0.00    -0.293 OA
HETATM   10  C16 UNL     1      -4.125   9.266  15.074  1.00  0.00     0.094 C 
HETATM   11  C17 UNL     1      -2.735   8.628  15.084  1.00  0.00    -0.019 C 
HETATM   12  C18 UNL     1      -2.648   7.661  16.307  1.00  0.00     0.017 C 
HETATM   13  C19 UNL     1      -5.978   5.941  13.711  1.00  0.00    -0.008 C 
HETATM   14  C20 UNL     1      -6.291   5.328  15.098  1.00  0.00     0.021 C 
HETATM   15  C21 UNL     1      -7.280   6.597  13.144  1.00  0.00     0.022 C 
HETATM   16  C22 UNL     1      -8.138   5.713  12.241  1.00  0.00     0.080 C 
HETATM   17  C23 UNL     1      -7.957   4.247  12.541  1.00  0.00     0.135 C 
HETATM   18  O4  UNL     1      -8.923   3.529  12.797  1.00  0.00    -0.297 OA
HETATM   19  C24 UNL     1      -6.532   3.697  12.414  1.00  0.00     0.018 C 
HETATM   20  C25 UNL     1      -6.351   2.487  13.348  1.00  0.00     0.023 C 
HETATM   21  C26 UNL     1      -6.393   3.180  10.964  1.00  0.00     0.023 C 
HETATM   22  C27 UNL     1      -5.514   4.862  12.660  1.00  0.00     0.014 C 
HETATM   23  C28 UNL     1      -4.092   4.377  12.956  1.00  0.00     0.011 C 
HETATM   24  C29 UNL     1      -3.101   5.533  12.874  1.00  0.00     0.036 C 
ENDROOT
BRANCH   1  25
HETATM   25  C6  UNL     1      -1.088  10.299  16.443  1.00  0.00    -0.011 C 
HETATM   26  C7  UNL     1      -2.197  10.142  17.498  1.00  0.00     0.010 C 
BRANCH  25  27
HETATM   27  C5  UNL     1       0.277   9.764  16.956  1.00  0.00     0.040 C 
BRANCH  27  28
HETATM   28  C4  UNL     1       1.405  10.806  17.090  1.00  0.00     0.142 C 
BRANCH  28  29
HETATM   29  C3  UNL     1       2.224  10.573  18.328  1.00  0.00     0.018 C 
HETATM   30  C2  UNL     1       1.808  10.672  19.608  1.00  0.00     0.010 C 
HETATM   31  C1  UNL     1       0.415  10.993  20.060  1.00  0.00     0.055 C 
BRANCH  30  32
HETATM   32  C30 UNL     1       2.828  10.400  20.653  1.00  0.00     0.171 C 
HETATM   33  O5  UNL     1       3.993  10.094  20.470  1.00  0.00    -0.646 OA
BRANCH  32  34
HETATM   34  O6  UNL     1       2.336  10.529  21.897  1.00  0.00    -0.773 OA
HETATM   35  H44 UNL     1       3.101  10.316  22.471  1.00  0.00     0.167 HD
ENDBRANCH  32  34
ENDBRANCH  30  32
ENDBRANCH  28  29
BRANCH  28  36
HETATM   36  O1  UNL     1       0.843  12.108  17.203  1.00  0.00    -0.392 OA
HETATM   37  H6  UNL     1       0.482  12.207  18.101  1.00  0.00     0.210 HD
ENDBRANCH  28  36
ENDBRANCH  27  28
ENDBRANCH  25  27
ENDBRANCH   1  25
BRANCH   3  38
HETATM   38  O2  UNL     1      -0.405   7.227  12.572  1.00  0.00    -0.394 OA
HETATM   39  H17 UNL     1      -0.274   8.049  12.070  1.00  0.00     0.210 HD
ENDBRANCH   3  38
TORSDOF 8
ENDMDL
MODEL 4
REMARK minimizedAffinity -7.92527866
REMARK CNNscore 0.479362577
REMARK CNNaffinity 6.40423727
REMARK  8 active torsions:
REMARK  status: ('A' for Active; 'I' for Inactive)
REMARK    1  A    between atoms: C2_2  and  C30_34 
REMARK    2  A    between atoms: C3_3  and  C4_4 
REMARK    3  A    between atoms: C4_4  and  O1_5 
REMARK    4  A    between atoms: C4_4  and  C5_6 
REMARK    5  A    between atoms: C5_6  and  C6_7 
REMARK    6  A    between atoms: C6_7  and  C8_9 
REMARK    7  A    between atoms: C10_11  and  O2_12 
REMARK    8  A    between atoms: C30_34  and  O6_36 
ROOT
HETATM    1  C8  UNL     1      -5.310 -11.097   4.302  1.00  0.00     0.001 C 
HETATM    2  C9  UNL     1      -6.360 -10.025   4.730  1.00  0.00     0.038 C 
HETATM    3  C10 UNL     1      -7.103  -9.577   3.456  1.00  0.00     0.131 C 
HETATM    4  C11 UNL     1      -6.763 -10.665   2.403  1.00  0.00     0.014 C 
HETATM    5  C12 UNL     1      -7.704 -11.891   2.624  1.00  0.00     0.023 C 
HETATM    6  C13 UNL     1      -6.891 -10.335   0.916  1.00  0.00    -0.058 C 
HETATM    7  C14 UNL     1      -6.164 -11.003  -0.015  1.00  0.00    -0.000 C 
HETATM    8  C15 UNL     1      -5.122 -12.006   0.460  1.00  0.00     0.157 C 
HETATM    9  O3  UNL     1      -4.539 -12.740  -0.339  1.00  0.00    -0.293 OA
HETATM   10  C16 UNL     1      -4.784 -12.130   1.943  1.00  0.00     0.094 C 
HETATM   11  C17 UNL     1      -5.248 -10.917   2.750  1.00  0.00    -0.019 C 
HETATM   12  C18 UNL     1      -4.320  -9.711   2.402  1.00  0.00     0.017 C 
HETATM   13  C19 UNL     1      -6.335 -10.791  -1.542  1.00  0.00    -0.008 C 
HETATM   14  C20 UNL     1      -5.078 -10.020  -2.015  1.00  0.00     0.021 C 
HETATM   15  C21 UNL     1      -6.416 -12.148  -2.316  1.00  0.00     0.022 C 
HETATM   16  C22 UNL     1      -7.251 -12.143  -3.595  1.00  0.00     0.080 C 
HETATM   17  C23 UNL     1      -7.325 -10.773  -4.221  1.00  0.00     0.135 C 
HETATM   18  O4  UNL     1      -7.002 -10.596  -5.395  1.00  0.00    -0.297 OA
HETATM   19  C24 UNL     1      -7.909  -9.656  -3.349  1.00  0.00     0.018 C 
HETATM   20  C25 UNL     1      -7.327  -8.297  -3.778  1.00  0.00     0.023 C 
HETATM   21  C26 UNL     1      -9.425  -9.620  -3.646  1.00  0.00     0.023 C 
HETATM   22  C27 UNL     1      -7.673 -10.014  -1.842  1.00  0.00     0.014 C 
HETATM   23  C28 UNL     1      -7.843  -8.819  -0.898  1.00  0.00     0.011 C 
HETATM   24  C29 UNL     1      -7.914  -9.284   0.552  1.00  0.00     0.036 C 
ENDROOT
BRANCH   1  25
HETATM   25  C6  UNL     1      -4.005 -11.023   5.158  1.00  0.00    -0.011 C 
HETATM   26  C7  UNL     1      -3.140  -9.838   4.694  1.00  0.00     0.010 C 
BRANCH  25  27
HETATM   27  C5  UNL     1      -4.312 -10.952   6.678  1.00  0.00     0.040 C 
BRANCH  27  28
HETATM   28  C4  UNL     1      -3.834  -9.681   7.407  1.00  0.00     0.142 C 
BRANCH  28  29
HETATM   29  C3  UNL     1      -3.926  -9.834   8.898  1.00  0.00     0.018 C 
HETATM   30  C2  UNL     1      -5.033 -10.109   9.620  1.00  0.00     0.010 C 
HETATM   31  C1  UNL     1      -6.403 -10.368   9.068  1.00  0.00     0.055 C 
BRANCH  30  32
HETATM   32  C30 UNL     1      -4.853 -10.197  11.092  1.00  0.00     0.171 C 
HETATM   33  O5  UNL     1      -5.532 -10.842  11.871  1.00  0.00    -0.646 OA
BRANCH  32  34
HETATM   34  O6  UNL     1      -3.813  -9.464  11.526  1.00  0.00    -0.773 OA
HETATM   35  H44 UNL     1      -3.819  -9.606  12.495  1.00  0.00     0.167 HD
ENDBRANCH  32  34
ENDBRANCH  30  32
ENDBRANCH  28  29
BRANCH  28  36
HETATM   36  O1  UNL     1      -4.665  -8.583   7.049  1.00  0.00    -0.392 OA
HETATM   37  H6  UNL     1      -5.512  -8.677   7.519  1.00  0.00     0.210 HD
ENDBRANCH  28  36
ENDBRANCH  27  28
ENDBRANCH  25  27
ENDBRANCH   1  25
BRANCH   3  38
HETATM   38  O2  UNL     1      -8.491  -9.402   3.695  1.00  0.00    -0.394 OA
HETATM   39  H17 UNL     1      -8.822 -10.157   4.210  1.00  0.00     0.210 HD
ENDBRANCH   3  38
TORSDOF 8
ENDMDL
MODEL 5
REMARK minimizedAffinity -7.90447235
REMARK CNNscore 0.436381757
REMARK CNNaffinity 6.3677268
REMARK  8 active torsions:
REMARK  status: ('A' for Active; 'I' for Inactive)
REMARK    1  A    between atoms: C2_2  and  C30_34 
REMARK    2  A    between atoms: C3_3  and  C4_4 
REMARK    3  A    between atoms: C4_4  and  O1_5 
REMARK    4  A    between atoms: C4_4  and  C5_6 
REMARK    5  A    between atoms: C5_6  and  C6_7 
REMARK    6  A    between atoms: C6_7  and  C8_9 
REMARK    7  A    between atoms: C10_11  and  O2_12 
REMARK    8  A    between atoms: C30_34  and  O6_36 
ROOT
HETATM    1  C8  UNL     1      -3.646   7.624  14.619  1.00  0.00     0.001 C 
HETATM    2  C9  UNL     1      -4.302   6.440  13.844  1.00  0.00     0.038 C 
HETATM    3  C10 UNL     1      -3.232   5.861  12.898  1.00  0.00     0.131 C 
HETATM    4  C11 UNL     1      -1.892   6.441  13.423  1.00  0.00     0.014 C 
HETATM    5  C12 UNL     1      -1.412   5.578  14.633  1.00  0.00     0.023 C 
HETATM    6  C13 UNL     1      -0.686   6.509  12.487  1.00  0.00    -0.058 C 
HETATM    7  C14 UNL     1       0.303   7.418  12.684  1.00  0.00    -0.000 C 
HETATM    8  C15 UNL     1       0.127   8.455  13.785  1.00  0.00     0.157 C 
HETATM    9  O3  UNL     1       1.050   9.207  14.099  1.00  0.00    -0.293 OA
HETATM   10  C16 UNL     1      -1.198   8.577  14.532  1.00  0.00     0.094 C 
HETATM   11  C17 UNL     1      -2.351   7.902  13.788  1.00  0.00    -0.019 C 
HETATM   12  C18 UNL     1      -2.707   8.773  12.542  1.00  0.00     0.017 C 
HETATM   13  C19 UNL     1       1.601   7.461  11.837  1.00  0.00    -0.008 C 
HETATM   14  C20 UNL     1       1.484   8.708  10.928  1.00  0.00     0.021 C 
HETATM   15  C21 UNL     1       2.878   7.605  12.729  1.00  0.00     0.022 C 
HETATM   16  C22 UNL     1       4.156   6.972  12.182  1.00  0.00     0.080 C 
HETATM   17  C23 UNL     1       4.146   6.883  10.676  1.00  0.00     0.135 C 
HETATM   18  O4  UNL     1       5.062   7.363  10.009  1.00  0.00    -0.297 OA
HETATM   19  C24 UNL     1       2.997   6.089  10.048  1.00  0.00     0.018 C 
HETATM   20  C25 UNL     1       2.706   6.617   8.632  1.00  0.00     0.023 C 
HETATM   21  C26 UNL     1       3.502   4.635   9.900  1.00  0.00     0.023 C 
HETATM   22  C27 UNL     1       1.766   6.124  11.017  1.00  0.00     0.014 C 
HETATM   23  C28 UNL     1       0.449   5.721  10.346  1.00  0.00     0.011 C 
HETATM   24  C29 UNL     1      -0.633   5.472  11.391  1.00  0.00     0.036 C 
ENDROOT
BRANCH   1  25
HETATM   25  C6  UNL     1      -4.660   8.777  14.909  1.00  0.00    -0.011 C 
HETATM   26  C7  UNL     1      -6.100   8.244  14.815  1.00  0.00     0.010 C 
BRANCH  25  27
HETATM   27  C5  UNL     1      -4.385   9.459  16.276  1.00  0.00     0.040 C 
BRANCH  27  28
HETATM   28  C4  UNL     1      -3.646  10.811  16.221  1.00  0.00     0.142 C 
BRANCH  28  29
HETATM   29  C3  UNL     1      -4.083  11.721  17.334  1.00  0.00     0.018 C 
HETATM   30  C2  UNL     1      -3.311  12.232  18.316  1.00  0.00     0.010 C 
HETATM   31  C1  UNL     1      -1.834  12.031  18.471  1.00  0.00     0.055 C 
BRANCH  30  32
HETATM   32  C30 UNL     1      -3.997  13.102  19.306  1.00  0.00     0.171 C 
HETATM   33  O5  UNL     1      -5.119  12.947  19.756  1.00  0.00    -0.646 OA
BRANCH  32  34
HETATM   34  O6  UNL     1      -3.234  14.138  19.695  1.00  0.00    -0.773 OA
HETATM   35  H44 UNL     1      -3.806  14.620  20.328  1.00  0.00     0.167 HD
ENDBRANCH  32  34
ENDBRANCH  30  32
ENDBRANCH  28  29
BRANCH  28  36
HETATM   36  O1  UNL     1      -3.951  11.473  14.999  1.00  0.00    -0.392 OA
HETATM   37  H6  UNL     1      -4.852  11.833  15.065  1.00  0.00     0.210 HD
ENDBRANCH  28  36
ENDBRANCH  27  28
ENDBRANCH  25  27
ENDBRANCH   1  25
BRANCH   3  38
HETATM   38  O2  UNL     1      -3.285   4.444  12.854  1.00  0.00    -0.394 OA
HETATM   39  H17 UNL     1      -3.368   4.101  13.760  1.00  0.00     0.210 HD
ENDBRANCH   3  38
TORSDOF 8
ENDMDL
MODEL 6
REMARK minimizedAffinity -9.91823387
REMARK CNNscore 0.43376565
REMARK CNNaffinity 6.83844995
REMARK  8 active torsions:
REMARK  status: ('A' for Active; 'I' for Inactive)
REMARK    1  A    between atoms: C2_2  and  C30_34 
REMARK    2  A    between atoms: C3_3  and  C4_4 
REMARK    3  A    between atoms: C4_4  and  O1_5 
REMARK    4  A    between atoms: C4_4  and  C5_6 
REMARK    5  A    between atoms: C5_6  and  C6_7 
REMARK    6  A    between atoms: C6_7  and  C8_9 
REMARK    7  A    between atoms: C10_11  and  O2_12 
REMARK    8  A    between atoms: C30_34  and  O6_36 
ROOT
HETATM    1  C8  UNL     1      -5.736   6.726  14.348  1.00  0.00     0.001 C 
HETATM    2  C9  UNL     1      -5.713   8.040  15.188  1.00  0.00     0.038 C 
HETATM    3  C10 UNL     1      -4.292   8.628  15.081  1.00  0.00     0.131 C 
HETATM    4  C11 UNL     1      -3.650   7.882  13.882  1.00  0.00     0.014 C 
HETATM    5  C12 UNL     1      -4.122   8.561  12.557  1.00  0.00     0.023 C 
HETATM    6  C13 UNL     1      -2.127   7.816  13.767  1.00  0.00    -0.058 C 
HETATM    7  C14 UNL     1      -1.518   6.811  13.089  1.00  0.00    -0.000 C 
HETATM    8  C15 UNL     1      -2.378   5.677  12.547  1.00  0.00     0.157 C 
HETATM    9  O3  UNL     1      -1.898   4.819  11.804  1.00  0.00    -0.293 OA
HETATM   10  C16 UNL     1      -3.858   5.585  12.906  1.00  0.00     0.094 C 
HETATM   11  C17 UNL     1      -4.216   6.434  14.126  1.00  0.00    -0.019 C 
HETATM   12  C18 UNL     1      -3.627   5.740  15.395  1.00  0.00     0.017 C 
HETATM   13  C19 UNL     1       0.012   6.753  12.844  1.00  0.00    -0.008 C 
HETATM   14  C20 UNL     1       0.554   5.629  13.760  1.00  0.00     0.021 C 
HETATM   15  C21 UNL     1       0.354   6.402  11.358  1.00  0.00     0.022 C 
HETATM   16  C22 UNL     1       1.659   6.982  10.815  1.00  0.00     0.080 C 
HETATM   17  C23 UNL     1       2.666   7.238  11.907  1.00  0.00     0.135 C 
HETATM   18  O4  UNL     1       3.798   6.760  11.848  1.00  0.00    -0.297 OA
HETATM   19  C24 UNL     1       2.231   8.192  13.024  1.00  0.00     0.018 C 
HETATM   20  C25 UNL     1       2.978   7.852  14.326  1.00  0.00     0.023 C 
HETATM   21  C26 UNL     1       2.686   9.605  12.592  1.00  0.00     0.023 C 
HETATM   22  C27 UNL     1       0.670   8.153  13.146  1.00  0.00     0.014 C 
HETATM   23  C28 UNL     1       0.145   8.739  14.460  1.00  0.00     0.011 C 
HETATM   24  C29 UNL     1      -1.362   8.961  14.388  1.00  0.00     0.036 C 
ENDROOT
BRANCH   1  25
HETATM   25  C6  UNL     1      -6.665   5.638  14.975  1.00  0.00    -0.011 C 
HETATM   26  C7  UNL     1      -7.342   6.193  16.240  1.00  0.00     0.010 C 
BRANCH  25  27
HETATM   27  C5  UNL     1      -7.705   5.105  13.952  1.00  0.00     0.040 C 
BRANCH  27  28
HETATM   28  C4  UNL     1      -7.431   3.700  13.380  1.00  0.00     0.142 C 
BRANCH  28  29
HETATM   29  C3  UNL     1      -6.551   3.764  12.164  1.00  0.00     0.018 C 
HETATM   30  C2  UNL     1      -6.003   2.723  11.501  1.00  0.00     0.010 C 
HETATM   31  C1  UNL     1      -6.203   1.272  11.820  1.00  0.00     0.055 C 
BRANCH  30  32
HETATM   32  C30 UNL     1      -5.156   3.063  10.329  1.00  0.00     0.171 C 
HETATM   33  O5  UNL     1      -5.542   3.470   9.247  1.00  0.00    -0.646 OA
BRANCH  32  34
HETATM   34  O6  UNL     1      -3.847   2.878  10.571  1.00  0.00    -0.773 OA
HETATM   35  H44 UNL     1      -3.419   3.128   9.725  1.00  0.00     0.167 HD
ENDBRANCH  32  34
ENDBRANCH  30  32
ENDBRANCH  28  29
BRANCH  28  36
HETATM   36  O1  UNL     1      -8.656   3.101  12.975  1.00  0.00    -0.392 OA
HETATM   37  H6  UNL     1      -8.937   3.516  12.141  1.00  0.00     0.210 HD
ENDBRANCH  28  36
ENDBRANCH  27  28
ENDBRANCH  25  27
ENDBRANCH   1  25
BRANCH   3  38
HETATM   38  O2  UNL     1      -4.319  10.041  14.951  1.00  0.00    -0.394 OA
HETATM   39  H17 UNL     1      -4.996  10.287  14.298  1.00  0.00     0.210 HD
ENDBRANCH   3  38
TORSDOF 8
ENDMDL
MODEL 7
REMARK minimizedAffinity -9.2798996
REMARK CNNscore 0.395235389
REMARK CNNaffinity 6.74288607
REMARK  8 active torsions:
REMARK  status: ('A' for Active; 'I' for Inactive)
REMARK    1  A    between atoms: C2_2  and  C30_34 
REMARK    2  A    between atoms: C3_3  and  C4_4 
REMARK    3  A    between atoms: C4_4  and  O1_5 
REMARK    4  A    between atoms: C4_4  and  C5_6 
REMARK    5  A    between atoms: C5_6  and  C6_7 
REMARK    6  A    between atoms: C6_7  and  C8_9 
REMARK    7  A    between atoms: C10_11  and  O2_12 
REMARK    8  A    between atoms: C30_34  and  O6_36 
ROOT
HETATM    1  C8  UNL     1      -3.937   6.993  14.937  1.00  0.00     0.001 C 
HETATM    2  C9  UNL     1      -4.487   5.752  14.169  1.00  0.00     0.038 C 
HETATM    3  C10 UNL     1      -3.407   5.322  13.158  1.00  0.00     0.131 C 
HETATM    4  C11 UNL     1      -2.120   6.049  13.628  1.00  0.00     0.014 C 
HETATM    5  C12 UNL     1      -1.477   5.230  14.792  1.00  0.00     0.023 C 
HETATM    6  C13 UNL     1      -0.981   6.278  12.635  1.00  0.00    -0.058 C 
HETATM    7  C14 UNL     1      -0.099   7.296  12.802  1.00  0.00    -0.000 C 
HETATM    8  C15 UNL     1      -0.338   8.285  13.935  1.00  0.00     0.157 C 
HETATM    9  O3  UNL     1       0.504   9.137  14.219  1.00  0.00    -0.293 OA
HETATM   10  C16 UNL     1      -1.627   8.234  14.749  1.00  0.00     0.094 C 
HETATM   11  C17 UNL     1      -2.729   7.438  14.050  1.00  0.00    -0.019 C 
HETATM   12  C18 UNL     1      -3.252   8.281  12.843  1.00  0.00     0.017 C 
HETATM   13  C19 UNL     1       1.139   7.508  11.892  1.00  0.00    -0.008 C 
HETATM   14  C20 UNL     1       0.826   8.748  11.019  1.00  0.00     0.021 C 
HETATM   15  C21 UNL     1       2.434   7.790  12.722  1.00  0.00     0.022 C 
HETATM   16  C22 UNL     1       3.748   7.325  12.097  1.00  0.00     0.080 C 
HETATM   17  C23 UNL     1       3.670   7.261  10.592  1.00  0.00     0.135 C 
HETATM   18  O4  UNL     1       4.485   7.858   9.891  1.00  0.00    -0.297 OA
HETATM   19  C24 UNL     1       2.592   6.344  10.004  1.00  0.00     0.018 C 
HETATM   20  C25 UNL     1       2.166   6.858   8.617  1.00  0.00     0.023 C 
HETATM   21  C26 UNL     1       3.258   4.965   9.797  1.00  0.00     0.023 C 
HETATM   22  C27 UNL     1       1.418   6.215  11.034  1.00  0.00     0.014 C 
HETATM   23  C28 UNL     1       0.126   5.668  10.421  1.00  0.00     0.011 C 
HETATM   24  C29 UNL     1      -0.863   5.273  11.513  1.00  0.00     0.036 C 
ENDROOT
BRANCH   1  25
HETATM   25  C6  UNL     1      -5.064   8.010  15.305  1.00  0.00    -0.011 C 
HETATM   26  C7  UNL     1      -4.622   9.438  14.938  1.00  0.00     0.010 C 
BRANCH  25  27
HETATM   27  C5  UNL     1      -6.419   7.637  14.645  1.00  0.00     0.040 C 
BRANCH  27  28
HETATM   28  C4  UNL     1      -7.394   6.822  15.517  1.00  0.00     0.142 C 
BRANCH  28  29
HETATM   29  C3  UNL     1      -8.823   7.084  15.134  1.00  0.00     0.018 C 
HETATM   30  C2  UNL     1      -9.447   6.692  14.003  1.00  0.00     0.010 C 
HETATM   31  C1  UNL     1      -8.846   5.864  12.907  1.00  0.00     0.055 C 
BRANCH  30  32
HETATM   32  C30 UNL     1     -10.870   7.095  13.864  1.00  0.00     0.171 C 
HETATM   33  O5  UNL     1     -11.460   7.337  12.826  1.00  0.00    -0.646 OA
BRANCH  32  34
HETATM   34  O6  UNL     1     -11.499   7.174  15.049  1.00  0.00    -0.773 OA
HETATM   35  H44 UNL     1     -12.407   7.453  14.810  1.00  0.00     0.167 HD
ENDBRANCH  32  34
ENDBRANCH  30  32
ENDBRANCH  28  29
BRANCH  28  36
HETATM   36  O1  UNL     1      -7.252   7.205  16.879  1.00  0.00    -0.392 OA
HETATM   37  H6  UNL     1      -7.681   8.070  16.999  1.00  0.00     0.210 HD
ENDBRANCH  28  36
ENDBRANCH  27  28
ENDBRANCH  25  27
ENDBRANCH   1  25
BRANCH   3  38
HETATM   38  O2  UNL     1      -3.292   3.909  13.083  1.00  0.00    -0.394 OA
HETATM   39  H17 UNL     1      -3.286   3.544  13.984  1.00  0.00     0.210 HD
ENDBRANCH   3  38
TORSDOF 8
ENDMDL
MODEL 8
REMARK minimizedAffinity -7.78298998
REMARK CNNscore 0.376336724
REMARK CNNaffinity 6.52611542
REMARK  8 active torsions:
REMARK  status: ('A' for Active; 'I' for Inactive)
REMARK    1  A    between atoms: C2_2  and  C30_34 
REMARK    2  A    between atoms: C3_3  and  C4_4 
REMARK    3  A    between atoms: C4_4  and  O1_5 
REMARK    4  A    between atoms: C4_4  and  C5_6 
REMARK    5  A    between atoms: C5_6  and  C6_7 
REMARK    6  A    between atoms: C6_7  and  C8_9 
REMARK    7  A    between atoms: C10_11  and  O2_12 
REMARK    8  A    between atoms: C30_34  and  O6_36 
ROOT
HETATM    1  C8  UNL     1      -1.275   9.449  14.777  1.00  0.00     0.001 C 
HETATM    2  C9  UNL     1      -0.195   8.554  14.095  1.00  0.00     0.038 C 
HETATM    3  C10 UNL     1      -0.926   7.354  13.461  1.00  0.00     0.131 C 
HETATM    4  C11 UNL     1      -2.419   7.777  13.434  1.00  0.00     0.014 C 
HETATM    5  C12 UNL     1      -2.660   8.691  12.191  1.00  0.00     0.023 C 
HETATM    6  C13 UNL     1      -3.501   6.702  13.347  1.00  0.00    -0.058 C 
HETATM    7  C14 UNL     1      -4.755   6.930  13.815  1.00  0.00    -0.000 C 
HETATM    8  C15 UNL     1      -5.030   8.238  14.544  1.00  0.00     0.157 C 
HETATM    9  O3  UNL     1      -6.177   8.557  14.861  1.00  0.00    -0.293 OA
HETATM   10  C16 UNL     1      -3.888   9.188  14.891  1.00  0.00     0.094 C 
HETATM   11  C17 UNL     1      -2.521   8.506  14.826  1.00  0.00    -0.019 C 
HETATM   12  C18 UNL     1      -2.396   7.540  16.046  1.00  0.00     0.017 C 
HETATM   13  C19 UNL     1      -5.922   5.921  13.652  1.00  0.00    -0.008 C 
HETATM   14  C20 UNL     1      -6.175   5.323  15.057  1.00  0.00     0.021 C 
HETATM   15  C21 UNL     1      -7.232   6.617  13.156  1.00  0.00     0.022 C 
HETATM   16  C22 UNL     1      -8.168   5.759  12.307  1.00  0.00     0.080 C 
HETATM   17  C23 UNL     1      -8.017   4.288  12.603  1.00  0.00     0.135 C 
HETATM   18  O4  UNL     1      -8.990   3.603  12.917  1.00  0.00    -0.297 OA
HETATM   19  C24 UNL     1      -6.621   3.692  12.398  1.00  0.00     0.018 C 
HETATM   20  C25 UNL     1      -6.426   2.480  13.327  1.00  0.00     0.023 C 
HETATM   21  C26 UNL     1      -6.581   3.167  10.945  1.00  0.00     0.023 C 
HETATM   22  C27 UNL     1      -5.554   4.824  12.581  1.00  0.00     0.014 C 
HETATM   23  C28 UNL     1      -4.133   4.295  12.798  1.00  0.00     0.011 C 
HETATM   24  C29 UNL     1      -3.111   5.418  12.654  1.00  0.00     0.036 C 
ENDROOT
BRANCH   1  25
HETATM   25  C6  UNL     1      -0.746  10.127  16.081  1.00  0.00    -0.011 C 
HETATM   26  C7  UNL     1      -1.908  10.348  17.065  1.00  0.00     0.010 C 
BRANCH  25  27
HETATM   27  C5  UNL     1       0.411   9.317  16.727  1.00  0.00     0.040 C 
BRANCH  27  28
HETATM   28  C4  UNL     1       1.711  10.098  17.003  1.00  0.00     0.142 C 
BRANCH  28  29
HETATM   29  C3  UNL     1       2.727   9.874  15.920  1.00  0.00     0.018 C 
HETATM   30  C2  UNL     1       3.183   8.687  15.467  1.00  0.00     0.010 C 
HETATM   31  C1  UNL     1       2.728   7.335  15.925  1.00  0.00     0.055 C 
BRANCH  30  32
HETATM   32  C30 UNL     1       4.205   8.744  14.389  1.00  0.00     0.171 C 
HETATM   33  O5  UNL     1       4.654   9.748  13.864  1.00  0.00    -0.646 OA
BRANCH  32  34
HETATM   34  O6  UNL     1       4.625   7.523  14.016  1.00  0.00    -0.773 OA
HETATM   35  H44 UNL     1       5.276   7.711  13.307  1.00  0.00     0.167 HD
ENDBRANCH  32  34
ENDBRANCH  30  32
ENDBRANCH  28  29
BRANCH  28  36
HETATM   36  O1  UNL     1       2.292   9.644  18.220  1.00  0.00    -0.392 OA
HETATM   37  H6  UNL     1       2.706   8.779  18.055  1.00  0.00     0.210 HD
ENDBRANCH  28  36
ENDBRANCH  27  28
ENDBRANCH  25  27
ENDBRANCH   1  25
BRANCH   3  38
HETATM   38  O2  UNL     1      -0.384   7.023  12.192  1.00  0.00    -0.394 OA
HETATM   39  H17 UNL     1      -0.255   7.839  11.679  1.00  0.00     0.210 HD
ENDBRANCH   3  38
TORSDOF 8
ENDMDL
MODEL 9
REMARK minimizedAffinity -8.72570133
REMARK CNNscore 0.375813901
REMARK CNNaffinity 6.10217285
REMARK  8 active torsions:
REMARK  status: ('A' for Active; 'I' for Inactive)
REMARK    1  A    between atoms: C2_2  and  C30_34 
REMARK    2  A    between atoms: C3_3  and  C4_4 
REMARK    3  A    between atoms: C4_4  and  O1_5 
REMARK    4  A    between atoms: C4_4  and  C5_6 
REMARK    5  A    between atoms: C5_6  and  C6_7 
REMARK    6  A    between atoms: C6_7  and  C8_9 
REMARK    7  A    between atoms: C10_11  and  O2_12 
REMARK    8  A    between atoms: C30_34  and  O6_36 
ROOT
HETATM    1  C8  UNL     1       7.190  10.247  15.310  1.00  0.00     0.001 C 
HETATM    2  C9  UNL     1       5.932  10.707  16.110  1.00  0.00     0.038 C 
HETATM    3  C10 UNL     1       4.694  10.154  15.378  1.00  0.00     0.131 C 
HETATM    4  C11 UNL     1       5.258   9.069  14.423  1.00  0.00     0.014 C 
HETATM    5  C12 UNL     1       5.474   7.751  15.232  1.00  0.00     0.023 C 
HETATM    6  C13 UNL     1       4.444   8.649  13.200  1.00  0.00    -0.058 C 
HETATM    7  C14 UNL     1       5.047   8.128  12.101  1.00  0.00    -0.000 C 
HETATM    8  C15 UNL     1       6.568   8.084  12.061  1.00  0.00     0.157 C 
HETATM    9  O3  UNL     1       7.161   7.493  11.157  1.00  0.00    -0.293 OA
HETATM   10  C16 UNL     1       7.393   8.764  13.149  1.00  0.00     0.094 C 
HETATM   11  C17 UNL     1       6.579   9.782  13.948  1.00  0.00    -0.019 C 
HETATM   12  C18 UNL     1       6.323  11.027  13.040  1.00  0.00     0.017 C 
HETATM   13  C19 UNL     1       4.265   7.581  10.878  1.00  0.00    -0.008 C 
HETATM   14  C20 UNL     1       4.470   8.609   9.739  1.00  0.00     0.021 C 
HETATM   15  C21 UNL     1       4.809   6.192  10.409  1.00  0.00     0.022 C 
HETATM   16  C22 UNL     1       3.790   5.254   9.766  1.00  0.00     0.080 C 
HETATM   17  C23 UNL     1       2.646   6.004   9.132  1.00  0.00     0.135 C 
HETATM   18  O4  UNL     1       2.347   5.824   7.953  1.00  0.00    -0.297 OA
HETATM   19  C24 UNL     1       1.833   6.915  10.058  1.00  0.00     0.018 C 
HETATM   20  C25 UNL     1       1.213   8.068   9.249  1.00  0.00     0.023 C 
HETATM   21  C26 UNL     1       0.667   6.057  10.599  1.00  0.00     0.023 C 
HETATM   22  C27 UNL     1       2.745   7.376  11.246  1.00  0.00     0.014 C 
HETATM   23  C28 UNL     1       2.192   8.584  12.007  1.00  0.00     0.011 C 
HETATM   24  C29 UNL     1       2.944   8.785  13.318  1.00  0.00     0.036 C 
ENDROOT
BRANCH   1  25
HETATM   25  C6  UNL     1       8.334  11.310  15.341  1.00  0.00    -0.011 C 
HETATM   26  C7  UNL     1       7.819  12.616  15.970  1.00  0.00     0.010 C 
BRANCH  25  27
HETATM   27  C5  UNL     1       9.599  10.778  16.067  1.00  0.00     0.040 C 
BRANCH  27  28
HETATM   28  C4  UNL     1       9.359  10.081  17.421  1.00  0.00     0.142 C 
BRANCH  28  29
HETATM   29  C3  UNL     1      10.380  10.496  18.442  1.00  0.00     0.018 C 
HETATM   30  C2  UNL     1      11.054  11.665  18.488  1.00  0.00     0.010 C 
HETATM   31  C1  UNL     1      10.885  12.818  17.546  1.00  0.00     0.055 C 
BRANCH  30  32
HETATM   32  C30 UNL     1      12.024  11.820  19.603  1.00  0.00     0.171 C 
HETATM   33  O5  UNL     1      12.661  12.821  19.879  1.00  0.00    -0.646 OA
BRANCH  32  34
HETATM   34  O6  UNL     1      12.149  10.699  20.334  1.00  0.00    -0.773 OA
HETATM   35  H44 UNL     1      12.813  10.940  21.013  1.00  0.00     0.167 HD
ENDBRANCH  32  34
ENDBRANCH  30  32
ENDBRANCH  28  29
BRANCH  28  36
HETATM   36  O1  UNL     1       9.481   8.672  17.261  1.00  0.00    -0.392 OA
HETATM   37  H6  UNL     1      10.426   8.456  17.182  1.00  0.00     0.210 HD
ENDBRANCH  28  36
ENDBRANCH  27  28
ENDBRANCH  25  27
ENDBRANCH   1  25
BRANCH   3  38
HETATM   38  O2  UNL     1       3.713   9.685  16.289  1.00  0.00    -0.394 OA
HETATM   39  H17 UNL     1       4.148   9.153  16.977  1.00  0.00     0.210 HD
ENDBRANCH   3  38
TORSDOF 8
ENDMDL
