MODEL 1
REMARK minimizedAffinity -6.93447495
REMARK CNNscore 0.463772237
REMARK CNNaffinity 6.31178665
REMARK  10 active torsions:
REMARK  status: ('A' for Active; 'I' for Inactive)
REMARK    1  A    between atoms: C2_2  and  C4_4 
REMARK    2  A    between atoms: C7_7  and  C8_8 
REMARK    3  A    between atoms: C8_8  and  O2_10 
REMARK    4  A    between atoms: C21_23  and  O3_24 
REMARK    5  A    between atoms: O3_24  and  C22_25 
REMARK    6  A    between atoms: C24_28  and  O5_29 
REMARK    7  A    between atoms: C25_30  and  O6_31 
REMARK    8  A    between atoms: C26_32  and  O7_33 
REMARK    9  A    between atoms: C27_34  and  C29_36 
REMARK   10  A    between atoms: C29_36  and  O8_37 
ROOT
HETATM    1  C4  UNL     1     -15.626  -9.846   1.105  1.00  0.00     0.019 C 
HETATM    2  C5  UNL     1     -15.832  -9.861  -0.434  1.00  0.00     0.011 C 
HETATM    3  C6  UNL     1     -14.432  -9.917  -1.070  1.00  0.00     0.021 C 
HETATM    4  C7  UNL     1     -13.509  -9.330   0.001  1.00  0.00     0.050 C 
HETATM    5  C9  UNL     1     -12.029  -9.734  -0.108  1.00  0.00     0.022 C 
HETATM    6  C10 UNL     1     -11.242  -9.289   1.147  1.00  0.00     0.011 C 
HETATM    7  C11 UNL     1     -11.840  -9.781   2.517  1.00  0.00    -0.032 C 
HETATM    8  C12 UNL     1     -11.580 -11.325   2.551  1.00  0.00     0.016 C 
HETATM    9  C13 UNL     1     -13.393  -9.480   2.545  1.00  0.00     0.000 C 
HETATM   10  C14 UNL     1     -14.038  -9.964   3.845  1.00  0.00     0.006 C 
HETATM   11  C15 UNL     1     -13.378  -9.336   5.072  1.00  0.00     0.006 C 
HETATM   12  C16 UNL     1     -11.847  -9.559   5.125  1.00  0.00     0.003 C 
HETATM   13  C17 UNL     1     -11.200  -9.155   6.520  1.00  0.00    -0.035 C 
HETATM   14  C18 UNL     1     -11.606  -7.724   6.972  1.00  0.00     0.016 C 
HETATM   15  C19 UNL     1     -11.809 -10.117   7.596  1.00  0.00     0.012 C 
HETATM   16  C20 UNL     1     -11.017 -10.216   8.884  1.00  0.00     0.034 C 
HETATM   17  C21 UNL     1      -9.521 -10.513   8.726  1.00  0.00     0.135 C 
HETATM   18  C27 UNL     1      -8.997 -10.486   7.242  1.00  0.00     0.008 C 
HETATM   19  C28 UNL     1      -7.441 -10.376   7.315  1.00  0.00     0.020 C 
HETATM   20  C30 UNL     1      -9.616  -9.223   6.522  1.00  0.00     0.007 C 
HETATM   21  C31 UNL     1      -8.971  -8.850   5.169  1.00  0.00     0.007 C 
HETATM   22  C32 UNL     1      -9.650  -9.411   3.924  1.00  0.00     0.011 C 
HETATM   23  C33 UNL     1     -11.150  -9.052   3.806  1.00  0.00    -0.032 C 
HETATM   24  C34 UNL     1     -11.255  -7.506   3.655  1.00  0.00     0.016 C 
HETATM   25  C35 UNL     1     -14.093  -9.993   1.269  1.00  0.00     0.017 C 
ENDROOT
BRANCH  17  26
HETATM   26  O3  UNL     1      -8.795  -9.512   9.478  1.00  0.00    -0.352 OA
BRANCH  26  27
HETATM   27  C22 UNL     1      -7.734 -10.026  10.292  1.00  0.00     0.291 C 
HETATM   28  O4  UNL     1      -8.086 -11.244  10.955  1.00  0.00    -0.356 OA
HETATM   29  C23 UNL     1      -8.846 -11.015  12.143  1.00  0.00     0.205 C 
HETATM   30  C24 UNL     1      -7.982 -10.356  13.222  1.00  0.00     0.173 C 
HETATM   31  C25 UNL     1      -6.855  -9.525  12.593  1.00  0.00     0.182 C 
HETATM   32  C26 UNL     1      -7.338  -8.903  11.284  1.00  0.00     0.204 C 
BRANCH  30  33
HETATM   33  O5  UNL     1      -8.809  -9.523  14.044  1.00  0.00    -0.391 OA
HETATM   34  H37 UNL     1      -8.184  -8.887  14.455  1.00  0.00     0.210 HD
ENDBRANCH  30  33
BRANCH  31  35
HETATM   35  O6  UNL     1      -6.445  -8.500  13.515  1.00  0.00    -0.390 OA
HETATM   36  H39 UNL     1      -5.873  -7.906  12.984  1.00  0.00     0.210 HD
ENDBRANCH  31  35
BRANCH  32  37
HETATM   37  O7  UNL     1      -6.298  -8.061  10.748  1.00  0.00    -0.388 OA
HETATM   38  H41 UNL     1      -6.634  -7.746   9.886  1.00  0.00     0.210 HD
ENDBRANCH  32  37
ENDBRANCH  26  27
ENDBRANCH  17  26
BRANCH  18  39
HETATM   39  C29 UNL     1      -9.296 -11.812   6.498  1.00  0.00     0.176 C 
BRANCH  39  40
HETATM   40  O8  UNL     1      -8.122 -12.305   5.855  1.00  0.00    -0.400 OA
HETATM   41  H47 UNL     1      -8.393 -13.063   5.306  1.00  0.00     0.209 HD
ENDBRANCH  39  40
ENDBRANCH  18  39
BRANCH   1  42
HETATM   42  C2  UNL     1     -16.536 -10.865   1.780  1.00  0.00    -0.088 C 
HETATM   43  C1  UNL     1     -16.326 -11.413   2.987  1.00  0.00     0.014 C 
HETATM   44  C3  UNL     1     -17.751 -11.255   0.976  1.00  0.00     0.043 C 
ENDBRANCH   1  42
BRANCH   4  45
HETATM   45  C8  UNL     1     -13.583  -7.802  -0.151  1.00  0.00     0.149 C 
HETATM   46  O1  UNL     1     -13.202  -7.173  -1.128  1.00  0.00    -0.649 OA
BRANCH  45  47
HETATM   47  O2  UNL     1     -14.148  -7.141   0.867  1.00  0.00    -0.776 OA
HETATM   48  H11 UNL     1     -14.109  -6.197   0.596  1.00  0.00     0.167 HD
ENDBRANCH  45  47
ENDBRANCH   4  45
TORSDOF 10
ENDMDL
MODEL 2
REMARK minimizedAffinity -6.55110741
REMARK CNNscore 0.372973502
REMARK CNNaffinity 6.78045511
REMARK  10 active torsions:
REMARK  status: ('A' for Active; 'I' for Inactive)
REMARK    1  A    between atoms: C2_2  and  C4_4 
REMARK    2  A    between atoms: C7_7  and  C8_8 
REMARK    3  A    between atoms: C8_8  and  O2_10 
REMARK    4  A    between atoms: C21_23  and  O3_24 
REMARK    5  A    between atoms: O3_24  and  C22_25 
REMARK    6  A    between atoms: C24_28  and  O5_29 
REMARK    7  A    between atoms: C25_30  and  O6_31 
REMARK    8  A    between atoms: C26_32  and  O7_33 
REMARK    9  A    between atoms: C27_34  and  C29_36 
REMARK   10  A    between atoms: C29_36  and  O8_37 
ROOT
HETATM    1  C4  UNL     1      -8.092   7.339  14.060  1.00  0.00     0.019 C 
HETATM    2  C5  UNL     1      -9.231   6.309  14.285  1.00  0.00     0.011 C 
HETATM    3  C6  UNL     1      -8.558   4.963  14.603  1.00  0.00     0.021 C 
HETATM    4  C7  UNL     1      -7.168   5.080  13.975  1.00  0.00     0.050 C 
HETATM    5  C9  UNL     1      -6.094   4.149  14.565  1.00  0.00     0.022 C 
HETATM    6  C10 UNL     1      -4.690   4.518  14.031  1.00  0.00     0.011 C 
HETATM    7  C11 UNL     1      -4.275   6.022  14.234  1.00  0.00    -0.032 C 
HETATM    8  C12 UNL     1      -4.046   6.185  15.775  1.00  0.00     0.016 C 
HETATM    9  C13 UNL     1      -5.456   6.958  13.749  1.00  0.00     0.000 C 
HETATM   10  C14 UNL     1      -5.121   8.438  13.948  1.00  0.00     0.006 C 
HETATM   11  C15 UNL     1      -3.834   8.830  13.225  1.00  0.00     0.006 C 
HETATM   12  C16 UNL     1      -2.620   7.955  13.618  1.00  0.00     0.003 C 
HETATM   13  C17 UNL     1      -1.234   8.524  13.087  1.00  0.00    -0.035 C 
HETATM   14  C18 UNL     1      -1.265   8.843  11.565  1.00  0.00     0.016 C 
HETATM   15  C19 UNL     1      -1.013   9.905  13.794  1.00  0.00     0.012 C 
HETATM   16  C20 UNL     1       0.420  10.401  13.790  1.00  0.00     0.034 C 
HETATM   17  C21 UNL     1       1.473   9.402  14.284  1.00  0.00     0.135 C 
HETATM   18  C27 UNL     1       0.931   7.948  14.546  1.00  0.00     0.008 C 
HETATM   19  C28 UNL     1       2.176   7.007  14.613  1.00  0.00     0.020 C 
HETATM   20  C30 UNL     1      -0.012   7.548  13.342  1.00  0.00     0.007 C 
HETATM   21  C31 UNL     1      -0.380   6.049  13.260  1.00  0.00     0.007 C 
HETATM   22  C32 UNL     1      -1.693   5.642  13.919  1.00  0.00     0.011 C 
HETATM   23  C33 UNL     1      -2.926   6.423  13.405  1.00  0.00    -0.032 C 
HETATM   24  C34 UNL     1      -3.111   6.076  11.899  1.00  0.00     0.016 C 
HETATM   25  C35 UNL     1      -6.806   6.532  14.362  1.00  0.00     0.017 C 
ENDROOT
BRANCH  17  26
HETATM   26  O3  UNL     1       2.507   9.322  13.274  1.00  0.00    -0.352 OA
BRANCH  26  27
HETATM   27  C22 UNL     1       3.436   8.246  13.452  1.00  0.00     0.291 C 
HETATM   28  O4  UNL     1       4.475   8.561  14.384  1.00  0.00    -0.356 OA
HETATM   29  C23 UNL     1       5.524   9.328  13.788  1.00  0.00     0.205 C 
HETATM   30  C24 UNL     1       6.307   8.485  12.778  1.00  0.00     0.173 C 
HETATM   31  C25 UNL     1       5.423   7.384  12.177  1.00  0.00     0.182 C 
HETATM   32  C26 UNL     1       3.986   7.885  12.048  1.00  0.00     0.204 C 
BRANCH  30  33
HETATM   33  O5  UNL     1       6.808   9.337  11.741  1.00  0.00    -0.391 OA
HETATM   34  H37 UNL     1       6.973   8.733  10.986  1.00  0.00     0.210 HD
ENDBRANCH  30  33
BRANCH  31  35
HETATM   35  O6  UNL     1       5.941   7.006  10.889  1.00  0.00    -0.390 OA
HETATM   36  H39 UNL     1       5.234   6.452  10.493  1.00  0.00     0.210 HD
ENDBRANCH  31  35
BRANCH  32  37
HETATM   37  O7  UNL     1       3.186   6.871  11.407  1.00  0.00    -0.388 OA
HETATM   38  H41 UNL     1       2.272   7.217  11.412  1.00  0.00     0.210 HD
ENDBRANCH  32  37
ENDBRANCH  26  27
ENDBRANCH  17  26
BRANCH  18  39
HETATM   39  C29 UNL     1       0.233   7.830  15.925  1.00  0.00     0.176 C 
BRANCH  39  40
HETATM   40  O8  UNL     1       0.685   6.671  16.621  1.00  0.00    -0.400 OA
HETATM   41  H47 UNL     1       0.128   6.578  17.415  1.00  0.00     0.209 HD
ENDBRANCH  39  40
ENDBRANCH  18  39
BRANCH   1  42
HETATM   42  C2  UNL     1      -8.358   8.617  14.848  1.00  0.00    -0.088 C 
HETATM   43  C1  UNL     1      -7.438   9.306  15.540  1.00  0.00     0.014 C 
HETATM   44  C3  UNL     1      -9.789   9.090  14.815  1.00  0.00     0.043 C 
ENDBRANCH   1  42
BRANCH   4  45
HETATM   45  C8  UNL     1      -7.329   4.716  12.490  1.00  0.00     0.149 C 
HETATM   46  O1  UNL     1      -8.003   5.341  11.682  1.00  0.00    -0.649 OA
BRANCH  45  47
HETATM   47  O2  UNL     1      -6.637   3.649  12.071  1.00  0.00    -0.776 OA
HETATM   48  H11 UNL     1      -6.860   3.574  11.117  1.00  0.00     0.167 HD
ENDBRANCH  45  47
ENDBRANCH   4  45
TORSDOF 10
ENDMDL
MODEL 3
REMARK minimizedAffinity -7.17873335
REMARK CNNscore 0.358402222
REMARK CNNaffinity 6.40498972
REMARK  10 active torsions:
REMARK  status: ('A' for Active; 'I' for Inactive)
REMARK    1  A    between atoms: C2_2  and  C4_4 
REMARK    2  A    between atoms: C7_7  and  C8_8 
REMARK    3  A    between atoms: C8_8  and  O2_10 
REMARK    4  A    between atoms: C21_23  and  O3_24 
REMARK    5  A    between atoms: O3_24  and  C22_25 
REMARK    6  A    between atoms: C24_28  and  O5_29 
REMARK    7  A    between atoms: C25_30  and  O6_31 
REMARK    8  A    between atoms: C26_32  and  O7_33 
REMARK    9  A    between atoms: C27_34  and  C29_36 
REMARK   10  A    between atoms: C29_36  and  O8_37 
ROOT
HETATM    1  C4  UNL     1      -3.856 -11.362   6.019  1.00  0.00     0.019 C 
HETATM    2  C5  UNL     1      -2.843 -12.230   6.812  1.00  0.00     0.011 C 
HETATM    3  C6  UNL     1      -2.317 -13.301   5.840  1.00  0.00     0.021 C 
HETATM    4  C7  UNL     1      -3.421 -13.424   4.786  1.00  0.00     0.050 C 
HETATM    5  C9  UNL     1      -2.977 -13.995   3.428  1.00  0.00     0.022 C 
HETATM    6  C10 UNL     1      -4.101 -13.850   2.375  1.00  0.00     0.011 C 
HETATM    7  C11 UNL     1      -4.660 -12.390   2.195  1.00  0.00    -0.032 C 
HETATM    8  C12 UNL     1      -3.509 -11.590   1.494  1.00  0.00     0.016 C 
HETATM    9  C13 UNL     1      -4.976 -11.774   3.617  1.00  0.00     0.000 C 
HETATM   10  C14 UNL     1      -5.498 -10.340   3.508  1.00  0.00     0.006 C 
HETATM   11  C15 UNL     1      -6.746 -10.257   2.631  1.00  0.00     0.006 C 
HETATM   12  C16 UNL     1      -6.543 -10.856   1.218  1.00  0.00     0.003 C 
HETATM   13  C17 UNL     1      -7.734 -10.528   0.218  1.00  0.00    -0.035 C 
HETATM   14  C18 UNL     1      -9.127 -10.879   0.815  1.00  0.00     0.016 C 
HETATM   15  C19 UNL     1      -7.747  -8.973   0.025  1.00  0.00     0.012 C 
HETATM   16  C20 UNL     1      -8.483  -8.490  -1.209  1.00  0.00     0.034 C 
HETATM   17  C21 UNL     1      -8.087  -9.163  -2.529  1.00  0.00     0.135 C 
HETATM   18  C27 UNL     1      -7.107 -10.385  -2.377  1.00  0.00     0.008 C 
HETATM   19  C28 UNL     1      -7.166 -11.180  -3.720  1.00  0.00     0.020 C 
HETATM   20  C30 UNL     1      -7.611 -11.277  -1.174  1.00  0.00     0.007 C 
HETATM   21  C31 UNL     1      -6.972 -12.680  -1.076  1.00  0.00     0.007 C 
HETATM   22  C32 UNL     1      -5.762 -12.804  -0.156  1.00  0.00     0.011 C 
HETATM   23  C33 UNL     1      -6.024 -12.342   1.297  1.00  0.00    -0.032 C 
HETATM   24  C34 UNL     1      -7.091 -13.294   1.911  1.00  0.00     0.016 C 
HETATM   25  C35 UNL     1      -3.784 -11.936   4.584  1.00  0.00     0.017 C 
ENDROOT
BRANCH  17  26
HETATM   26  O3  UNL     1      -9.300  -9.635  -3.160  1.00  0.00    -0.352 OA
BRANCH  26  27
HETATM   27  C22 UNL     1      -9.667  -8.933  -4.354  1.00  0.00     0.291 C 
HETATM   28  O4  UNL     1      -8.585  -8.175  -4.904  1.00  0.00    -0.356 OA
HETATM   29  C23 UNL     1      -8.418  -6.915  -4.251  1.00  0.00     0.205 C 
HETATM   30  C24 UNL     1      -9.592  -5.982  -4.562  1.00  0.00     0.173 C 
HETATM   31  C25 UNL     1     -10.868  -6.783  -4.856  1.00  0.00     0.182 C 
HETATM   32  C26 UNL     1     -10.893  -8.051  -4.004  1.00  0.00     0.204 C 
BRANCH  30  33
HETATM   33  O5  UNL     1      -9.805  -5.106  -3.450  1.00  0.00    -0.391 OA
HETATM   34  H37 UNL     1     -10.734  -4.805  -3.549  1.00  0.00     0.210 HD
ENDBRANCH  30  33
BRANCH  31  35
HETATM   35  O6  UNL     1     -12.019  -5.967  -4.575  1.00  0.00    -0.390 OA
HETATM   36  H39 UNL     1     -12.775  -6.592  -4.601  1.00  0.00     0.210 HD
ENDBRANCH  31  35
BRANCH  32  37
HETATM   37  O7  UNL     1     -12.133  -8.750  -4.230  1.00  0.00    -0.388 OA
HETATM   38  H41 UNL     1     -12.065  -9.578  -3.716  1.00  0.00     0.210 HD
ENDBRANCH  32  37
ENDBRANCH  26  27
ENDBRANCH  17  26
BRANCH  18  39
HETATM   39  C29 UNL     1      -5.634  -9.930  -2.215  1.00  0.00     0.176 C 
BRANCH  39  40
HETATM   40  O8  UNL     1      -4.762 -10.769  -2.970  1.00  0.00    -0.400 OA
HETATM   41  H47 UNL     1      -3.850 -10.519  -2.734  1.00  0.00     0.209 HD
ENDBRANCH  39  40
ENDBRANCH  18  39
BRANCH   1  42
HETATM   42  C2  UNL     1      -3.577  -9.879   6.231  1.00  0.00    -0.088 C 
HETATM   43  C1  UNL     1      -2.644  -9.165   5.582  1.00  0.00     0.014 C 
HETATM   44  C3  UNL     1      -4.446  -9.216   7.271  1.00  0.00     0.043 C 
ENDBRANCH   1  42
BRANCH   4  45
HETATM   45  C8  UNL     1      -4.473 -14.382   5.368  1.00  0.00     0.149 C 
HETATM   46  O1  UNL     1      -4.271 -15.551   5.667  1.00  0.00    -0.649 OA
BRANCH  45  47
HETATM   47  O2  UNL     1      -5.684 -13.856   5.587  1.00  0.00    -0.776 OA
HETATM   48  H11 UNL     1      -6.211 -14.600   5.954  1.00  0.00     0.167 HD
ENDBRANCH  45  47
ENDBRANCH   4  45
TORSDOF 10
ENDMDL
MODEL 4
REMARK minimizedAffinity -6.93132591
REMARK CNNscore 0.29013741
REMARK CNNaffinity 6.08521414
REMARK  10 active torsions:
REMARK  status: ('A' for Active; 'I' for Inactive)
REMARK    1  A    between atoms: C2_2  and  C4_4 
REMARK    2  A    between atoms: C7_7  and  C8_8 
REMARK    3  A    between atoms: C8_8  and  O2_10 
REMARK    4  A    between atoms: C21_23  and  O3_24 
REMARK    5  A    between atoms: O3_24  and  C22_25 
REMARK    6  A    between atoms: C24_28  and  O5_29 
REMARK    7  A    between atoms: C25_30  and  O6_31 
REMARK    8  A    between atoms: C26_32  and  O7_33 
REMARK    9  A    between atoms: C27_34  and  C29_36 
REMARK   10  A    between atoms: C29_36  and  O8_37 
ROOT
HETATM    1  C4  UNL     1     -17.058   1.466  13.018  1.00  0.00     0.019 C 
HETATM    2  C5  UNL     1     -18.287   2.350  12.676  1.00  0.00     0.011 C 
HETATM    3  C6  UNL     1     -19.530   1.450  12.791  1.00  0.00     0.021 C 
HETATM    4  C7  UNL     1     -18.988   0.034  12.581  1.00  0.00     0.050 C 
HETATM    5  C9  UNL     1     -19.856  -1.098  13.157  1.00  0.00     0.022 C 
HETATM    6  C10 UNL     1     -19.106  -2.449  13.104  1.00  0.00     0.011 C 
HETATM    7  C11 UNL     1     -17.689  -2.451  13.787  1.00  0.00    -0.032 C 
HETATM    8  C12 UNL     1     -17.970  -2.342  15.324  1.00  0.00     0.016 C 
HETATM    9  C13 UNL     1     -16.867  -1.196  13.284  1.00  0.00     0.000 C 
HETATM   10  C14 UNL     1     -15.485  -1.127  13.938  1.00  0.00     0.006 C 
HETATM   11  C15 UNL     1     -14.675  -2.398  13.685  1.00  0.00     0.006 C 
HETATM   12  C16 UNL     1     -15.407  -3.689  14.127  1.00  0.00     0.003 C 
HETATM   13  C17 UNL     1     -14.473  -4.975  14.124  1.00  0.00    -0.035 C 
HETATM   14  C18 UNL     1     -13.712  -5.156  12.779  1.00  0.00     0.016 C 
HETATM   15  C19 UNL     1     -13.358  -4.726  15.198  1.00  0.00     0.012 C 
HETATM   16  C20 UNL     1     -12.647  -5.975  15.679  1.00  0.00     0.034 C 
HETATM   17  C21 UNL     1     -13.553  -7.122  16.143  1.00  0.00     0.135 C 
HETATM   18  C27 UNL     1     -15.087  -6.899  15.874  1.00  0.00     0.008 C 
HETATM   19  C28 UNL     1     -15.775  -8.296  16.002  1.00  0.00     0.020 C 
HETATM   20  C30 UNL     1     -15.255  -6.323  14.413  1.00  0.00     0.007 C 
HETATM   21  C31 UNL     1     -16.696  -6.342  13.855  1.00  0.00     0.007 C 
HETATM   22  C32 UNL     1     -17.504  -5.062  14.037  1.00  0.00     0.011 C 
HETATM   23  C33 UNL     1     -16.827  -3.798  13.454  1.00  0.00    -0.032 C 
HETATM   24  C34 UNL     1     -16.723  -3.988  11.912  1.00  0.00     0.016 C 
HETATM   25  C35 UNL     1     -17.686   0.106  13.410  1.00  0.00     0.017 C 
ENDROOT
BRANCH  17  26
HETATM   26  O3  UNL     1     -13.141  -8.316  15.437  1.00  0.00    -0.352 OA
BRANCH  26  27
HETATM   27  C22 UNL     1     -11.761  -8.664  15.602  1.00  0.00     0.291 C 
HETATM   28  O4  UNL     1     -11.284  -9.536  14.573  1.00  0.00    -0.356 OA
HETATM   29  C23 UNL     1     -11.626 -10.902  14.816  1.00  0.00     0.205 C 
HETATM   30  C24 UNL     1     -10.854 -11.450  16.020  1.00  0.00     0.173 C 
HETATM   31  C25 UNL     1     -10.503 -10.327  17.006  1.00  0.00     0.182 C 
HETATM   32  C26 UNL     1     -11.615  -9.280  17.017  1.00  0.00     0.204 C 
BRANCH  30  33
HETATM   33  O5  UNL     1     -11.645 -12.449  16.672  1.00  0.00    -0.391 OA
HETATM   34  H37 UNL     1     -11.280 -12.496  17.582  1.00  0.00     0.210 HD
ENDBRANCH  30  33
BRANCH  31  35
HETATM   35  O6  UNL     1     -10.323 -10.884  18.320  1.00  0.00    -0.390 OA
HETATM   36  H39 UNL     1     -10.292 -10.105  18.915  1.00  0.00     0.210 HD
ENDBRANCH  31  35
BRANCH  32  37
HETATM   37  O7  UNL     1     -11.310  -8.276  18.006  1.00  0.00    -0.388 OA
HETATM   38  H41 UNL     1     -12.015  -7.604  17.923  1.00  0.00     0.210 HD
ENDBRANCH  32  37
ENDBRANCH  26  27
ENDBRANCH  17  26
BRANCH  18  39
HETATM   39  C29 UNL     1     -15.740  -6.002  16.956  1.00  0.00     0.176 C 
BRANCH  39  40
HETATM   40  O8  UNL     1     -15.198  -6.289  18.244  1.00  0.00    -0.400 OA
HETATM   41  H47 UNL     1     -15.727  -5.793  18.894  1.00  0.00     0.209 HD
ENDBRANCH  39  40
ENDBRANCH  18  39
BRANCH   1  42
HETATM   42  C2  UNL     1     -16.149   2.170  14.019  1.00  0.00    -0.088 C 
HETATM   43  C1  UNL     1     -15.005   1.671  14.512  1.00  0.00     0.014 C 
HETATM   44  C3  UNL     1     -16.631   3.529  14.458  1.00  0.00     0.043 C 
ENDBRANCH   1  42
BRANCH   4  45
HETATM   45  C8  UNL     1     -18.901  -0.177  11.061  1.00  0.00     0.149 C 
HETATM   46  O1  UNL     1     -19.792   0.080  10.263  1.00  0.00    -0.649 OA
BRANCH  45  47
HETATM   47  O2  UNL     1     -17.734  -0.647  10.602  1.00  0.00    -0.776 OA
HETATM   48  H11 UNL     1     -17.864  -0.714   9.631  1.00  0.00     0.167 HD
ENDBRANCH  45  47
ENDBRANCH   4  45
TORSDOF 10
ENDMDL
MODEL 5
REMARK minimizedAffinity -7.43527269
REMARK CNNscore 0.273019016
REMARK CNNaffinity 7.04828024
REMARK  10 active torsions:
REMARK  status: ('A' for Active; 'I' for Inactive)
REMARK    1  A    between atoms: C2_2  and  C4_4 
REMARK    2  A    between atoms: C7_7  and  C8_8 
REMARK    3  A    between atoms: C8_8  and  O2_10 
REMARK    4  A    between atoms: C21_23  and  O3_24 
REMARK    5  A    between atoms: O3_24  and  C22_25 
REMARK    6  A    between atoms: C24_28  and  O5_29 
REMARK    7  A    between atoms: C25_30  and  O6_31 
REMARK    8  A    between atoms: C26_32  and  O7_33 
REMARK    9  A    between atoms: C27_34  and  C29_36 
REMARK   10  A    between atoms: C29_36  and  O8_37 
ROOT
HETATM    1  C4  UNL     1      -0.903   4.041  11.445  1.00  0.00     0.019 C 
HETATM    2  C5  UNL     1       0.640   4.160  11.555  1.00  0.00     0.011 C 
HETATM    3  C6  UNL     1       0.931   5.134  12.711  1.00  0.00     0.021 C 
HETATM    4  C7  UNL     1      -0.338   5.983  12.814  1.00  0.00     0.050 C 
HETATM    5  C9  UNL     1      -0.573   6.660  14.175  1.00  0.00     0.022 C 
HETATM    6  C10 UNL     1      -1.986   7.285  14.244  1.00  0.00     0.011 C 
HETATM    7  C11 UNL     1      -3.167   6.298  13.918  1.00  0.00    -0.032 C 
HETATM    8  C12 UNL     1      -3.232   5.312  15.134  1.00  0.00     0.016 C 
HETATM    9  C13 UNL     1      -2.835   5.511  12.586  1.00  0.00     0.000 C 
HETATM   10  C14 UNL     1      -3.937   4.512  12.230  1.00  0.00     0.006 C 
HETATM   11  C15 UNL     1      -5.297   5.194  12.090  1.00  0.00     0.006 C 
HETATM   12  C16 UNL     1      -5.704   6.011  13.340  1.00  0.00     0.003 C 
HETATM   13  C17 UNL     1      -7.219   6.491  13.314  1.00  0.00    -0.035 C 
HETATM   14  C18 UNL     1      -7.592   7.214  11.988  1.00  0.00     0.016 C 
HETATM   15  C19 UNL     1      -8.104   5.197  13.341  1.00  0.00     0.012 C 
HETATM   16  C20 UNL     1      -9.540   5.416  13.773  1.00  0.00     0.034 C 
HETATM   17  C21 UNL     1      -9.732   6.190  15.082  1.00  0.00     0.135 C 
HETATM   18  C27 UNL     1      -8.414   6.803  15.684  1.00  0.00     0.008 C 
HETATM   19  C28 UNL     1      -8.853   7.880  16.728  1.00  0.00     0.020 C 
HETATM   20  C30 UNL     1      -7.593   7.465  14.507  1.00  0.00     0.007 C 
HETATM   21  C31 UNL     1      -6.437   8.391  14.945  1.00  0.00     0.007 C 
HETATM   22  C32 UNL     1      -5.057   7.748  15.031  1.00  0.00     0.011 C 
HETATM   23  C33 UNL     1      -4.596   7.064  13.721  1.00  0.00    -0.032 C 
HETATM   24  C34 UNL     1      -4.454   8.171  12.635  1.00  0.00     0.016 C 
HETATM   25  C35 UNL     1      -1.420   4.896  12.627  1.00  0.00     0.017 C 
ENDROOT
BRANCH  17  26
HETATM   26  O3  UNL     1     -10.653   7.275  14.817  1.00  0.00    -0.352 OA
BRANCH  26  27
HETATM   27  C22 UNL     1     -11.462   7.101  13.647  1.00  0.00     0.291 C 
HETATM   28  O4  UNL     1     -11.377   8.210  12.747  1.00  0.00    -0.356 OA
HETATM   29  C23 UNL     1     -12.225   9.292  13.136  1.00  0.00     0.205 C 
HETATM   30  C24 UNL     1     -13.700   8.915  12.968  1.00  0.00     0.173 C 
HETATM   31  C25 UNL     1     -13.900   7.400  13.112  1.00  0.00     0.182 C 
HETATM   32  C26 UNL     1     -12.911   6.841  14.134  1.00  0.00     0.204 C 
BRANCH  30  33
HETATM   33  O5  UNL     1     -14.479   9.610  13.948  1.00  0.00    -0.391 OA
HETATM   34  H37 UNL     1     -15.304   9.084  14.024  1.00  0.00     0.210 HD
ENDBRANCH  30  33
BRANCH  31  35
HETATM   35  O6  UNL     1     -15.252   7.134  13.524  1.00  0.00    -0.390 OA
HETATM   36  H39 UNL     1     -15.250   6.185  13.776  1.00  0.00     0.210 HD
ENDBRANCH  31  35
BRANCH  32  37
HETATM   37  O7  UNL     1     -13.166   5.433  14.318  1.00  0.00    -0.388 OA
HETATM   38  H41 UNL     1     -12.467   5.119  14.925  1.00  0.00     0.210 HD
ENDBRANCH  32  37
ENDBRANCH  26  27
ENDBRANCH  17  26
BRANCH  18  39
HETATM   39  C29 UNL     1      -7.595   5.752  16.476  1.00  0.00     0.176 C 
BRANCH  39  40
HETATM   40  O8  UNL     1      -8.127   4.444  16.277  1.00  0.00    -0.400 OA
HETATM   41  H47 UNL     1      -7.658   3.848  16.889  1.00  0.00     0.209 HD
ENDBRANCH  39  40
ENDBRANCH  18  39
BRANCH   1  42
HETATM   42  C2  UNL     1      -1.326   2.579  11.357  1.00  0.00    -0.088 C 
HETATM   43  C1  UNL     1      -0.532   1.564  10.983  1.00  0.00     0.014 C 
HETATM   44  C3  UNL     1      -2.765   2.317  11.724  1.00  0.00     0.043 C 
ENDBRANCH   1  42
BRANCH   4  45
HETATM   45  C8  UNL     1      -0.203   7.096  11.762  1.00  0.00     0.149 C 
HETATM   46  O1  UNL     1      -0.401   8.286  11.967  1.00  0.00    -0.649 OA
BRANCH  45  47
HETATM   47  O2  UNL     1       0.201   6.706  10.547  1.00  0.00    -0.776 OA
HETATM   48  H11 UNL     1       0.230   7.536  10.021  1.00  0.00     0.167 HD
ENDBRANCH  45  47
ENDBRANCH   4  45
TORSDOF 10
ENDMDL
MODEL 6
REMARK minimizedAffinity -7.13332605
REMARK CNNscore 0.263446867
REMARK CNNaffinity 6.04884863
REMARK  10 active torsions:
REMARK  status: ('A' for Active; 'I' for Inactive)
REMARK    1  A    between atoms: C2_2  and  C4_4 
REMARK    2  A    between atoms: C7_7  and  C8_8 
REMARK    3  A    between atoms: C8_8  and  O2_10 
REMARK    4  A    between atoms: C21_23  and  O3_24 
REMARK    5  A    between atoms: O3_24  and  C22_25 
REMARK    6  A    between atoms: C24_28  and  O5_29 
REMARK    7  A    between atoms: C25_30  and  O6_31 
REMARK    8  A    between atoms: C26_32  and  O7_33 
REMARK    9  A    between atoms: C27_34  and  C29_36 
REMARK   10  A    between atoms: C29_36  and  O8_37 
ROOT
HETATM    1  C4  UNL     1      -3.163 -13.890  -1.545  1.00  0.00     0.019 C 
HETATM    2  C5  UNL     1      -3.141 -13.578  -3.066  1.00  0.00     0.011 C 
HETATM    3  C6  UNL     1      -3.726 -12.166  -3.239  1.00  0.00     0.021 C 
HETATM    4  C7  UNL     1      -4.597 -11.965  -1.996  1.00  0.00     0.050 C 
HETATM    5  C9  UNL     1      -4.876 -10.502  -1.613  1.00  0.00     0.022 C 
HETATM    6  C10 UNL     1      -5.551 -10.414  -0.224  1.00  0.00     0.011 C 
HETATM    7  C11 UNL     1      -4.780 -11.142   0.938  1.00  0.00    -0.032 C 
HETATM    8  C12 UNL     1      -3.498 -10.277   1.189  1.00  0.00     0.016 C 
HETATM    9  C13 UNL     1      -4.380 -12.598   0.466  1.00  0.00     0.000 C 
HETATM   10  C14 UNL     1      -3.599 -13.348   1.547  1.00  0.00     0.006 C 
HETATM   11  C15 UNL     1      -4.385 -13.437   2.854  1.00  0.00     0.006 C 
HETATM   12  C16 UNL     1      -4.841 -12.058   3.389  1.00  0.00     0.003 C 
HETATM   13  C17 UNL     1      -5.412 -12.115   4.872  1.00  0.00    -0.035 C 
HETATM   14  C18 UNL     1      -6.503 -13.209   5.048  1.00  0.00     0.016 C 
HETATM   15  C19 UNL     1      -4.226 -12.562   5.795  1.00  0.00     0.012 C 
HETATM   16  C20 UNL     1      -4.412 -12.249   7.266  1.00  0.00     0.034 C 
HETATM   17  C21 UNL     1      -4.797 -10.802   7.598  1.00  0.00     0.135 C 
HETATM   18  C27 UNL     1      -5.124  -9.905   6.347  1.00  0.00     0.008 C 
HETATM   19  C28 UNL     1      -5.889  -8.651   6.879  1.00  0.00     0.020 C 
HETATM   20  C30 UNL     1      -6.032 -10.741   5.362  1.00  0.00     0.007 C 
HETATM   21  C31 UNL     1      -6.716  -9.928   4.240  1.00  0.00     0.007 C 
HETATM   22  C32 UNL     1      -5.983  -9.877   2.904  1.00  0.00     0.011 C 
HETATM   23  C33 UNL     1      -5.666 -11.268   2.304  1.00  0.00    -0.032 C 
HETATM   24  C34 UNL     1      -7.022 -11.966   1.989  1.00  0.00     0.016 C 
HETATM   25  C35 UNL     1      -3.683 -12.577  -0.911  1.00  0.00     0.017 C 
ENDROOT
BRANCH  17  26
HETATM   26  O3  UNL     1      -5.973 -10.845   8.440  1.00  0.00    -0.352 OA
BRANCH  26  27
HETATM   27  C22 UNL     1      -5.702 -10.855   9.847  1.00  0.00     0.291 C 
HETATM   28  O4  UNL     1      -6.697 -11.558  10.597  1.00  0.00    -0.356 OA
HETATM   29  C23 UNL     1      -7.850 -10.754  10.855  1.00  0.00     0.205 C 
HETATM   30  C24 UNL     1      -7.517  -9.625  11.834  1.00  0.00     0.173 C 
HETATM   31  C25 UNL     1      -6.037  -9.229  11.734  1.00  0.00     0.182 C 
HETATM   32  C26 UNL     1      -5.557  -9.377  10.292  1.00  0.00     0.204 C 
BRANCH  30  33
HETATM   33  O5  UNL     1      -8.349  -8.494  11.551  1.00  0.00    -0.391 OA
HETATM   34  H37 UNL     1      -7.869  -7.732  11.940  1.00  0.00     0.210 HD
ENDBRANCH  30  33
BRANCH  31  35
HETATM   35  O6  UNL     1      -5.874  -7.871  12.181  1.00  0.00    -0.390 OA
HETATM   36  H39 UNL     1      -4.961  -7.633  11.914  1.00  0.00     0.210 HD
ENDBRANCH  31  35
BRANCH  32  37
HETATM   37  O7  UNL     1      -4.191  -8.925  10.199  1.00  0.00    -0.388 OA
HETATM   38  H41 UNL     1      -3.918  -9.104   9.277  1.00  0.00     0.210 HD
ENDBRANCH  32  37
ENDBRANCH  26  27
ENDBRANCH  17  26
BRANCH  18  39
HETATM   39  C29 UNL     1      -3.839  -9.363   5.671  1.00  0.00     0.176 C 
BRANCH  39  40
HETATM   40  O8  UNL     1      -3.195  -8.404   6.506  1.00  0.00    -0.400 OA
HETATM   41  H47 UNL     1      -2.473  -8.009   5.985  1.00  0.00     0.209 HD
ENDBRANCH  39  40
ENDBRANCH  18  39
BRANCH   1  42
HETATM   42  C2  UNL     1      -1.818 -14.443  -1.089  1.00  0.00    -0.088 C 
HETATM   43  C1  UNL     1      -1.587 -15.712  -0.720  1.00  0.00     0.014 C 
HETATM   44  C3  UNL     1      -0.699 -13.434  -1.064  1.00  0.00     0.043 C 
ENDBRANCH   1  42
BRANCH   4  45
HETATM   45  C8  UNL     1      -5.950 -12.629  -2.301  1.00  0.00     0.149 C 
HETATM   46  O1  UNL     1      -6.480 -13.492  -1.616  1.00  0.00    -0.649 OA
BRANCH  45  47
HETATM   47  O2  UNL     1      -6.589 -12.180  -3.388  1.00  0.00    -0.776 OA
HETATM   48  H11 UNL     1      -7.417 -12.708  -3.420  1.00  0.00     0.167 HD
ENDBRANCH  45  47
ENDBRANCH   4  45
TORSDOF 10
ENDMDL
MODEL 7
REMARK minimizedAffinity -10.305315
REMARK CNNscore 0.237926051
REMARK CNNaffinity 6.9699378
REMARK  10 active torsions:
REMARK  status: ('A' for Active; 'I' for Inactive)
REMARK    1  A    between atoms: C2_2  and  C4_4 
REMARK    2  A    between atoms: C7_7  and  C8_8 
REMARK    3  A    between atoms: C8_8  and  O2_10 
REMARK    4  A    between atoms: C21_23  and  O3_24 
REMARK    5  A    between atoms: O3_24  and  C22_25 
REMARK    6  A    between atoms: C24_28  and  O5_29 
REMARK    7  A    between atoms: C25_30  and  O6_31 
REMARK    8  A    between atoms: C26_32  and  O7_33 
REMARK    9  A    between atoms: C27_34  and  C29_36 
REMARK   10  A    between atoms: C29_36  and  O8_37 
ROOT
HETATM    1  C4  UNL     1      -7.848   5.414  13.872  1.00  0.00     0.019 C 
HETATM    2  C5  UNL     1      -9.157   5.975  14.489  1.00  0.00     0.011 C 
HETATM    3  C6  UNL     1      -8.847   7.402  14.972  1.00  0.00     0.021 C 
HETATM    4  C7  UNL     1      -7.332   7.403  15.193  1.00  0.00     0.050 C 
HETATM    5  C9  UNL     1      -6.659   8.785  15.155  1.00  0.00     0.022 C 
HETATM    6  C10 UNL     1      -5.118   8.647  15.147  1.00  0.00     0.011 C 
HETATM    7  C11 UNL     1      -4.538   7.728  14.009  1.00  0.00    -0.032 C 
HETATM    8  C12 UNL     1      -4.759   8.526  12.679  1.00  0.00     0.016 C 
HETATM    9  C13 UNL     1      -5.343   6.367  13.978  1.00  0.00     0.000 C 
HETATM   10  C14 UNL     1      -4.841   5.439  12.870  1.00  0.00     0.006 C 
HETATM   11  C15 UNL     1      -3.349   5.142  13.012  1.00  0.00     0.006 C 
HETATM   12  C16 UNL     1      -2.474   6.417  13.072  1.00  0.00     0.003 C 
HETATM   13  C17 UNL     1      -0.918   6.121  12.942  1.00  0.00    -0.035 C 
HETATM   14  C18 UNL     1      -0.435   5.025  13.934  1.00  0.00     0.016 C 
HETATM   15  C19 UNL     1      -0.692   5.514  11.514  1.00  0.00     0.012 C 
HETATM   16  C20 UNL     1       0.737   5.580  11.013  1.00  0.00     0.034 C 
HETATM   17  C21 UNL     1       1.410   6.955  11.093  1.00  0.00     0.135 C 
HETATM   18  C27 UNL     1       0.578   8.052  11.856  1.00  0.00     0.008 C 
HETATM   19  C28 UNL     1       1.569   9.208  12.206  1.00  0.00     0.020 C 
HETATM   20  C30 UNL     1      -0.011   7.401  13.170  1.00  0.00     0.007 C 
HETATM   21  C31 UNL     1      -0.582   8.396  14.204  1.00  0.00     0.007 C 
HETATM   22  C32 UNL     1      -2.082   8.661  14.125  1.00  0.00     0.011 C 
HETATM   23  C33 UNL     1      -2.954   7.386  14.219  1.00  0.00    -0.032 C 
HETATM   24  C34 UNL     1      -2.732   6.765  15.629  1.00  0.00     0.016 C 
HETATM   25  C35 UNL     1      -6.867   6.609  13.952  1.00  0.00     0.017 C 
ENDROOT
BRANCH  17  26
HETATM   26  O3  UNL     1       2.670   6.786  11.783  1.00  0.00    -0.352 OA
BRANCH  26  27
HETATM   27  C22 UNL     1       3.809   7.309  11.088  1.00  0.00     0.291 C 
HETATM   28  O4  UNL     1       4.114   6.577   9.897  1.00  0.00    -0.356 OA
HETATM   29  C23 UNL     1       4.862   5.389  10.166  1.00  0.00     0.205 C 
HETATM   30  C24 UNL     1       6.275   5.734  10.645  1.00  0.00     0.173 C 
HETATM   31  C25 UNL     1       6.301   7.099  11.346  1.00  0.00     0.182 C 
HETATM   32  C26 UNL     1       4.988   7.322  12.095  1.00  0.00     0.204 C 
BRANCH  30  33
HETATM   33  O5  UNL     1       6.731   4.712  11.539  1.00  0.00    -0.391 OA
HETATM   34  H37 UNL     1       7.441   5.143  12.062  1.00  0.00     0.210 HD
ENDBRANCH  30  33
BRANCH  31  35
HETATM   35  O6  UNL     1       7.413   7.147  12.257  1.00  0.00    -0.390 OA
HETATM   36  H39 UNL     1       7.256   7.953  12.794  1.00  0.00     0.210 HD
ENDBRANCH  31  35
BRANCH  32  37
HETATM   37  O7  UNL     1       5.059   8.570  12.814  1.00  0.00    -0.388 OA
HETATM   38  H41 UNL     1       4.176   8.692  13.215  1.00  0.00     0.210 HD
ENDBRANCH  32  37
ENDBRANCH  26  27
ENDBRANCH  17  26
BRANCH  18  39
HETATM   39  C29 UNL     1      -0.512   8.684  10.954  1.00  0.00     0.176 C 
BRANCH  39  40
HETATM   40  O8  UNL     1      -0.035   8.841   9.620  1.00  0.00    -0.400 OA
HETATM   41  H47 UNL     1      -0.706   9.352   9.133  1.00  0.00     0.209 HD
ENDBRANCH  39  40
ENDBRANCH  18  39
BRANCH   1  42
HETATM   42  C2  UNL     1      -8.121   4.778  12.514  1.00  0.00    -0.088 C 
HETATM   43  C1  UNL     1      -8.563   5.430  11.428  1.00  0.00     0.014 C 
HETATM   44  C3  UNL     1      -7.861   3.294  12.450  1.00  0.00     0.043 C 
ENDBRANCH   1  42
BRANCH   4  45
HETATM   45  C8  UNL     1      -7.098   6.813  16.594  1.00  0.00     0.149 C 
HETATM   46  O1  UNL     1      -7.681   7.163  17.611  1.00  0.00    -0.649 OA
BRANCH  45  47
HETATM   47  O2  UNL     1      -6.206   5.817  16.667  1.00  0.00    -0.776 OA
HETATM   48  H11 UNL     1      -6.192   5.572  17.618  1.00  0.00     0.167 HD
ENDBRANCH  45  47
ENDBRANCH   4  45
TORSDOF 10
ENDMDL
MODEL 8
REMARK minimizedAffinity -8.4523201
REMARK CNNscore 0.222816348
REMARK CNNaffinity 6.87801361
REMARK  10 active torsions:
REMARK  status: ('A' for Active; 'I' for Inactive)
REMARK    1  A    between atoms: C2_2  and  C4_4 
REMARK    2  A    between atoms: C7_7  and  C8_8 
REMARK    3  A    between atoms: C8_8  and  O2_10 
REMARK    4  A    between atoms: C21_23  and  O3_24 
REMARK    5  A    between atoms: O3_24  and  C22_25 
REMARK    6  A    between atoms: C24_28  and  O5_29 
REMARK    7  A    between atoms: C25_30  and  O6_31 
REMARK    8  A    between atoms: C26_32  and  O7_33 
REMARK    9  A    between atoms: C27_34  and  C29_36 
REMARK   10  A    between atoms: C29_36  and  O8_37 
ROOT
HETATM    1  C4  UNL     1      -6.710   4.501  12.505  1.00  0.00     0.019 C 
HETATM    2  C5  UNL     1      -7.329   3.114  12.185  1.00  0.00     0.011 C 
HETATM    3  C6  UNL     1      -6.170   2.102  12.168  1.00  0.00     0.021 C 
HETATM    4  C7  UNL     1      -4.934   2.952  11.863  1.00  0.00     0.050 C 
HETATM    5  C9  UNL     1      -3.590   2.345  12.301  1.00  0.00     0.022 C 
HETATM    6  C10 UNL     1      -2.448   3.379  12.167  1.00  0.00     0.011 C 
HETATM    7  C11 UNL     1      -2.696   4.744  12.910  1.00  0.00    -0.032 C 
HETATM    8  C12 UNL     1      -2.598   4.408  14.438  1.00  0.00     0.016 C 
HETATM    9  C13 UNL     1      -4.142   5.276  12.553  1.00  0.00     0.000 C 
HETATM   10  C14 UNL     1      -4.454   6.591  13.271  1.00  0.00     0.006 C 
HETATM   11  C15 UNL     1      -3.422   7.671  12.948  1.00  0.00     0.006 C 
HETATM   12  C16 UNL     1      -1.966   7.236  13.245  1.00  0.00     0.003 C 
HETATM   13  C17 UNL     1      -0.924   8.434  13.175  1.00  0.00    -0.035 C 
HETATM   14  C18 UNL     1      -1.040   9.248  11.855  1.00  0.00     0.016 C 
HETATM   15  C19 UNL     1      -1.312   9.437  14.315  1.00  0.00     0.012 C 
HETATM   16  C20 UNL     1      -0.212  10.398  14.719  1.00  0.00     0.034 C 
HETATM   17  C21 UNL     1       1.145   9.761  15.044  1.00  0.00     0.135 C 
HETATM   18  C27 UNL     1       1.242   8.223  14.727  1.00  0.00     0.008 C 
HETATM   19  C28 UNL     1       2.762   7.861  14.705  1.00  0.00     0.020 C 
HETATM   20  C30 UNL     1       0.584   7.965  13.313  1.00  0.00     0.007 C 
HETATM   21  C31 UNL     1       0.869   6.580  12.692  1.00  0.00     0.007 C 
HETATM   22  C32 UNL     1      -0.178   5.501  12.946  1.00  0.00     0.011 C 
HETATM   23  C33 UNL     1      -1.609   5.892  12.503  1.00  0.00    -0.032 C 
HETATM   24  C34 UNL     1      -1.590   6.075  10.957  1.00  0.00     0.016 C 
HETATM   25  C35 UNL     1      -5.214   4.184  12.752  1.00  0.00     0.017 C 
ENDROOT
BRANCH  17  26
HETATM   26  O3  UNL     1       2.148  10.446  14.258  1.00  0.00    -0.352 OA
BRANCH  26  27
HETATM   27  C22 UNL     1       2.953  11.376  14.993  1.00  0.00     0.291 C 
HETATM   28  O4  UNL     1       2.175  12.383  15.649  1.00  0.00    -0.356 OA
HETATM   29  C23 UNL     1       1.808  13.445  14.766  1.00  0.00     0.205 C 
HETATM   30  C24 UNL     1       3.036  14.266  14.363  1.00  0.00     0.173 C 
HETATM   31  C25 UNL     1       4.308  13.410  14.403  1.00  0.00     0.182 C 
HETATM   32  C26 UNL     1       3.980  11.974  13.997  1.00  0.00     0.204 C 
BRANCH  30  33
HETATM   33  O5  UNL     1       2.838  14.794  13.047  1.00  0.00    -0.391 OA
HETATM   34  H37 UNL     1       3.743  14.988  12.722  1.00  0.00     0.210 HD
ENDBRANCH  30  33
BRANCH  31  35
HETATM   35  O6  UNL     1       5.290  13.971  13.515  1.00  0.00    -0.390 OA
HETATM   36  H39 UNL     1       5.985  13.281  13.449  1.00  0.00     0.210 HD
ENDBRANCH  31  35
BRANCH  32  37
HETATM   37  O7  UNL     1       5.197  11.202  13.960  1.00  0.00    -0.388 OA
HETATM   38  H41 UNL     1       4.920  10.286  13.762  1.00  0.00     0.210 HD
ENDBRANCH  32  37
ENDBRANCH  26  27
ENDBRANCH  17  26
BRANCH  18  39
HETATM   39  C29 UNL     1       0.616   7.359  15.851  1.00  0.00     0.176 C 
BRANCH  39  40
HETATM   40  O8  UNL     1       1.615   6.932  16.775  1.00  0.00    -0.400 OA
HETATM   41  H47 UNL     1       1.192   6.297  17.381  1.00  0.00     0.209 HD
ENDBRANCH  39  40
ENDBRANCH  18  39
BRANCH   1  42
HETATM   42  C2  UNL     1      -7.501   5.205  13.602  1.00  0.00    -0.088 C 
HETATM   43  C1  UNL     1      -7.278   5.081  14.919  1.00  0.00     0.014 C 
HETATM   44  C3  UNL     1      -8.614   6.091  13.104  1.00  0.00     0.043 C 
ENDBRANCH   1  42
BRANCH   4  45
HETATM   45  C8  UNL     1      -4.889   3.121  10.336  1.00  0.00     0.149 C 
HETATM   46  O1  UNL     1      -5.864   3.106   9.597  1.00  0.00    -0.649 OA
BRANCH  45  47
HETATM   47  O2  UNL     1      -3.677   3.335   9.808  1.00  0.00    -0.776 OA
HETATM   48  H11 UNL     1      -3.843   3.419   8.843  1.00  0.00     0.167 HD
ENDBRANCH  45  47
ENDBRANCH   4  45
TORSDOF 10
ENDMDL
MODEL 9
REMARK minimizedAffinity -7.49097633
REMARK CNNscore 0.216351926
REMARK CNNaffinity 6.49208975
REMARK  10 active torsions:
REMARK  status: ('A' for Active; 'I' for Inactive)
REMARK    1  A    between atoms: C2_2  and  C4_4 
REMARK    2  A    between atoms: C7_7  and  C8_8 
REMARK    3  A    between atoms: C8_8  and  O2_10 
REMARK    4  A    between atoms: C21_23  and  O3_24 
REMARK    5  A    between atoms: O3_24  and  C22_25 
REMARK    6  A    between atoms: C24_28  and  O5_29 
REMARK    7  A    between atoms: C25_30  and  O6_31 
REMARK    8  A    between atoms: C26_32  and  O7_33 
REMARK    9  A    between atoms: C27_34  and  C29_36 
REMARK   10  A    between atoms: C29_36  and  O8_37 
ROOT
HETATM    1  C4  UNL     1      -2.659   4.647  11.547  1.00  0.00     0.019 C 
HETATM    2  C5  UNL     1      -1.892   3.398  11.036  1.00  0.00     0.011 C 
HETATM    3  C6  UNL     1      -0.575   3.328  11.830  1.00  0.00     0.021 C 
HETATM    4  C7  UNL     1      -0.334   4.770  12.283  1.00  0.00     0.050 C 
HETATM    5  C9  UNL     1       0.579   4.933  13.510  1.00  0.00     0.022 C 
HETATM    6  C10 UNL     1       0.559   6.393  14.022  1.00  0.00     0.011 C 
HETATM    7  C11 UNL     1      -0.872   6.972  14.328  1.00  0.00    -0.032 C 
HETATM    8  C12 UNL     1      -1.360   6.214  15.610  1.00  0.00     0.016 C 
HETATM    9  C13 UNL     1      -1.830   6.665  13.106  1.00  0.00     0.000 C 
HETATM   10  C14 UNL     1      -3.248   7.181  13.358  1.00  0.00     0.006 C 
HETATM   11  C15 UNL     1      -3.262   8.680  13.649  1.00  0.00     0.006 C 
HETATM   12  C16 UNL     1      -2.336   9.085  14.821  1.00  0.00     0.003 C 
HETATM   13  C17 UNL     1      -2.552  10.583  15.307  1.00  0.00    -0.035 C 
HETATM   14  C18 UNL     1      -2.502  11.603  14.133  1.00  0.00     0.016 C 
HETATM   15  C19 UNL     1      -4.013  10.670  15.867  1.00  0.00     0.012 C 
HETATM   16  C20 UNL     1      -4.276  11.851  16.779  1.00  0.00     0.034 C 
HETATM   17  C21 UNL     1      -3.279  12.042  17.929  1.00  0.00     0.135 C 
HETATM   18  C27 UNL     1      -2.026  11.092  17.877  1.00  0.00     0.008 C 
HETATM   19  C28 UNL     1      -0.954  11.707  18.834  1.00  0.00     0.020 C 
HETATM   20  C30 UNL     1      -1.494  11.053  16.390  1.00  0.00     0.007 C 
HETATM   21  C31 UNL     1      -0.091  10.435  16.204  1.00  0.00     0.007 C 
HETATM   22  C32 UNL     1      -0.051   8.953  15.848  1.00  0.00     0.011 C 
HETATM   23  C33 UNL     1      -0.861   8.585  14.583  1.00  0.00    -0.032 C 
HETATM   24  C34 UNL     1      -0.197   9.304  13.372  1.00  0.00     0.016 C 
HETATM   25  C35 UNL     1      -1.766   5.180  12.694  1.00  0.00     0.017 C 
ENDROOT
BRANCH  17  26
HETATM   26  O3  UNL     1      -2.809  13.410  17.877  1.00  0.00    -0.352 OA
BRANCH  26  27
HETATM   27  C22 UNL     1      -3.323  14.260  18.909  1.00  0.00     0.291 C 
HETATM   28  O4  UNL     1      -3.861  13.525  20.013  1.00  0.00    -0.356 OA
HETATM   29  C23 UNL     1      -5.193  13.072  19.766  1.00  0.00     0.205 C 
HETATM   30  C24 UNL     1      -6.169  14.251  19.720  1.00  0.00     0.173 C 
HETATM   31  C25 UNL     1      -5.461  15.534  19.264  1.00  0.00     0.182 C 
HETATM   32  C26 UNL     1      -4.371  15.193  18.250  1.00  0.00     0.204 C 
BRANCH  30  33
HETATM   33  O5  UNL     1      -7.244  13.938  18.826  1.00  0.00    -0.391 OA
HETATM   34  H37 UNL     1      -7.614  14.811  18.573  1.00  0.00     0.210 HD
ENDBRANCH  30  33
BRANCH  31  35
HETATM   35  O6  UNL     1      -6.423  16.432  18.685  1.00  0.00    -0.390 OA
HETATM   36  H39 UNL     1      -5.882  17.128  18.254  1.00  0.00     0.210 HD
ENDBRANCH  31  35
BRANCH  32  37
HETATM   37  O7  UNL     1      -3.770  16.413  17.771  1.00  0.00    -0.388 OA
HETATM   38  H41 UNL     1      -3.042  16.133  17.182  1.00  0.00     0.210 HD
ENDBRANCH  32  37
ENDBRANCH  26  27
ENDBRANCH  17  26
BRANCH  18  39
HETATM   39  C29 UNL     1      -2.342   9.684  18.443  1.00  0.00     0.176 C 
BRANCH  39  40
HETATM   40  O8  UNL     1      -3.443   9.740  19.348  1.00  0.00    -0.400 OA
HETATM   41  H47 UNL     1      -3.516   8.862  19.764  1.00  0.00     0.209 HD
ENDBRANCH  39  40
ENDBRANCH  18  39
BRANCH   1  42
HETATM   42  C2  UNL     1      -4.112   4.300  11.851  1.00  0.00    -0.088 C 
HETATM   43  C1  UNL     1      -4.774   4.640  12.967  1.00  0.00     0.014 C 
HETATM   44  C3  UNL     1      -4.807   3.503  10.775  1.00  0.00     0.043 C 
ENDBRANCH   1  42
BRANCH   4  45
HETATM   45  C8  UNL     1       0.345   5.488  11.104  1.00  0.00     0.149 C 
HETATM   46  O1  UNL     1       1.332   5.082  10.507  1.00  0.00    -0.649 OA
BRANCH  45  47
HETATM   47  O2  UNL     1      -0.236   6.625  10.701  1.00  0.00    -0.776 OA
HETATM   48  H11 UNL     1       0.324   6.933   9.954  1.00  0.00     0.167 HD
ENDBRANCH  45  47
ENDBRANCH   4  45
TORSDOF 10
ENDMDL
