MODEL 1
REMARK minimizedAffinity -9.09710598
REMARK  4 active torsions:
REMARK  status: ('A' for Active; 'I' for Inactive)
REMARK    1  A    between atoms: C4_4  and  C5_5 
REMARK    2  A    between atoms: C5_5  and  C6_6 
REMARK    3  A    between atoms: C6_6  and  C7_7 
REMARK    4  A    between atoms: C7_7  and  C9_9 
ROOT
HETATM    1  C9  UNL     1      -3.560  48.332 -19.737  1.00  0.00    -0.002 C 
HETATM    2  C10 UNL     1      -4.118  47.231 -20.690  1.00  0.00     0.007 C 
HETATM    3  C11 UNL     1      -3.827  47.676 -22.135  1.00  0.00     0.015 C 
HETATM    4  C12 UNL     1      -3.410  49.155 -22.012  1.00  0.00    -0.013 C 
HETATM    5  C13 UNL     1      -4.742  49.972 -21.947  1.00  0.00     0.021 C 
HETATM    6  C14 UNL     1      -2.592  49.768 -23.144  1.00  0.00    -0.070 C 
HETATM    7  C15 UNL     1      -2.739  49.386 -24.425  1.00  0.00    -0.022 C 
HETATM    8  C16 UNL     1      -2.052  50.031 -25.589  1.00  0.00     0.034 C 
HETATM    9  C17 UNL     1      -0.949  51.048 -25.218  1.00  0.00     0.013 C 
HETATM   10  C18 UNL     1      -0.438  51.872 -26.458  1.00  0.00     0.018 C 
HETATM   11  C19 UNL     1      -1.530  52.249 -27.478  1.00  0.00     0.023 C 
HETATM   12  C20 UNL     1       0.629  51.052 -27.216  1.00  0.00     0.023 C 
HETATM   13  C21 UNL     1       0.253  53.152 -25.975  1.00  0.00     0.135 C 
HETATM   14  O1  UNL     1       0.350  54.161 -26.672  1.00  0.00    -0.297 OA
HETATM   15  C22 UNL     1       0.895  53.094 -24.617  1.00  0.00     0.080 C 
HETATM   16  C23 UNL     1      -0.133  52.817 -23.531  1.00  0.00     0.017 C 
HETATM   17  C24 UNL     1      -1.328  51.898 -23.947  1.00  0.00    -0.031 C 
HETATM   18  C25 UNL     1      -2.557  52.799 -24.217  1.00  0.00     0.016 C 
HETATM   19  C26 UNL     1      -1.620  50.886 -22.763  1.00  0.00     0.024 C 
HETATM   20  C27 UNL     1      -1.989  51.551 -21.415  1.00  0.00     0.010 C 
HETATM   21  C28 UNL     1      -2.261  50.572 -20.247  1.00  0.00     0.011 C 
HETATM   22  C29 UNL     1      -2.587  49.124 -20.674  1.00  0.00    -0.029 C 
HETATM   23  C30 UNL     1      -1.253  48.316 -20.782  1.00  0.00     0.016 C 
ENDROOT
BRANCH   1  24
HETATM   24  C7  UNL     1      -3.041  47.738 -18.391  1.00  0.00    -0.014 C 
HETATM   25  C8  UNL     1      -3.108  46.207 -18.379  1.00  0.00     0.010 C 
BRANCH  24  26
HETATM   26  C6  UNL     1      -1.582  48.209 -18.127  1.00  0.00     0.008 C 
BRANCH  26  27
HETATM   27  C5  UNL     1      -1.374  49.119 -16.907  1.00  0.00     0.028 C 
BRANCH  27  28
HETATM   28  C4  UNL     1      -0.531  50.326 -17.216  1.00  0.00    -0.025 C 
HETATM   29  C2  UNL     1       0.528  50.803 -16.533  1.00  0.00    -0.091 C 
HETATM   30  C1  UNL     1       1.109  50.200 -15.283  1.00  0.00     0.042 C 
HETATM   31  C3  UNL     1       1.242  52.045 -17.002  1.00  0.00     0.042 C 
ENDBRANCH  27  28
ENDBRANCH  26  27
ENDBRANCH  24  26
ENDBRANCH   1  24
TORSDOF 4
ENDMDL
MODEL 2
REMARK minimizedAffinity -8.97018528
REMARK  4 active torsions:
REMARK  status: ('A' for Active; 'I' for Inactive)
REMARK    1  A    between atoms: C4_4  and  C5_5 
REMARK    2  A    between atoms: C5_5  and  C6_6 
REMARK    3  A    between atoms: C6_6  and  C7_7 
REMARK    4  A    between atoms: C7_7  and  C9_9 
ROOT
HETATM    1  C9  UNL     1      -2.244  50.161 -21.392  1.00  0.00    -0.002 C 
HETATM    2  C10 UNL     1      -1.702  51.581 -21.739  1.00  0.00     0.007 C 
HETATM    3  C11 UNL     1      -0.931  52.098 -20.510  1.00  0.00     0.015 C 
HETATM    4  C12 UNL     1      -1.312  51.128 -19.374  1.00  0.00    -0.013 C 
HETATM    5  C13 UNL     1      -2.684  51.634 -18.821  1.00  0.00     0.021 C 
HETATM    6  C14 UNL     1      -0.380  51.029 -18.171  1.00  0.00    -0.070 C 
HETATM    7  C15 UNL     1       0.332  52.079 -17.725  1.00  0.00    -0.022 C 
HETATM    8  C16 UNL     1       1.169  52.075 -16.484  1.00  0.00     0.034 C 
HETATM    9  C17 UNL     1       1.368  50.687 -15.833  1.00  0.00     0.013 C 
HETATM   10  C18 UNL     1       2.037  50.772 -14.410  1.00  0.00     0.018 C 
HETATM   11  C19 UNL     1       1.588  51.973 -13.555  1.00  0.00     0.023 C 
HETATM   12  C20 UNL     1       3.570  50.873 -14.569  1.00  0.00     0.023 C 
HETATM   13  C21 UNL     1       1.760  49.479 -13.635  1.00  0.00     0.135 C 
HETATM   14  O1  UNL     1       1.763  49.426 -12.405  1.00  0.00    -0.297 OA
HETATM   15  C22 UNL     1       1.564  48.235 -14.455  1.00  0.00     0.080 C 
HETATM   16  C23 UNL     1       0.357  48.362 -15.371  1.00  0.00     0.017 C 
HETATM   17  C24 UNL     1       0.070  49.798 -15.921  1.00  0.00    -0.031 C 
HETATM   18  C25 UNL     1      -1.088  50.408 -15.096  1.00  0.00     0.016 C 
HETATM   19  C26 UNL     1      -0.326  49.681 -17.451  1.00  0.00     0.024 C 
HETATM   20  C27 UNL     1      -1.577  48.814 -17.734  1.00  0.00     0.010 C 
HETATM   21  C28 UNL     1      -1.966  48.679 -19.226  1.00  0.00     0.011 C 
HETATM   22  C29 UNL     1      -1.373  49.764 -20.153  1.00  0.00    -0.029 C 
HETATM   23  C30 UNL     1       0.018  49.280 -20.674  1.00  0.00     0.016 C 
ENDROOT
BRANCH   1  24
HETATM   24  C7  UNL     1      -2.299  49.229 -22.642  1.00  0.00    -0.014 C 
HETATM   25  C8  UNL     1      -2.340  47.749 -22.248  1.00  0.00     0.010 C 
BRANCH  24  26
HETATM   26  C6  UNL     1      -3.535  49.582 -23.517  1.00  0.00     0.008 C 
BRANCH  26  27
HETATM   27  C5  UNL     1      -4.476  48.417 -23.860  1.00  0.00     0.028 C 
BRANCH  27  28
HETATM   28  C4  UNL     1      -4.880  48.399 -25.310  1.00  0.00    -0.025 C 
HETATM   29  C2  UNL     1      -4.089  48.446 -26.399  1.00  0.00    -0.091 C 
HETATM   30  C1  UNL     1      -2.586  48.520 -26.389  1.00  0.00     0.042 C 
HETATM   31  C3  UNL     1      -4.691  48.428 -27.781  1.00  0.00     0.042 C 
ENDBRANCH  27  28
ENDBRANCH  26  27
ENDBRANCH  24  26
ENDBRANCH   1  24
TORSDOF 4
ENDMDL
MODEL 3
REMARK minimizedAffinity -8.91787338
REMARK  4 active torsions:
REMARK  status: ('A' for Active; 'I' for Inactive)
REMARK    1  A    between atoms: C4_4  and  C5_5 
REMARK    2  A    between atoms: C5_5  and  C6_6 
REMARK    3  A    between atoms: C6_6  and  C7_7 
REMARK    4  A    between atoms: C7_7  and  C9_9 
ROOT
HETATM    1  C9  UNL     1      -1.329  51.302 -21.390  1.00  0.00    -0.002 C 
HETATM    2  C10 UNL     1      -0.616  49.976 -20.984  1.00  0.00     0.007 C 
HETATM    3  C11 UNL     1      -1.655  48.843 -21.073  1.00  0.00     0.015 C 
HETATM    4  C12 UNL     1      -3.010  49.566 -21.204  1.00  0.00    -0.013 C 
HETATM    5  C13 UNL     1      -3.436  49.947 -19.749  1.00  0.00     0.021 C 
HETATM    6  C14 UNL     1      -4.182  48.793 -21.800  1.00  0.00    -0.070 C 
HETATM    7  C15 UNL     1      -4.327  47.466 -21.633  1.00  0.00    -0.022 C 
HETATM    8  C16 UNL     1      -5.513  46.676 -22.091  1.00  0.00     0.034 C 
HETATM    9  C17 UNL     1      -6.499  47.442 -23.003  1.00  0.00     0.013 C 
HETATM   10  C18 UNL     1      -7.839  46.654 -23.249  1.00  0.00     0.018 C 
HETATM   11  C19 UNL     1      -8.361  45.868 -22.031  1.00  0.00     0.023 C 
HETATM   12  C20 UNL     1      -7.634  45.637 -24.394  1.00  0.00     0.023 C 
HETATM   13  C21 UNL     1      -8.929  47.626 -23.716  1.00  0.00     0.135 C 
HETATM   14  O1  UNL     1     -10.129  47.405 -23.563  1.00  0.00    -0.297 OA
HETATM   15  C22 UNL     1      -8.462  48.847 -24.459  1.00  0.00     0.080 C 
HETATM   16  C23 UNL     1      -7.565  49.714 -23.589  1.00  0.00     0.017 C 
HETATM   17  C24 UNL     1      -6.666  48.947 -22.565  1.00  0.00    -0.031 C 
HETATM   18  C25 UNL     1      -7.324  49.057 -21.168  1.00  0.00     0.016 C 
HETATM   19  C26 UNL     1      -5.226  49.608 -22.565  1.00  0.00     0.024 C 
HETATM   20  C27 UNL     1      -5.199  51.107 -22.179  1.00  0.00     0.010 C 
HETATM   21  C28 UNL     1      -3.800  51.768 -22.190  1.00  0.00     0.011 C 
HETATM   22  C29 UNL     1      -2.614  50.781 -22.118  1.00  0.00    -0.029 C 
HETATM   23  C30 UNL     1      -2.213  50.365 -23.570  1.00  0.00     0.016 C 
ENDROOT
BRANCH   1  24
HETATM   24  C7  UNL     1      -0.364  52.291 -22.115  1.00  0.00    -0.014 C 
HETATM   25  C8  UNL     1       0.979  52.414 -21.388  1.00  0.00     0.010 C 
BRANCH  24  26
HETATM   26  C6  UNL     1      -0.134  51.833 -23.583  1.00  0.00     0.008 C 
BRANCH  26  27
HETATM   27  C5  UNL     1       0.591  52.832 -24.498  1.00  0.00     0.028 C 
BRANCH  27  28
HETATM   28  C4  UNL     1       0.358  52.561 -25.960  1.00  0.00    -0.025 C 
HETATM   29  C2  UNL     1       1.159  51.913 -26.828  1.00  0.00    -0.091 C 
HETATM   30  C1  UNL     1       2.493  51.301 -26.501  1.00  0.00     0.042 C 
HETATM   31  C3  UNL     1       0.748  51.751 -28.270  1.00  0.00     0.042 C 
ENDBRANCH  27  28
ENDBRANCH  26  27
ENDBRANCH  24  26
ENDBRANCH   1  24
TORSDOF 4
ENDMDL
MODEL 4
REMARK minimizedAffinity -8.81810856
REMARK  4 active torsions:
REMARK  status: ('A' for Active; 'I' for Inactive)
REMARK    1  A    between atoms: C4_4  and  C5_5 
REMARK    2  A    between atoms: C5_5  and  C6_6 
REMARK    3  A    between atoms: C6_6  and  C7_7 
REMARK    4  A    between atoms: C7_7  and  C9_9 
ROOT
HETATM    1  C9  UNL     1      -2.016  50.424 -21.650  1.00  0.00    -0.002 C 
HETATM    2  C10 UNL     1      -1.527  51.888 -21.863  1.00  0.00     0.007 C 
HETATM    3  C11 UNL     1      -0.848  52.346 -20.559  1.00  0.00     0.015 C 
HETATM    4  C12 UNL     1      -1.241  51.278 -19.519  1.00  0.00    -0.013 C 
HETATM    5  C13 UNL     1      -2.663  51.679 -19.009  1.00  0.00     0.021 C 
HETATM    6  C14 UNL     1      -0.370  51.132 -18.275  1.00  0.00    -0.070 C 
HETATM    7  C15 UNL     1       0.265  52.177 -17.715  1.00  0.00    -0.022 C 
HETATM    8  C16 UNL     1       1.033  52.118 -16.432  1.00  0.00     0.034 C 
HETATM    9  C17 UNL     1       1.266  50.695 -15.872  1.00  0.00     0.013 C 
HETATM   10  C18 UNL     1       1.853  50.704 -14.412  1.00  0.00     0.018 C 
HETATM   11  C19 UNL     1       1.301  51.817 -13.499  1.00  0.00     0.023 C 
HETATM   12  C20 UNL     1       3.385  50.885 -14.475  1.00  0.00     0.023 C 
HETATM   13  C21 UNL     1       1.599  49.346 -13.748  1.00  0.00     0.135 C 
HETATM   14  O1  UNL     1       1.539  49.202 -12.528  1.00  0.00    -0.297 OA
HETATM   15  C22 UNL     1       1.508  48.159 -14.666  1.00  0.00     0.080 C 
HETATM   16  C23 UNL     1       0.347  48.300 -15.637  1.00  0.00     0.017 C 
HETATM   17  C24 UNL     1       0.019  49.758 -16.098  1.00  0.00    -0.031 C 
HETATM   18  C25 UNL     1      -1.210  50.252 -15.298  1.00  0.00     0.016 C 
HETATM   19  C26 UNL     1      -0.289  49.737 -17.652  1.00  0.00     0.024 C 
HETATM   20  C27 UNL     1      -1.479  48.839 -18.067  1.00  0.00     0.010 C 
HETATM   21  C28 UNL     1      -1.781  48.798 -19.584  1.00  0.00     0.011 C 
HETATM   22  C29 UNL     1      -1.194  49.975 -20.395  1.00  0.00    -0.029 C 
HETATM   23  C30 UNL     1       0.246  49.594 -20.870  1.00  0.00     0.016 C 
ENDROOT
BRANCH   1  24
HETATM   24  C7  UNL     1      -1.958  49.586 -22.965  1.00  0.00    -0.014 C 
HETATM   25  C8  UNL     1      -3.158  48.640 -23.093  1.00  0.00     0.010 C 
BRANCH  24  26
HETATM   26  C6  UNL     1      -1.893  50.532 -24.198  1.00  0.00     0.008 C 
BRANCH  26  27
HETATM   27  C5  UNL     1      -0.490  50.988 -24.628  1.00  0.00     0.028 C 
BRANCH  27  28
HETATM   28  C4  UNL     1      -0.385  51.239 -26.107  1.00  0.00    -0.025 C 
HETATM   29  C2  UNL     1       0.727  51.405 -26.850  1.00  0.00    -0.091 C 
HETATM   30  C1  UNL     1       2.139  51.364 -26.336  1.00  0.00     0.042 C 
HETATM   31  C3  UNL     1       0.623  51.659 -28.333  1.00  0.00     0.042 C 
ENDBRANCH  27  28
ENDBRANCH  26  27
ENDBRANCH  24  26
ENDBRANCH   1  24
TORSDOF 4
ENDMDL
MODEL 5
REMARK minimizedAffinity -8.52732372
REMARK  4 active torsions:
REMARK  status: ('A' for Active; 'I' for Inactive)
REMARK    1  A    between atoms: C4_4  and  C5_5 
REMARK    2  A    between atoms: C5_5  and  C6_6 
REMARK    3  A    between atoms: C6_6  and  C7_7 
REMARK    4  A    between atoms: C7_7  and  C9_9 
ROOT
HETATM    1  C9  UNL     1      -2.077  50.635 -24.920  1.00  0.00    -0.002 C 
HETATM    2  C10 UNL     1      -3.090  51.712 -25.415  1.00  0.00     0.007 C 
HETATM    3  C11 UNL     1      -4.432  51.448 -24.707  1.00  0.00     0.015 C 
HETATM    4  C12 UNL     1      -4.273  50.050 -24.078  1.00  0.00    -0.013 C 
HETATM    5  C13 UNL     1      -4.586  49.027 -25.218  1.00  0.00     0.021 C 
HETATM    6  C14 UNL     1      -5.185  49.678 -22.913  1.00  0.00    -0.070 C 
HETATM    7  C15 UNL     1      -6.443  50.142 -22.809  1.00  0.00    -0.022 C 
HETATM    8  C16 UNL     1      -7.421  49.721 -21.757  1.00  0.00     0.034 C 
HETATM    9  C17 UNL     1      -6.827  48.865 -20.614  1.00  0.00     0.013 C 
HETATM   10  C18 UNL     1      -7.931  48.246 -19.679  1.00  0.00     0.018 C 
HETATM   11  C19 UNL     1      -9.212  47.789 -20.405  1.00  0.00     0.023 C 
HETATM   12  C20 UNL     1      -8.355  49.290 -18.623  1.00  0.00     0.023 C 
HETATM   13  C21 UNL     1      -7.345  47.056 -18.910  1.00  0.00     0.135 C 
HETATM   14  O1  UNL     1      -8.039  46.141 -18.469  1.00  0.00    -0.297 OA
HETATM   15  C22 UNL     1      -5.868  47.098 -18.639  1.00  0.00     0.080 C 
HETATM   16  C23 UNL     1      -5.068  47.109 -19.932  1.00  0.00     0.017 C 
HETATM   17  C24 UNL     1      -5.733  47.857 -21.135  1.00  0.00    -0.031 C 
HETATM   18  C25 UNL     1      -6.348  46.798 -22.081  1.00  0.00     0.016 C 
HETATM   19  C26 UNL     1      -4.619  48.702 -21.880  1.00  0.00     0.024 C 
HETATM   20  C27 UNL     1      -3.441  47.871 -22.442  1.00  0.00     0.010 C 
HETATM   21  C28 UNL     1      -2.338  48.686 -23.159  1.00  0.00     0.011 C 
HETATM   22  C29 UNL     1      -2.769  50.095 -23.623  1.00  0.00    -0.029 C 
HETATM   23  C30 UNL     1      -2.498  51.113 -22.468  1.00  0.00     0.016 C 
ENDROOT
BRANCH   1  24
HETATM   24  C7  UNL     1      -0.618  51.184 -24.858  1.00  0.00    -0.014 C 
HETATM   25  C8  UNL     1       0.180  50.827 -26.117  1.00  0.00     0.010 C 
BRANCH  24  26
HETATM   26  C6  UNL     1      -0.635  52.727 -24.658  1.00  0.00     0.008 C 
BRANCH  26  27
HETATM   27  C5  UNL     1       0.722  53.388 -24.376  1.00  0.00     0.028 C 
BRANCH  27  28
HETATM   28  C4  UNL     1       0.818  53.955 -22.985  1.00  0.00    -0.025 C 
HETATM   29  C2  UNL     1       0.941  53.291 -21.819  1.00  0.00    -0.091 C 
HETATM   30  C1  UNL     1       1.017  51.797 -21.664  1.00  0.00     0.042 C 
HETATM   31  C3  UNL     1       1.012  54.046 -20.516  1.00  0.00     0.042 C 
ENDBRANCH  27  28
ENDBRANCH  26  27
ENDBRANCH  24  26
ENDBRANCH   1  24
TORSDOF 4
ENDMDL
MODEL 6
REMARK minimizedAffinity -8.47457886
REMARK  4 active torsions:
REMARK  status: ('A' for Active; 'I' for Inactive)
REMARK    1  A    between atoms: C4_4  and  C5_5 
REMARK    2  A    between atoms: C5_5  and  C6_6 
REMARK    3  A    between atoms: C6_6  and  C7_7 
REMARK    4  A    between atoms: C7_7  and  C9_9 
ROOT
HETATM    1  C9  UNL     1      -1.220  50.724 -22.545  1.00  0.00    -0.002 C 
HETATM    2  C10 UNL     1      -1.543  50.210 -23.981  1.00  0.00     0.007 C 
HETATM    3  C11 UNL     1      -2.766  49.279 -23.877  1.00  0.00     0.015 C 
HETATM    4  C12 UNL     1      -2.924  49.011 -22.368  1.00  0.00    -0.013 C 
HETATM    5  C13 UNL     1      -1.923  47.859 -22.029  1.00  0.00     0.021 C 
HETATM    6  C14 UNL     1      -4.287  48.550 -21.859  1.00  0.00    -0.070 C 
HETATM    7  C15 UNL     1      -5.111  47.789 -22.600  1.00  0.00    -0.022 C 
HETATM    8  C16 UNL     1      -6.403  47.210 -22.113  1.00  0.00     0.034 C 
HETATM    9  C17 UNL     1      -6.879  47.734 -20.739  1.00  0.00     0.013 C 
HETATM   10  C18 UNL     1      -8.097  46.919 -20.165  1.00  0.00     0.018 C 
HETATM   11  C19 UNL     1      -8.051  45.404 -20.444  1.00  0.00     0.023 C 
HETATM   12  C20 UNL     1      -9.409  47.456 -20.778  1.00  0.00     0.023 C 
HETATM   13  C21 UNL     1      -8.197  47.142 -18.652  1.00  0.00     0.135 C 
HETATM   14  O1  UNL     1      -8.732  46.335 -17.893  1.00  0.00    -0.297 OA
HETATM   15  C22 UNL     1      -7.677  48.454 -18.133  1.00  0.00     0.080 C 
HETATM   16  C23 UNL     1      -6.192  48.610 -18.415  1.00  0.00     0.017 C 
HETATM   17  C24 UNL     1      -5.680  47.957 -19.741  1.00  0.00    -0.031 C 
HETATM   18  C25 UNL     1      -4.987  46.620 -19.384  1.00  0.00     0.016 C 
HETATM   19  C26 UNL     1      -4.661  48.955 -20.432  1.00  0.00     0.024 C 
HETATM   20  C27 UNL     1      -3.420  49.311 -19.578  1.00  0.00     0.010 C 
HETATM   21  C28 UNL     1      -2.425  50.297 -20.236  1.00  0.00     0.011 C 
HETATM   22  C29 UNL     1      -2.546  50.415 -21.772  1.00  0.00    -0.029 C 
HETATM   23  C30 UNL     1      -3.579  51.536 -22.114  1.00  0.00     0.016 C 
ENDROOT
BRANCH   1  24
HETATM   24  C7  UNL     1      -0.639  52.172 -22.555  1.00  0.00    -0.014 C 
HETATM   25  C8  UNL     1      -0.132  52.593 -21.171  1.00  0.00     0.010 C 
BRANCH  24  26
HETATM   26  C6  UNL     1       0.511  52.279 -23.597  1.00  0.00     0.008 C 
BRANCH  26  27
HETATM   27  C5  UNL     1       0.378  53.400 -24.640  1.00  0.00     0.028 C 
BRANCH  27  28
HETATM   28  C4  UNL     1       0.139  52.879 -26.031  1.00  0.00    -0.025 C 
HETATM   29  C2  UNL     1       0.945  52.105 -26.783  1.00  0.00    -0.091 C 
HETATM   30  C1  UNL     1       2.292  51.579 -26.369  1.00  0.00     0.042 C 
HETATM   31  C3  UNL     1       0.528  51.691 -28.172  1.00  0.00     0.042 C 
ENDBRANCH  27  28
ENDBRANCH  26  27
ENDBRANCH  24  26
ENDBRANCH   1  24
TORSDOF 4
ENDMDL
MODEL 7
REMARK minimizedAffinity -8.45894527
REMARK  4 active torsions:
REMARK  status: ('A' for Active; 'I' for Inactive)
REMARK    1  A    between atoms: C4_4  and  C5_5 
REMARK    2  A    between atoms: C5_5  and  C6_6 
REMARK    3  A    between atoms: C6_6  and  C7_7 
REMARK    4  A    between atoms: C7_7  and  C9_9 
ROOT
HETATM    1  C9  UNL     1      -2.569  50.651 -22.919  1.00  0.00    -0.002 C 
HETATM    2  C10 UNL     1      -1.660  49.827 -21.957  1.00  0.00     0.007 C 
HETATM    3  C11 UNL     1      -2.445  48.571 -21.536  1.00  0.00     0.015 C 
HETATM    4  C12 UNL     1      -3.893  48.847 -21.988  1.00  0.00    -0.013 C 
HETATM    5  C13 UNL     1      -4.535  49.720 -20.860  1.00  0.00     0.021 C 
HETATM    6  C14 UNL     1      -4.825  47.655 -22.182  1.00  0.00    -0.070 C 
HETATM    7  C15 UNL     1      -4.728  46.538 -21.440  1.00  0.00    -0.022 C 
HETATM    8  C16 UNL     1      -5.685  45.389 -21.504  1.00  0.00     0.034 C 
HETATM    9  C17 UNL     1      -6.699  45.444 -22.670  1.00  0.00     0.013 C 
HETATM   10  C18 UNL     1      -7.828  44.354 -22.547  1.00  0.00     0.018 C 
HETATM   11  C19 UNL     1      -8.313  44.084 -21.108  1.00  0.00     0.023 C 
HETATM   12  C20 UNL     1      -7.312  43.013 -23.112  1.00  0.00     0.023 C 
HETATM   13  C21 UNL     1      -9.030  44.760 -23.407  1.00  0.00     0.135 C 
HETATM   14  O1  UNL     1     -10.174  44.370 -23.180  1.00  0.00    -0.297 OA
HETATM   15  C22 UNL     1      -8.733  45.605 -24.615  1.00  0.00     0.080 C 
HETATM   16  C23 UNL     1      -8.116  46.937 -24.219  1.00  0.00     0.017 C 
HETATM   17  C24 UNL     1      -7.198  46.911 -22.953  1.00  0.00    -0.031 C 
HETATM   18  C25 UNL     1      -8.007  47.472 -21.759  1.00  0.00     0.016 C 
HETATM   19  C26 UNL     1      -5.921  47.805 -23.239  1.00  0.00     0.024 C 
HETATM   20  C27 UNL     1      -6.224  49.287 -23.565  1.00  0.00     0.010 C 
HETATM   21  C28 UNL     1      -4.986  50.167 -23.862  1.00  0.00     0.011 C 
HETATM   22  C29 UNL     1      -3.646  49.597 -23.346  1.00  0.00    -0.029 C 
HETATM   23  C30 UNL     1      -3.022  48.689 -24.455  1.00  0.00     0.016 C 
ENDROOT
BRANCH   1  24
HETATM   24  C7  UNL     1      -1.743  51.410 -24.004  1.00  0.00    -0.014 C 
HETATM   25  C8  UNL     1      -2.508  52.615 -24.562  1.00  0.00     0.010 C 
BRANCH  24  26
HETATM   26  C6  UNL     1      -0.381  51.872 -23.411  1.00  0.00     0.008 C 
BRANCH  26  27
HETATM   27  C5  UNL     1       0.598  52.529 -24.397  1.00  0.00     0.028 C 
BRANCH  27  28
HETATM   28  C4  UNL     1       0.271  52.226 -25.834  1.00  0.00    -0.025 C 
HETATM   29  C2  UNL     1       1.094  51.774 -26.801  1.00  0.00    -0.091 C 
HETATM   30  C1  UNL     1       2.556  51.463 -26.634  1.00  0.00     0.042 C 
HETATM   31  C3  UNL     1       0.574  51.539 -28.196  1.00  0.00     0.042 C 
ENDBRANCH  27  28
ENDBRANCH  26  27
ENDBRANCH  24  26
ENDBRANCH   1  24
TORSDOF 4
ENDMDL
MODEL 8
REMARK minimizedAffinity -8.44193745
REMARK  4 active torsions:
REMARK  status: ('A' for Active; 'I' for Inactive)
REMARK    1  A    between atoms: C4_4  and  C5_5 
REMARK    2  A    between atoms: C5_5  and  C6_6 
REMARK    3  A    between atoms: C6_6  and  C7_7 
REMARK    4  A    between atoms: C7_7  and  C9_9 
ROOT
HETATM    1  C9  UNL     1      -5.414  48.150 -20.581  1.00  0.00    -0.002 C 
HETATM    2  C10 UNL     1      -5.899  47.248 -21.757  1.00  0.00     0.007 C 
HETATM    3  C11 UNL     1      -5.225  47.760 -23.044  1.00  0.00     0.015 C 
HETATM    4  C12 UNL     1      -4.632  49.129 -22.656  1.00  0.00    -0.013 C 
HETATM    5  C13 UNL     1      -5.807  50.154 -22.773  1.00  0.00     0.021 C 
HETATM    6  C14 UNL     1      -3.497  49.687 -23.508  1.00  0.00    -0.070 C 
HETATM    7  C15 UNL     1      -3.405  49.448 -24.829  1.00  0.00    -0.022 C 
HETATM    8  C16 UNL     1      -2.384  50.063 -25.735  1.00  0.00     0.034 C 
HETATM    9  C17 UNL     1      -1.254  50.839 -25.020  1.00  0.00     0.013 C 
HETATM   10  C18 UNL     1      -0.359  51.667 -26.015  1.00  0.00     0.018 C 
HETATM   11  C19 UNL     1      -1.123  52.314 -27.187  1.00  0.00     0.023 C 
HETATM   12  C20 UNL     1       0.717  50.744 -26.627  1.00  0.00     0.023 C 
HETATM   13  C21 UNL     1       0.388  52.762 -25.245  1.00  0.00     0.135 C 
HETATM   14  O1  UNL     1       0.789  53.796 -25.778  1.00  0.00    -0.297 OA
HETATM   15  C22 UNL     1       0.689  52.477 -23.801  1.00  0.00     0.080 C 
HETATM   16  C23 UNL     1      -0.587  52.288 -22.996  1.00  0.00     0.017 C 
HETATM   17  C24 UNL     1      -1.781  51.629 -23.762  1.00  0.00    -0.031 C 
HETATM   18  C25 UNL     1      -2.768  52.748 -24.172  1.00  0.00     0.016 C 
HETATM   19  C26 UNL     1      -2.481  50.583 -22.798  1.00  0.00     0.024 C 
HETATM   20  C27 UNL     1      -3.042  51.183 -21.487  1.00  0.00     0.010 C 
HETATM   21  C28 UNL     1      -3.714  50.169 -20.530  1.00  0.00     0.011 C 
HETATM   22  C29 UNL     1      -4.147  48.840 -21.190  1.00  0.00    -0.029 C 
HETATM   23  C30 UNL     1      -2.959  47.827 -21.114  1.00  0.00     0.016 C 
ENDROOT
BRANCH   1  24
HETATM   24  C7  UNL     1      -5.307  47.362 -19.239  1.00  0.00    -0.014 C 
HETATM   25  C8  UNL     1      -5.407  48.290 -18.023  1.00  0.00     0.010 C 
BRANCH  24  26
HETATM   26  C6  UNL     1      -6.416  46.273 -19.170  1.00  0.00     0.008 C 
BRANCH  26  27
HETATM   27  C5  UNL     1      -7.512  46.489 -18.115  1.00  0.00     0.028 C 
BRANCH  27  28
HETATM   28  C4  UNL     1      -8.839  46.860 -18.720  1.00  0.00    -0.025 C 
HETATM   29  C2  UNL     1      -9.450  48.061 -18.724  1.00  0.00    -0.091 C 
HETATM   30  C1  UNL     1      -8.907  49.323 -18.110  1.00  0.00     0.042 C 
HETATM   31  C3  UNL     1     -10.796  48.231 -19.381  1.00  0.00     0.042 C 
ENDBRANCH  27  28
ENDBRANCH  26  27
ENDBRANCH  24  26
ENDBRANCH   1  24
TORSDOF 4
ENDMDL
MODEL 9
REMARK minimizedAffinity -8.43900871
REMARK  4 active torsions:
REMARK  status: ('A' for Active; 'I' for Inactive)
REMARK    1  A    between atoms: C4_4  and  C5_5 
REMARK    2  A    between atoms: C5_5  and  C6_6 
REMARK    3  A    between atoms: C6_6  and  C7_7 
REMARK    4  A    between atoms: C7_7  and  C9_9 
ROOT
HETATM    1  C9  UNL     1      -3.343  47.863 -19.792  1.00  0.00    -0.002 C 
HETATM    2  C10 UNL     1      -3.968  46.855 -20.804  1.00  0.00     0.007 C 
HETATM    3  C11 UNL     1      -3.767  47.431 -22.218  1.00  0.00     0.015 C 
HETATM    4  C12 UNL     1      -3.334  48.892 -21.987  1.00  0.00    -0.013 C 
HETATM    5  C13 UNL     1      -4.653  49.701 -21.762  1.00  0.00     0.021 C 
HETATM    6  C14 UNL     1      -2.585  49.607 -23.108  1.00  0.00    -0.070 C 
HETATM    7  C15 UNL     1      -2.816  49.344 -24.407  1.00  0.00    -0.022 C 
HETATM    8  C16 UNL     1      -2.200  50.093 -25.547  1.00  0.00     0.034 C 
HETATM    9  C17 UNL     1      -1.069  51.071 -25.156  1.00  0.00     0.013 C 
HETATM   10  C18 UNL     1      -0.633  52.005 -26.345  1.00  0.00     0.018 C 
HETATM   11  C19 UNL     1      -1.785  52.476 -27.255  1.00  0.00     0.023 C 
HETATM   12  C20 UNL     1       0.378  51.258 -27.242  1.00  0.00     0.023 C 
HETATM   13  C21 UNL     1       0.097  53.235 -25.792  1.00  0.00     0.135 C 
HETATM   14  O1  UNL     1       0.155  54.303 -26.398  1.00  0.00    -0.297 OA
HETATM   15  C22 UNL     1       0.823  53.051 -24.489  1.00  0.00     0.080 C 
HETATM   16  C23 UNL     1      -0.135  52.676 -23.370  1.00  0.00     0.017 C 
HETATM   17  C24 UNL     1      -1.361  51.801 -23.790  1.00  0.00    -0.031 C 
HETATM   18  C25 UNL     1      -2.599  52.724 -23.898  1.00  0.00     0.016 C 
HETATM   19  C26 UNL     1      -1.583  50.684 -22.689  1.00  0.00     0.024 C 
HETATM   20  C27 UNL     1      -1.861  51.222 -21.264  1.00  0.00     0.010 C 
HETATM   21  C28 UNL     1      -2.065  50.140 -20.176  1.00  0.00     0.011 C 
HETATM   22  C29 UNL     1      -2.426  48.737 -20.713  1.00  0.00    -0.029 C 
HETATM   23  C30 UNL     1      -1.108  47.942 -20.980  1.00  0.00     0.016 C 
ENDROOT
BRANCH   1  24
HETATM   24  C7  UNL     1      -2.743  47.148 -18.542  1.00  0.00    -0.014 C 
HETATM   25  C8  UNL     1      -2.338  48.147 -17.453  1.00  0.00     0.010 C 
BRANCH  24  26
HETATM   26  C6  UNL     1      -3.766  46.124 -17.971  1.00  0.00     0.008 C 
BRANCH  26  27
HETATM   27  C5  UNL     1      -4.804  46.682 -16.986  1.00  0.00     0.028 C 
BRANCH  27  28
HETATM   28  C4  UNL     1      -5.710  47.708 -17.610  1.00  0.00    -0.025 C 
HETATM   29  C2  UNL     1      -6.777  47.506 -18.408  1.00  0.00    -0.091 C 
HETATM   30  C1  UNL     1      -7.302  46.166 -18.847  1.00  0.00     0.042 C 
HETATM   31  C3  UNL     1      -7.559  48.676 -18.947  1.00  0.00     0.042 C 
ENDBRANCH  27  28
ENDBRANCH  26  27
ENDBRANCH  24  26
ENDBRANCH   1  24
TORSDOF 4
ENDMDL
