MODEL 1
REMARK minimizedAffinity -7.19095373
REMARK CNNscore 0.319162965
REMARK CNNaffinity 6.44796133
REMARK  13 active torsions:
REMARK  status: ('A' for Active; 'I' for Inactive)
REMARK    1  A    between atoms: C3_3  and  C4_4 
REMARK    2  A    between atoms: C5_6  and  O2_7 
REMARK    3  A    between atoms: C5_6  and  C6_8 
REMARK    4  A    between atoms: C6_8  and  C8_10 
REMARK    5  A    between atoms: C8_10  and  O3_11 
REMARK    6  A    between atoms: C8_10  and  C9_12 
REMARK    7  A    between atoms: C9_12  and  C11_14 
REMARK    8  A    between atoms: C12_15  and  O4_16 
REMARK    9  A    between atoms: C22_26  and  O5_27 
REMARK   10  A    between atoms: C23_28  and  C24_29 
REMARK   11  A    between atoms: C26_31  and  O6_32 
REMARK   12  A    between atoms: C33_39  and  O7_40 
REMARK   13  A    between atoms: C39_48  and  O10_49 
ROOT
HETATM    1  C11 UNL     1     -13.038  10.965  20.686  1.00  0.00     0.032 C 
HETATM    2  C12 UNL     1     -11.690  11.149  19.886  1.00  0.00     0.154 C 
HETATM    3  C14 UNL     1     -11.513  10.087  18.800  1.00  0.00    -0.051 C 
HETATM    4  C15 UNL     1     -11.149  10.331  17.523  1.00  0.00     0.006 C 
HETATM    5  C16 UNL     1     -11.033   9.364  16.451  1.00  0.00     0.003 C 
HETATM    6  C17 UNL     1     -10.708   9.615  15.165  1.00  0.00    -0.083 C 
HETATM    7  C18 UNL     1     -10.366  10.972  14.611  1.00  0.00     0.043 C 
HETATM    8  C19 UNL     1     -10.583   8.452  14.193  1.00  0.00     0.040 C 
HETATM    9  C20 UNL     1     -11.788   8.154  13.260  1.00  0.00     0.014 C 
HETATM   10  C21 UNL     1     -11.959   9.260  12.218  1.00  0.00     0.012 C 
HETATM   11  C22 UNL     1     -13.095   7.793  14.038  1.00  0.00     0.128 C 
HETATM   12  C23 UNL     1     -14.255   7.248  13.127  1.00  0.00     0.044 C 
HETATM   13  C26 UNL     1     -15.141   8.382  12.507  1.00  0.00     0.132 C 
HETATM   14  C27 UNL     1     -16.346   8.906  13.347  1.00  0.00     0.034 C 
HETATM   15  C28 UNL     1     -17.178   9.912  12.536  1.00  0.00     0.017 C 
HETATM   16  C29 UNL     1     -15.920   9.590  14.626  1.00  0.00    -0.013 C 
HETATM   17  C30 UNL     1     -16.361   9.369  15.883  1.00  0.00    -0.062 C 
HETATM   18  C31 UNL     1     -17.447   8.385  16.228  1.00  0.00     0.048 C 
HETATM   19  C32 UNL     1     -15.761  10.153  16.967  1.00  0.00     0.047 C 
HETATM   20  C33 UNL     1     -15.843   9.984  18.303  1.00  0.00     0.123 C 
HETATM   21  C35 UNL     1     -15.006  10.777  19.197  1.00  0.00     0.257 C 
HETATM   22  O8  UNL     1     -15.520  11.855  19.587  1.00  0.00    -0.281 OA
HETATM   23  O9  UNL     1     -13.955  10.130  19.931  1.00  0.00     0.000 OA
HETATM   24  C36 UNL     1     -13.483   8.852  19.470  1.00  0.00     0.005 C 
HETATM   25  C37 UNL     1     -11.970   8.758  19.325  1.00  0.00     0.037 C 
ENDROOT
BRANCH   1  26
HETATM   26  C9  UNL     1     -12.866  10.403  22.154  1.00  0.00     0.018 C 
HETATM   27  C10 UNL     1     -11.428  10.637  22.702  1.00  0.00     0.013 C 
BRANCH  26  28
HETATM   28  C8  UNL     1     -13.126   8.862  22.291  1.00  0.00     0.131 C 
BRANCH  28  29
HETATM   29  C6  UNL     1     -14.185   8.373  23.319  1.00  0.00     0.073 C 
HETATM   30  C7  UNL     1     -13.734   8.677  24.754  1.00  0.00     0.018 C 
BRANCH  29  31
HETATM   31  C5  UNL     1     -14.514   6.850  23.121  1.00  0.00     0.170 C 
HETATM   32  O1  UNL     1     -13.549   6.081  23.848  1.00  0.00    -0.345 OA
HETATM   33  C4  UNL     1     -13.960   4.729  24.062  1.00  0.00     0.153 C 
HETATM   34  C40 UNL     1     -15.098   4.696  25.106  1.00  0.00     0.043 C 
HETATM   35  C39 UNL     1     -16.041   5.899  24.919  1.00  0.00     0.129 C 
HETATM   36  C41 UNL     1     -14.604   4.692  26.561  1.00  0.00     0.015 C 
HETATM   37  C38 UNL     1     -15.961   6.486  23.514  1.00  0.00     0.101 C 
BRANCH  33  38
HETATM   38  C3  UNL     1     -12.784   3.848  24.406  1.00  0.00     0.001 C 
HETATM   39  C2  UNL     1     -12.675   2.523  24.207  1.00  0.00    -0.033 C 
HETATM   40  C1  UNL     1     -11.472   1.718  24.581  1.00  0.00     0.036 C 
ENDBRANCH  33  38
BRANCH  35  41
HETATM   41  O10 UNL     1     -17.381   5.468  25.172  1.00  0.00    -0.395 OA
HETATM   42  H63 UNL     1     -17.940   6.260  25.242  1.00  0.00     0.210 HD
ENDBRANCH  35  41
BRANCH  31  43
HETATM   43  O2  UNL     1     -14.345   6.611  21.725  1.00  0.00    -0.365 OA
HETATM   44  H7  UNL     1     -14.796   5.787  21.483  1.00  0.00     0.213 HD
ENDBRANCH  31  43
ENDBRANCH  29  31
ENDBRANCH  28  29
BRANCH  28  45
HETATM   45  O3  UNL     1     -11.869   8.260  22.638  1.00  0.00    -0.395 OA
HETATM   46  H13 UNL     1     -12.037   7.295  22.665  1.00  0.00     0.210 HD
ENDBRANCH  28  45
ENDBRANCH  26  28
ENDBRANCH   1  26
BRANCH   2  47
HETATM   47  O4  UNL     1     -11.643  12.466  19.323  1.00  0.00    -0.386 OA
HETATM   48  C13 UNL     1     -12.347  13.448  20.074  1.00  0.00     0.202 C 
ENDBRANCH   2  47
BRANCH  20  49
HETATM   49  O7  UNL     1     -16.506   8.916  18.889  1.00  0.00    -0.352 OA
HETATM   50  C34 UNL     1     -17.591   9.373  19.700  1.00  0.00     0.210 C 
ENDBRANCH  20  49
BRANCH  11  51
HETATM   51  O5  UNL     1     -12.734   6.799  15.012  1.00  0.00    -0.395 OA
HETATM   52  H35 UNL     1     -12.377   6.031  14.530  1.00  0.00     0.210 HD
ENDBRANCH  11  51
BRANCH  13  53
HETATM   53  O6  UNL     1     -15.647   7.904  11.247  1.00  0.00    -0.394 OA
HETATM   54  H43 UNL     1     -14.888   7.765  10.656  1.00  0.00     0.210 HD
ENDBRANCH  13  53
BRANCH  12  55
HETATM   55  C24 UNL     1     -15.083   6.122  13.811  1.00  0.00     0.005 C 
HETATM   56  C25 UNL     1     -14.978   6.088  15.331  1.00  0.00     0.005 C 
ENDBRANCH  12  55
TORSDOF 13
ENDMDL
MODEL 2
REMARK minimizedAffinity -7.80576849
REMARK CNNscore 0.281321168
REMARK CNNaffinity 6.61233377
REMARK  13 active torsions:
REMARK  status: ('A' for Active; 'I' for Inactive)
REMARK    1  A    between atoms: C3_3  and  C4_4 
REMARK    2  A    between atoms: C5_6  and  O2_7 
REMARK    3  A    between atoms: C5_6  and  C6_8 
REMARK    4  A    between atoms: C6_8  and  C8_10 
REMARK    5  A    between atoms: C8_10  and  O3_11 
REMARK    6  A    between atoms: C8_10  and  C9_12 
REMARK    7  A    between atoms: C9_12  and  C11_14 
REMARK    8  A    between atoms: C12_15  and  O4_16 
REMARK    9  A    between atoms: C22_26  and  O5_27 
REMARK   10  A    between atoms: C23_28  and  C24_29 
REMARK   11  A    between atoms: C26_31  and  O6_32 
REMARK   12  A    between atoms: C33_39  and  O7_40 
REMARK   13  A    between atoms: C39_48  and  O10_49 
ROOT
HETATM    1  C11 UNL     1       0.795  10.838  16.122  1.00  0.00     0.032 C 
HETATM    2  C12 UNL     1       0.733  12.349  15.668  1.00  0.00     0.154 C 
HETATM    3  C14 UNL     1       0.580  13.303  16.853  1.00  0.00    -0.051 C 
HETATM    4  C15 UNL     1       1.307  14.423  17.050  1.00  0.00     0.006 C 
HETATM    5  C16 UNL     1       1.238  15.316  18.189  1.00  0.00     0.003 C 
HETATM    6  C17 UNL     1       1.994  16.413  18.404  1.00  0.00    -0.083 C 
HETATM    7  C18 UNL     1       3.044  16.937  17.462  1.00  0.00     0.043 C 
HETATM    8  C19 UNL     1       1.733  17.260  19.641  1.00  0.00     0.040 C 
HETATM    9  C20 UNL     1       2.657  17.050  20.872  1.00  0.00     0.014 C 
HETATM   10  C21 UNL     1       4.072  17.555  20.586  1.00  0.00     0.012 C 
HETATM   11  C22 UNL     1       2.595  15.598  21.449  1.00  0.00     0.128 C 
HETATM   12  C23 UNL     1       3.322  15.424  22.832  1.00  0.00     0.044 C 
HETATM   13  C26 UNL     1       4.853  15.120  22.693  1.00  0.00     0.132 C 
HETATM   14  C27 UNL     1       5.289  13.632  22.529  1.00  0.00     0.034 C 
HETATM   15  C28 UNL     1       6.821  13.509  22.543  1.00  0.00     0.017 C 
HETATM   16  C29 UNL     1       4.791  13.012  21.243  1.00  0.00    -0.013 C 
HETATM   17  C30 UNL     1       4.128  11.848  21.074  1.00  0.00    -0.062 C 
HETATM   18  C31 UNL     1       3.802  10.900  22.198  1.00  0.00     0.048 C 
HETATM   19  C32 UNL     1       3.727  11.478  19.713  1.00  0.00     0.047 C 
HETATM   20  C33 UNL     1       2.879  10.517  19.294  1.00  0.00     0.123 C 
HETATM   21  C35 UNL     1       2.480  10.449  17.892  1.00  0.00     0.257 C 
HETATM   22  O8  UNL     1       3.209   9.726  17.168  1.00  0.00    -0.281 OA
HETATM   23  O9  UNL     1       1.124  10.756  17.533  1.00  0.00     0.000 OA
HETATM   24  C36 UNL     1       0.324  11.512  18.460  1.00  0.00     0.005 C 
HETATM   25  C37 UNL     1      -0.379  12.714  17.844  1.00  0.00     0.037 C 
ENDROOT
BRANCH   1  26
HETATM   26  C9  UNL     1      -0.510  10.000  15.812  1.00  0.00     0.018 C 
HETATM   27  C10 UNL     1      -1.244   9.563  17.114  1.00  0.00     0.013 C 
BRANCH  26  28
HETATM   28  C8  UNL     1      -0.254   8.680  15.006  1.00  0.00     0.131 C 
BRANCH  28  29
HETATM   29  C6  UNL     1      -1.333   8.200  13.996  1.00  0.00     0.073 C 
HETATM   30  C7  UNL     1      -2.496   9.199  13.925  1.00  0.00     0.018 C 
BRANCH  29  31
HETATM   31  C5  UNL     1      -1.830   6.748  14.334  1.00  0.00     0.170 C 
HETATM   32  O1  UNL     1      -3.032   6.500  13.596  1.00  0.00    -0.345 OA
HETATM   33  C4  UNL     1      -3.360   5.111  13.517  1.00  0.00     0.153 C 
HETATM   34  C40 UNL     1      -2.370   4.401  12.568  1.00  0.00     0.043 C 
HETATM   35  C39 UNL     1      -0.952   4.977  12.734  1.00  0.00     0.129 C 
HETATM   36  C41 UNL     1      -2.759   4.496  11.084  1.00  0.00     0.015 C 
HETATM   37  C38 UNL     1      -0.759   5.666  14.080  1.00  0.00     0.101 C 
BRANCH  33  38
HETATM   38  C3  UNL     1      -4.811   4.913  13.153  1.00  0.00     0.001 C 
HETATM   39  C2  UNL     1      -5.407   3.765  12.784  1.00  0.00    -0.033 C 
HETATM   40  C1  UNL     1      -6.856   3.651  12.434  1.00  0.00     0.036 C 
ENDBRANCH  33  38
BRANCH  35  41
HETATM   41  O10 UNL     1      -0.010   3.906  12.616  1.00  0.00    -0.395 OA
HETATM   42  H63 UNL     1       0.874   4.296  12.529  1.00  0.00     0.210 HD
ENDBRANCH  35  41
BRANCH  31  43
HETATM   43  O2  UNL     1      -2.134   6.774  15.727  1.00  0.00    -0.365 OA
HETATM   44  H7  UNL     1      -2.171   5.866  16.064  1.00  0.00     0.213 HD
ENDBRANCH  31  43
ENDBRANCH  29  31
ENDBRANCH  28  29
BRANCH  28  45
HETATM   45  O3  UNL     1      -0.066   7.634  15.974  1.00  0.00    -0.395 OA
HETATM   46  H13 UNL     1       0.147   6.831  15.457  1.00  0.00     0.210 HD
ENDBRANCH  28  45
ENDBRANCH  26  28
ENDBRANCH   1  26
BRANCH   2  47
HETATM   47  O4  UNL     1       1.904  12.668  14.905  1.00  0.00    -0.386 OA
HETATM   48  C13 UNL     1       2.568  11.537  14.353  1.00  0.00     0.202 C 
ENDBRANCH   2  47
BRANCH  20  49
HETATM   49  O7  UNL     1       2.154   9.717  20.164  1.00  0.00    -0.352 OA
HETATM   50  C34 UNL     1       1.134  10.473  20.822  1.00  0.00     0.210 C 
ENDBRANCH  20  49
BRANCH  11  51
HETATM   51  O5  UNL     1       1.203  15.268  21.586  1.00  0.00    -0.395 OA
HETATM   52  H35 UNL     1       0.806  15.916  22.196  1.00  0.00     0.210 HD
ENDBRANCH  11  51
BRANCH  13  53
HETATM   53  O6  UNL     1       5.514  15.654  23.855  1.00  0.00    -0.394 OA
HETATM   54  H43 UNL     1       5.400  16.620  23.844  1.00  0.00     0.210 HD
ENDBRANCH  13  53
BRANCH  12  55
HETATM   55  C24 UNL     1       2.582  14.443  23.785  1.00  0.00     0.005 C 
HETATM   56  C25 UNL     1       2.000  15.088  25.037  1.00  0.00     0.005 C 
ENDBRANCH  12  55
TORSDOF 13
ENDMDL
MODEL 3
REMARK minimizedAffinity -7.82115078
REMARK CNNscore 0.261524647
REMARK CNNaffinity 6.62107706
REMARK  13 active torsions:
REMARK  status: ('A' for Active; 'I' for Inactive)
REMARK    1  A    between atoms: C3_3  and  C4_4 
REMARK    2  A    between atoms: C5_6  and  O2_7 
REMARK    3  A    between atoms: C5_6  and  C6_8 
REMARK    4  A    between atoms: C6_8  and  C8_10 
REMARK    5  A    between atoms: C8_10  and  O3_11 
REMARK    6  A    between atoms: C8_10  and  C9_12 
REMARK    7  A    between atoms: C9_12  and  C11_14 
REMARK    8  A    between atoms: C12_15  and  O4_16 
REMARK    9  A    between atoms: C22_26  and  O5_27 
REMARK   10  A    between atoms: C23_28  and  C24_29 
REMARK   11  A    between atoms: C26_31  and  O6_32 
REMARK   12  A    between atoms: C33_39  and  O7_40 
REMARK   13  A    between atoms: C39_48  and  O10_49 
ROOT
HETATM    1  C11 UNL     1       7.184   9.892  15.346  1.00  0.00     0.032 C 
HETATM    2  C12 UNL     1       7.246  10.420  16.833  1.00  0.00     0.154 C 
HETATM    3  C14 UNL     1       8.662  10.361  17.408  1.00  0.00    -0.051 C 
HETATM    4  C15 UNL     1       9.274  11.362  18.075  1.00  0.00     0.006 C 
HETATM    5  C16 UNL     1      10.632  11.370  18.578  1.00  0.00     0.003 C 
HETATM    6  C17 UNL     1      11.257  12.387  19.209  1.00  0.00    -0.083 C 
HETATM    7  C18 UNL     1      10.627  13.713  19.542  1.00  0.00     0.043 C 
HETATM    8  C19 UNL     1      12.677  12.182  19.716  1.00  0.00     0.040 C 
HETATM    9  C20 UNL     1      13.842  12.727  18.846  1.00  0.00     0.014 C 
HETATM   10  C21 UNL     1      13.855  14.256  18.845  1.00  0.00     0.012 C 
HETATM   11  C22 UNL     1      13.905  12.081  17.424  1.00  0.00     0.128 C 
HETATM   12  C23 UNL     1      15.210  12.426  16.618  1.00  0.00     0.044 C 
HETATM   13  C26 UNL     1      15.105  13.768  15.816  1.00  0.00     0.132 C 
HETATM   14  C27 UNL     1      14.499  13.714  14.380  1.00  0.00     0.034 C 
HETATM   15  C28 UNL     1      14.599  15.086  13.695  1.00  0.00     0.017 C 
HETATM   16  C29 UNL     1      13.045  13.301  14.370  1.00  0.00    -0.013 C 
HETATM   17  C30 UNL     1      12.451  12.339  13.633  1.00  0.00    -0.062 C 
HETATM   18  C31 UNL     1      13.172  11.507  12.606  1.00  0.00     0.048 C 
HETATM   19  C32 UNL     1      11.016  12.112  13.830  1.00  0.00     0.047 C 
HETATM   20  C33 UNL     1      10.237  11.094  13.410  1.00  0.00     0.123 C 
HETATM   21  C35 UNL     1       8.862  10.977  13.885  1.00  0.00     0.257 C 
HETATM   22  O8  UNL     1       8.003  11.554  13.172  1.00  0.00    -0.281 OA
HETATM   23  O9  UNL     1       8.513   9.894  14.762  1.00  0.00     0.000 OA
HETATM   24  C36 UNL     1       9.567   9.223  15.474  1.00  0.00     0.005 C 
HETATM   25  C37 UNL     1       9.323   9.088  16.972  1.00  0.00     0.037 C 
ENDROOT
BRANCH   1  26
HETATM   26  C9  UNL     1       6.511   8.471  15.175  1.00  0.00     0.018 C 
HETATM   27  C10 UNL     1       7.434   7.478  14.410  1.00  0.00     0.013 C 
BRANCH  26  28
HETATM   28  C8  UNL     1       5.158   8.489  14.384  1.00  0.00     0.131 C 
BRANCH  28  29
HETATM   29  C6  UNL     1       5.160   8.055  12.891  1.00  0.00     0.073 C 
HETATM   30  C7  UNL     1       6.291   8.752  12.122  1.00  0.00     0.018 C 
BRANCH  29  31
HETATM   31  C5  UNL     1       3.761   8.300  12.221  1.00  0.00     0.170 C 
HETATM   32  O1  UNL     1       3.708   7.550  11.002  1.00  0.00    -0.345 OA
HETATM   33  C4  UNL     1       2.377   7.383  10.508  1.00  0.00     0.153 C 
HETATM   34  C40 UNL     1       1.614   6.388  11.410  1.00  0.00     0.043 C 
HETATM   35  C39 UNL     1       2.002   6.587  12.887  1.00  0.00     0.129 C 
HETATM   36  C41 UNL     1       1.850   4.914  11.044  1.00  0.00     0.015 C 
HETATM   37  C38 UNL     1       2.576   7.974  13.154  1.00  0.00     0.101 C 
BRANCH  33  38
HETATM   38  C3  UNL     1       2.379   7.010   9.046  1.00  0.00     0.001 C 
HETATM   39  C2  UNL     1       1.810   7.688   8.034  1.00  0.00    -0.033 C 
HETATM   40  C1  UNL     1       1.854   7.248   6.605  1.00  0.00     0.036 C 
ENDBRANCH  33  38
BRANCH  35  41
HETATM   41  O10 UNL     1       0.835   6.399  13.692  1.00  0.00    -0.395 OA
HETATM   42  H63 UNL     1       1.120   6.335  14.618  1.00  0.00     0.210 HD
ENDBRANCH  35  41
BRANCH  31  43
HETATM   43  O2  UNL     1       3.734   9.693  11.914  1.00  0.00    -0.365 OA
HETATM   44  H7  UNL     1       2.817   9.970  11.766  1.00  0.00     0.213 HD
ENDBRANCH  31  43
ENDBRANCH  29  31
ENDBRANCH  28  29
BRANCH  28  45
HETATM   45  O3  UNL     1       4.659   9.835  14.447  1.00  0.00    -0.395 OA
HETATM   46  H13 UNL     1       3.790   9.816  13.997  1.00  0.00     0.210 HD
ENDBRANCH  28  45
ENDBRANCH  26  28
ENDBRANCH   1  26
BRANCH   2  47
HETATM   47  O4  UNL     1       6.729  11.755  16.889  1.00  0.00    -0.386 OA
HETATM   48  C13 UNL     1       5.623  11.918  17.769  1.00  0.00     0.202 C 
ENDBRANCH   2  47
BRANCH  20  49
HETATM   49  O7  UNL     1      10.734   9.992  12.732  1.00  0.00    -0.352 OA
HETATM   50  C34 UNL     1      11.446   9.126  13.620  1.00  0.00     0.210 C 
ENDBRANCH  20  49
BRANCH  11  51
HETATM   51  O5  UNL     1      13.811  10.659  17.613  1.00  0.00    -0.395 OA
HETATM   52  H35 UNL     1      14.565  10.386  18.168  1.00  0.00     0.210 HD
ENDBRANCH  11  51
BRANCH  13  53
HETATM   53  O6  UNL     1      16.429  14.327  15.722  1.00  0.00    -0.394 OA
HETATM   54  H43 UNL     1      16.725  14.542  16.624  1.00  0.00     0.210 HD
ENDBRANCH  13  53
BRANCH  12  55
HETATM   55  C24 UNL     1      15.724  11.234  15.762  1.00  0.00     0.005 C 
HETATM   56  C25 UNL     1      17.227  11.236  15.504  1.00  0.00     0.005 C 
ENDBRANCH  12  55
TORSDOF 13
ENDMDL
MODEL 4
REMARK minimizedAffinity -9.77067471
REMARK CNNscore 0.239236131
REMARK CNNaffinity 7.17819738
REMARK  13 active torsions:
REMARK  status: ('A' for Active; 'I' for Inactive)
REMARK    1  A    between atoms: C3_3  and  C4_4 
REMARK    2  A    between atoms: C5_6  and  O2_7 
REMARK    3  A    between atoms: C5_6  and  C6_8 
REMARK    4  A    between atoms: C6_8  and  C8_10 
REMARK    5  A    between atoms: C8_10  and  O3_11 
REMARK    6  A    between atoms: C8_10  and  C9_12 
REMARK    7  A    between atoms: C9_12  and  C11_14 
REMARK    8  A    between atoms: C12_15  and  O4_16 
REMARK    9  A    between atoms: C22_26  and  O5_27 
REMARK   10  A    between atoms: C23_28  and  C24_29 
REMARK   11  A    between atoms: C26_31  and  O6_32 
REMARK   12  A    between atoms: C33_39  and  O7_40 
REMARK   13  A    between atoms: C39_48  and  O10_49 
ROOT
HETATM    1  C11 UNL     1      -2.016   8.279  15.097  1.00  0.00     0.032 C 
HETATM    2  C12 UNL     1      -2.190   7.167  13.990  1.00  0.00     0.154 C 
HETATM    3  C14 UNL     1      -1.262   7.391  12.795  1.00  0.00    -0.051 C 
HETATM    4  C15 UNL     1      -0.492   6.445  12.218  1.00  0.00     0.006 C 
HETATM    5  C16 UNL     1       0.446   6.630  11.129  1.00  0.00     0.003 C 
HETATM    6  C17 UNL     1       1.245   5.692  10.580  1.00  0.00    -0.083 C 
HETATM    7  C18 UNL     1       1.281   4.243  10.986  1.00  0.00     0.043 C 
HETATM    8  C19 UNL     1       2.127   6.070   9.399  1.00  0.00     0.040 C 
HETATM    9  C20 UNL     1       3.620   6.393   9.684  1.00  0.00     0.014 C 
HETATM   10  C21 UNL     1       4.382   5.135  10.100  1.00  0.00     0.012 C 
HETATM   11  C22 UNL     1       3.814   7.613  10.643  1.00  0.00     0.128 C 
HETATM   12  C23 UNL     1       5.300   8.115  10.750  1.00  0.00     0.044 C 
HETATM   13  C26 UNL     1       6.136   7.349  11.831  1.00  0.00     0.132 C 
HETATM   14  C27 UNL     1       6.087   7.875  13.299  1.00  0.00     0.034 C 
HETATM   15  C28 UNL     1       7.064   7.093  14.191  1.00  0.00     0.017 C 
HETATM   16  C29 UNL     1       4.712   7.763  13.918  1.00  0.00    -0.013 C 
HETATM   17  C30 UNL     1       3.999   8.716  14.555  1.00  0.00    -0.062 C 
HETATM   18  C31 UNL     1       4.505  10.110  14.810  1.00  0.00     0.048 C 
HETATM   19  C32 UNL     1       2.664   8.360  15.045  1.00  0.00     0.047 C 
HETATM   20  C33 UNL     1       1.670   9.152  15.499  1.00  0.00     0.123 C 
HETATM   21  C35 UNL     1       0.348   8.594  15.761  1.00  0.00     0.257 C 
HETATM   22  O8  UNL     1       0.170   8.181  16.934  1.00  0.00    -0.281 OA
HETATM   23  O9  UNL     1      -0.752   8.968  14.916  1.00  0.00     0.000 OA
HETATM   24  C36 UNL     1      -0.462   9.521  13.619  1.00  0.00     0.005 C 
HETATM   25  C37 UNL     1      -1.212   8.855  12.473  1.00  0.00     0.037 C 
ENDROOT
BRANCH   1  26
HETATM   26  C9  UNL     1      -3.203   9.320  15.181  1.00  0.00     0.018 C 
HETATM   27  C10 UNL     1      -3.052  10.278  16.399  1.00  0.00     0.013 C 
BRANCH  26  28
HETATM   28  C8  UNL     1      -4.623   8.671  15.324  1.00  0.00     0.131 C 
BRANCH  28  29
HETATM   29  C6  UNL     1      -5.059   7.594  14.292  1.00  0.00     0.073 C 
HETATM   30  C7  UNL     1      -5.287   8.222  12.911  1.00  0.00     0.018 C 
BRANCH  29  31
HETATM   31  C5  UNL     1      -6.321   6.801  14.789  1.00  0.00     0.170 C 
HETATM   32  O1  UNL     1      -7.489   7.423  14.242  1.00  0.00    -0.345 OA
HETATM   33  C4  UNL     1      -8.645   6.586  14.300  1.00  0.00     0.153 C 
HETATM   34  C40 UNL     1      -8.505   5.442  13.272  1.00  0.00     0.043 C 
HETATM   35  C39 UNL     1      -7.048   4.950  13.203  1.00  0.00     0.129 C 
HETATM   36  C41 UNL     1      -8.953   5.826  11.853  1.00  0.00     0.015 C 
HETATM   37  C38 UNL     1      -6.259   5.295  14.462  1.00  0.00     0.101 C 
BRANCH  33  38
HETATM   38  C3  UNL     1      -9.912   7.393  14.154  1.00  0.00     0.001 C 
HETATM   39  C2  UNL     1     -11.145   7.053  14.569  1.00  0.00    -0.033 C 
HETATM   40  C1  UNL     1     -12.355   7.910  14.382  1.00  0.00     0.036 C 
ENDBRANCH  33  38
BRANCH  35  41
HETATM   41  O10 UNL     1      -7.055   3.531  13.027  1.00  0.00    -0.395 OA
HETATM   42  H63 UNL     1      -6.154   3.256  12.793  1.00  0.00     0.210 HD
ENDBRANCH  35  41
BRANCH  31  43
HETATM   43  O2  UNL     1      -6.326   6.962  16.207  1.00  0.00    -0.365 OA
HETATM   44  H7  UNL     1      -6.893   6.283  16.604  1.00  0.00     0.213 HD
ENDBRANCH  31  43
ENDBRANCH  29  31
ENDBRANCH  28  29
BRANCH  28  45
HETATM   45  O3  UNL     1      -5.576   9.745  15.264  1.00  0.00    -0.395 OA
HETATM   46  H13 UNL     1      -6.451   9.330  15.410  1.00  0.00     0.210 HD
ENDBRANCH  28  45
ENDBRANCH  26  28
ENDBRANCH   1  26
BRANCH   2  47
HETATM   47  O4  UNL     1      -1.969   5.875  14.570  1.00  0.00    -0.386 OA
HETATM   48  C13 UNL     1      -0.597   5.547  14.763  1.00  0.00     0.202 C 
ENDBRANCH   2  47
BRANCH  20  49
HETATM   49  O7  UNL     1       1.751  10.536  15.504  1.00  0.00    -0.352 OA
HETATM   50  C34 UNL     1       1.668  11.047  16.837  1.00  0.00     0.210 C 
ENDBRANCH  20  49
BRANCH  11  51
HETATM   51  O5  UNL     1       2.978   8.669  10.142  1.00  0.00    -0.395 OA
HETATM   52  H35 UNL     1       3.273   8.872   9.235  1.00  0.00     0.210 HD
ENDBRANCH  11  51
BRANCH  13  53
HETATM   53  O6  UNL     1       7.511   7.347  11.403  1.00  0.00    -0.394 OA
HETATM   54  H43 UNL     1       7.563   6.841  10.574  1.00  0.00     0.210 HD
ENDBRANCH  13  53
BRANCH  12  55
HETATM   55  C24 UNL     1       5.408   9.662  10.868  1.00  0.00     0.005 C 
HETATM   56  C25 UNL     1       6.782  10.232  10.537  1.00  0.00     0.005 C 
ENDBRANCH  12  55
TORSDOF 13
ENDMDL
MODEL 5
REMARK minimizedAffinity -7.22627354
REMARK CNNscore 0.234071568
REMARK CNNaffinity 6.10886431
REMARK  13 active torsions:
REMARK  status: ('A' for Active; 'I' for Inactive)
REMARK    1  A    between atoms: C3_3  and  C4_4 
REMARK    2  A    between atoms: C5_6  and  O2_7 
REMARK    3  A    between atoms: C5_6  and  C6_8 
REMARK    4  A    between atoms: C6_8  and  C8_10 
REMARK    5  A    between atoms: C8_10  and  O3_11 
REMARK    6  A    between atoms: C8_10  and  C9_12 
REMARK    7  A    between atoms: C9_12  and  C11_14 
REMARK    8  A    between atoms: C12_15  and  O4_16 
REMARK    9  A    between atoms: C22_26  and  O5_27 
REMARK   10  A    between atoms: C23_28  and  C24_29 
REMARK   11  A    between atoms: C26_31  and  O6_32 
REMARK   12  A    between atoms: C33_39  and  O7_40 
REMARK   13  A    between atoms: C39_48  and  O10_49 
ROOT
HETATM    1  C11 UNL     1     -13.078  10.667  22.217  1.00  0.00     0.032 C 
HETATM    2  C12 UNL     1     -12.083  11.833  21.840  1.00  0.00     0.154 C 
HETATM    3  C14 UNL     1     -11.259  11.509  20.593  1.00  0.00    -0.051 C 
HETATM    4  C15 UNL     1     -11.066  12.343  19.549  1.00  0.00     0.006 C 
HETATM    5  C16 UNL     1     -10.349  12.052  18.324  1.00  0.00     0.003 C 
HETATM    6  C17 UNL     1     -10.191  12.872  17.264  1.00  0.00    -0.083 C 
HETATM    7  C18 UNL     1     -10.714  14.280  17.176  1.00  0.00     0.043 C 
HETATM    8  C19 UNL     1      -9.351  12.404  16.085  1.00  0.00     0.040 C 
HETATM    9  C20 UNL     1     -10.096  11.837  14.845  1.00  0.00     0.014 C 
HETATM   10  C21 UNL     1     -10.858  12.942  14.113  1.00  0.00     0.012 C 
HETATM   11  C22 UNL     1     -10.950  10.567  15.165  1.00  0.00     0.128 C 
HETATM   12  C23 UNL     1     -11.509   9.832  13.893  1.00  0.00     0.044 C 
HETATM   13  C26 UNL     1     -12.875  10.414  13.392  1.00  0.00     0.132 C 
HETATM   14  C27 UNL     1     -14.184   9.847  14.022  1.00  0.00     0.034 C 
HETATM   15  C28 UNL     1     -15.422  10.430  13.322  1.00  0.00     0.017 C 
HETATM   16  C29 UNL     1     -14.307  10.153  15.498  1.00  0.00    -0.013 C 
HETATM   17  C30 UNL     1     -14.574   9.302  16.511  1.00  0.00    -0.062 C 
HETATM   18  C31 UNL     1     -14.860   7.836  16.320  1.00  0.00     0.048 C 
HETATM   19  C32 UNL     1     -14.612   9.846  17.872  1.00  0.00     0.047 C 
HETATM   20  C33 UNL     1     -14.627   9.205  19.059  1.00  0.00     0.123 C 
HETATM   21  C35 UNL     1     -14.474   9.955  20.301  1.00  0.00     0.257 C 
HETATM   22  O8  UNL     1     -15.549  10.347  20.820  1.00  0.00    -0.281 OA
HETATM   23  O9  UNL     1     -13.275   9.793  21.076  1.00  0.00     0.000 OA
HETATM   24  C36 UNL     1     -12.110   9.250  20.428  1.00  0.00     0.005 C 
HETATM   25  C37 UNL     1     -10.842  10.069  20.633  1.00  0.00     0.037 C 
ENDROOT
BRANCH   1  26
HETATM   26  C9  UNL     1     -12.659   9.824  23.488  1.00  0.00     0.018 C 
HETATM   27  C10 UNL     1     -11.171  10.061  23.880  1.00  0.00     0.013 C 
BRANCH  26  28
HETATM   28  C8  UNL     1     -12.809   8.273  23.313  1.00  0.00     0.131 C 
BRANCH  28  29
HETATM   29  C6  UNL     1     -13.968   7.547  24.051  1.00  0.00     0.073 C 
HETATM   30  C7  UNL     1     -13.734   7.547  25.568  1.00  0.00     0.018 C 
BRANCH  29  31
HETATM   31  C5  UNL     1     -14.182   6.094  23.493  1.00  0.00     0.170 C 
HETATM   32  O1  UNL     1     -13.567   5.169  24.397  1.00  0.00    -0.345 OA
HETATM   33  C4  UNL     1     -14.016   3.825  24.210  1.00  0.00     0.153 C 
HETATM   34  C40 UNL     1     -15.469   3.693  24.719  1.00  0.00     0.043 C 
HETATM   35  C39 UNL     1     -16.277   4.961  24.387  1.00  0.00     0.129 C 
HETATM   36  C41 UNL     1     -15.575   3.435  26.230  1.00  0.00     0.015 C 
HETATM   37  C38 UNL     1     -15.666   5.755  23.238  1.00  0.00     0.101 C 
BRANCH  33  38
HETATM   38  C3  UNL     1     -13.057   2.837  24.827  1.00  0.00     0.001 C 
HETATM   39  C2  UNL     1     -12.095   2.138  24.199  1.00  0.00    -0.033 C 
HETATM   40  C1  UNL     1     -11.183   1.171  24.883  1.00  0.00     0.036 C 
ENDBRANCH  33  38
BRANCH  35  41
HETATM   41  O10 UNL     1     -17.607   4.573  24.034  1.00  0.00    -0.395 OA
HETATM   42  H63 UNL     1     -18.156   5.373  24.015  1.00  0.00     0.210 HD
ENDBRANCH  35  41
BRANCH  31  43
HETATM   43  O2  UNL     1     -13.485   6.067  22.249  1.00  0.00    -0.365 OA
HETATM   44  H7  UNL     1     -13.801   5.317  21.721  1.00  0.00     0.213 HD
ENDBRANCH  31  43
ENDBRANCH  29  31
ENDBRANCH  28  29
BRANCH  28  45
HETATM   45  O3  UNL     1     -11.574   7.686  23.754  1.00  0.00    -0.395 OA
HETATM   46  H13 UNL     1     -11.663   6.725  23.587  1.00  0.00     0.210 HD
ENDBRANCH  28  45
ENDBRANCH  26  28
ENDBRANCH   1  26
BRANCH   2  47
HETATM   47  O4  UNL     1     -12.818  13.050  21.663  1.00  0.00    -0.386 OA
HETATM   48  C13 UNL     1     -12.571  14.033  22.663  1.00  0.00     0.202 C 
ENDBRANCH   2  47
BRANCH  20  49
HETATM   49  O7  UNL     1     -14.534   7.826  19.174  1.00  0.00    -0.352 OA
HETATM   50  C34 UNL     1     -15.728   7.281  19.741  1.00  0.00     0.210 C 
ENDBRANCH  20  49
BRANCH  11  51
HETATM   51  O5  UNL     1     -10.101   9.676  15.908  1.00  0.00    -0.395 OA
HETATM   52  H35 UNL     1      -9.334   9.464  15.346  1.00  0.00     0.210 HD
ENDBRANCH  11  51
BRANCH  13  53
HETATM   53  O6  UNL     1     -12.941  10.214  11.968  1.00  0.00    -0.394 OA
HETATM   54  H43 UNL     1     -12.228  10.736  11.561  1.00  0.00     0.210 HD
ENDBRANCH  13  53
BRANCH  12  55
HETATM   55  C24 UNL     1     -11.517   8.284  14.045  1.00  0.00     0.005 C 
HETATM   56  C25 UNL     1     -11.029   7.521  12.818  1.00  0.00     0.005 C 
ENDBRANCH  12  55
TORSDOF 13
ENDMDL
MODEL 6
REMARK minimizedAffinity -7.53725386
REMARK CNNscore 0.233743101
REMARK CNNaffinity 6.24560499
REMARK  13 active torsions:
REMARK  status: ('A' for Active; 'I' for Inactive)
REMARK    1  A    between atoms: C3_3  and  C4_4 
REMARK    2  A    between atoms: C5_6  and  O2_7 
REMARK    3  A    between atoms: C5_6  and  C6_8 
REMARK    4  A    between atoms: C6_8  and  C8_10 
REMARK    5  A    between atoms: C8_10  and  O3_11 
REMARK    6  A    between atoms: C8_10  and  C9_12 
REMARK    7  A    between atoms: C9_12  and  C11_14 
REMARK    8  A    between atoms: C12_15  and  O4_16 
REMARK    9  A    between atoms: C22_26  and  O5_27 
REMARK   10  A    between atoms: C23_28  and  C24_29 
REMARK   11  A    between atoms: C26_31  and  O6_32 
REMARK   12  A    between atoms: C33_39  and  O7_40 
REMARK   13  A    between atoms: C39_48  and  O10_49 
ROOT
HETATM    1  C11 UNL     1       6.500  12.147  14.269  1.00  0.00     0.032 C 
HETATM    2  C12 UNL     1       4.954  12.111  13.951  1.00  0.00     0.154 C 
HETATM    3  C14 UNL     1       4.149  11.446  15.069  1.00  0.00    -0.051 C 
HETATM    4  C15 UNL     1       3.018  11.941  15.614  1.00  0.00     0.006 C 
HETATM    5  C16 UNL     1       2.264  11.377  16.715  1.00  0.00     0.003 C 
HETATM    6  C17 UNL     1       1.156  11.894  17.287  1.00  0.00    -0.083 C 
HETATM    7  C18 UNL     1       0.469  13.159  16.849  1.00  0.00     0.043 C 
HETATM    8  C19 UNL     1       0.470  11.121  18.403  1.00  0.00     0.040 C 
HETATM    9  C20 UNL     1       0.763  11.549  19.868  1.00  0.00     0.014 C 
HETATM   10  C21 UNL     1       0.147  12.915  20.171  1.00  0.00     0.012 C 
HETATM   11  C22 UNL     1       2.271  11.420  20.257  1.00  0.00     0.128 C 
HETATM   12  C23 UNL     1       2.556  11.606  21.792  1.00  0.00     0.044 C 
HETATM   13  C26 UNL     1       2.753  13.104  22.208  1.00  0.00     0.132 C 
HETATM   14  C27 UNL     1       4.186  13.709  22.095  1.00  0.00     0.034 C 
HETATM   15  C28 UNL     1       4.221  15.135  22.668  1.00  0.00     0.017 C 
HETATM   16  C29 UNL     1       4.686  13.776  20.670  1.00  0.00    -0.013 C 
HETATM   17  C30 UNL     1       5.860  13.335  20.171  1.00  0.00    -0.062 C 
HETATM   18  C31 UNL     1       6.945  12.713  21.010  1.00  0.00     0.048 C 
HETATM   19  C32 UNL     1       6.097  13.494  18.733  1.00  0.00     0.047 C 
HETATM   20  C33 UNL     1       7.053  12.953  17.951  1.00  0.00     0.123 C 
HETATM   21  C35 UNL     1       6.986  13.101  16.500  1.00  0.00     0.257 C 
HETATM   22  O8  UNL     1       7.580  14.109  16.042  1.00  0.00    -0.281 OA
HETATM   23  O9  UNL     1       6.720  11.945  15.689  1.00  0.00     0.000 OA
HETATM   24  C36 UNL     1       6.121  10.795  16.311  1.00  0.00     0.005 C 
HETATM   25  C37 UNL     1       4.900  10.253  15.580  1.00  0.00     0.037 C 
ENDROOT
BRANCH   1  26
HETATM   26  C9  UNL     1       7.372  11.131  13.428  1.00  0.00     0.018 C 
HETATM   27  C10 UNL     1       8.860  11.578  13.336  1.00  0.00     0.013 C 
BRANCH  26  28
HETATM   28  C8  UNL     1       6.894  10.941  11.946  1.00  0.00     0.131 C 
BRANCH  28  29
HETATM   29  C6  UNL     1       6.133   9.640  11.568  1.00  0.00     0.073 C 
HETATM   30  C7  UNL     1       4.707   9.658  12.133  1.00  0.00     0.018 C 
BRANCH  29  31
HETATM   31  C5  UNL     1       6.925   8.361  12.021  1.00  0.00     0.170 C 
HETATM   32  O1  UNL     1       8.125   8.783  12.678  1.00  0.00    -0.345 OA
HETATM   33  C4  UNL     1       8.725   7.748  13.461  1.00  0.00     0.153 C 
HETATM   34  C40 UNL     1       7.867   7.491  14.719  1.00  0.00     0.043 C 
HETATM   35  C39 UNL     1       6.368   7.606  14.386  1.00  0.00     0.129 C 
HETATM   36  C41 UNL     1       8.175   8.443  15.885  1.00  0.00     0.015 C 
HETATM   37  C38 UNL     1       6.087   7.408  12.900  1.00  0.00     0.101 C 
BRANCH  33  38
HETATM   38  C3  UNL     1      10.173   8.056  13.757  1.00  0.00     0.001 C 
HETATM   39  C2  UNL     1      10.774   9.257  13.708  1.00  0.00    -0.033 C 
HETATM   40  C1  UNL     1      12.221   9.480  14.013  1.00  0.00     0.036 C 
ENDBRANCH  33  38
BRANCH  35  41
HETATM   41  O10 UNL     1       5.659   6.613  15.133  1.00  0.00    -0.395 OA
HETATM   42  H63 UNL     1       4.711   6.814  15.069  1.00  0.00     0.210 HD
ENDBRANCH  35  41
BRANCH  31  43
HETATM   43  O2  UNL     1       7.266   7.687  10.811  1.00  0.00    -0.365 OA
HETATM   44  H7  UNL     1       7.498   6.767  11.012  1.00  0.00     0.213 HD
ENDBRANCH  31  43
ENDBRANCH  29  31
ENDBRANCH  28  29
BRANCH  28  45
HETATM   45  O3  UNL     1       8.068  11.017  11.121  1.00  0.00    -0.395 OA
HETATM   46  H13 UNL     1       7.747  10.952  10.198  1.00  0.00     0.210 HD
ENDBRANCH  28  45
ENDBRANCH  26  28
ENDBRANCH   1  26
BRANCH   2  47
HETATM   47  O4  UNL     1       4.484  13.443  13.708  1.00  0.00    -0.386 OA
HETATM   48  C13 UNL     1       3.537  13.545  12.650  1.00  0.00     0.202 C 
ENDBRANCH   2  47
BRANCH  20  49
HETATM   49  O7  UNL     1       7.987  12.041  18.419  1.00  0.00    -0.352 OA
HETATM   50  C34 UNL     1       9.315  12.549  18.271  1.00  0.00     0.210 C 
ENDBRANCH  20  49
BRANCH  11  51
HETATM   51  O5  UNL     1       2.695  10.112  19.839  1.00  0.00    -0.395 OA
HETATM   52  H35 UNL     1       2.143   9.460  20.309  1.00  0.00     0.210 HD
ENDBRANCH  11  51
BRANCH  13  53
HETATM   53  O6  UNL     1       2.315  13.241  23.573  1.00  0.00    -0.394 OA
HETATM   54  H43 UNL     1       1.362  13.048  23.600  1.00  0.00     0.210 HD
ENDBRANCH  13  53
BRANCH  12  55
HETATM   55  C24 UNL     1       3.680  10.667  22.316  1.00  0.00     0.005 C 
HETATM   56  C25 UNL     1       3.253   9.727  23.438  1.00  0.00     0.005 C 
ENDBRANCH  12  55
TORSDOF 13
ENDMDL
MODEL 7
REMARK minimizedAffinity -8.09765434
REMARK CNNscore 0.233498096
REMARK CNNaffinity 6.11447859
REMARK  13 active torsions:
REMARK  status: ('A' for Active; 'I' for Inactive)
REMARK    1  A    between atoms: C3_3  and  C4_4 
REMARK    2  A    between atoms: C5_6  and  O2_7 
REMARK    3  A    between atoms: C5_6  and  C6_8 
REMARK    4  A    between atoms: C6_8  and  C8_10 
REMARK    5  A    between atoms: C8_10  and  O3_11 
REMARK    6  A    between atoms: C8_10  and  C9_12 
REMARK    7  A    between atoms: C9_12  and  C11_14 
REMARK    8  A    between atoms: C12_15  and  O4_16 
REMARK    9  A    between atoms: C22_26  and  O5_27 
REMARK   10  A    between atoms: C23_28  and  C24_29 
REMARK   11  A    between atoms: C26_31  and  O6_32 
REMARK   12  A    between atoms: C33_39  and  O7_40 
REMARK   13  A    between atoms: C39_48  and  O10_49 
ROOT
HETATM    1  C11 UNL     1       0.580  11.132  17.383  1.00  0.00     0.032 C 
HETATM    2  C12 UNL     1       0.885  12.500  16.657  1.00  0.00     0.154 C 
HETATM    3  C14 UNL     1       1.094  13.646  17.648  1.00  0.00    -0.051 C 
HETATM    4  C15 UNL     1       2.107  14.537  17.607  1.00  0.00     0.006 C 
HETATM    5  C16 UNL     1       2.376  15.594  18.560  1.00  0.00     0.003 C 
HETATM    6  C17 UNL     1       3.412  16.458  18.541  1.00  0.00    -0.083 C 
HETATM    7  C18 UNL     1       4.480  16.502  17.481  1.00  0.00     0.043 C 
HETATM    8  C19 UNL     1       3.493  17.542  19.606  1.00  0.00     0.040 C 
HETATM    9  C20 UNL     1       4.428  17.296  20.822  1.00  0.00     0.014 C 
HETATM   10  C21 UNL     1       5.897  17.332  20.397  1.00  0.00     0.012 C 
HETATM   11  C22 UNL     1       4.030  16.038  21.661  1.00  0.00     0.128 C 
HETATM   12  C23 UNL     1       4.799  15.908  23.026  1.00  0.00     0.044 C 
HETATM   13  C26 UNL     1       6.176  15.171  22.893  1.00  0.00     0.132 C 
HETATM   14  C27 UNL     1       6.183  13.615  22.995  1.00  0.00     0.034 C 
HETATM   15  C28 UNL     1       7.622  13.075  22.979  1.00  0.00     0.017 C 
HETATM   16  C29 UNL     1       5.431  12.948  21.866  1.00  0.00    -0.013 C 
HETATM   17  C30 UNL     1       4.469  12.003  21.941  1.00  0.00    -0.062 C 
HETATM   18  C31 UNL     1       3.998  11.389  23.232  1.00  0.00     0.048 C 
HETATM   19  C32 UNL     1       3.870  11.534  20.688  1.00  0.00     0.047 C 
HETATM   20  C33 UNL     1       2.764  10.789  20.485  1.00  0.00     0.123 C 
HETATM   21  C35 UNL     1       2.244  10.597  19.135  1.00  0.00     0.257 C 
HETATM   22  O8  UNL     1       2.690   9.588  18.534  1.00  0.00    -0.281 OA
HETATM   23  O9  UNL     1       0.993  11.203  18.772  1.00  0.00     0.000 OA
HETATM   24  C36 UNL     1       0.506  12.298  19.569  1.00  0.00     0.005 C 
HETATM   25  C37 UNL     1       0.100  13.525  18.764  1.00  0.00     0.037 C 
ENDROOT
BRANCH   1  26
HETATM   26  C9  UNL     1      -0.923  10.650  17.281  1.00  0.00     0.018 C 
HETATM   27  C10 UNL     1      -1.595  10.540  18.680  1.00  0.00     0.013 C 
BRANCH  26  28
HETATM   28  C8  UNL     1      -1.105   9.243  16.612  1.00  0.00     0.131 C 
BRANCH  28  29
HETATM   29  C6  UNL     1      -0.488   9.000  15.206  1.00  0.00     0.073 C 
HETATM   30  C7  UNL     1      -1.352   9.640  14.111  1.00  0.00     0.018 C 
BRANCH  29  31
HETATM   31  C5  UNL     1      -0.249   7.470  14.942  1.00  0.00     0.170 C 
HETATM   32  O1  UNL     1      -1.232   7.016  14.005  1.00  0.00    -0.345 OA
HETATM   33  C4  UNL     1      -0.890   5.766  13.400  1.00  0.00     0.153 C 
HETATM   34  C40 UNL     1       0.276   5.977  12.409  1.00  0.00     0.043 C 
HETATM   35  C39 UNL     1       1.278   7.008  12.961  1.00  0.00     0.129 C 
HETATM   36  C41 UNL     1      -0.173   6.438  11.014  1.00  0.00     0.015 C 
HETATM   37  C38 UNL     1       1.187   7.152  14.476  1.00  0.00     0.101 C 
BRANCH  33  38
HETATM   38  C3  UNL     1      -2.102   5.103  12.793  1.00  0.00     0.001 C 
HETATM   39  C2  UNL     1      -3.265   4.819  13.404  1.00  0.00    -0.033 C 
HETATM   40  C1  UNL     1      -4.422   4.154  12.731  1.00  0.00     0.036 C 
ENDBRANCH  33  38
BRANCH  35  41
HETATM   41  O10 UNL     1       2.599   6.591  12.607  1.00  0.00    -0.395 OA
HETATM   42  H63 UNL     1       3.202   7.331  12.785  1.00  0.00     0.210 HD
ENDBRANCH  35  41
BRANCH  31  43
HETATM   43  O2  UNL     1      -0.473   6.836  16.200  1.00  0.00    -0.365 OA
HETATM   44  H7  UNL     1      -0.076   5.952  16.188  1.00  0.00     0.213 HD
ENDBRANCH  31  43
ENDBRANCH  29  31
ENDBRANCH  28  29
BRANCH  28  45
HETATM   45  O3  UNL     1      -2.520   9.014  16.513  1.00  0.00    -0.395 OA
HETATM   46  H13 UNL     1      -2.616   8.111  16.145  1.00  0.00     0.210 HD
ENDBRANCH  28  45
ENDBRANCH  26  28
ENDBRANCH   1  26
BRANCH   2  47
HETATM   47  O4  UNL     1       2.030  12.347  15.808  1.00  0.00    -0.386 OA
HETATM   48  C13 UNL     1       2.235  11.020  15.337  1.00  0.00     0.202 C 
ENDBRANCH   2  47
BRANCH  20  49
HETATM   49  O7  UNL     1       1.928  10.382  21.514  1.00  0.00    -0.352 OA
HETATM   50  C34 UNL     1       2.201   9.029  21.888  1.00  0.00     0.210 C 
ENDBRANCH  20  49
BRANCH  11  51
HETATM   51  O5  UNL     1       2.617  16.136  21.906  1.00  0.00    -0.395 OA
HETATM   52  H35 UNL     1       2.461  16.963  22.397  1.00  0.00     0.210 HD
ENDBRANCH  11  51
BRANCH  13  53
HETATM   53  O6  UNL     1       7.051  15.690  23.912  1.00  0.00    -0.394 OA
HETATM   54  H43 UNL     1       7.199  16.633  23.724  1.00  0.00     0.210 HD
ENDBRANCH  13  53
BRANCH  12  55
HETATM   55  C24 UNL     1       3.907  15.347  24.171  1.00  0.00     0.005 C 
HETATM   56  C25 UNL     1       2.690  14.558  23.702  1.00  0.00     0.005 C 
ENDBRANCH  12  55
TORSDOF 13
ENDMDL
MODEL 8
REMARK minimizedAffinity -7.418015
REMARK CNNscore 0.211211488
REMARK CNNaffinity 5.580194
REMARK  13 active torsions:
REMARK  status: ('A' for Active; 'I' for Inactive)
REMARK    1  A    between atoms: C3_3  and  C4_4 
REMARK    2  A    between atoms: C5_6  and  O2_7 
REMARK    3  A    between atoms: C5_6  and  C6_8 
REMARK    4  A    between atoms: C6_8  and  C8_10 
REMARK    5  A    between atoms: C8_10  and  O3_11 
REMARK    6  A    between atoms: C8_10  and  C9_12 
REMARK    7  A    between atoms: C9_12  and  C11_14 
REMARK    8  A    between atoms: C12_15  and  O4_16 
REMARK    9  A    between atoms: C22_26  and  O5_27 
REMARK   10  A    between atoms: C23_28  and  C24_29 
REMARK   11  A    between atoms: C26_31  and  O6_32 
REMARK   12  A    between atoms: C33_39  and  O7_40 
REMARK   13  A    between atoms: C39_48  and  O10_49 
ROOT
HETATM    1  C11 UNL     1       0.613  10.796  15.389  1.00  0.00     0.032 C 
HETATM    2  C12 UNL     1       0.168  10.745  16.903  1.00  0.00     0.154 C 
HETATM    3  C14 UNL     1       1.336  10.423  17.837  1.00  0.00    -0.051 C 
HETATM    4  C15 UNL     1       1.629  11.088  18.975  1.00  0.00     0.006 C 
HETATM    5  C16 UNL     1       2.759  10.857  19.851  1.00  0.00     0.003 C 
HETATM    6  C17 UNL     1       3.075  11.549  20.966  1.00  0.00    -0.083 C 
HETATM    7  C18 UNL     1       2.270  12.689  21.531  1.00  0.00     0.043 C 
HETATM    8  C19 UNL     1       4.279  11.116  21.790  1.00  0.00     0.040 C 
HETATM    9  C20 UNL     1       5.610  11.892  21.589  1.00  0.00     0.014 C 
HETATM   10  C21 UNL     1       5.501  13.315  22.138  1.00  0.00     0.012 C 
HETATM   11  C22 UNL     1       6.161  11.803  20.129  1.00  0.00     0.128 C 
HETATM   12  C23 UNL     1       7.620  12.363  19.958  1.00  0.00     0.044 C 
HETATM   13  C26 UNL     1       7.664  13.908  19.699  1.00  0.00     0.132 C 
HETATM   14  C27 UNL     1       7.540  14.404  18.226  1.00  0.00     0.034 C 
HETATM   15  C28 UNL     1       7.738  15.926  18.145  1.00  0.00     0.017 C 
HETATM   16  C29 UNL     1       6.198  14.083  17.608  1.00  0.00    -0.013 C 
HETATM   17  C30 UNL     1       5.940  13.479  16.428  1.00  0.00    -0.062 C 
HETATM   18  C31 UNL     1       7.007  13.047  15.458  1.00  0.00     0.048 C 
HETATM   19  C32 UNL     1       4.537  13.255  16.065  1.00  0.00     0.047 C 
HETATM   20  C33 UNL     1       4.010  12.492  15.086  1.00  0.00     0.123 C 
HETATM   21  C35 UNL     1       2.569  12.267  15.024  1.00  0.00     0.257 C 
HETATM   22  O8  UNL     1       1.932  13.099  14.332  1.00  0.00    -0.281 OA
HETATM   23  O9  UNL     1       2.052  10.955  15.298  1.00  0.00     0.000 OA
HETATM   24  C36 UNL     1       2.883  10.028  16.020  1.00  0.00     0.005 C 
HETATM   25  C37 UNL     1       2.198   9.369  17.210  1.00  0.00     0.037 C 
ENDROOT
BRANCH   1  26
HETATM   26  C9  UNL     1       0.140   9.563  14.519  1.00  0.00     0.018 C 
HETATM   27  C10 UNL     1       0.864   9.510  13.142  1.00  0.00     0.013 C 
BRANCH  26  28
HETATM   28  C8  UNL     1      -1.393   9.552  14.192  1.00  0.00     0.131 C 
BRANCH  28  29
HETATM   29  C6  UNL     1      -2.349   8.751  15.120  1.00  0.00     0.073 C 
HETATM   30  C7  UNL     1      -2.444   9.408  16.504  1.00  0.00     0.018 C 
BRANCH  29  31
HETATM   31  C5  UNL     1      -1.921   7.243  15.218  1.00  0.00     0.170 C 
HETATM   32  O1  UNL     1      -2.176   6.619  13.954  1.00  0.00    -0.345 OA
HETATM   33  C4  UNL     1      -1.485   5.377  13.797  1.00  0.00     0.153 C 
HETATM   34  C40 UNL     1       0.023   5.647  13.607  1.00  0.00     0.043 C 
HETATM   35  C39 UNL     1       0.481   6.819  14.496  1.00  0.00     0.129 C 
HETATM   36  C41 UNL     1       0.419   5.960  12.155  1.00  0.00     0.015 C 
HETATM   37  C38 UNL     1      -0.459   7.055  15.673  1.00  0.00     0.101 C 
BRANCH  33  38
HETATM   38  C3  UNL     1      -2.103   4.543  12.701  1.00  0.00     0.001 C 
HETATM   39  C2  UNL     1      -3.332   4.679  12.172  1.00  0.00    -0.033 C 
HETATM   40  C1  UNL     1      -3.874   3.806  11.086  1.00  0.00     0.036 C 
ENDBRANCH  33  38
BRANCH  35  41
HETATM   41  O10 UNL     1       1.791   6.528  14.991  1.00  0.00    -0.395 OA
HETATM   42  H63 UNL     1       2.146   7.341  15.385  1.00  0.00     0.210 HD
ENDBRANCH  35  41
BRANCH  31  43
HETATM   43  O2  UNL     1      -2.784   6.675  16.202  1.00  0.00    -0.365 OA
HETATM   44  H7  UNL     1      -2.403   5.841  16.519  1.00  0.00     0.213 HD
ENDBRANCH  31  43
ENDBRANCH  29  31
ENDBRANCH  28  29
BRANCH  28  45
HETATM   45  O3  UNL     1      -1.529   9.023  12.863  1.00  0.00    -0.395 OA
HETATM   46  H13 UNL     1      -2.485   9.075  12.655  1.00  0.00     0.210 HD
ENDBRANCH  28  45
ENDBRANCH  26  28
ENDBRANCH   1  26
BRANCH   2  47
HETATM   47  O4  UNL     1      -0.445  11.989  17.264  1.00  0.00    -0.386 OA
HETATM   48  C13 UNL     1      -0.982  12.717  16.166  1.00  0.00     0.202 C 
ENDBRANCH   2  47
BRANCH  20  49
HETATM   49  O7  UNL     1       4.779  11.691  14.255  1.00  0.00    -0.352 OA
HETATM   50  C34 UNL     1       4.637  12.090  12.889  1.00  0.00     0.210 C 
ENDBRANCH  20  49
BRANCH  11  51
HETATM   51  O5  UNL     1       6.127  10.415  19.759  1.00  0.00    -0.395 OA
HETATM   52  H35 UNL     1       6.690   9.929  20.388  1.00  0.00     0.210 HD
ENDBRANCH  11  51
BRANCH  13  53
HETATM   53  O6  UNL     1       8.903  14.408  20.236  1.00  0.00    -0.394 OA
HETATM   54  H43 UNL     1       8.886  14.269  21.199  1.00  0.00     0.210 HD
ENDBRANCH  13  53
BRANCH  12  55
HETATM   55  C24 UNL     1       8.468  11.543  18.945  1.00  0.00     0.005 C 
HETATM   56  C25 UNL     1       7.655  10.689  17.978  1.00  0.00     0.005 C 
ENDBRANCH  12  55
TORSDOF 13
ENDMDL
MODEL 9
REMARK minimizedAffinity -8.04794693
REMARK CNNscore 0.20688422
REMARK CNNaffinity 5.40716362
REMARK  13 active torsions:
REMARK  status: ('A' for Active; 'I' for Inactive)
REMARK    1  A    between atoms: C3_3  and  C4_4 
REMARK    2  A    between atoms: C5_6  and  O2_7 
REMARK    3  A    between atoms: C5_6  and  C6_8 
REMARK    4  A    between atoms: C6_8  and  C8_10 
REMARK    5  A    between atoms: C8_10  and  O3_11 
REMARK    6  A    between atoms: C8_10  and  C9_12 
REMARK    7  A    between atoms: C9_12  and  C11_14 
REMARK    8  A    between atoms: C12_15  and  O4_16 
REMARK    9  A    between atoms: C22_26  and  O5_27 
REMARK   10  A    between atoms: C23_28  and  C24_29 
REMARK   11  A    between atoms: C26_31  and  O6_32 
REMARK   12  A    between atoms: C33_39  and  O7_40 
REMARK   13  A    between atoms: C39_48  and  O10_49 
ROOT
HETATM    1  C11 UNL     1       1.524  11.526  16.748  1.00  0.00     0.032 C 
HETATM    2  C12 UNL     1       2.481  12.448  15.897  1.00  0.00     0.154 C 
HETATM    3  C14 UNL     1       3.073  13.588  16.727  1.00  0.00    -0.051 C 
HETATM    4  C15 UNL     1       4.375  13.943  16.747  1.00  0.00     0.006 C 
HETATM    5  C16 UNL     1       4.984  14.972  17.565  1.00  0.00     0.003 C 
HETATM    6  C17 UNL     1       6.293  15.299  17.614  1.00  0.00    -0.083 C 
HETATM    7  C18 UNL     1       7.373  14.661  16.783  1.00  0.00     0.043 C 
HETATM    8  C19 UNL     1       6.734  16.454  18.501  1.00  0.00     0.040 C 
HETATM    9  C20 UNL     1       7.327  16.112  19.895  1.00  0.00     0.014 C 
HETATM   10  C21 UNL     1       8.694  15.439  19.758  1.00  0.00     0.012 C 
HETATM   11  C22 UNL     1       6.324  15.351  20.822  1.00  0.00     0.128 C 
HETATM   12  C23 UNL     1       6.804  15.213  22.312  1.00  0.00     0.044 C 
HETATM   13  C26 UNL     1       7.714  13.960  22.556  1.00  0.00     0.132 C 
HETATM   14  C27 UNL     1       7.016  12.606  22.889  1.00  0.00     0.034 C 
HETATM   15  C28 UNL     1       8.056  11.527  23.229  1.00  0.00     0.017 C 
HETATM   16  C29 UNL     1       6.170  12.085  21.750  1.00  0.00    -0.013 C 
HETATM   17  C30 UNL     1       4.886  11.667  21.781  1.00  0.00    -0.062 C 
HETATM   18  C31 UNL     1       4.057  11.603  23.036  1.00  0.00     0.048 C 
HETATM   19  C32 UNL     1       4.277  11.230  20.521  1.00  0.00     0.047 C 
HETATM   20  C33 UNL     1       2.983  10.989  20.225  1.00  0.00     0.123 C 
HETATM   21  C35 UNL     1       2.579  10.742  18.845  1.00  0.00     0.257 C 
HETATM   22  O8  UNL     1       2.589   9.535  18.498  1.00  0.00    -0.281 OA
HETATM   23  O9  UNL     1       1.776  11.719  18.164  1.00  0.00     0.000 OA
HETATM   24  C36 UNL     1       1.746  13.061  18.680  1.00  0.00     0.005 C 
HETATM   25  C37 UNL     1       2.017  14.139  17.638  1.00  0.00     0.037 C 
ENDROOT
BRANCH   1  26
HETATM   26  C9  UNL     1      -0.016  11.704  16.435  1.00  0.00     0.018 C 
HETATM   27  C10 UNL     1      -0.652  12.852  17.271  1.00  0.00     0.013 C 
BRANCH  26  28
HETATM   28  C8  UNL     1      -0.886  10.433  16.730  1.00  0.00     0.131 C 
BRANCH  28  29
HETATM   29  C6  UNL     1      -1.445   9.616  15.531  1.00  0.00     0.073 C 
HETATM   30  C7  UNL     1      -2.868  10.069  15.177  1.00  0.00     0.018 C 
BRANCH  29  31
HETATM   31  C5  UNL     1      -1.376   8.071  15.807  1.00  0.00     0.170 C 
HETATM   32  O1  UNL     1      -2.138   7.398  14.799  1.00  0.00    -0.345 OA
HETATM   33  C4  UNL     1      -1.840   6.003  14.714  1.00  0.00     0.153 C 
HETATM   34  C40 UNL     1      -0.439   5.813  14.091  1.00  0.00     0.043 C 
HETATM   35  C39 UNL     1       0.527   6.905  14.586  1.00  0.00     0.129 C 
HETATM   36  C41 UNL     1      -0.437   5.826  12.555  1.00  0.00     0.015 C 
HETATM   37  C38 UNL     1       0.069   7.535  15.897  1.00  0.00     0.101 C 
BRANCH  33  38
HETATM   38  C3  UNL     1      -2.937   5.252  13.999  1.00  0.00     0.001 C 
HETATM   39  C2  UNL     1      -4.144   5.724  13.640  1.00  0.00    -0.033 C 
HETATM   40  C1  UNL     1      -5.182   4.912  12.935  1.00  0.00     0.036 C 
ENDBRANCH  33  38
BRANCH  35  41
HETATM   41  O10 UNL     1       1.818   6.319  14.773  1.00  0.00    -0.395 OA
HETATM   42  H63 UNL     1       2.457   7.040  14.895  1.00  0.00     0.210 HD
ENDBRANCH  35  41
BRANCH  31  43
HETATM   43  O2  UNL     1      -2.011   7.891  17.072  1.00  0.00    -0.365 OA
HETATM   44  H7  UNL     1      -1.760   7.028  17.436  1.00  0.00     0.213 HD
ENDBRANCH  31  43
ENDBRANCH  29  31
ENDBRANCH  28  29
BRANCH  28  45
HETATM   45  O3  UNL     1      -2.004  10.871  17.519  1.00  0.00    -0.395 OA
HETATM   46  H13 UNL     1      -2.506  10.059  17.740  1.00  0.00     0.210 HD
ENDBRANCH  28  45
ENDBRANCH  26  28
ENDBRANCH   1  26
BRANCH   2  47
HETATM   47  O4  UNL     1       3.520  11.651  15.314  1.00  0.00    -0.386 OA
HETATM   48  C13 UNL     1       3.492  11.602  13.892  1.00  0.00     0.202 C 
ENDBRANCH   2  47
BRANCH  20  49
HETATM   49  O7  UNL     1       1.950  11.202  21.125  1.00  0.00    -0.352 OA
HETATM   50  C34 UNL     1       1.697  12.600  21.288  1.00  0.00     0.210 C 
ENDBRANCH  20  49
BRANCH  11  51
HETATM   51  O5  UNL     1       5.086  16.079  20.776  1.00  0.00    -0.395 OA
HETATM   52  H35 UNL     1       5.263  16.982  21.099  1.00  0.00     0.210 HD
ENDBRANCH  11  51
BRANCH  13  53
HETATM   53  O6  UNL     1       8.615  14.276  23.634  1.00  0.00    -0.394 OA
HETATM   54  H43 UNL     1       9.187  15.005  23.338  1.00  0.00     0.210 HD
ENDBRANCH  13  53
BRANCH  12  55
HETATM   55  C24 UNL     1       5.641  15.339  23.337  1.00  0.00     0.005 C 
HETATM   56  C25 UNL     1       4.256  15.056  22.766  1.00  0.00     0.005 C 
ENDBRANCH  12  55
TORSDOF 13
ENDMDL
