MODEL 1
REMARK minimizedAffinity -7.34712029
REMARK CNNscore 0.669299304
REMARK CNNaffinity 6.54865217
REMARK  13 active torsions:
REMARK  status: ('A' for Active; 'I' for Inactive)
REMARK    1  A    between atoms: C4_4  and  O1_5 
REMARK    2  A    between atoms: C7_9  and  C8_10 
REMARK    3  A    between atoms: C8_10  and  C10_12 
REMARK    4  A    between atoms: C10_12  and  O3_13 
REMARK    5  A    between atoms: C16_19  and  O4_21 
REMARK    6  A    between atoms: O4_21  and  C18_22 
REMARK    7  A    between atoms: C18_22  and  C19_24 
REMARK    8  A    between atoms: C19_24  and  C20_25 
REMARK    9  A    between atoms: C19_24  and  O6_27 
REMARK   10  A    between atoms: O6_27  and  C22_28 
REMARK   11  A    between atoms: C22_28  and  C23_30 
REMARK   12  A    between atoms: C23_30  and  C24_31 
REMARK   13  A    between atoms: C28_35  and  O8_36 
ROOT
HETATM    1  C1  UNL     1       0.837  10.284  17.783  1.00  0.00     0.017 C 
HETATM    2  C2  UNL     1       1.026  10.235  16.450  1.00  0.00    -0.056 C 
HETATM    3  C3  UNL     1       0.083  10.996  15.520  1.00  0.00     0.105 C 
HETATM    4  C4  UNL     1      -0.632  10.164  14.424  1.00  0.00     0.173 C 
HETATM    5  O2  UNL     1       0.363   9.628  13.567  1.00  0.00    -0.345 OA
HETATM    6  C5  UNL     1       0.054   8.288  13.198  1.00  0.00     0.165 C 
HETATM    7  C6  UNL     1      -1.107   7.772  14.080  1.00  0.00     0.036 C 
HETATM    8  C7  UNL     1      -2.271   7.167  13.239  1.00  0.00    -0.001 C 
HETATM    9  C11 UNL     1      -3.223   8.274  12.765  1.00  0.00     0.010 C 
HETATM   10  C12 UNL     1      -3.845   9.111  13.880  1.00  0.00     0.034 C 
HETATM   11  C13 UNL     1      -2.969   9.263  15.097  1.00  0.00    -0.079 C 
HETATM   12  C14 UNL     1      -3.512   9.583  16.285  1.00  0.00     0.015 C 
HETATM   13  C15 UNL     1      -1.487   8.989  14.953  1.00  0.00     0.083 C 
HETATM   14  C16 UNL     1       1.374   7.440  13.151  1.00  0.00     0.093 C 
HETATM   15  C17 UNL     1       2.344   8.173  12.188  1.00  0.00     0.049 C 
HETATM   16  C26 UNL     1       2.092   7.138  14.508  1.00  0.00     0.044 C 
HETATM   17  C27 UNL     1       1.807   7.935  15.788  1.00  0.00     0.039 C 
HETATM   18  C28 UNL     1       2.134   9.434  15.772  1.00  0.00     0.146 C 
ENDROOT
BRANCH  14  19
HETATM   19  O4  UNL     1       0.974   6.162  12.533  1.00  0.00    -0.306 OA
BRANCH  19  20
HETATM   20  C18 UNL     1       0.500   6.131  11.254  1.00  0.00     0.289 C 
HETATM   21  O5  UNL     1      -0.560   5.632  10.899  1.00  0.00    -0.262 OA
BRANCH  20  22
HETATM   22  C19 UNL     1       1.469   6.823  10.292  1.00  0.00     0.231 C 
BRANCH  22  23
HETATM   23  C20 UNL     1       0.730   7.859   9.441  1.00  0.00     0.038 C 
HETATM   24  C21 UNL     1       1.391   8.118   8.098  1.00  0.00     0.008 C 
ENDBRANCH  22  23
BRANCH  22  25
HETATM   25  O6  UNL     1       1.981   5.842   9.364  1.00  0.00    -0.306 OA
BRANCH  25  26
HETATM   26  C22 UNL     1       3.263   5.457   9.602  1.00  0.00     0.259 C 
HETATM   27  O7  UNL     1       4.184   6.222   9.862  1.00  0.00    -0.265 OA
BRANCH  26  28
HETATM   28  C23 UNL     1       3.383   3.956   9.531  1.00  0.00     0.111 C 
BRANCH  28  29
HETATM   29  C24 UNL     1       4.692   3.526   8.873  1.00  0.00     0.005 C 
HETATM   30  C25 UNL     1       4.526   3.195   7.396  1.00  0.00     0.005 C 
ENDBRANCH  28  29
ENDBRANCH  26  28
ENDBRANCH  25  26
ENDBRANCH  22  25
ENDBRANCH  20  22
ENDBRANCH  19  20
ENDBRANCH  14  19
BRANCH   4  31
HETATM   31  O1  UNL     1      -1.378  11.078  13.631  1.00  0.00    -0.364 OA
HETATM   32  H5  UNL     1      -1.511  10.631  12.782  1.00  0.00     0.213 HD
ENDBRANCH   4  31
BRANCH   8  33
HETATM   33  C8  UNL     1      -2.922   5.911  13.908  1.00  0.00     0.010 C 
HETATM   34  C9  UNL     1      -4.394   6.027  14.313  1.00  0.00     0.012 C 
BRANCH  33  35
HETATM   35  C10 UNL     1      -2.681   4.615  13.112  1.00  0.00     0.168 C 
BRANCH  35  36
HETATM   36  O3  UNL     1      -3.881   4.121  12.542  1.00  0.00    -0.400 OA
HETATM   37  H15 UNL     1      -3.664   3.285  12.096  1.00  0.00     0.209 HD
ENDBRANCH  35  36
ENDBRANCH  33  35
ENDBRANCH   8  33
BRANCH  18  38
HETATM   38  O8  UNL     1       3.380   9.647  16.434  1.00  0.00    -0.391 OA
HETATM   39  H44 UNL     1       3.252   9.535  17.387  1.00  0.00     0.210 HD
ENDBRANCH  18  38
TORSDOF 13
ENDMDL
MODEL 2
REMARK minimizedAffinity -6.75484753
REMARK CNNscore 0.658277988
REMARK CNNaffinity 6.50059938
REMARK  13 active torsions:
REMARK  status: ('A' for Active; 'I' for Inactive)
REMARK    1  A    between atoms: C4_4  and  O1_5 
REMARK    2  A    between atoms: C7_9  and  C8_10 
REMARK    3  A    between atoms: C8_10  and  C10_12 
REMARK    4  A    between atoms: C10_12  and  O3_13 
REMARK    5  A    between atoms: C16_19  and  O4_21 
REMARK    6  A    between atoms: O4_21  and  C18_22 
REMARK    7  A    between atoms: C18_22  and  C19_24 
REMARK    8  A    between atoms: C19_24  and  C20_25 
REMARK    9  A    between atoms: C19_24  and  O6_27 
REMARK   10  A    between atoms: O6_27  and  C22_28 
REMARK   11  A    between atoms: C22_28  and  C23_30 
REMARK   12  A    between atoms: C23_30  and  C24_31 
REMARK   13  A    between atoms: C28_35  and  O8_36 
ROOT
HETATM    1  C1  UNL     1       2.234  10.309  18.198  1.00  0.00     0.017 C 
HETATM    2  C2  UNL     1       2.313  10.499  16.866  1.00  0.00    -0.056 C 
HETATM    3  C3  UNL     1       1.290  11.391  16.164  1.00  0.00     0.105 C 
HETATM    4  C4  UNL     1       0.495  10.749  14.999  1.00  0.00     0.173 C 
HETATM    5  O2  UNL     1       1.419  10.395  13.983  1.00  0.00    -0.345 OA
HETATM    6  C5  UNL     1       1.092   9.134  13.408  1.00  0.00     0.165 C 
HETATM    7  C6  UNL     1       0.012   8.445  14.274  1.00  0.00     0.036 C 
HETATM    8  C7  UNL     1      -1.213   7.971  13.434  1.00  0.00    -0.001 C 
HETATM    9  C11 UNL     1      -2.210   9.123  13.242  1.00  0.00     0.010 C 
HETATM   10  C12 UNL     1      -2.744   9.737  14.533  1.00  0.00     0.034 C 
HETATM   11  C13 UNL     1      -1.772   9.692  15.684  1.00  0.00    -0.079 C 
HETATM   12  C14 UNL     1      -2.219   9.785  16.950  1.00  0.00     0.015 C 
HETATM   13  C15 UNL     1      -0.305   9.481  15.377  1.00  0.00     0.083 C 
HETATM   14  C16 UNL     1       2.410   8.337  13.107  1.00  0.00     0.093 C 
HETATM   15  C17 UNL     1       3.292   9.250  12.216  1.00  0.00     0.049 C 
HETATM   16  C26 UNL     1       3.240   7.817  14.328  1.00  0.00     0.044 C 
HETATM   17  C27 UNL     1       3.054   8.369  15.747  1.00  0.00     0.039 C 
HETATM   18  C28 UNL     1       3.367   9.854  15.971  1.00  0.00     0.146 C 
ENDROOT
BRANCH  14  19
HETATM   19  O4  UNL     1       1.971   7.180  12.306  1.00  0.00    -0.306 OA
BRANCH  19  20
HETATM   20  C18 UNL     1       2.606   6.863  11.141  1.00  0.00     0.289 C 
HETATM   21  O5  UNL     1       3.660   6.248  11.049  1.00  0.00    -0.262 OA
BRANCH  20  22
HETATM   22  C19 UNL     1       1.819   7.370   9.930  1.00  0.00     0.231 C 
BRANCH  22  23
HETATM   23  C20 UNL     1       0.326   7.446  10.257  1.00  0.00     0.038 C 
HETATM   24  C21 UNL     1      -0.377   8.618   9.592  1.00  0.00     0.008 C 
ENDBRANCH  22  23
BRANCH  22  25
HETATM   25  O6  UNL     1       1.941   6.407   8.860  1.00  0.00    -0.306 OA
BRANCH  25  26
HETATM   26  C22 UNL     1       2.240   6.947   7.648  1.00  0.00     0.259 C 
HETATM   27  O7  UNL     1       2.269   8.148   7.409  1.00  0.00    -0.265 OA
BRANCH  26  28
HETATM   28  C23 UNL     1       2.559   5.861   6.654  1.00  0.00     0.111 C 
BRANCH  28  29
HETATM   29  C24 UNL     1       3.282   4.689   7.314  1.00  0.00     0.005 C 
HETATM   30  C25 UNL     1       3.739   3.639   6.310  1.00  0.00     0.005 C 
ENDBRANCH  28  29
ENDBRANCH  26  28
ENDBRANCH  25  26
ENDBRANCH  22  25
ENDBRANCH  20  22
ENDBRANCH  19  20
ENDBRANCH  14  19
BRANCH   4  31
HETATM   31  O1  UNL     1      -0.322  11.771  14.441  1.00  0.00    -0.364 OA
HETATM   32  H5  UNL     1      -0.521  11.478  13.540  1.00  0.00     0.213 HD
ENDBRANCH   4  31
BRANCH   8  33
HETATM   33  C8  UNL     1      -1.797   6.603  13.920  1.00  0.00     0.010 C 
HETATM   34  C9  UNL     1      -2.618   5.802  12.905  1.00  0.00     0.012 C 
BRANCH  33  35
HETATM   35  C10 UNL     1      -0.742   5.706  14.591  1.00  0.00     0.168 C 
BRANCH  35  36
HETATM   36  O3  UNL     1       0.355   5.453  13.729  1.00  0.00    -0.400 OA
HETATM   37  H15 UNL     1       0.955   4.848  14.197  1.00  0.00     0.209 HD
ENDBRANCH  35  36
ENDBRANCH  33  35
ENDBRANCH   8  33
BRANCH  18  38
HETATM   38  O8  UNL     1       4.662   9.975  16.560  1.00  0.00    -0.391 OA
HETATM   39  H44 UNL     1       4.613   9.695  17.484  1.00  0.00     0.210 HD
ENDBRANCH  18  38
TORSDOF 13
ENDMDL
MODEL 3
REMARK minimizedAffinity -7.78863955
REMARK CNNscore 0.630753815
REMARK CNNaffinity 7.11158943
REMARK  13 active torsions:
REMARK  status: ('A' for Active; 'I' for Inactive)
REMARK    1  A    between atoms: C4_4  and  O1_5 
REMARK    2  A    between atoms: C7_9  and  C8_10 
REMARK    3  A    between atoms: C8_10  and  C10_12 
REMARK    4  A    between atoms: C10_12  and  O3_13 
REMARK    5  A    between atoms: C16_19  and  O4_21 
REMARK    6  A    between atoms: O4_21  and  C18_22 
REMARK    7  A    between atoms: C18_22  and  C19_24 
REMARK    8  A    between atoms: C19_24  and  C20_25 
REMARK    9  A    between atoms: C19_24  and  O6_27 
REMARK   10  A    between atoms: O6_27  and  C22_28 
REMARK   11  A    between atoms: C22_28  and  C23_30 
REMARK   12  A    between atoms: C23_30  and  C24_31 
REMARK   13  A    between atoms: C28_35  and  O8_36 
ROOT
HETATM    1  C1  UNL     1      -0.290  10.543  16.253  1.00  0.00     0.017 C 
HETATM    2  C2  UNL     1      -0.470   9.210  16.188  1.00  0.00    -0.056 C 
HETATM    3  C3  UNL     1       0.742   8.282  16.122  1.00  0.00     0.105 C 
HETATM    4  C4  UNL     1       0.804   7.307  14.918  1.00  0.00     0.173 C 
HETATM    5  O2  UNL     1      -0.312   6.436  15.005  1.00  0.00    -0.345 OA
HETATM    6  C5  UNL     1      -0.881   6.200  13.722  1.00  0.00     0.165 C 
HETATM    7  C6  UNL     1      -0.272   7.194  12.705  1.00  0.00     0.036 C 
HETATM    8  C7  UNL     1       0.285   6.483  11.435  1.00  0.00    -0.001 C 
HETATM    9  C11 UNL     1       1.713   5.980  11.684  1.00  0.00     0.010 C 
HETATM   10  C12 UNL     1       2.716   7.059  12.087  1.00  0.00     0.034 C 
HETATM   11  C13 UNL     1       2.113   8.200  12.864  1.00  0.00    -0.079 C 
HETATM   12  C14 UNL     1       2.739   9.390  12.913  1.00  0.00     0.015 C 
HETATM   13  C15 UNL     1       0.770   7.986  13.529  1.00  0.00     0.083 C 
HETATM   14  C16 UNL     1      -2.445   6.140  13.844  1.00  0.00     0.093 C 
HETATM   15  C17 UNL     1      -2.769   5.060  14.909  1.00  0.00     0.049 C 
HETATM   16  C26 UNL     1      -3.198   7.469  14.183  1.00  0.00     0.044 C 
HETATM   17  C27 UNL     1      -2.487   8.694  14.774  1.00  0.00     0.039 C 
HETATM   18  C28 UNL     1      -1.836   8.532  16.154  1.00  0.00     0.146 C 
ENDROOT
BRANCH  14  19
HETATM   19  O4  UNL     1      -2.903   5.658  12.529  1.00  0.00    -0.306 OA
BRANCH  19  20
HETATM   20  C18 UNL     1      -3.002   4.320  12.278  1.00  0.00     0.289 C 
HETATM   21  O5  UNL     1      -2.067   3.571  12.028  1.00  0.00    -0.262 OA
BRANCH  20  22
HETATM   22  C19 UNL     1      -4.457   3.852  12.360  1.00  0.00     0.231 C 
BRANCH  22  23
HETATM   23  C20 UNL     1      -4.882   3.195  11.045  1.00  0.00     0.038 C 
HETATM   24  C21 UNL     1      -5.413   1.782  11.221  1.00  0.00     0.008 C 
ENDBRANCH  22  23
BRANCH  22  25
HETATM   25  O6  UNL     1      -5.309   5.007  12.519  1.00  0.00    -0.306 OA
BRANCH  25  26
HETATM   26  C22 UNL     1      -6.444   4.777  13.232  1.00  0.00     0.259 C 
HETATM   27  O7  UNL     1      -6.704   3.728  13.807  1.00  0.00    -0.265 OA
BRANCH  26  28
HETATM   28  C23 UNL     1      -7.318   6.005  13.240  1.00  0.00     0.111 C 
BRANCH  28  29
HETATM   29  C24 UNL     1      -8.725   5.696  12.735  1.00  0.00     0.005 C 
HETATM   30  C25 UNL     1      -9.789   6.563  13.395  1.00  0.00     0.005 C 
ENDBRANCH  28  29
ENDBRANCH  26  28
ENDBRANCH  25  26
ENDBRANCH  22  25
ENDBRANCH  20  22
ENDBRANCH  19  20
ENDBRANCH  14  19
BRANCH   4  31
HETATM   31  O1  UNL     1       1.952   6.489  15.105  1.00  0.00    -0.364 OA
HETATM   32  H5  UNL     1       1.786   5.691  14.582  1.00  0.00     0.213 HD
ENDBRANCH   4  31
BRANCH   8  33
HETATM   33  C8  UNL     1       0.038   7.294  10.120  1.00  0.00     0.010 C 
HETATM   34  C9  UNL     1      -0.549   8.700  10.275  1.00  0.00     0.012 C 
BRANCH  33  35
HETATM   35  C10 UNL     1       1.267   7.321   9.193  1.00  0.00     0.168 C 
BRANCH  35  36
HETATM   36  O3  UNL     1       1.008   8.046   8.003  1.00  0.00    -0.400 OA
HETATM   37  H15 UNL     1       1.805   7.983   7.449  1.00  0.00     0.209 HD
ENDBRANCH  35  36
ENDBRANCH  33  35
ENDBRANCH   8  33
BRANCH  18  38
HETATM   38  O8  UNL     1      -2.696   9.093  17.144  1.00  0.00    -0.391 OA
HETATM   39  H44 UNL     1      -2.662  10.058  17.079  1.00  0.00     0.210 HD
ENDBRANCH  18  38
TORSDOF 13
ENDMDL
MODEL 4
REMARK minimizedAffinity -5.0721674
REMARK CNNscore 0.576295435
REMARK CNNaffinity 5.77688742
REMARK  13 active torsions:
REMARK  status: ('A' for Active; 'I' for Inactive)
REMARK    1  A    between atoms: C4_4  and  O1_5 
REMARK    2  A    between atoms: C7_9  and  C8_10 
REMARK    3  A    between atoms: C8_10  and  C10_12 
REMARK    4  A    between atoms: C10_12  and  O3_13 
REMARK    5  A    between atoms: C16_19  and  O4_21 
REMARK    6  A    between atoms: O4_21  and  C18_22 
REMARK    7  A    between atoms: C18_22  and  C19_24 
REMARK    8  A    between atoms: C19_24  and  C20_25 
REMARK    9  A    between atoms: C19_24  and  O6_27 
REMARK   10  A    between atoms: O6_27  and  C22_28 
REMARK   11  A    between atoms: C22_28  and  C23_30 
REMARK   12  A    between atoms: C23_30  and  C24_31 
REMARK   13  A    between atoms: C28_35  and  O8_36 
ROOT
HETATM    1  C1  UNL     1     -12.096   2.459  28.656  1.00  0.00     0.017 C 
HETATM    2  C2  UNL     1     -13.365   2.649  28.246  1.00  0.00    -0.056 C 
HETATM    3  C3  UNL     1     -13.945   1.770  27.139  1.00  0.00     0.105 C 
HETATM    4  C4  UNL     1     -14.511   2.504  25.896  1.00  0.00     0.173 C 
HETATM    5  O2  UNL     1     -15.597   3.309  26.323  1.00  0.00    -0.345 OA
HETATM    6  C5  UNL     1     -15.590   4.572  25.665  1.00  0.00     0.165 C 
HETATM    7  C6  UNL     1     -14.245   4.751  24.924  1.00  0.00     0.036 C 
HETATM    8  C7  UNL     1     -14.436   5.147  23.428  1.00  0.00    -0.001 C 
HETATM    9  C11 UNL     1     -14.657   3.896  22.567  1.00  0.00     0.010 C 
HETATM   10  C12 UNL     1     -13.537   2.861  22.632  1.00  0.00     0.034 C 
HETATM   11  C13 UNL     1     -12.818   2.815  23.955  1.00  0.00    -0.079 C 
HETATM   12  C14 UNL     1     -11.580   2.295  24.034  1.00  0.00     0.015 C 
HETATM   13  C15 UNL     1     -13.500   3.418  25.164  1.00  0.00     0.083 C 
HETATM   14  C16 UNL     1     -16.028   5.692  26.675  1.00  0.00     0.093 C 
HETATM   15  C17 UNL     1     -17.404   5.265  27.249  1.00  0.00     0.049 C 
HETATM   16  C26 UNL     1     -15.045   6.041  27.842  1.00  0.00     0.044 C 
HETATM   17  C27 UNL     1     -13.905   5.108  28.269  1.00  0.00     0.039 C 
HETATM   18  C28 UNL     1     -14.293   3.723  28.805  1.00  0.00     0.146 C 
ENDROOT
BRANCH  14  19
HETATM   19  O4  UNL     1     -16.217   6.892  25.840  1.00  0.00    -0.306 OA
BRANCH  19  20
HETATM   20  C18 UNL     1     -15.767   8.108  26.264  1.00  0.00     0.289 C 
HETATM   21  O5  UNL     1     -14.592   8.430  26.384  1.00  0.00    -0.262 OA
BRANCH  20  22
HETATM   22  C19 UNL     1     -16.934   9.050  26.571  1.00  0.00     0.231 C 
BRANCH  22  23
HETATM   23  C20 UNL     1     -16.905   9.477  28.040  1.00  0.00     0.038 C 
HETATM   24  C21 UNL     1     -17.639   8.516  28.961  1.00  0.00     0.008 C 
ENDBRANCH  22  23
BRANCH  22  25
HETATM   25  O6  UNL     1     -18.172   8.329  26.392  1.00  0.00    -0.306 OA
BRANCH  25  26
HETATM   26  C22 UNL     1     -18.992   8.846  25.438  1.00  0.00     0.259 C 
HETATM   27  O7  UNL     1     -18.707   9.789  24.711  1.00  0.00    -0.265 OA
BRANCH  26  28
HETATM   28  C23 UNL     1     -20.285   8.073  25.383  1.00  0.00     0.111 C 
BRANCH  28  29
HETATM   29  C24 UNL     1     -20.942   8.174  24.008  1.00  0.00     0.005 C 
HETATM   30  C25 UNL     1     -21.908   7.030  23.733  1.00  0.00     0.005 C 
ENDBRANCH  28  29
ENDBRANCH  26  28
ENDBRANCH  25  26
ENDBRANCH  22  25
ENDBRANCH  20  22
ENDBRANCH  19  20
ENDBRANCH  14  19
BRANCH   4  31
HETATM   31  O1  UNL     1     -15.072   1.511  25.048  1.00  0.00    -0.364 OA
HETATM   32  H5  UNL     1     -15.711   1.980  24.492  1.00  0.00     0.213 HD
ENDBRANCH   4  31
BRANCH   8  33
HETATM   33  C8  UNL     1     -13.369   6.174  22.925  1.00  0.00     0.010 C 
HETATM   34  C9  UNL     1     -13.794   7.116  21.794  1.00  0.00     0.012 C 
BRANCH  33  35
HETATM   35  C10 UNL     1     -12.712   6.966  24.070  1.00  0.00     0.168 C 
BRANCH  35  36
HETATM   36  O3  UNL     1     -11.438   7.464  23.698  1.00  0.00    -0.400 OA
HETATM   37  H15 UNL     1     -11.066   7.911  24.477  1.00  0.00     0.209 HD
ENDBRANCH  35  36
ENDBRANCH  33  35
ENDBRANCH   8  33
BRANCH  18  38
HETATM   38  O8  UNL     1     -14.232   3.741  30.231  1.00  0.00    -0.391 OA
HETATM   39  H44 UNL     1     -13.305   3.750  30.506  1.00  0.00     0.210 HD
ENDBRANCH  18  38
TORSDOF 13
ENDMDL
MODEL 5
REMARK minimizedAffinity -7.01608801
REMARK CNNscore 0.568636656
REMARK CNNaffinity 6.28790712
REMARK  13 active torsions:
REMARK  status: ('A' for Active; 'I' for Inactive)
REMARK    1  A    between atoms: C4_4  and  O1_5 
REMARK    2  A    between atoms: C7_9  and  C8_10 
REMARK    3  A    between atoms: C8_10  and  C10_12 
REMARK    4  A    between atoms: C10_12  and  O3_13 
REMARK    5  A    between atoms: C16_19  and  O4_21 
REMARK    6  A    between atoms: O4_21  and  C18_22 
REMARK    7  A    between atoms: C18_22  and  C19_24 
REMARK    8  A    between atoms: C19_24  and  C20_25 
REMARK    9  A    between atoms: C19_24  and  O6_27 
REMARK   10  A    between atoms: O6_27  and  C22_28 
REMARK   11  A    between atoms: C22_28  and  C23_30 
REMARK   12  A    between atoms: C23_30  and  C24_31 
REMARK   13  A    between atoms: C28_35  and  O8_36 
ROOT
HETATM    1  C1  UNL     1      -0.022   6.723  10.610  1.00  0.00     0.017 C 
HETATM    2  C2  UNL     1       0.425   6.532  11.866  1.00  0.00    -0.056 C 
HETATM    3  C3  UNL     1      -0.429   5.754  12.866  1.00  0.00     0.105 C 
HETATM    4  C4  UNL     1      -0.781   6.481  14.190  1.00  0.00     0.173 C 
HETATM    5  O2  UNL     1       0.431   6.742  14.878  1.00  0.00    -0.345 OA
HETATM    6  C5  UNL     1       0.412   8.032  15.480  1.00  0.00     0.165 C 
HETATM    7  C6  UNL     1      -0.802   8.826  14.942  1.00  0.00     0.036 C 
HETATM    8  C7  UNL     1      -1.674   9.428  16.086  1.00  0.00    -0.001 C 
HETATM    9  C11 UNL     1      -2.678   8.387  16.600  1.00  0.00     0.010 C 
HETATM   10  C12 UNL     1      -3.625   7.827  15.543  1.00  0.00     0.034 C 
HETATM   11  C13 UNL     1      -3.034   7.765  14.158  1.00  0.00    -0.079 C 
HETATM   12  C14 UNL     1      -3.839   7.713  13.081  1.00  0.00     0.015 C 
HETATM   13  C15 UNL     1      -1.528   7.823  14.017  1.00  0.00     0.083 C 
HETATM   14  C16 UNL     1       1.833   8.690  15.356  1.00  0.00     0.093 C 
HETATM   15  C17 UNL     1       2.843   7.694  15.983  1.00  0.00     0.049 C 
HETATM   16  C26 UNL     1       2.314   9.115  13.929  1.00  0.00     0.044 C 
HETATM   17  C27 UNL     1       1.667   8.578  12.645  1.00  0.00     0.039 C 
HETATM   18  C28 UNL     1       1.753   7.067  12.392  1.00  0.00     0.146 C 
ENDROOT
BRANCH  14  19
HETATM   19  O4  UNL     1       1.763   9.890  16.209  1.00  0.00    -0.306 OA
BRANCH  19  20
HETATM   20  C18 UNL     1       2.827  10.253  16.981  1.00  0.00     0.289 C 
HETATM   21  O5  UNL     1       4.003  10.193  16.647  1.00  0.00    -0.262 OA
BRANCH  20  22
HETATM   22  C19 UNL     1       2.365  10.767  18.347  1.00  0.00     0.231 C 
BRANCH  22  23
HETATM   23  C20 UNL     1       2.981  12.138  18.638  1.00  0.00     0.038 C 
HETATM   24  C21 UNL     1       1.953  13.253  18.728  1.00  0.00     0.008 C 
ENDBRANCH  22  23
BRANCH  22  25
HETATM   25  O6  UNL     1       2.868   9.882  19.371  1.00  0.00    -0.306 OA
BRANCH  25  26
HETATM   26  C22 UNL     1       2.322  10.076  20.601  1.00  0.00     0.259 C 
HETATM   27  O7  UNL     1       1.121  10.159  20.825  1.00  0.00    -0.265 OA
BRANCH  26  28
HETATM   28  C23 UNL     1       3.401  10.141  21.651  1.00  0.00     0.111 C 
BRANCH  28  29
HETATM   29  C24 UNL     1       3.005   9.379  22.914  1.00  0.00     0.005 C 
HETATM   30  C25 UNL     1       2.206   8.119  22.613  1.00  0.00     0.005 C 
ENDBRANCH  28  29
ENDBRANCH  26  28
ENDBRANCH  25  26
ENDBRANCH  22  25
ENDBRANCH  20  22
ENDBRANCH  19  20
ENDBRANCH  14  19
BRANCH   4  31
HETATM   31  O1  UNL     1      -1.494   5.551  14.996  1.00  0.00    -0.364 OA
HETATM   32  H5  UNL     1      -1.390   5.868  15.905  1.00  0.00     0.213 HD
ENDBRANCH   4  31
BRANCH   8  33
HETATM   33  C8  UNL     1      -2.237  10.847  15.744  1.00  0.00     0.010 C 
HETATM   34  C9  UNL     1      -3.054  11.548  16.833  1.00  0.00     0.012 C 
BRANCH  33  35
HETATM   35  C10 UNL     1      -1.166  11.797  15.176  1.00  0.00     0.168 C 
BRANCH  35  36
HETATM   36  O3  UNL     1      -1.426  12.129  13.823  1.00  0.00    -0.400 OA
HETATM   37  H15 UNL     1      -0.692  12.689  13.519  1.00  0.00     0.209 HD
ENDBRANCH  35  36
ENDBRANCH  33  35
ENDBRANCH   8  33
BRANCH  18  38
HETATM   38  O8  UNL     1       2.800   6.810  11.456  1.00  0.00    -0.391 OA
HETATM   39  H44 UNL     1       2.510   7.089  10.577  1.00  0.00     0.210 HD
ENDBRANCH  18  38
TORSDOF 13
ENDMDL
MODEL 6
REMARK minimizedAffinity -6.71601343
REMARK CNNscore 0.542427659
REMARK CNNaffinity 6.72650528
REMARK  13 active torsions:
REMARK  status: ('A' for Active; 'I' for Inactive)
REMARK    1  A    between atoms: C4_4  and  O1_5 
REMARK    2  A    between atoms: C7_9  and  C8_10 
REMARK    3  A    between atoms: C8_10  and  C10_12 
REMARK    4  A    between atoms: C10_12  and  O3_13 
REMARK    5  A    between atoms: C16_19  and  O4_21 
REMARK    6  A    between atoms: O4_21  and  C18_22 
REMARK    7  A    between atoms: C18_22  and  C19_24 
REMARK    8  A    between atoms: C19_24  and  C20_25 
REMARK    9  A    between atoms: C19_24  and  O6_27 
REMARK   10  A    between atoms: O6_27  and  C22_28 
REMARK   11  A    between atoms: C22_28  and  C23_30 
REMARK   12  A    between atoms: C23_30  and  C24_31 
REMARK   13  A    between atoms: C28_35  and  O8_36 
ROOT
HETATM    1  C1  UNL     1       0.448  10.854  18.158  1.00  0.00     0.017 C 
HETATM    2  C2  UNL     1       0.776  10.717  16.859  1.00  0.00    -0.056 C 
HETATM    3  C3  UNL     1      -0.068  11.405  15.786  1.00  0.00     0.105 C 
HETATM    4  C4  UNL     1      -0.661  10.494  14.681  1.00  0.00     0.173 C 
HETATM    5  O2  UNL     1       0.420   9.911  13.970  1.00  0.00    -0.345 OA
HETATM    6  C5  UNL     1       0.156   8.546  13.663  1.00  0.00     0.165 C 
HETATM    7  C6  UNL     1      -1.090   8.079  14.452  1.00  0.00     0.036 C 
HETATM    8  C7  UNL     1      -2.158   7.406  13.537  1.00  0.00    -0.001 C 
HETATM    9  C11 UNL     1      -3.058   8.469  12.893  1.00  0.00     0.010 C 
HETATM   10  C12 UNL     1      -3.796   9.373  13.877  1.00  0.00     0.034 C 
HETATM   11  C13 UNL     1      -3.053   9.616  15.165  1.00  0.00    -0.079 C 
HETATM   12  C14 UNL     1      -3.719  10.009  16.266  1.00  0.00     0.015 C 
HETATM   13  C15 UNL     1      -1.563   9.348  15.196  1.00  0.00     0.083 C 
HETATM   14  C16 UNL     1       1.476   7.710  13.811  1.00  0.00     0.093 C 
HETATM   15  C17 UNL     1       2.539   8.387  12.908  1.00  0.00     0.049 C 
HETATM   16  C26 UNL     1       2.049   7.508  15.254  1.00  0.00     0.044 C 
HETATM   17  C27 UNL     1       1.628   8.386  16.440  1.00  0.00     0.039 C 
HETATM   18  C28 UNL     1       1.950   9.884  16.356  1.00  0.00     0.146 C 
ENDROOT
BRANCH  14  19
HETATM   19  O4  UNL     1       1.147   6.390  13.244  1.00  0.00    -0.306 OA
BRANCH  19  20
HETATM   20  C18 UNL     1       0.749   6.276  11.943  1.00  0.00     0.289 C 
HETATM   21  O5  UNL     1       0.448   7.206  11.206  1.00  0.00    -0.262 OA
BRANCH  20  22
HETATM   22  C19 UNL     1       0.734   4.811  11.499  1.00  0.00     0.231 C 
BRANCH  22  23
HETATM   23  C20 UNL     1       1.985   4.489  10.678  1.00  0.00     0.038 C 
HETATM   24  C21 UNL     1       2.840   5.709  10.380  1.00  0.00     0.008 C 
ENDBRANCH  22  23
BRANCH  22  25
HETATM   25  O6  UNL     1      -0.386   4.606  10.611  1.00  0.00    -0.306 OA
BRANCH  25  26
HETATM   26  C22 UNL     1      -1.239   3.621  10.999  1.00  0.00     0.259 C 
HETATM   27  O7  UNL     1      -0.941   2.438  11.094  1.00  0.00    -0.265 OA
BRANCH  26  28
HETATM   28  C23 UNL     1      -2.593   4.198  11.326  1.00  0.00     0.111 C 
BRANCH  28  29
HETATM   29  C24 UNL     1      -3.710   3.188  11.075  1.00  0.00     0.005 C 
HETATM   30  C25 UNL     1      -4.870   3.339  12.050  1.00  0.00     0.005 C 
ENDBRANCH  28  29
ENDBRANCH  26  28
ENDBRANCH  25  26
ENDBRANCH  22  25
ENDBRANCH  20  22
ENDBRANCH  19  20
ENDBRANCH  14  19
BRANCH   4  31
HETATM   31  O1  UNL     1      -1.323  11.344  13.753  1.00  0.00    -0.364 OA
HETATM   32  H5  UNL     1      -1.365  10.839  12.928  1.00  0.00     0.213 HD
ENDBRANCH   4  31
BRANCH   8  33
HETATM   33  C8  UNL     1      -2.871   6.192  14.218  1.00  0.00     0.010 C 
HETATM   34  C9  UNL     1      -1.971   5.093  14.790  1.00  0.00     0.012 C 
BRANCH  33  35
HETATM   35  C10 UNL     1      -3.925   6.620  15.255  1.00  0.00     0.168 C 
BRANCH  35  36
HETATM   36  O3  UNL     1      -3.461   6.433  16.581  1.00  0.00    -0.400 OA
HETATM   37  H15 UNL     1      -4.188   6.679  17.178  1.00  0.00     0.209 HD
ENDBRANCH  35  36
ENDBRANCH  33  35
ENDBRANCH   8  33
BRANCH  18  38
HETATM   38  O8  UNL     1       3.120  10.154  17.129  1.00  0.00    -0.391 OA
HETATM   39  H44 UNL     1       2.893  10.105  18.068  1.00  0.00     0.210 HD
ENDBRANCH  18  38
TORSDOF 13
ENDMDL
MODEL 7
REMARK minimizedAffinity -5.52657127
REMARK CNNscore 0.520802617
REMARK CNNaffinity 5.75107002
REMARK  13 active torsions:
REMARK  status: ('A' for Active; 'I' for Inactive)
REMARK    1  A    between atoms: C4_4  and  O1_5 
REMARK    2  A    between atoms: C7_9  and  C8_10 
REMARK    3  A    between atoms: C8_10  and  C10_12 
REMARK    4  A    between atoms: C10_12  and  O3_13 
REMARK    5  A    between atoms: C16_19  and  O4_21 
REMARK    6  A    between atoms: O4_21  and  C18_22 
REMARK    7  A    between atoms: C18_22  and  C19_24 
REMARK    8  A    between atoms: C19_24  and  C20_25 
REMARK    9  A    between atoms: C19_24  and  O6_27 
REMARK   10  A    between atoms: O6_27  and  C22_28 
REMARK   11  A    between atoms: C22_28  and  C23_30 
REMARK   12  A    between atoms: C23_30  and  C24_31 
REMARK   13  A    between atoms: C28_35  and  O8_36 
ROOT
HETATM    1  C1  UNL     1     -12.110   2.388  28.623  1.00  0.00     0.017 C 
HETATM    2  C2  UNL     1     -13.375   2.604  28.214  1.00  0.00    -0.056 C 
HETATM    3  C3  UNL     1     -13.967   1.753  27.092  1.00  0.00     0.105 C 
HETATM    4  C4  UNL     1     -14.519   2.515  25.861  1.00  0.00     0.173 C 
HETATM    5  O2  UNL     1     -15.594   3.330  26.299  1.00  0.00    -0.345 OA
HETATM    6  C5  UNL     1     -15.567   4.603  25.662  1.00  0.00     0.165 C 
HETATM    7  C6  UNL     1     -14.217   4.774  24.926  1.00  0.00     0.036 C 
HETATM    8  C7  UNL     1     -14.400   5.197  23.437  1.00  0.00    -0.001 C 
HETATM    9  C11 UNL     1     -14.639   3.964  22.554  1.00  0.00     0.010 C 
HETATM   10  C12 UNL     1     -13.535   2.911  22.604  1.00  0.00     0.034 C 
HETATM   11  C13 UNL     1     -12.819   2.832  23.928  1.00  0.00    -0.079 C 
HETATM   12  C14 UNL     1     -11.589   2.292  24.000  1.00  0.00     0.015 C 
HETATM   13  C15 UNL     1     -13.494   3.426  25.145  1.00  0.00     0.083 C 
HETATM   14  C16 UNL     1     -15.989   5.713  26.690  1.00  0.00     0.093 C 
HETATM   15  C17 UNL     1     -17.372   5.297  27.254  1.00  0.00     0.049 C 
HETATM   16  C26 UNL     1     -15.003   6.028  27.864  1.00  0.00     0.044 C 
HETATM   17  C27 UNL     1     -13.878   5.070  28.277  1.00  0.00     0.039 C 
HETATM   18  C28 UNL     1     -14.288   3.683  28.790  1.00  0.00     0.146 C 
ENDROOT
BRANCH  14  19
HETATM   19  O4  UNL     1     -16.159   6.929  25.875  1.00  0.00    -0.306 OA
BRANCH  19  20
HETATM   20  C18 UNL     1     -15.757   8.143  26.351  1.00  0.00     0.289 C 
HETATM   21  O5  UNL     1     -14.630   8.608  26.256  1.00  0.00    -0.262 OA
BRANCH  20  22
HETATM   22  C19 UNL     1     -16.917   8.879  27.028  1.00  0.00     0.231 C 
BRANCH  22  23
HETATM   23  C20 UNL     1     -17.463   9.975  26.110  1.00  0.00     0.038 C 
HETATM   24  C21 UNL     1     -18.479   9.465  25.101  1.00  0.00     0.008 C 
ENDBRANCH  22  23
BRANCH  22  25
HETATM   25  O6  UNL     1     -16.416   9.557  28.200  1.00  0.00    -0.306 OA
BRANCH  25  26
HETATM   26  C22 UNL     1     -16.944   9.117  29.374  1.00  0.00     0.259 C 
HETATM   27  O7  UNL     1     -17.438   8.010  29.544  1.00  0.00    -0.265 OA
BRANCH  26  28
HETATM   28  C23 UNL     1     -16.805  10.173  30.440  1.00  0.00     0.111 C 
BRANCH  28  29
HETATM   29  C24 UNL     1     -16.324  11.501  29.858  1.00  0.00     0.005 C 
HETATM   30  C25 UNL     1     -15.357  12.231  30.780  1.00  0.00     0.005 C 
ENDBRANCH  28  29
ENDBRANCH  26  28
ENDBRANCH  25  26
ENDBRANCH  22  25
ENDBRANCH  20  22
ENDBRANCH  19  20
ENDBRANCH  14  19
BRANCH   4  31
HETATM   31  O1  UNL     1     -15.094   1.545  24.995  1.00  0.00    -0.364 OA
HETATM   32  H5  UNL     1     -15.725   2.033  24.446  1.00  0.00     0.213 HD
ENDBRANCH   4  31
BRANCH   8  33
HETATM   33  C8  UNL     1     -13.316   6.216  22.952  1.00  0.00     0.010 C 
HETATM   34  C9  UNL     1     -13.705   7.142  21.796  1.00  0.00     0.012 C 
BRANCH  33  35
HETATM   35  C10 UNL     1     -12.695   7.024  24.105  1.00  0.00     0.168 C 
BRANCH  35  36
HETATM   36  O3  UNL     1     -11.447   7.586  23.736  1.00  0.00    -0.400 OA
HETATM   37  H15 UNL     1     -11.093   8.040  24.521  1.00  0.00     0.209 HD
ENDBRANCH  35  36
ENDBRANCH  33  35
ENDBRANCH   8  33
BRANCH  18  38
HETATM   38  O8  UNL     1     -14.230   3.676  30.216  1.00  0.00    -0.391 OA
HETATM   39  H44 UNL     1     -13.302   3.666  30.492  1.00  0.00     0.210 HD
ENDBRANCH  18  38
TORSDOF 13
ENDMDL
MODEL 8
REMARK minimizedAffinity -5.79089022
REMARK CNNscore 0.413239717
REMARK CNNaffinity 6.30725908
REMARK  13 active torsions:
REMARK  status: ('A' for Active; 'I' for Inactive)
REMARK    1  A    between atoms: C4_4  and  O1_5 
REMARK    2  A    between atoms: C7_9  and  C8_10 
REMARK    3  A    between atoms: C8_10  and  C10_12 
REMARK    4  A    between atoms: C10_12  and  O3_13 
REMARK    5  A    between atoms: C16_19  and  O4_21 
REMARK    6  A    between atoms: O4_21  and  C18_22 
REMARK    7  A    between atoms: C18_22  and  C19_24 
REMARK    8  A    between atoms: C19_24  and  C20_25 
REMARK    9  A    between atoms: C19_24  and  O6_27 
REMARK   10  A    between atoms: O6_27  and  C22_28 
REMARK   11  A    between atoms: C22_28  and  C23_30 
REMARK   12  A    between atoms: C23_30  and  C24_31 
REMARK   13  A    between atoms: C28_35  and  O8_36 
ROOT
HETATM    1  C1  UNL     1     -17.607   9.862  14.983  1.00  0.00     0.017 C 
HETATM    2  C2  UNL     1     -16.725   8.861  15.168  1.00  0.00    -0.056 C 
HETATM    3  C3  UNL     1     -16.319   8.457  16.584  1.00  0.00     0.105 C 
HETATM    4  C4  UNL     1     -14.803   8.488  16.906  1.00  0.00     0.173 C 
HETATM    5  O2  UNL     1     -14.160   7.543  16.066  1.00  0.00    -0.345 OA
HETATM    6  C5  UNL     1     -12.920   8.047  15.581  1.00  0.00     0.165 C 
HETATM    7  C6  UNL     1     -12.825   9.558  15.900  1.00  0.00     0.036 C 
HETATM    8  C7  UNL     1     -11.498   9.931  16.628  1.00  0.00    -0.001 C 
HETATM    9  C11 UNL     1     -11.631   9.697  18.139  1.00  0.00     0.010 C 
HETATM   10  C12 UNL     1     -12.762  10.468  18.815  1.00  0.00     0.034 C 
HETATM   11  C13 UNL     1     -13.954  10.716  17.927  1.00  0.00    -0.079 C 
HETATM   12  C14 UNL     1     -14.812  11.712  18.211  1.00  0.00     0.015 C 
HETATM   13  C15 UNL     1     -14.119   9.858  16.691  1.00  0.00     0.083 C 
HETATM   14  C16 UNL     1     -12.717   7.598  14.090  1.00  0.00     0.093 C 
HETATM   15  C17 UNL     1     -12.845   6.052  14.068  1.00  0.00     0.049 C 
HETATM   16  C26 UNL     1     -13.654   8.229  13.008  1.00  0.00     0.044 C 
HETATM   17  C27 UNL     1     -14.971   8.931  13.363  1.00  0.00     0.039 C 
HETATM   18  C28 UNL     1     -16.061   8.085  14.034  1.00  0.00     0.146 C 
ENDROOT
BRANCH  14  19
HETATM   19  O4  UNL     1     -11.323   7.959  13.779  1.00  0.00    -0.306 OA
BRANCH  19  20
HETATM   20  C18 UNL     1     -10.585   7.196  12.922  1.00  0.00     0.289 C 
HETATM   21  O5  UNL     1     -10.748   7.123  11.712  1.00  0.00    -0.262 OA
BRANCH  20  22
HETATM   22  C19 UNL     1      -9.491   6.430  13.671  1.00  0.00     0.231 C 
BRANCH  22  23
HETATM   23  C20 UNL     1      -8.754   7.359  14.639  1.00  0.00     0.038 C 
HETATM   24  C21 UNL     1      -8.956   6.991  16.099  1.00  0.00     0.008 C 
ENDBRANCH  22  23
BRANCH  22  25
HETATM   25  O6  UNL     1      -8.501   5.984  12.720  1.00  0.00    -0.306 OA
BRANCH  25  26
HETATM   26  C22 UNL     1      -8.013   4.737  12.957  1.00  0.00     0.259 C 
HETATM   27  O7  UNL     1      -8.667   3.705  12.872  1.00  0.00    -0.265 OA
BRANCH  26  28
HETATM   28  C23 UNL     1      -6.548   4.803  13.306  1.00  0.00     0.111 C 
BRANCH  28  29
HETATM   29  C24 UNL     1      -5.769   3.646  12.687  1.00  0.00     0.005 C 
HETATM   30  C25 UNL     1      -4.294   3.969  12.489  1.00  0.00     0.005 C 
ENDBRANCH  28  29
ENDBRANCH  26  28
ENDBRANCH  25  26
ENDBRANCH  22  25
ENDBRANCH  20  22
ENDBRANCH  19  20
ENDBRANCH  14  19
BRANCH   4  31
HETATM   31  O1  UNL     1     -14.650   7.996  18.232  1.00  0.00    -0.364 OA
HETATM   32  H5  UNL     1     -13.734   7.687  18.286  1.00  0.00     0.213 HD
ENDBRANCH   4  31
BRANCH   8  33
HETATM   33  C8  UNL     1     -10.917  11.311  16.173  1.00  0.00     0.010 C 
HETATM   34  C9  UNL     1     -10.178  12.134  17.232  1.00  0.00     0.012 C 
BRANCH  33  35
HETATM   35  C10 UNL     1     -10.081  11.214  14.884  1.00  0.00     0.168 C 
BRANCH  35  36
HETATM   36  O3  UNL     1     -10.879  10.854  13.769  1.00  0.00    -0.400 OA
HETATM   37  H15 UNL     1     -10.283  10.768  13.006  1.00  0.00     0.209 HD
ENDBRANCH  35  36
ENDBRANCH  33  35
ENDBRANCH   8  33
BRANCH  18  38
HETATM   38  O8  UNL     1     -17.029   7.709  13.054  1.00  0.00    -0.391 OA
HETATM   39  H44 UNL     1     -17.563   8.483  12.828  1.00  0.00     0.210 HD
ENDBRANCH  18  38
TORSDOF 13
ENDMDL
MODEL 9
REMARK minimizedAffinity -6.34567785
REMARK CNNscore 0.41090256
REMARK CNNaffinity 5.63777208
REMARK  13 active torsions:
REMARK  status: ('A' for Active; 'I' for Inactive)
REMARK    1  A    between atoms: C4_4  and  O1_5 
REMARK    2  A    between atoms: C7_9  and  C8_10 
REMARK    3  A    between atoms: C8_10  and  C10_12 
REMARK    4  A    between atoms: C10_12  and  O3_13 
REMARK    5  A    between atoms: C16_19  and  O4_21 
REMARK    6  A    between atoms: O4_21  and  C18_22 
REMARK    7  A    between atoms: C18_22  and  C19_24 
REMARK    8  A    between atoms: C19_24  and  C20_25 
REMARK    9  A    between atoms: C19_24  and  O6_27 
REMARK   10  A    between atoms: O6_27  and  C22_28 
REMARK   11  A    between atoms: C22_28  and  C23_30 
REMARK   12  A    between atoms: C23_30  and  C24_31 
REMARK   13  A    between atoms: C28_35  and  O8_36 
ROOT
HETATM    1  C1  UNL     1      -2.603  18.969   0.621  1.00  0.00     0.017 C 
HETATM    2  C2  UNL     1      -2.466  17.754   0.054  1.00  0.00    -0.056 C 
HETATM    3  C3  UNL     1      -3.090  16.529   0.721  1.00  0.00     0.105 C 
HETATM    4  C4  UNL     1      -2.131  15.357   1.053  1.00  0.00     0.173 C 
HETATM    5  O2  UNL     1      -1.601  14.870  -0.169  1.00  0.00    -0.345 OA
HETATM    6  C5  UNL     1      -0.219  14.552  -0.039  1.00  0.00     0.165 C 
HETATM    7  C6  UNL     1       0.306  15.112   1.304  1.00  0.00     0.036 C 
HETATM    8  C7  UNL     1       1.051  14.034   2.149  1.00  0.00    -0.001 C 
HETATM    9  C11 UNL     1       0.050  13.211   2.971  1.00  0.00     0.010 C 
HETATM   10  C12 UNL     1      -0.824  14.023   3.924  1.00  0.00     0.034 C 
HETATM   11  C13 UNL     1      -1.127  15.418   3.443  1.00  0.00    -0.079 C 
HETATM   12  C14 UNL     1      -1.497  16.370   4.320  1.00  0.00     0.015 C 
HETATM   13  C15 UNL     1      -0.944  15.727   1.973  1.00  0.00     0.083 C 
HETATM   14  C16 UNL     1       0.539  14.959  -1.352  1.00  0.00     0.093 C 
HETATM   15  C17 UNL     1      -0.184  14.248  -2.525  1.00  0.00     0.049 C 
HETATM   16  C26 UNL     1       0.688  16.486  -1.660  1.00  0.00     0.044 C 
HETATM   17  C27 UNL     1      -0.181  17.554  -0.983  1.00  0.00     0.039 C 
HETATM   18  C28 UNL     1      -1.693  17.495  -1.236  1.00  0.00     0.146 C 
ENDROOT
BRANCH  14  19
HETATM   19  O4  UNL     1       1.883  14.373  -1.202  1.00  0.00    -0.306 OA
BRANCH  19  20
HETATM   20  C18 UNL     1       2.696  14.220  -2.287  1.00  0.00     0.289 C 
HETATM   21  O5  UNL     1       2.394  14.477  -3.445  1.00  0.00    -0.262 OA
BRANCH  20  22
HETATM   22  C19 UNL     1       4.070  13.687  -1.874  1.00  0.00     0.231 C 
BRANCH  22  23
HETATM   23  C20 UNL     1       4.843  14.751  -1.090  1.00  0.00     0.038 C 
HETATM   24  C21 UNL     1       6.071  14.203  -0.382  1.00  0.00     0.008 C 
ENDBRANCH  22  23
BRANCH  22  25
HETATM   25  O6  UNL     1       4.847  13.431  -3.065  1.00  0.00    -0.306 OA
BRANCH  25  26
HETATM   26  C22 UNL     1       5.069  12.114  -3.320  1.00  0.00     0.259 C 
HETATM   27  O7  UNL     1       5.490  11.307  -2.501  1.00  0.00    -0.265 OA
BRANCH  26  28
HETATM   28  C23 UNL     1       4.693  11.785  -4.742  1.00  0.00     0.111 C 
BRANCH  28  29
HETATM   29  C24 UNL     1       5.915  11.398  -5.572  1.00  0.00     0.005 C 
HETATM   30  C25 UNL     1       5.659  10.198  -6.472  1.00  0.00     0.005 C 
ENDBRANCH  28  29
ENDBRANCH  26  28
ENDBRANCH  25  26
ENDBRANCH  22  25
ENDBRANCH  20  22
ENDBRANCH  19  20
ENDBRANCH  14  19
BRANCH   4  31
HETATM   31  O1  UNL     1      -2.930  14.304   1.578  1.00  0.00    -0.364 OA
HETATM   32  H5  UNL     1      -2.412  13.497   1.441  1.00  0.00     0.213 HD
ENDBRANCH   4  31
BRANCH   8  33
HETATM   33  C8  UNL     1       2.294  14.604   2.910  1.00  0.00     0.010 C 
HETATM   34  C9  UNL     1       2.315  14.428   4.431  1.00  0.00     0.012 C 
BRANCH  33  35
HETATM   35  C10 UNL     1       3.632  14.152   2.296  1.00  0.00     0.168 C 
BRANCH  35  36
HETATM   36  O3  UNL     1       4.734  14.550   3.093  1.00  0.00    -0.400 OA
HETATM   37  H15 UNL     1       5.541  14.273   2.626  1.00  0.00     0.209 HD
ENDBRANCH  35  36
ENDBRANCH  33  35
ENDBRANCH   8  33
BRANCH  18  38
HETATM   38  O8  UNL     1      -2.040  18.460  -2.227  1.00  0.00    -0.391 OA
HETATM   39  H44 UNL     1      -1.992  19.344  -1.835  1.00  0.00     0.210 HD
ENDBRANCH  18  38
TORSDOF 13
ENDMDL
