MODEL 1
REMARK minimizedAffinity -8.9309721
REMARK CNNscore 0.589292526
REMARK CNNaffinity 7.37263536
REMARK  12 active torsions:
REMARK  status: ('A' for Active; 'I' for Inactive)
REMARK    1  A    between atoms: C4_4  and  C5_5 
REMARK    2  A    between atoms: C5_5  and  C6_6 
REMARK    3  A    between atoms: C6_6  and  C7_7 
REMARK    4  A    between atoms: C7_7  and  C9_9 
REMARK    5  A    between atoms: C18_18  and  C20_20 
REMARK    6  A    between atoms: C20_20  and  O2_22 
REMARK    7  A    between atoms: C21_23  and  O3_24 
REMARK    8  A    between atoms: O3_24  and  C22_25 
REMARK    9  A    between atoms: C24_28  and  O5_29 
REMARK   10  A    between atoms: C25_30  and  O6_31 
REMARK   11  A    between atoms: C26_32  and  O7_33 
REMARK   12  A    between atoms: C28_35  and  O8_36 
ROOT
HETATM    1  C9  UNL     1      -7.806   6.159  14.252  1.00  0.00    -0.002 C 
HETATM    2  C10 UNL     1      -8.110   5.467  12.897  1.00  0.00     0.006 C 
HETATM    3  C11 UNL     1      -6.765   5.117  12.236  1.00  0.00     0.011 C 
HETATM    4  C12 UNL     1      -5.698   5.400  13.309  1.00  0.00    -0.032 C 
HETATM    5  C13 UNL     1      -5.585   4.102  14.167  1.00  0.00     0.016 C 
HETATM    6  C14 UNL     1      -4.311   5.803  12.743  1.00  0.00     0.004 C 
HETATM    7  C15 UNL     1      -3.573   4.665  12.022  1.00  0.00     0.007 C 
HETATM    8  C16 UNL     1      -2.247   5.165  11.452  1.00  0.00     0.007 C 
HETATM    9  C17 UNL     1      -1.273   5.468  12.602  1.00  0.00     0.018 C 
HETATM   10  C18 UNL     1       0.150   5.937  12.152  1.00  0.00     0.072 C 
HETATM   11  C19 UNL     1       0.110   7.238  11.323  1.00  0.00     0.030 C 
HETATM   12  C21 UNL     1       1.069   6.098  13.406  1.00  0.00     0.146 C 
HETATM   13  C27 UNL     1       0.434   6.997  14.475  1.00  0.00     0.066 C 
HETATM   14  C28 UNL     1      -0.957   6.521  14.880  1.00  0.00     0.130 C 
HETATM   15  C29 UNL     1      -1.868   6.407  13.664  1.00  0.00    -0.001 A 
HETATM   16  C30 UNL     1      -2.602   7.665  13.267  1.00  0.00     0.024 A 
HETATM   17  C31 UNL     1      -3.418   6.499  13.803  1.00  0.00    -0.025 A 
HETATM   18  C32 UNL     1      -4.002   6.660  15.209  1.00  0.00     0.011 C 
HETATM   19  C33 UNL     1      -5.519   6.883  15.337  1.00  0.00     0.011 C 
HETATM   20  C34 UNL     1      -6.327   6.632  14.058  1.00  0.00    -0.032 C 
HETATM   21  C35 UNL     1      -6.320   7.949  13.222  1.00  0.00     0.016 C 
ENDROOT
BRANCH  12  22
HETATM   22  O3  UNL     1       2.330   6.656  12.988  1.00  0.00    -0.352 OA
BRANCH  22  23
HETATM   23  C22 UNL     1       2.696   7.861  13.666  1.00  0.00     0.291 C 
HETATM   24  O4  UNL     1       2.860   8.951  12.759  1.00  0.00    -0.356 OA
HETATM   25  C23 UNL     1       3.810   8.687  11.715  1.00  0.00     0.205 C 
HETATM   26  C24 UNL     1       5.028   7.879  12.171  1.00  0.00     0.173 C 
HETATM   27  C25 UNL     1       5.240   8.094  13.665  1.00  0.00     0.182 C 
HETATM   28  C26 UNL     1       4.010   7.625  14.455  1.00  0.00     0.204 C 
BRANCH  26  29
HETATM   29  O5  UNL     1       6.195   8.276  11.447  1.00  0.00    -0.391 OA
HETATM   30  H39 UNL     1       6.945   7.904  11.956  1.00  0.00     0.210 HD
ENDBRANCH  26  29
BRANCH  27  31
HETATM   31  O6  UNL     1       6.418   7.389  14.093  1.00  0.00    -0.390 OA
HETATM   32  H41 UNL     1       6.412   7.429  15.070  1.00  0.00     0.210 HD
ENDBRANCH  27  31
BRANCH  28  33
HETATM   33  O7  UNL     1       4.015   8.337  15.710  1.00  0.00    -0.388 OA
HETATM   34  H43 UNL     1       3.759   9.260  15.523  1.00  0.00     0.210 HD
ENDBRANCH  28  33
ENDBRANCH  22  23
ENDBRANCH  12  22
BRANCH  10  35
HETATM   35  C20 UNL     1       0.769   4.850  11.271  1.00  0.00     0.151 C 
HETATM   36  O1  UNL     1       1.641   4.997  10.428  1.00  0.00    -0.649 OA
BRANCH  35  37
HETATM   37  O2  UNL     1       0.243   3.624  11.460  1.00  0.00    -0.776 OA
HETATM   38  H33 UNL     1       0.734   3.058  10.826  1.00  0.00     0.167 HD
ENDBRANCH  35  37
ENDBRANCH  10  35
BRANCH  14  39
HETATM   39  O8  UNL     1      -0.846   5.247  15.505  1.00  0.00    -0.395 OA
HETATM   40  H47 UNL     1      -1.750   4.939  15.686  1.00  0.00     0.210 HD
ENDBRANCH  14  39
BRANCH   1  41
HETATM   41  C7  UNL     1      -8.912   7.173  14.676  1.00  0.00    -0.014 C 
HETATM   42  C8  UNL     1      -9.121   7.185  16.197  1.00  0.00     0.010 C 
BRANCH  41  43
HETATM   43  C6  UNL     1     -10.284   6.846  14.017  1.00  0.00     0.008 C 
BRANCH  43  44
HETATM   44  C5  UNL     1     -11.284   8.008  14.039  1.00  0.00     0.028 C 
BRANCH  44  45
HETATM   45  C4  UNL     1     -12.458   7.731  13.135  1.00  0.00    -0.025 C 
HETATM   46  C2  UNL     1     -13.766   7.895  13.409  1.00  0.00    -0.091 C 
HETATM   47  C1  UNL     1     -14.319   8.448  14.693  1.00  0.00     0.042 C 
HETATM   48  C3  UNL     1     -14.816   7.533  12.389  1.00  0.00     0.042 C 
ENDBRANCH  44  45
ENDBRANCH  43  44
ENDBRANCH  41  43
ENDBRANCH   1  41
TORSDOF 12
ENDMDL
MODEL 2
REMARK minimizedAffinity -10.3183079
REMARK CNNscore 0.469004124
REMARK CNNaffinity 7.09894419
REMARK  12 active torsions:
REMARK  status: ('A' for Active; 'I' for Inactive)
REMARK    1  A    between atoms: C4_4  and  C5_5 
REMARK    2  A    between atoms: C5_5  and  C6_6 
REMARK    3  A    between atoms: C6_6  and  C7_7 
REMARK    4  A    between atoms: C7_7  and  C9_9 
REMARK    5  A    between atoms: C18_18  and  C20_20 
REMARK    6  A    between atoms: C20_20  and  O2_22 
REMARK    7  A    between atoms: C21_23  and  O3_24 
REMARK    8  A    between atoms: O3_24  and  C22_25 
REMARK    9  A    between atoms: C24_28  and  O5_29 
REMARK   10  A    between atoms: C25_30  and  O6_31 
REMARK   11  A    between atoms: C26_32  and  O7_33 
REMARK   12  A    between atoms: C28_35  and  O8_36 
ROOT
HETATM    1  C9  UNL     1      -6.099   6.232  14.778  1.00  0.00    -0.002 C 
HETATM    2  C10 UNL     1      -6.373   5.240  13.617  1.00  0.00     0.006 C 
HETATM    3  C11 UNL     1      -5.056   5.045  12.845  1.00  0.00     0.011 C 
HETATM    4  C12 UNL     1      -3.978   5.742  13.695  1.00  0.00    -0.032 C 
HETATM    5  C13 UNL     1      -3.493   4.688  14.738  1.00  0.00     0.016 C 
HETATM    6  C14 UNL     1      -2.780   6.296  12.880  1.00  0.00     0.004 C 
HETATM    7  C15 UNL     1      -1.882   5.212  12.270  1.00  0.00     0.007 C 
HETATM    8  C16 UNL     1      -0.765   5.846  11.443  1.00  0.00     0.007 C 
HETATM    9  C17 UNL     1       0.227   6.559  12.377  1.00  0.00     0.018 C 
HETATM   10  C18 UNL     1       1.457   7.207  11.660  1.00  0.00     0.072 C 
HETATM   11  C19 UNL     1       1.044   8.284  10.634  1.00  0.00     0.030 C 
HETATM   12  C21 UNL     1       2.436   7.794  12.727  1.00  0.00     0.146 C 
HETATM   13  C27 UNL     1       1.725   8.739  13.705  1.00  0.00     0.066 C 
HETATM   14  C28 UNL     1       0.523   8.082  14.376  1.00  0.00     0.130 C 
HETATM   15  C29 UNL     1      -0.456   7.550  13.336  1.00  0.00    -0.001 A 
HETATM   16  C30 UNL     1      -1.489   8.530  12.836  1.00  0.00     0.024 A 
HETATM   17  C31 UNL     1      -1.966   7.353  13.672  1.00  0.00    -0.025 A 
HETATM   18  C32 UNL     1      -2.428   7.666  15.096  1.00  0.00     0.011 C 
HETATM   19  C33 UNL     1      -3.936   7.600  15.394  1.00  0.00     0.011 C 
HETATM   20  C34 UNL     1      -4.790   6.945  14.302  1.00  0.00    -0.032 C 
HETATM   21  C35 UNL     1      -5.161   8.046  13.261  1.00  0.00     0.016 C 
ENDROOT
BRANCH  12  22
HETATM   22  O3  UNL     1       3.492   8.500  12.049  1.00  0.00    -0.352 OA
BRANCH  22  23
HETATM   23  C22 UNL     1       4.378   9.212  12.917  1.00  0.00     0.291 C 
HETATM   24  O4  UNL     1       5.463   9.802  12.201  1.00  0.00    -0.356 OA
HETATM   25  C23 UNL     1       6.216   8.856  11.427  1.00  0.00     0.205 C 
HETATM   26  C24 UNL     1       6.395   7.496  12.106  1.00  0.00     0.173 C 
HETATM   27  C25 UNL     1       6.295   7.675  13.616  1.00  0.00     0.182 C 
HETATM   28  C26 UNL     1       4.921   8.243  14.000  1.00  0.00     0.204 C 
BRANCH  26  29
HETATM   29  O5  UNL     1       7.660   6.924  11.762  1.00  0.00    -0.391 OA
HETATM   30  H39 UNL     1       7.795   6.204  12.412  1.00  0.00     0.210 HD
ENDBRANCH  26  29
BRANCH  27  31
HETATM   31  O6  UNL     1       6.523   6.414  14.269  1.00  0.00    -0.390 OA
HETATM   32  H41 UNL     1       6.290   6.555  15.208  1.00  0.00     0.210 HD
ENDBRANCH  27  31
BRANCH  28  33
HETATM   33  O7  UNL     1       5.075   8.899  15.276  1.00  0.00    -0.388 OA
HETATM   34  H43 UNL     1       5.567   9.728  15.121  1.00  0.00     0.210 HD
ENDBRANCH  28  33
ENDBRANCH  22  23
ENDBRANCH  12  22
BRANCH  10  35
HETATM   35  C20 UNL     1       2.212   6.116  10.900  1.00  0.00     0.151 C 
HETATM   36  O1  UNL     1       1.814   5.483   9.933  1.00  0.00    -0.649 OA
BRANCH  35  37
HETATM   37  O2  UNL     1       3.431   5.838  11.406  1.00  0.00    -0.776 OA
HETATM   38  H33 UNL     1       3.770   5.127  10.820  1.00  0.00     0.167 HD
ENDBRANCH  35  37
ENDBRANCH  10  35
BRANCH  14  39
HETATM   39  O8  UNL     1       0.978   7.005  15.187  1.00  0.00    -0.395 OA
HETATM   40  H47 UNL     1       0.188   6.563  15.542  1.00  0.00     0.210 HD
ENDBRANCH  14  39
BRANCH   1  41
HETATM   41  C7  UNL     1      -7.356   7.066  15.172  1.00  0.00    -0.014 C 
HETATM   42  C8  UNL     1      -7.659   6.963  16.675  1.00  0.00     0.010 C 
BRANCH  41  43
HETATM   43  C6  UNL     1      -8.628   6.598  14.405  1.00  0.00     0.008 C 
BRANCH  43  44
HETATM   44  C5  UNL     1      -9.767   7.624  14.394  1.00  0.00     0.028 C 
BRANCH  44  45
HETATM   45  C4  UNL     1     -11.087   6.965  14.089  1.00  0.00    -0.025 C 
HETATM   46  C2  UNL     1     -12.150   7.500  13.458  1.00  0.00    -0.091 C 
HETATM   47  C1  UNL     1     -12.204   8.886  12.878  1.00  0.00     0.042 C 
HETATM   48  C3  UNL     1     -13.413   6.700  13.266  1.00  0.00     0.042 C 
ENDBRANCH  44  45
ENDBRANCH  43  44
ENDBRANCH  41  43
ENDBRANCH   1  41
TORSDOF 12
ENDMDL
MODEL 3
REMARK minimizedAffinity -10.0768452
REMARK CNNscore 0.37360239
REMARK CNNaffinity 6.88037348
REMARK  12 active torsions:
REMARK  status: ('A' for Active; 'I' for Inactive)
REMARK    1  A    between atoms: C4_4  and  C5_5 
REMARK    2  A    between atoms: C5_5  and  C6_6 
REMARK    3  A    between atoms: C6_6  and  C7_7 
REMARK    4  A    between atoms: C7_7  and  C9_9 
REMARK    5  A    between atoms: C18_18  and  C20_20 
REMARK    6  A    between atoms: C20_20  and  O2_22 
REMARK    7  A    between atoms: C21_23  and  O3_24 
REMARK    8  A    between atoms: O3_24  and  C22_25 
REMARK    9  A    between atoms: C24_28  and  O5_29 
REMARK   10  A    between atoms: C25_30  and  O6_31 
REMARK   11  A    between atoms: C26_32  and  O7_33 
REMARK   12  A    between atoms: C28_35  and  O8_36 
ROOT
HETATM    1  C9  UNL     1      -7.718   6.841  14.506  1.00  0.00    -0.002 C 
HETATM    2  C10 UNL     1      -7.564   6.204  15.913  1.00  0.00     0.006 C 
HETATM    3  C11 UNL     1      -6.071   6.237  16.282  1.00  0.00     0.011 C 
HETATM    4  C12 UNL     1      -5.400   7.094  15.194  1.00  0.00    -0.032 C 
HETATM    5  C13 UNL     1      -5.524   8.577  15.666  1.00  0.00     0.016 C 
HETATM    6  C14 UNL     1      -3.918   6.732  14.916  1.00  0.00     0.004 C 
HETATM    7  C15 UNL     1      -2.961   7.081  16.063  1.00  0.00     0.007 C 
HETATM    8  C16 UNL     1      -1.537   6.641  15.725  1.00  0.00     0.007 C 
HETATM    9  C17 UNL     1      -0.979   7.522  14.596  1.00  0.00     0.018 C 
HETATM   10  C18 UNL     1       0.499   7.212  14.189  1.00  0.00     0.072 C 
HETATM   11  C19 UNL     1       0.682   5.765  13.681  1.00  0.00     0.030 C 
HETATM   12  C21 UNL     1       0.976   8.247  13.119  1.00  0.00     0.146 C 
HETATM   13  C27 UNL     1       0.013   8.330  11.926  1.00  0.00     0.066 C 
HETATM   14  C28 UNL     1      -1.421   8.618  12.359  1.00  0.00     0.130 C 
HETATM   15  C29 UNL     1      -1.903   7.583  13.367  1.00  0.00    -0.001 A 
HETATM   16  C30 UNL     1      -2.512   6.329  12.789  1.00  0.00     0.024 A 
HETATM   17  C31 UNL     1      -3.421   7.279  13.552  1.00  0.00    -0.025 A 
HETATM   18  C32 UNL     1      -4.419   8.090  12.721  1.00  0.00     0.011 C 
HETATM   19  C33 UNL     1      -5.906   7.703  12.803  1.00  0.00     0.011 C 
HETATM   20  C34 UNL     1      -6.267   6.730  13.932  1.00  0.00    -0.032 C 
HETATM   21  C35 UNL     1      -6.037   5.280  13.406  1.00  0.00     0.016 C 
ENDROOT
BRANCH  12  22
HETATM   22  O3  UNL     1       2.287   7.868  12.660  1.00  0.00    -0.352 OA
BRANCH  22  23
HETATM   23  C22 UNL     1       2.752   8.606  11.527  1.00  0.00     0.291 C 
HETATM   24  O4  UNL     1       2.372   7.988  10.298  1.00  0.00    -0.356 OA
HETATM   25  C23 UNL     1       2.809   6.625  10.186  1.00  0.00     0.205 C 
HETATM   26  C24 UNL     1       4.196   6.364  10.779  1.00  0.00     0.173 C 
HETATM   27  C25 UNL     1       4.998   7.659  10.762  1.00  0.00     0.182 C 
HETATM   28  C26 UNL     1       4.296   8.738  11.600  1.00  0.00     0.204 C 
BRANCH  26  29
HETATM   29  O5  UNL     1       4.880   5.353  10.034  1.00  0.00    -0.391 OA
HETATM   30  H39 UNL     1       5.816   5.424  10.314  1.00  0.00     0.210 HD
ENDBRANCH  26  29
BRANCH  27  31
HETATM   31  O6  UNL     1       6.325   7.414  11.259  1.00  0.00    -0.390 OA
HETATM   32  H41 UNL     1       6.733   8.295  11.375  1.00  0.00     0.210 HD
ENDBRANCH  27  31
BRANCH  28  33
HETATM   33  O7  UNL     1       4.748  10.017  11.110  1.00  0.00    -0.388 OA
HETATM   34  H43 UNL     1       4.321  10.166  10.244  1.00  0.00     0.210 HD
ENDBRANCH  28  33
ENDBRANCH  22  23
ENDBRANCH  12  22
BRANCH  10  35
HETATM   35  C20 UNL     1       1.393   7.383  15.418  1.00  0.00     0.151 C 
HETATM   36  O1  UNL     1       2.534   7.819  15.442  1.00  0.00    -0.649 OA
BRANCH  35  37
HETATM   37  O2  UNL     1       0.828   6.966  16.570  1.00  0.00    -0.776 OA
HETATM   38  H33 UNL     1       1.521   7.135  17.244  1.00  0.00     0.167 HD
ENDBRANCH  35  37
ENDBRANCH  10  35
BRANCH  14  39
HETATM   39  O8  UNL     1      -1.474   9.911  12.951  1.00  0.00    -0.395 OA
HETATM   40  H47 UNL     1      -2.380  10.037  13.280  1.00  0.00     0.210 HD
ENDBRANCH  14  39
BRANCH   1  41
HETATM   41  C7  UNL     1      -8.930   6.266  13.710  1.00  0.00    -0.014 C 
HETATM   42  C8  UNL     1      -8.519   5.806  12.304  1.00  0.00     0.010 C 
BRANCH  41  43
HETATM   43  C6  UNL     1     -10.069   7.315  13.547  1.00  0.00     0.008 C 
BRANCH  43  44
HETATM   44  C5  UNL     1     -11.346   6.979  14.326  1.00  0.00     0.028 C 
BRANCH  44  45
HETATM   45  C4  UNL     1     -12.575   7.325  13.525  1.00  0.00    -0.025 C 
HETATM   46  C2  UNL     1     -13.770   6.704  13.539  1.00  0.00    -0.091 C 
HETATM   47  C1  UNL     1     -14.130   5.539  14.420  1.00  0.00     0.042 C 
HETATM   48  C3  UNL     1     -14.889   7.168  12.641  1.00  0.00     0.042 C 
ENDBRANCH  44  45
ENDBRANCH  43  44
ENDBRANCH  41  43
ENDBRANCH   1  41
TORSDOF 12
ENDMDL
MODEL 4
REMARK minimizedAffinity -10.4149523
REMARK CNNscore 0.36876002
REMARK CNNaffinity 6.7299695
REMARK  12 active torsions:
REMARK  status: ('A' for Active; 'I' for Inactive)
REMARK    1  A    between atoms: C4_4  and  C5_5 
REMARK    2  A    between atoms: C5_5  and  C6_6 
REMARK    3  A    between atoms: C6_6  and  C7_7 
REMARK    4  A    between atoms: C7_7  and  C9_9 
REMARK    5  A    between atoms: C18_18  and  C20_20 
REMARK    6  A    between atoms: C20_20  and  O2_22 
REMARK    7  A    between atoms: C21_23  and  O3_24 
REMARK    8  A    between atoms: O3_24  and  C22_25 
REMARK    9  A    between atoms: C24_28  and  O5_29 
REMARK   10  A    between atoms: C25_30  and  O6_31 
REMARK   11  A    between atoms: C26_32  and  O7_33 
REMARK   12  A    between atoms: C28_35  and  O8_36 
ROOT
HETATM    1  C9  UNL     1      -3.569   6.729  14.284  1.00  0.00    -0.002 C 
HETATM    2  C10 UNL     1      -3.691   6.069  12.885  1.00  0.00     0.006 C 
HETATM    3  C11 UNL     1      -2.274   5.950  12.297  1.00  0.00     0.011 C 
HETATM    4  C12 UNL     1      -1.322   6.329  13.445  1.00  0.00    -0.032 C 
HETATM    5  C13 UNL     1      -1.069   5.019  14.255  1.00  0.00     0.016 C 
HETATM    6  C14 UNL     1       0.020   6.955  12.984  1.00  0.00     0.004 C 
HETATM    7  C15 UNL     1       0.956   5.973  12.266  1.00  0.00     0.007 C 
HETATM    8  C16 UNL     1       2.224   6.686  11.801  1.00  0.00     0.007 C 
HETATM    9  C17 UNL     1       3.078   7.068  13.022  1.00  0.00     0.018 C 
HETATM   10  C18 UNL     1       4.439   7.759  12.682  1.00  0.00     0.072 C 
HETATM   11  C19 UNL     1       4.255   9.081  11.906  1.00  0.00     0.030 C 
HETATM   12  C21 UNL     1       5.252   7.989  13.997  1.00  0.00     0.146 C 
HETATM   13  C27 UNL     1       4.433   8.733  15.060  1.00  0.00     0.066 C 
HETATM   14  C28 UNL     1       3.106   8.041  15.357  1.00  0.00     0.130 C 
HETATM   15  C29 UNL     1       2.292   7.858  14.082  1.00  0.00    -0.001 A 
HETATM   16  C30 UNL     1       1.404   9.015  13.692  1.00  0.00     0.024 A 
HETATM   17  C31 UNL     1       0.739   7.719  14.127  1.00  0.00    -0.025 A 
HETATM   18  C32 UNL     1       0.060   7.724  15.498  1.00  0.00     0.011 C 
HETATM   19  C33 UNL     1      -1.478   7.719  15.539  1.00  0.00     0.011 C 
HETATM   20  C34 UNL     1      -2.167   7.419  14.203  1.00  0.00    -0.032 C 
HETATM   21  C35 UNL     1      -2.306   8.763  13.424  1.00  0.00     0.016 C 
ENDROOT
BRANCH  12  22
HETATM   22  O3  UNL     1       6.439   8.742  13.683  1.00  0.00    -0.352 OA
BRANCH  22  23
HETATM   23  C22 UNL     1       6.877   9.616  14.727  1.00  0.00     0.291 C 
HETATM   24  O4  UNL     1       7.954  10.452  14.302  1.00  0.00    -0.356 OA
HETATM   25  C23 UNL     1       9.079   9.720  13.794  1.00  0.00     0.205 C 
HETATM   26  C24 UNL     1       9.370   8.420  14.550  1.00  0.00     0.173 C 
HETATM   27  C25 UNL     1       8.831   8.537  15.970  1.00  0.00     0.182 C 
HETATM   28  C26 UNL     1       7.314   8.771  15.952  1.00  0.00     0.204 C 
BRANCH  26  29
HETATM   29  O5  UNL     1      10.775   8.158  14.577  1.00  0.00    -0.391 OA
HETATM   30  H39 UNL     1      10.889   7.472  15.267  1.00  0.00     0.210 HD
ENDBRANCH  26  29
BRANCH  27  31
HETATM   31  O6  UNL     1       9.152   7.346  16.709  1.00  0.00    -0.390 OA
HETATM   32  H41 UNL     1       8.650   7.408  17.546  1.00  0.00     0.210 HD
ENDBRANCH  27  31
BRANCH  28  33
HETATM   33  O7  UNL     1       6.968   9.414  17.196  1.00  0.00    -0.388 OA
HETATM   34  H43 UNL     1       7.285  10.336  17.146  1.00  0.00     0.210 HD
ENDBRANCH  28  33
ENDBRANCH  22  23
ENDBRANCH  12  22
BRANCH  10  35
HETATM   35  C20 UNL     1       5.260   6.819  11.797  1.00  0.00     0.151 C 
HETATM   36  O1  UNL     1       5.217   6.732  10.579  1.00  0.00    -0.649 OA
BRANCH  35  37
HETATM   37  O2  UNL     1       6.080   5.997  12.483  1.00  0.00    -0.776 OA
HETATM   38  H33 UNL     1       6.518   5.466  11.782  1.00  0.00     0.167 HD
ENDBRANCH  35  37
ENDBRANCH  10  35
BRANCH  14  39
HETATM   39  O8  UNL     1       3.368   6.767  15.934  1.00  0.00    -0.395 OA
HETATM   40  H47 UNL     1       2.509   6.323  16.045  1.00  0.00     0.210 HD
ENDBRANCH  14  39
BRANCH   1  41
HETATM   41  C7  UNL     1      -4.834   7.551  14.678  1.00  0.00    -0.014 C 
HETATM   42  C8  UNL     1      -4.472   8.786  15.516  1.00  0.00     0.010 C 
BRANCH  41  43
HETATM   43  C6  UNL     1      -5.844   6.703  15.505  1.00  0.00     0.008 C 
BRANCH  43  44
HETATM   44  C5  UNL     1      -7.111   6.310  14.736  1.00  0.00     0.028 C 
BRANCH  44  45
HETATM   45  C4  UNL     1      -7.035   4.883  14.259  1.00  0.00    -0.025 C 
HETATM   46  C2  UNL     1      -7.578   4.355  13.145  1.00  0.00    -0.091 C 
HETATM   47  C1  UNL     1      -8.347   5.127  12.109  1.00  0.00     0.042 C 
HETATM   48  C3  UNL     1      -7.428   2.887  12.837  1.00  0.00     0.042 C 
ENDBRANCH  44  45
ENDBRANCH  43  44
ENDBRANCH  41  43
ENDBRANCH   1  41
TORSDOF 12
ENDMDL
MODEL 5
REMARK minimizedAffinity -8.52191162
REMARK CNNscore 0.278922915
REMARK CNNaffinity 6.84263468
REMARK  12 active torsions:
REMARK  status: ('A' for Active; 'I' for Inactive)
REMARK    1  A    between atoms: C4_4  and  C5_5 
REMARK    2  A    between atoms: C5_5  and  C6_6 
REMARK    3  A    between atoms: C6_6  and  C7_7 
REMARK    4  A    between atoms: C7_7  and  C9_9 
REMARK    5  A    between atoms: C18_18  and  C20_20 
REMARK    6  A    between atoms: C20_20  and  O2_22 
REMARK    7  A    between atoms: C21_23  and  O3_24 
REMARK    8  A    between atoms: O3_24  and  C22_25 
REMARK    9  A    between atoms: C24_28  and  O5_29 
REMARK   10  A    between atoms: C25_30  and  O6_31 
REMARK   11  A    between atoms: C26_32  and  O7_33 
REMARK   12  A    between atoms: C28_35  and  O8_36 
ROOT
HETATM    1  C9  UNL     1      -5.669   6.833  14.618  1.00  0.00    -0.002 C 
HETATM    2  C10 UNL     1      -5.995   7.785  13.436  1.00  0.00     0.006 C 
HETATM    3  C11 UNL     1      -4.667   8.361  12.917  1.00  0.00     0.011 C 
HETATM    4  C12 UNL     1      -3.566   7.570  13.647  1.00  0.00    -0.032 C 
HETATM    5  C13 UNL     1      -3.312   6.287  12.796  1.00  0.00     0.016 C 
HETATM    6  C14 UNL     1      -2.245   8.355  13.857  1.00  0.00     0.004 C 
HETATM    7  C15 UNL     1      -1.467   8.633  12.563  1.00  0.00     0.007 C 
HETATM    8  C16 UNL     1      -0.214   9.455  12.858  1.00  0.00     0.007 C 
HETATM    9  C17 UNL     1       0.797   8.593  13.632  1.00  0.00     0.018 C 
HETATM   10  C18 UNL     1       2.156   9.301  13.951  1.00  0.00     0.072 C 
HETATM   11  C19 UNL     1       1.975  10.564  14.819  1.00  0.00     0.030 C 
HETATM   12  C21 UNL     1       3.127   8.284  14.634  1.00  0.00     0.146 C 
HETATM   13  C27 UNL     1       2.488   7.602  15.850  1.00  0.00     0.066 C 
HETATM   14  C28 UNL     1       1.159   6.935  15.508  1.00  0.00     0.130 C 
HETATM   15  C29 UNL     1       0.194   7.936  14.885  1.00  0.00    -0.001 A 
HETATM   16  C30 UNL     1      -0.650   8.731  15.851  1.00  0.00     0.024 A 
HETATM   17  C31 UNL     1      -1.349   7.722  14.954  1.00  0.00    -0.025 A 
HETATM   18  C32 UNL     1      -1.865   6.448  15.626  1.00  0.00     0.011 C 
HETATM   19  C33 UNL     1      -3.385   6.298  15.812  1.00  0.00     0.011 C 
HETATM   20  C34 UNL     1      -4.241   7.312  15.044  1.00  0.00    -0.032 C 
HETATM   21  C35 UNL     1      -4.375   8.591  15.926  1.00  0.00     0.016 C 
ENDROOT
BRANCH  12  22
HETATM   22  O3  UNL     1       4.320   8.983  15.039  1.00  0.00    -0.352 OA
BRANCH  22  23
HETATM   23  C22 UNL     1       5.428   8.133  15.343  1.00  0.00     0.291 C 
HETATM   24  O4  UNL     1       6.437   8.819  16.084  1.00  0.00    -0.356 OA
HETATM   25  C23 UNL     1       6.915  10.006  15.433  1.00  0.00     0.205 C 
HETATM   26  C24 UNL     1       7.035   9.877  13.912  1.00  0.00     0.173 C 
HETATM   27  C25 UNL     1       7.225   8.410  13.548  1.00  0.00     0.182 C 
HETATM   28  C26 UNL     1       6.025   7.579  14.022  1.00  0.00     0.204 C 
BRANCH  26  29
HETATM   29  O5  UNL     1       8.136  10.651  13.428  1.00  0.00    -0.391 OA
HETATM   30  H39 UNL     1       8.290  10.325  12.516  1.00  0.00     0.210 HD
ENDBRANCH  26  29
BRANCH  27  31
HETATM   31  O6  UNL     1       7.402   8.283  12.127  1.00  0.00    -0.390 OA
HETATM   32  H41 UNL     1       7.356   7.325  11.938  1.00  0.00     0.210 HD
ENDBRANCH  27  31
BRANCH  28  33
HETATM   33  O7  UNL     1       6.482   6.219  14.171  1.00  0.00    -0.388 OA
HETATM   34  H43 UNL     1       7.043   6.185  14.971  1.00  0.00     0.210 HD
ENDBRANCH  28  33
ENDBRANCH  22  23
ENDBRANCH  12  22
BRANCH  10  35
HETATM   35  C20 UNL     1       2.803   9.737  12.636  1.00  0.00     0.151 C 
HETATM   36  O1  UNL     1       2.902   9.077  11.612  1.00  0.00    -0.649 OA
BRANCH  35  37
HETATM   37  O2  UNL     1       3.332  10.976  12.669  1.00  0.00    -0.776 OA
HETATM   38  H33 UNL     1       3.706  11.095  11.768  1.00  0.00     0.167 HD
ENDBRANCH  35  37
ENDBRANCH  10  35
BRANCH  14  39
HETATM   39  O8  UNL     1       1.397   5.876  14.588  1.00  0.00    -0.395 OA
HETATM   40  H47 UNL     1       0.528   5.519  14.335  1.00  0.00     0.210 HD
ENDBRANCH  14  39
BRANCH   1  41
HETATM   41  C7  UNL     1      -6.821   6.751  15.666  1.00  0.00    -0.014 C 
HETATM   42  C8  UNL     1      -7.439   5.346  15.723  1.00  0.00     0.010 C 
BRANCH  41  43
HETATM   43  C6  UNL     1      -7.968   7.755  15.348  1.00  0.00     0.008 C 
BRANCH  43  44
HETATM   44  C5  UNL     1      -9.365   7.255  15.737  1.00  0.00     0.028 C 
BRANCH  44  45
HETATM   45  C4  UNL     1     -10.252   7.129  14.526  1.00  0.00    -0.025 C 
HETATM   46  C2  UNL     1     -10.972   8.097  13.927  1.00  0.00    -0.091 C 
HETATM   47  C1  UNL     1     -10.989   9.543  14.339  1.00  0.00     0.042 C 
HETATM   48  C3  UNL     1     -11.839   7.784  12.734  1.00  0.00     0.042 C 
ENDBRANCH  44  45
ENDBRANCH  43  44
ENDBRANCH  41  43
ENDBRANCH   1  41
TORSDOF 12
ENDMDL
MODEL 6
REMARK minimizedAffinity -10.6796541
REMARK CNNscore 0.243748814
REMARK CNNaffinity 6.82907486
REMARK  12 active torsions:
REMARK  status: ('A' for Active; 'I' for Inactive)
REMARK    1  A    between atoms: C4_4  and  C5_5 
REMARK    2  A    between atoms: C5_5  and  C6_6 
REMARK    3  A    between atoms: C6_6  and  C7_7 
REMARK    4  A    between atoms: C7_7  and  C9_9 
REMARK    5  A    between atoms: C18_18  and  C20_20 
REMARK    6  A    between atoms: C20_20  and  O2_22 
REMARK    7  A    between atoms: C21_23  and  O3_24 
REMARK    8  A    between atoms: O3_24  and  C22_25 
REMARK    9  A    between atoms: C24_28  and  O5_29 
REMARK   10  A    between atoms: C25_30  and  O6_31 
REMARK   11  A    between atoms: C26_32  and  O7_33 
REMARK   12  A    between atoms: C28_35  and  O8_36 
ROOT
HETATM    1  C9  UNL     1      -6.874   7.074  14.311  1.00  0.00    -0.002 C 
HETATM    2  C10 UNL     1      -6.773   6.308  15.657  1.00  0.00     0.006 C 
HETATM    3  C11 UNL     1      -5.298   6.322  16.095  1.00  0.00     0.011 C 
HETATM    4  C12 UNL     1      -4.593   7.286  15.124  1.00  0.00    -0.032 C 
HETATM    5  C13 UNL     1      -4.760   8.716  15.728  1.00  0.00     0.016 C 
HETATM    6  C14 UNL     1      -3.095   6.968  14.880  1.00  0.00     0.004 C 
HETATM    7  C15 UNL     1      -2.194   7.217  16.098  1.00  0.00     0.007 C 
HETATM    8  C16 UNL     1      -0.751   6.826  15.785  1.00  0.00     0.007 C 
HETATM    9  C17 UNL     1      -0.157   7.817  14.770  1.00  0.00     0.018 C 
HETATM   10  C18 UNL     1       1.342   7.563  14.403  1.00  0.00     0.072 C 
HETATM   11  C19 UNL     1       1.569   6.173  13.770  1.00  0.00     0.030 C 
HETATM   12  C21 UNL     1       1.850   8.700  13.459  1.00  0.00     0.146 C 
HETATM   13  C27 UNL     1       0.940   8.886  12.237  1.00  0.00     0.066 C 
HETATM   14  C28 UNL     1      -0.516   9.116  12.629  1.00  0.00     0.130 C 
HETATM   15  C29 UNL     1      -1.027   7.985  13.512  1.00  0.00    -0.001 A 
HETATM   16  C30 UNL     1      -1.591   6.785  12.790  1.00  0.00     0.024 A 
HETATM   17  C31 UNL     1      -2.547   7.648  13.598  1.00  0.00    -0.025 A 
HETATM   18  C32 UNL     1      -3.519   8.523  12.803  1.00  0.00     0.011 C 
HETATM   19  C33 UNL     1      -5.002   8.114  12.781  1.00  0.00     0.011 C 
HETATM   20  C34 UNL     1      -5.398   7.035  13.795  1.00  0.00    -0.032 C 
HETATM   21  C35 UNL     1      -5.123   5.644  13.145  1.00  0.00     0.016 C 
ENDROOT
BRANCH  12  22
HETATM   22  O3  UNL     1       3.186   8.381  13.026  1.00  0.00    -0.352 OA
BRANCH  22  23
HETATM   23  C22 UNL     1       3.533   8.908  11.742  1.00  0.00     0.291 C 
HETATM   24  O4  UNL     1       3.143   8.032  10.685  1.00  0.00    -0.356 OA
HETATM   25  C23 UNL     1       3.682   6.708  10.814  1.00  0.00     0.205 C 
HETATM   26  C24 UNL     1       5.114   6.668  11.355  1.00  0.00     0.173 C 
HETATM   27  C25 UNL     1       5.807   7.986  11.034  1.00  0.00     0.182 C 
HETATM   28  C26 UNL     1       5.062   9.159  11.688  1.00  0.00     0.204 C 
BRANCH  26  29
HETATM   29  O5  UNL     1       5.840   5.578  10.780  1.00  0.00    -0.391 OA
HETATM   30  H39 UNL     1       6.780   5.769  10.979  1.00  0.00     0.210 HD
ENDBRANCH  26  29
BRANCH  27  31
HETATM   31  O6  UNL     1       7.172   7.938  11.482  1.00  0.00    -0.390 OA
HETATM   32  H41 UNL     1       7.513   8.851  11.397  1.00  0.00     0.210 HD
ENDBRANCH  27  31
BRANCH  28  33
HETATM   33  O7  UNL     1       5.384  10.343  10.929  1.00  0.00    -0.388 OA
HETATM   34  H43 UNL     1       4.904  10.285  10.080  1.00  0.00     0.210 HD
ENDBRANCH  28  33
ENDBRANCH  22  23
ENDBRANCH  12  22
BRANCH  10  35
HETATM   35  C20 UNL     1       2.178   7.626  15.682  1.00  0.00     0.151 C 
HETATM   36  O1  UNL     1       2.109   8.469  16.564  1.00  0.00    -0.649 OA
BRANCH  35  37
HETATM   37  O2  UNL     1       3.095   6.643  15.788  1.00  0.00    -0.776 OA
HETATM   38  H33 UNL     1       3.541   6.830  16.643  1.00  0.00     0.167 HD
ENDBRANCH  35  37
ENDBRANCH  10  35
BRANCH  14  39
HETATM   39  O8  UNL     1      -0.614  10.346  13.338  1.00  0.00    -0.395 OA
HETATM   40  H47 UNL     1      -1.536  10.430  13.636  1.00  0.00     0.210 HD
ENDBRANCH  14  39
BRANCH   1  41
HETATM   41  C7  UNL     1      -8.041   6.565  13.410  1.00  0.00    -0.014 C 
HETATM   42  C8  UNL     1      -9.319   6.313  14.223  1.00  0.00     0.010 C 
BRANCH  41  43
HETATM   43  C6  UNL     1      -7.677   5.236  12.685  1.00  0.00     0.008 C 
BRANCH  43  44
HETATM   44  C5  UNL     1      -7.850   3.981  13.550  1.00  0.00     0.028 C 
BRANCH  44  45
HETATM   45  C4  UNL     1      -7.627   2.730  12.740  1.00  0.00    -0.025 C 
HETATM   46  C2  UNL     1      -6.509   2.357  12.089  1.00  0.00    -0.091 C 
HETATM   47  C1  UNL     1      -5.214   3.121  12.087  1.00  0.00     0.042 C 
HETATM   48  C3  UNL     1      -6.472   1.076  11.295  1.00  0.00     0.042 C 
ENDBRANCH  44  45
ENDBRANCH  43  44
ENDBRANCH  41  43
ENDBRANCH   1  41
TORSDOF 12
ENDMDL
MODEL 7
REMARK minimizedAffinity -7.98114824
REMARK CNNscore 0.231161118
REMARK CNNaffinity 6.43466711
REMARK  12 active torsions:
REMARK  status: ('A' for Active; 'I' for Inactive)
REMARK    1  A    between atoms: C4_4  and  C5_5 
REMARK    2  A    between atoms: C5_5  and  C6_6 
REMARK    3  A    between atoms: C6_6  and  C7_7 
REMARK    4  A    between atoms: C7_7  and  C9_9 
REMARK    5  A    between atoms: C18_18  and  C20_20 
REMARK    6  A    between atoms: C20_20  and  O2_22 
REMARK    7  A    between atoms: C21_23  and  O3_24 
REMARK    8  A    between atoms: O3_24  and  C22_25 
REMARK    9  A    between atoms: C24_28  and  O5_29 
REMARK   10  A    between atoms: C25_30  and  O6_31 
REMARK   11  A    between atoms: C26_32  and  O7_33 
REMARK   12  A    between atoms: C28_35  and  O8_36 
ROOT
HETATM    1  C9  UNL     1      -2.864   5.785  12.853  1.00  0.00    -0.002 C 
HETATM    2  C10 UNL     1      -4.133   5.406  13.664  1.00  0.00     0.006 C 
HETATM    3  C11 UNL     1      -4.448   6.574  14.615  1.00  0.00     0.011 C 
HETATM    4  C12 UNL     1      -3.501   7.711  14.192  1.00  0.00    -0.032 C 
HETATM    5  C13 UNL     1      -4.228   8.483  13.047  1.00  0.00     0.016 C 
HETATM    6  C14 UNL     1      -3.110   8.679  15.340  1.00  0.00     0.004 C 
HETATM    7  C15 UNL     1      -4.266   9.557  15.841  1.00  0.00     0.007 C 
HETATM    8  C16 UNL     1      -3.805  10.435  17.003  1.00  0.00     0.007 C 
HETATM    9  C17 UNL     1      -2.826  11.502  16.486  1.00  0.00     0.018 C 
HETATM   10  C18 UNL     1      -2.318  12.509  17.570  1.00  0.00     0.072 C 
HETATM   11  C19 UNL     1      -1.560  11.810  18.719  1.00  0.00     0.030 C 
HETATM   12  C21 UNL     1      -1.428  13.602  16.893  1.00  0.00     0.146 C 
HETATM   13  C27 UNL     1      -0.304  12.988  16.047  1.00  0.00     0.066 C 
HETATM   14  C28 UNL     1      -0.832  12.001  15.011  1.00  0.00     0.130 C 
HETATM   15  C29 UNL     1      -1.661  10.909  15.675  1.00  0.00    -0.001 A 
HETATM   16  C30 UNL     1      -0.896   9.708  16.177  1.00  0.00     0.024 A 
HETATM   17  C31 UNL     1      -1.845   9.513  15.005  1.00  0.00    -0.025 A 
HETATM   18  C32 UNL     1      -1.205   9.288  13.633  1.00  0.00     0.011 C 
HETATM   19  C33 UNL     1      -1.273   7.873  13.031  1.00  0.00     0.011 C 
HETATM   20  C34 UNL     1      -2.228   6.906  13.740  1.00  0.00    -0.032 C 
HETATM   21  C35 UNL     1      -1.449   6.243  14.918  1.00  0.00     0.016 C 
ENDROOT
BRANCH  12  22
HETATM   22  O3  UNL     1      -0.862  14.440  17.919  1.00  0.00    -0.352 OA
BRANCH  22  23
HETATM   23  C22 UNL     1       0.543  14.668  17.787  1.00  0.00     0.291 C 
HETATM   24  O4  UNL     1       1.293  13.934  18.755  1.00  0.00    -0.356 OA
HETATM   25  C23 UNL     1       0.896  14.202  20.108  1.00  0.00     0.205 C 
HETATM   26  C24 UNL     1       0.527  15.664  20.371  1.00  0.00     0.173 C 
HETATM   27  C25 UNL     1       1.247  16.551  19.363  1.00  0.00     0.182 C 
HETATM   28  C26 UNL     1       0.831  16.185  17.931  1.00  0.00     0.204 C 
BRANCH  26  29
HETATM   29  O5  UNL     1       0.886  16.042  21.703  1.00  0.00    -0.391 OA
HETATM   30  H39 UNL     1       0.849  17.021  21.705  1.00  0.00     0.210 HD
ENDBRANCH  26  29
BRANCH  27  31
HETATM   31  O6  UNL     1       0.958  17.932  19.639  1.00  0.00    -0.390 OA
HETATM   32  H41 UNL     1       1.308  18.435  18.877  1.00  0.00     0.210 HD
ENDBRANCH  27  31
BRANCH  28  33
HETATM   33  O7  UNL     1       1.896  16.613  17.057  1.00  0.00    -0.388 OA
HETATM   34  H43 UNL     1       2.643  15.997  17.182  1.00  0.00     0.210 HD
ENDBRANCH  28  33
ENDBRANCH  22  23
ENDBRANCH  12  22
BRANCH  10  35
HETATM   35  C20 UNL     1      -3.525  13.221  18.183  1.00  0.00     0.151 C 
HETATM   36  O1  UNL     1      -4.562  13.529  17.615  1.00  0.00    -0.649 OA
BRANCH  35  37
HETATM   37  O2  UNL     1      -3.368  13.548  19.481  1.00  0.00    -0.776 OA
HETATM   38  H33 UNL     1      -4.211  13.995  19.713  1.00  0.00     0.167 HD
ENDBRANCH  35  37
ENDBRANCH  10  35
BRANCH  14  39
HETATM   39  O8  UNL     1      -1.641  12.702  14.075  1.00  0.00    -0.395 OA
HETATM   40  H47 UNL     1      -2.019  12.039  13.472  1.00  0.00     0.210 HD
ENDBRANCH  14  39
BRANCH   1  41
HETATM   41  C7  UNL     1      -2.025   4.542  12.426  1.00  0.00    -0.014 C 
HETATM   42  C8  UNL     1      -1.218   4.813  11.147  1.00  0.00     0.010 C 
BRANCH  41  43
HETATM   43  C6  UNL     1      -2.923   3.298  12.159  1.00  0.00     0.008 C 
BRANCH  43  44
HETATM   44  C5  UNL     1      -4.164   3.592  11.307  1.00  0.00     0.028 C 
BRANCH  44  45
HETATM   45  C4  UNL     1      -5.309   2.689  11.688  1.00  0.00    -0.025 C 
HETATM   46  C2  UNL     1      -6.511   3.045  12.182  1.00  0.00    -0.091 C 
HETATM   47  C1  UNL     1      -6.969   4.459  12.408  1.00  0.00     0.042 C 
HETATM   48  C3  UNL     1      -7.535   1.999  12.542  1.00  0.00     0.042 C 
ENDBRANCH  44  45
ENDBRANCH  43  44
ENDBRANCH  41  43
ENDBRANCH   1  41
TORSDOF 12
ENDMDL
MODEL 8
REMARK minimizedAffinity -7.64942551
REMARK CNNscore 0.202402577
REMARK CNNaffinity 6.64105177
REMARK  12 active torsions:
REMARK  status: ('A' for Active; 'I' for Inactive)
REMARK    1  A    between atoms: C4_4  and  C5_5 
REMARK    2  A    between atoms: C5_5  and  C6_6 
REMARK    3  A    between atoms: C6_6  and  C7_7 
REMARK    4  A    between atoms: C7_7  and  C9_9 
REMARK    5  A    between atoms: C18_18  and  C20_20 
REMARK    6  A    between atoms: C20_20  and  O2_22 
REMARK    7  A    between atoms: C21_23  and  O3_24 
REMARK    8  A    between atoms: O3_24  and  C22_25 
REMARK    9  A    between atoms: C24_28  and  O5_29 
REMARK   10  A    between atoms: C25_30  and  O6_31 
REMARK   11  A    between atoms: C26_32  and  O7_33 
REMARK   12  A    between atoms: C28_35  and  O8_36 
ROOT
HETATM    1  C9  UNL     1      -9.211   5.683  13.708  1.00  0.00    -0.002 C 
HETATM    2  C10 UNL     1      -8.977   4.618  12.603  1.00  0.00     0.006 C 
HETATM    3  C11 UNL     1      -7.458   4.452  12.426  1.00  0.00     0.011 C 
HETATM    4  C12 UNL     1      -6.822   5.247  13.580  1.00  0.00    -0.032 C 
HETATM    5  C13 UNL     1      -6.761   4.275  14.800  1.00  0.00     0.016 C 
HETATM    6  C14 UNL     1      -5.415   5.818  13.267  1.00  0.00     0.004 C 
HETATM    7  C15 UNL     1      -4.320   4.751  13.133  1.00  0.00     0.007 C 
HETATM    8  C16 UNL     1      -2.984   5.398  12.771  1.00  0.00     0.007 C 
HETATM    9  C17 UNL     1      -2.462   6.209  13.968  1.00  0.00     0.018 C 
HETATM   10  C18 UNL     1      -1.067   6.881  13.749  1.00  0.00     0.072 C 
HETATM   11  C19 UNL     1      -1.069   7.880  12.573  1.00  0.00     0.030 C 
HETATM   12  C21 UNL     1      -0.605   7.572  15.073  1.00  0.00     0.146 C 
HETATM   13  C27 UNL     1      -1.670   8.530  15.626  1.00  0.00     0.066 C 
HETATM   14  C28 UNL     1      -3.021   7.847  15.813  1.00  0.00     0.130 C 
HETATM   15  C29 UNL     1      -3.494   7.212  14.512  1.00  0.00    -0.001 A 
HETATM   16  C30 UNL     1      -4.271   8.111  13.581  1.00  0.00     0.024 A 
HETATM   17  C31 UNL     1      -5.008   6.956  14.240  1.00  0.00    -0.025 A 
HETATM   18  C32 UNL     1      -6.004   7.319  15.344  1.00  0.00     0.011 C 
HETATM   19  C33 UNL     1      -7.505   7.190  15.029  1.00  0.00     0.011 C 
HETATM   20  C34 UNL     1      -7.840   6.436  13.737  1.00  0.00    -0.032 C 
HETATM   21  C35 UNL     1      -7.798   7.461  12.561  1.00  0.00     0.016 C 
ENDROOT
BRANCH  12  22
HETATM   22  O3  UNL     1       0.614   8.296  14.817  1.00  0.00    -0.352 OA
BRANCH  22  23
HETATM   23  C22 UNL     1       1.651   8.061  15.774  1.00  0.00     0.291 C 
HETATM   24  O4  UNL     1       1.571   8.965  16.876  1.00  0.00    -0.356 OA
HETATM   25  C23 UNL     1       1.592  10.345  16.484  1.00  0.00     0.205 C 
HETATM   26  C24 UNL     1       2.530  10.647  15.312  1.00  0.00     0.173 C 
HETATM   27  C25 UNL     1       3.630   9.595  15.269  1.00  0.00     0.182 C 
HETATM   28  C26 UNL     1       3.030   8.195  15.076  1.00  0.00     0.204 C 
BRANCH  26  29
HETATM   29  O5  UNL     1       3.101  11.951  15.447  1.00  0.00    -0.391 OA
HETATM   30  H39 UNL     1       3.850  11.963  14.815  1.00  0.00     0.210 HD
ENDBRANCH  26  29
BRANCH  27  31
HETATM   31  O6  UNL     1       4.553   9.902  14.210  1.00  0.00    -0.390 OA
HETATM   32  H41 UNL     1       5.134   9.120  14.128  1.00  0.00     0.210 HD
ENDBRANCH  27  31
BRANCH  28  33
HETATM   33  O7  UNL     1       3.986   7.247  15.594  1.00  0.00    -0.388 OA
HETATM   34  H43 UNL     1       3.963   7.312  16.568  1.00  0.00     0.210 HD
ENDBRANCH  28  33
ENDBRANCH  22  23
ENDBRANCH  12  22
BRANCH  10  35
HETATM   35  C20 UNL     1      -0.043   5.792  13.423  1.00  0.00     0.151 C 
HETATM   36  O1  UNL     1       0.605   5.678  12.394  1.00  0.00    -0.649 OA
BRANCH  35  37
HETATM   37  O2  UNL     1       0.101   4.866  14.393  1.00  0.00    -0.776 OA
HETATM   38  H33 UNL     1       0.773   4.250  14.030  1.00  0.00     0.167 HD
ENDBRANCH  35  37
ENDBRANCH  10  35
BRANCH  14  39
HETATM   39  O8  UNL     1      -2.895   6.839  16.810  1.00  0.00    -0.395 OA
HETATM   40  H47 UNL     1      -3.749   6.375  16.855  1.00  0.00     0.210 HD
ENDBRANCH  14  39
BRANCH   1  41
HETATM   41  C7  UNL     1     -10.543   6.470  13.519  1.00  0.00    -0.014 C 
HETATM   42  C8  UNL     1     -10.637   7.102  12.122  1.00  0.00     0.010 C 
BRANCH  41  43
HETATM   43  C6  UNL     1     -10.695   7.616  14.562  1.00  0.00     0.008 C 
BRANCH  43  44
HETATM   44  C5  UNL     1     -11.251   8.922  13.983  1.00  0.00     0.028 C 
BRANCH  44  45
HETATM   45  C4  UNL     1     -11.583   9.903  15.078  1.00  0.00    -0.025 C 
HETATM   46  C2  UNL     1     -10.742  10.730  15.727  1.00  0.00    -0.091 C 
HETATM   47  C1  UNL     1      -9.273  10.871  15.438  1.00  0.00     0.042 C 
HETATM   48  C3  UNL     1     -11.244  11.629  16.828  1.00  0.00     0.042 C 
ENDBRANCH  44  45
ENDBRANCH  43  44
ENDBRANCH  41  43
ENDBRANCH   1  41
TORSDOF 12
ENDMDL
MODEL 9
REMARK minimizedAffinity -8.21029663
REMARK CNNscore 0.193307728
REMARK CNNaffinity 6.00034904
REMARK  12 active torsions:
REMARK  status: ('A' for Active; 'I' for Inactive)
REMARK    1  A    between atoms: C4_4  and  C5_5 
REMARK    2  A    between atoms: C5_5  and  C6_6 
REMARK    3  A    between atoms: C6_6  and  C7_7 
REMARK    4  A    between atoms: C7_7  and  C9_9 
REMARK    5  A    between atoms: C18_18  and  C20_20 
REMARK    6  A    between atoms: C20_20  and  O2_22 
REMARK    7  A    between atoms: C21_23  and  O3_24 
REMARK    8  A    between atoms: O3_24  and  C22_25 
REMARK    9  A    between atoms: C24_28  and  O5_29 
REMARK   10  A    between atoms: C25_30  and  O6_31 
REMARK   11  A    between atoms: C26_32  and  O7_33 
REMARK   12  A    between atoms: C28_35  and  O8_36 
ROOT
HETATM    1  C9  UNL     1       3.206   7.254  12.303  1.00  0.00    -0.002 C 
HETATM    2  C10 UNL     1       3.776   7.539  10.888  1.00  0.00     0.006 C 
HETATM    3  C11 UNL     1       5.178   8.148  11.060  1.00  0.00     0.011 C 
HETATM    4  C12 UNL     1       5.505   8.003  12.558  1.00  0.00    -0.032 C 
HETATM    5  C13 UNL     1       6.129   6.583  12.734  1.00  0.00     0.016 C 
HETATM    6  C14 UNL     1       6.460   9.091  13.113  1.00  0.00     0.004 C 
HETATM    7  C15 UNL     1       7.898   8.993  12.585  1.00  0.00     0.007 C 
HETATM    8  C16 UNL     1       8.751  10.132  13.140  1.00  0.00     0.007 C 
HETATM    9  C17 UNL     1       8.975   9.922  14.647  1.00  0.00     0.018 C 
HETATM   10  C18 UNL     1       9.884  10.994  15.333  1.00  0.00     0.072 C 
HETATM   11  C19 UNL     1       9.305  12.421  15.221  1.00  0.00     0.030 C 
HETATM   12  C21 UNL     1      10.122  10.600  16.827  1.00  0.00     0.146 C 
HETATM   13  C27 UNL     1       8.806  10.341  17.572  1.00  0.00     0.066 C 
HETATM   14  C28 UNL     1       7.937   9.303  16.869  1.00  0.00     0.130 C 
HETATM   15  C29 UNL     1       7.666   9.708  15.426  1.00  0.00    -0.001 A 
HETATM   16  C30 UNL     1       6.472  10.606  15.204  1.00  0.00     0.024 A 
HETATM   17  C31 UNL     1       6.411   9.186  14.661  1.00  0.00    -0.025 A 
HETATM   18  C32 UNL     1       5.482   8.213  15.390  1.00  0.00     0.011 C 
HETATM   19  C33 UNL     1       4.178   7.800  14.687  1.00  0.00     0.011 C 
HETATM   20  C34 UNL     1       4.083   8.183  13.206  1.00  0.00    -0.032 C 
HETATM   21  C35 UNL     1       3.533   9.640  13.123  1.00  0.00     0.016 C 
ENDROOT
BRANCH  12  22
HETATM   22  O3  UNL     1      10.848  11.661  17.476  1.00  0.00    -0.352 OA
BRANCH  22  23
HETATM   23  C22 UNL     1      11.926  11.218  18.305  1.00  0.00     0.291 C 
HETATM   24  O4  UNL     1      11.794  11.689  19.646  1.00  0.00    -0.356 OA
HETATM   25  C23 UNL     1      11.681  13.117  19.740  1.00  0.00     0.205 C 
HETATM   26  C24 UNL     1      12.557  13.879  18.742  1.00  0.00     0.173 C 
HETATM   27  C25 UNL     1      13.746  13.009  18.356  1.00  0.00     0.182 C 
HETATM   28  C26 UNL     1      13.269  11.705  17.701  1.00  0.00     0.204 C 
BRANCH  26  29
HETATM   29  O5  UNL     1      13.012  15.110  19.310  1.00  0.00    -0.391 OA
HETATM   30  H39 UNL     1      13.741  15.403  18.724  1.00  0.00     0.210 HD
ENDBRANCH  26  29
BRANCH  27  31
HETATM   31  O6  UNL     1      14.611  13.737  17.466  1.00  0.00    -0.390 OA
HETATM   32  H41 UNL     1      15.257  13.085  17.130  1.00  0.00     0.210 HD
ENDBRANCH  27  31
BRANCH  28  33
HETATM   33  O7  UNL     1      14.319  10.732  17.877  1.00  0.00    -0.388 OA
HETATM   34  H43 UNL     1      14.315  10.465  18.816  1.00  0.00     0.210 HD
ENDBRANCH  28  33
ENDBRANCH  22  23
ENDBRANCH  12  22
BRANCH  10  35
HETATM   35  C20 UNL     1      11.248  10.997  14.640  1.00  0.00     0.151 C 
HETATM   36  O1  UNL     1      11.864  10.025  14.228  1.00  0.00    -0.649 OA
BRANCH  35  37
HETATM   37  O2  UNL     1      11.801  12.221  14.521  1.00  0.00    -0.776 OA
HETATM   38  H33 UNL     1      12.657  12.048  14.072  1.00  0.00     0.167 HD
ENDBRANCH  35  37
ENDBRANCH  10  35
BRANCH  14  39
HETATM   39  O8  UNL     1       8.610   8.049  16.887  1.00  0.00    -0.395 OA
HETATM   40  H47 UNL     1       8.067   7.428  16.372  1.00  0.00     0.210 HD
ENDBRANCH  14  39
BRANCH   1  41
HETATM   41  C7  UNL     1       1.650   7.337  12.357  1.00  0.00    -0.014 C 
HETATM   42  C8  UNL     1       1.072   6.451  13.470  1.00  0.00     0.010 C 
BRANCH  41  43
HETATM   43  C6  UNL     1       0.997   6.892  11.016  1.00  0.00     0.008 C 
BRANCH  43  44
HETATM   44  C5  UNL     1       0.776   8.035  10.017  1.00  0.00     0.028 C 
BRANCH  44  45
HETATM   45  C4  UNL     1       0.840   7.533   8.597  1.00  0.00    -0.025 C 
HETATM   46  C2  UNL     1       1.758   7.830   7.657  1.00  0.00    -0.091 C 
HETATM   47  C1  UNL     1       2.958   8.710   7.869  1.00  0.00     0.042 C 
HETATM   48  C3  UNL     1       1.648   7.258   6.267  1.00  0.00     0.042 C 
ENDBRANCH  44  45
ENDBRANCH  43  44
ENDBRANCH  41  43
ENDBRANCH   1  41
TORSDOF 12
ENDMDL
