MODEL 1
REMARK minimizedAffinity -7.37827301
REMARK CNNscore 0.577246368
REMARK CNNaffinity 6.38308191
REMARK  11 active torsions:
REMARK  status: ('A' for Active; 'I' for Inactive)
REMARK    1  A    between atoms: O1_2  and  C2_3 
REMARK    2  A    between atoms: C4_5  and  O2_6 
REMARK    3  A    between atoms: O2_6  and  C5_7 
REMARK    4  A    between atoms: C8_10  and  C9_11 
REMARK    5  A    between atoms: N1_12  and  C10_14 
REMARK    6  A    between atoms: C10_14  and  C11_15 
REMARK    7  A    between atoms: C11_15  and  O3_16 
REMARK    8  A    between atoms: C17_22  and  C18_23 
REMARK    9  A    between atoms: C24_31  and  O6_32 
REMARK   10  A    between atoms: C28_36  and  O7_37 
REMARK   11  A    between atoms: C32_42  and  O9_43 
ROOT
HETATM    1  C5  UNL     1     -10.757  44.922 -35.758  1.00  0.00     0.127 C 
HETATM    2  C6  UNL     1     -11.083  43.604 -35.042  1.00  0.00     0.033 C 
HETATM    3  C7  UNL     1     -11.306  43.773 -33.538  1.00  0.00     0.021 C 
HETATM    4  C8  UNL     1     -10.130  44.481 -32.771  1.00  0.00     0.026 C 
HETATM    5  C12 UNL     1     -10.780  45.245 -31.540  1.00  0.00     0.009 C 
HETATM    6  C13 UNL     1     -11.364  44.284 -30.470  1.00  0.00     0.007 C 
HETATM    7  C14 UNL     1     -12.049  45.020 -29.322  1.00  0.00     0.013 C 
HETATM    8  C15 UNL     1     -11.137  46.064 -28.635  1.00  0.00    -0.005 C 
HETATM    9  C16 UNL     1     -10.043  45.347 -27.816  1.00  0.00     0.019 C 
HETATM   10  C17 UNL     1     -11.951  47.061 -27.740  1.00  0.00     0.028 C 
HETATM   11  C22 UNL     1     -12.540  48.084 -28.749  1.00  0.00     0.013 C 
HETATM   12  C23 UNL     1     -11.714  47.952 -30.043  1.00  0.00     0.040 C 
HETATM   13  C24 UNL     1     -10.531  47.039 -29.691  1.00  0.00     0.070 C 
HETATM   14  C25 UNL     1      -9.866  46.309 -30.889  1.00  0.00     0.026 C 
HETATM   15  C26 UNL     1      -9.349  47.274 -31.972  1.00  0.00     0.011 C 
HETATM   16  C27 UNL     1      -8.537  46.517 -33.005  1.00  0.00     0.039 C 
HETATM   17  C28 UNL     1      -9.327  45.426 -33.740  1.00  0.00     0.073 C 
HETATM   18  C29 UNL     1     -10.263  46.016 -34.802  1.00  0.00     0.071 C 
ENDROOT
BRANCH   1  19
HETATM   19  O2  UNL     1     -11.903  45.415 -36.468  1.00  0.00    -0.356 OA
BRANCH  19  20
HETATM   20  C4  UNL     1     -11.757  46.784 -36.859  1.00  0.00     0.263 C 
HETATM   21  C3  UNL     1     -11.143  46.841 -38.258  1.00  0.00     0.095 C 
HETATM   22  C2  UNL     1     -11.336  48.222 -38.863  1.00  0.00     0.156 C 
HETATM   23  C32 UNL     1     -12.844  48.588 -38.902  1.00  0.00     0.175 C 
HETATM   24  C30 UNL     1     -13.678  47.639 -38.005  1.00  0.00     0.151 C 
HETATM   25  O8  UNL     1     -13.008  47.470 -36.756  1.00  0.00    -0.354 OA
HETATM   26  C31 UNL     1     -15.070  48.184 -37.724  1.00  0.00     0.042 C 
BRANCH  22  27
HETATM   27  O1  UNL     1     -10.765  48.198 -40.183  1.00  0.00    -0.388 OA
HETATM   28  C1  UNL     1     -11.671  48.658 -41.188  1.00  0.00     0.202 C 
ENDBRANCH  22  27
BRANCH  23  29
HETATM   29  O9  UNL     1     -12.971  49.954 -38.456  1.00  0.00    -0.390 OA
HETATM   30  H49 UNL     1     -12.882  49.960 -37.481  1.00  0.00     0.210 HD
ENDBRANCH  23  29
ENDBRANCH  19  20
ENDBRANCH   1  19
BRANCH  17  31
HETATM   31  O7  UNL     1      -8.352  44.664 -34.482  1.00  0.00    -0.389 OA
HETATM   32  H41 UNL     1      -7.781  45.291 -34.967  1.00  0.00     0.210 HD
ENDBRANCH  17  31
BRANCH   4  33
HETATM   33  C9  UNL     1      -9.148  43.388 -32.313  1.00  0.00     0.068 C 
HETATM   34  N1  UNL     1      -8.003  43.665 -31.779  1.00  0.00    -0.399 N 
ATOM     35  H1  UNL     1      -7.709  44.617 -31.557  1.00  0.00     0.158 HD
BRANCH  34  36
HETATM   36  C10 UNL     1      -7.166  42.488 -31.522  1.00  0.00     0.144 C 
BRANCH  36  37
HETATM   37  C11 UNL     1      -5.818  42.669 -32.225  1.00  0.00     0.183 C 
BRANCH  37  38
HETATM   38  O3  UNL     1      -6.001  42.972 -33.601  1.00  0.00    -0.399 OA
HETATM   39  H18 UNL     1      -6.306  43.894 -33.642  1.00  0.00     0.209 HD
ENDBRANCH  37  38
ENDBRANCH  36  37
ENDBRANCH  34  36
ENDBRANCH   4  33
BRANCH  13  40
HETATM   40  O6  UNL     1      -9.547  47.854 -29.036  1.00  0.00    -0.389 OA
HETATM   41  H35 UNL     1      -9.260  48.561 -29.636  1.00  0.00     0.210 HD
ENDBRANCH  13  40
BRANCH  10  42
HETATM   42  C18 UNL     1     -12.921  46.474 -26.751  1.00  0.00    -0.045 A 
HETATM   43  C19 UNL     1     -14.242  46.331 -26.853  1.00  0.00     0.087 A 
HETATM   44  C20 UNL     1     -14.718  45.781 -25.581  1.00  0.00     0.283 A 
HETATM   45  O4  UNL     1     -15.880  45.520 -25.332  1.00  0.00    -0.260 OA
HETATM   46  O5  UNL     1     -13.666  45.633 -24.732  1.00  0.00    -0.314 OA
HETATM   47  C21 UNL     1     -12.473  46.050 -25.397  1.00  0.00     0.213 A 
ENDBRANCH  10  42
TORSDOF 11
ENDMDL
MODEL 2
REMARK minimizedAffinity -8.31658077
REMARK CNNscore 0.569113553
REMARK CNNaffinity 6.40370798
REMARK  11 active torsions:
REMARK  status: ('A' for Active; 'I' for Inactive)
REMARK    1  A    between atoms: O1_2  and  C2_3 
REMARK    2  A    between atoms: C4_5  and  O2_6 
REMARK    3  A    between atoms: O2_6  and  C5_7 
REMARK    4  A    between atoms: C8_10  and  C9_11 
REMARK    5  A    between atoms: N1_12  and  C10_14 
REMARK    6  A    between atoms: C10_14  and  C11_15 
REMARK    7  A    between atoms: C11_15  and  O3_16 
REMARK    8  A    between atoms: C17_22  and  C18_23 
REMARK    9  A    between atoms: C24_31  and  O6_32 
REMARK   10  A    between atoms: C28_36  and  O7_37 
REMARK   11  A    between atoms: C32_42  and  O9_43 
ROOT
HETATM    1  C5  UNL     1      -7.720  47.531 -25.170  1.00  0.00     0.127 C 
HETATM    2  C6  UNL     1      -8.516  48.679 -25.806  1.00  0.00     0.033 C 
HETATM    3  C7  UNL     1      -9.977  48.322 -26.084  1.00  0.00     0.021 C 
HETATM    4  C8  UNL     1     -10.187  47.027 -26.950  1.00  0.00     0.026 C 
HETATM    5  C12 UNL     1     -11.571  46.393 -26.500  1.00  0.00     0.009 C 
HETATM    6  C13 UNL     1     -12.793  47.271 -26.884  1.00  0.00     0.007 C 
HETATM    7  C14 UNL     1     -14.117  46.694 -26.390  1.00  0.00     0.013 C 
HETATM    8  C15 UNL     1     -14.361  45.238 -26.855  1.00  0.00    -0.005 C 
HETATM    9  C16 UNL     1     -14.660  45.214 -28.368  1.00  0.00     0.019 C 
HETATM   10  C17 UNL     1     -15.504  44.542 -26.040  1.00  0.00     0.028 C 
HETATM   11  C22 UNL     1     -14.822  44.116 -24.713  1.00  0.00     0.013 C 
HETATM   12  C23 UNL     1     -13.303  44.133 -24.973  1.00  0.00     0.040 C 
HETATM   13  C24 UNL     1     -13.143  44.336 -26.487  1.00  0.00     0.070 C 
HETATM   14  C25 UNL     1     -11.781  44.926 -26.944  1.00  0.00     0.026 C 
HETATM   15  C26 UNL     1     -10.576  44.078 -26.500  1.00  0.00     0.011 C 
HETATM   16  C27 UNL     1      -9.305  44.593 -27.146  1.00  0.00     0.039 C 
HETATM   17  C28 UNL     1      -8.967  46.046 -26.785  1.00  0.00     0.073 C 
HETATM   18  C29 UNL     1      -8.381  46.161 -25.372  1.00  0.00     0.071 C 
ENDROOT
BRANCH   1  19
HETATM   19  O2  UNL     1      -7.543  47.752 -23.762  1.00  0.00    -0.356 OA
BRANCH  19  20
HETATM   20  C4  UNL     1      -6.865  48.980 -23.482  1.00  0.00     0.263 C 
HETATM   21  C3  UNL     1      -6.743  49.149 -21.967  1.00  0.00     0.095 C 
HETATM   22  C2  UNL     1      -5.705  50.209 -21.637  1.00  0.00     0.156 C 
HETATM   23  C32 UNL     1      -4.335  49.839 -22.266  1.00  0.00     0.175 C 
HETATM   24  C30 UNL     1      -4.488  48.724 -23.331  1.00  0.00     0.151 C 
HETATM   25  O8  UNL     1      -5.608  49.025 -24.164  1.00  0.00    -0.354 OA
HETATM   26  C31 UNL     1      -3.260  48.600 -24.220  1.00  0.00     0.042 C 
BRANCH  22  27
HETATM   27  O1  UNL     1      -5.620  50.297 -20.204  1.00  0.00    -0.388 OA
HETATM   28  C1  UNL     1      -4.744  49.319 -19.639  1.00  0.00     0.202 C 
ENDBRANCH  22  27
BRANCH  23  29
HETATM   29  O9  UNL     1      -3.790  51.036 -22.856  1.00  0.00    -0.390 OA
HETATM   30  H49 UNL     1      -4.260  51.195 -23.700  1.00  0.00     0.210 HD
ENDBRANCH  23  29
ENDBRANCH  19  20
ENDBRANCH   1  19
BRANCH  17  31
HETATM   31  O7  UNL     1      -7.894  46.434 -27.669  1.00  0.00    -0.389 OA
HETATM   32  H41 UNL     1      -7.213  45.734 -27.646  1.00  0.00     0.210 HD
ENDBRANCH  17  31
BRANCH   4  33
HETATM   33  C9  UNL     1     -10.206  47.455 -28.430  1.00  0.00     0.068 C 
HETATM   34  N1  UNL     1      -9.486  48.431 -28.877  1.00  0.00    -0.399 N 
ATOM     35  H1  UNL     1      -8.805  48.929 -28.302  1.00  0.00     0.158 HD
BRANCH  34  36
HETATM   36  C10 UNL     1      -9.735  48.756 -30.286  1.00  0.00     0.144 C 
BRANCH  36  37
HETATM   37  C11 UNL     1      -8.545  49.551 -30.833  1.00  0.00     0.183 C 
BRANCH  37  38
HETATM   38  O3  UNL     1      -8.821  50.945 -30.826  1.00  0.00    -0.399 OA
HETATM   39  H18 UNL     1      -8.766  51.231 -29.898  1.00  0.00     0.209 HD
ENDBRANCH  37  38
ENDBRANCH  36  37
ENDBRANCH  34  36
ENDBRANCH   4  33
BRANCH  13  40
HETATM   40  O6  UNL     1     -13.329  43.055 -27.109  1.00  0.00    -0.389 OA
HETATM   41  H35 UNL     1     -12.660  42.435 -26.780  1.00  0.00     0.210 HD
ENDBRANCH  13  40
BRANCH  10  42
HETATM   42  C18 UNL     1     -16.809  45.280 -25.906  1.00  0.00    -0.045 A 
HETATM   43  C19 UNL     1     -17.178  46.176 -24.991  1.00  0.00     0.087 A 
HETATM   44  C20 UNL     1     -18.575  46.524 -25.262  1.00  0.00     0.283 A 
HETATM   45  O4  UNL     1     -19.227  47.324 -24.617  1.00  0.00    -0.260 OA
HETATM   46  O5  UNL     1     -19.021  45.802 -26.325  1.00  0.00    -0.314 OA
HETATM   47  C21 UNL     1     -17.957  44.978 -26.804  1.00  0.00     0.213 A 
ENDBRANCH  10  42
TORSDOF 11
ENDMDL
MODEL 3
REMARK minimizedAffinity -7.47167158
REMARK CNNscore 0.550505817
REMARK CNNaffinity 6.56446695
REMARK  11 active torsions:
REMARK  status: ('A' for Active; 'I' for Inactive)
REMARK    1  A    between atoms: O1_2  and  C2_3 
REMARK    2  A    between atoms: C4_5  and  O2_6 
REMARK    3  A    between atoms: O2_6  and  C5_7 
REMARK    4  A    between atoms: C8_10  and  C9_11 
REMARK    5  A    between atoms: N1_12  and  C10_14 
REMARK    6  A    between atoms: C10_14  and  C11_15 
REMARK    7  A    between atoms: C11_15  and  O3_16 
REMARK    8  A    between atoms: C17_22  and  C18_23 
REMARK    9  A    between atoms: C24_31  and  O6_32 
REMARK   10  A    between atoms: C28_36  and  O7_37 
REMARK   11  A    between atoms: C32_42  and  O9_43 
ROOT
HETATM    1  C5  UNL     1      -8.230  47.379 -21.656  1.00  0.00     0.127 C 
HETATM    2  C6  UNL     1      -8.284  48.402 -20.512  1.00  0.00     0.033 C 
HETATM    3  C7  UNL     1      -6.930  49.045 -20.212  1.00  0.00     0.021 C 
HETATM    4  C8  UNL     1      -5.766  48.030 -19.920  1.00  0.00     0.026 C 
HETATM    5  C12 UNL     1      -4.421  48.723 -20.400  1.00  0.00     0.009 C 
HETATM    6  C13 UNL     1      -4.033  49.955 -19.538  1.00  0.00     0.007 C 
HETATM    7  C14 UNL     1      -2.777  50.661 -20.043  1.00  0.00     0.013 C 
HETATM    8  C15 UNL     1      -1.557  49.718 -20.177  1.00  0.00    -0.005 C 
HETATM    9  C16 UNL     1      -1.042  49.327 -18.776  1.00  0.00     0.019 C 
HETATM   10  C17 UNL     1      -0.414  50.350 -21.044  1.00  0.00     0.028 C 
HETATM   11  C22 UNL     1      -0.879  50.126 -22.508  1.00  0.00     0.013 C 
HETATM   12  C23 UNL     1      -1.953  49.022 -22.466  1.00  0.00     0.040 C 
HETATM   13  C24 UNL     1      -1.924  48.468 -21.033  1.00  0.00     0.070 C 
HETATM   14  C25 UNL     1      -3.222  47.759 -20.561  1.00  0.00     0.026 C 
HETATM   15  C26 UNL     1      -3.629  46.580 -21.464  1.00  0.00     0.011 C 
HETATM   16  C27 UNL     1      -4.777  45.812 -20.839  1.00  0.00     0.039 C 
HETATM   17  C28 UNL     1      -6.045  46.650 -20.626  1.00  0.00     0.073 C 
HETATM   18  C29 UNL     1      -6.810  46.870 -21.936  1.00  0.00     0.071 C 
ENDROOT
BRANCH   1  19
HETATM   19  O2  UNL     1      -8.765  47.937 -22.865  1.00  0.00    -0.356 OA
BRANCH  19  20
HETATM   20  C4  UNL     1      -9.060  46.937 -23.846  1.00  0.00     0.263 C 
HETATM   21  C3  UNL     1     -10.549  46.595 -23.778  1.00  0.00     0.095 C 
HETATM   22  C2  UNL     1     -10.977  45.853 -25.034  1.00  0.00     0.156 C 
HETATM   23  C32 UNL     1     -10.657  46.699 -26.296  1.00  0.00     0.175 C 
HETATM   24  C30 UNL     1      -9.686  47.860 -25.965  1.00  0.00     0.151 C 
HETATM   25  O8  UNL     1      -8.630  47.364 -25.141  1.00  0.00    -0.354 OA
HETATM   26  C31 UNL     1      -9.064  48.468 -27.213  1.00  0.00     0.042 C 
BRANCH  22  27
HETATM   27  O1  UNL     1     -12.386  45.590 -24.920  1.00  0.00    -0.388 OA
HETATM   28  C1  UNL     1     -13.193  46.682 -25.363  1.00  0.00     0.202 C 
ENDBRANCH  22  27
BRANCH  23  29
HETATM   29  O9  UNL     1     -10.079  45.814 -27.277  1.00  0.00    -0.390 OA
HETATM   30  H49 UNL     1      -9.149  45.647 -27.019  1.00  0.00     0.210 HD
ENDBRANCH  23  29
ENDBRANCH  19  20
ENDBRANCH   1  19
BRANCH  17  31
HETATM   31  O7  UNL     1      -6.920  45.844 -19.810  1.00  0.00    -0.389 OA
HETATM   32  H41 UNL     1      -6.963  44.950 -20.203  1.00  0.00     0.210 HD
ENDBRANCH  17  31
BRANCH   4  33
HETATM   33  C9  UNL     1      -5.759  47.752 -18.406  1.00  0.00     0.068 C 
HETATM   34  N1  UNL     1      -4.986  46.865 -17.868  1.00  0.00    -0.399 N 
ATOM     35  H1  UNL     1      -4.282  46.348 -18.395  1.00  0.00     0.158 HD
BRANCH  34  36
HETATM   36  C10 UNL     1      -5.215  46.671 -16.432  1.00  0.00     0.144 C 
BRANCH  36  37
HETATM   37  C11 UNL     1      -3.862  46.575 -15.719  1.00  0.00     0.183 C 
BRANCH  37  38
HETATM   38  O3  UNL     1      -3.674  45.282 -15.162  1.00  0.00    -0.399 OA
HETATM   39  H18 UNL     1      -3.482  44.686 -15.906  1.00  0.00     0.209 HD
ENDBRANCH  37  38
ENDBRANCH  36  37
ENDBRANCH  34  36
ENDBRANCH   4  33
BRANCH  13  40
HETATM   40  O6  UNL     1      -0.832  47.538 -20.961  1.00  0.00    -0.389 OA
HETATM   41  H35 UNL     1      -0.974  46.819 -21.597  1.00  0.00     0.210 HD
ENDBRANCH  13  40
BRANCH  10  42
HETATM   42  C18 UNL     1       0.030  51.744 -20.697  1.00  0.00    -0.045 A 
HETATM   43  C19 UNL     1       0.603  52.662 -21.475  1.00  0.00     0.087 A 
HETATM   44  C20 UNL     1       0.911  53.818 -20.629  1.00  0.00     0.283 A 
HETATM   45  O4  UNL     1       1.436  54.844 -21.022  1.00  0.00    -0.260 OA
HETATM   46  O5  UNL     1       0.537  53.552 -19.349  1.00  0.00    -0.314 OA
HETATM   47  C21 UNL     1      -0.039  52.246 -19.297  1.00  0.00     0.213 A 
ENDBRANCH  10  42
TORSDOF 11
ENDMDL
MODEL 4
REMARK minimizedAffinity -8.75343513
REMARK CNNscore 0.503954589
REMARK CNNaffinity 6.98186922
REMARK  11 active torsions:
REMARK  status: ('A' for Active; 'I' for Inactive)
REMARK    1  A    between atoms: O1_2  and  C2_3 
REMARK    2  A    between atoms: C4_5  and  O2_6 
REMARK    3  A    between atoms: O2_6  and  C5_7 
REMARK    4  A    between atoms: C8_10  and  C9_11 
REMARK    5  A    between atoms: N1_12  and  C10_14 
REMARK    6  A    between atoms: C10_14  and  C11_15 
REMARK    7  A    between atoms: C11_15  and  O3_16 
REMARK    8  A    between atoms: C17_22  and  C18_23 
REMARK    9  A    between atoms: C24_31  and  O6_32 
REMARK   10  A    between atoms: C28_36  and  O7_37 
REMARK   11  A    between atoms: C32_42  and  O9_43 
ROOT
HETATM    1  C5  UNL     1      -7.729  48.094 -23.852  1.00  0.00     0.127 C 
HETATM    2  C6  UNL     1      -7.998  49.462 -23.211  1.00  0.00     0.033 C 
HETATM    3  C7  UNL     1      -6.832  49.973 -22.363  1.00  0.00     0.021 C 
HETATM    4  C8  UNL     1      -6.344  48.982 -21.244  1.00  0.00     0.026 C 
HETATM    5  C12 UNL     1      -4.794  49.254 -21.035  1.00  0.00     0.009 C 
HETATM    6  C13 UNL     1      -4.501  50.648 -20.418  1.00  0.00     0.007 C 
HETATM    7  C14 UNL     1      -3.008  50.934 -20.282  1.00  0.00     0.013 C 
HETATM    8  C15 UNL     1      -2.247  49.847 -19.486  1.00  0.00    -0.005 C 
HETATM    9  C16 UNL     1      -2.625  49.930 -17.992  1.00  0.00     0.019 C 
HETATM   10  C17 UNL     1      -0.695  49.947 -19.683  1.00  0.00     0.028 C 
HETATM   11  C22 UNL     1      -0.441  49.269 -21.056  1.00  0.00     0.013 C 
HETATM   12  C23 UNL     1      -1.689  48.421 -21.367  1.00  0.00     0.040 C 
HETATM   13  C24 UNL     1      -2.531  48.434 -20.082  1.00  0.00     0.070 C 
HETATM   14  C25 UNL     1      -4.044  48.139 -20.268  1.00  0.00     0.026 C 
HETATM   15  C26 UNL     1      -4.317  46.781 -20.940  1.00  0.00     0.011 C 
HETATM   16  C27 UNL     1      -5.800  46.467 -20.906  1.00  0.00     0.039 C 
HETATM   17  C28 UNL     1      -6.671  47.494 -21.640  1.00  0.00     0.073 C 
HETATM   18  C29 UNL     1      -6.595  47.323 -23.163  1.00  0.00     0.071 C 
ENDROOT
BRANCH   1  19
HETATM   19  O2  UNL     1      -7.406  48.237 -25.244  1.00  0.00    -0.356 OA
BRANCH  19  20
HETATM   20  C4  UNL     1      -6.043  47.906 -25.526  1.00  0.00     0.263 C 
HETATM   21  C3  UNL     1      -5.791  48.067 -27.026  1.00  0.00     0.095 C 
HETATM   22  C2  UNL     1      -4.298  48.115 -27.307  1.00  0.00     0.156 C 
HETATM   23  C32 UNL     1      -3.634  49.267 -26.505  1.00  0.00     0.175 C 
HETATM   24  C30 UNL     1      -4.575  49.794 -25.392  1.00  0.00     0.151 C 
HETATM   25  O8  UNL     1      -5.161  48.684 -24.712  1.00  0.00    -0.354 OA
HETATM   26  C31 UNL     1      -3.840  50.642 -24.366  1.00  0.00     0.042 C 
BRANCH  22  27
HETATM   27  O1  UNL     1      -4.131  48.296 -28.723  1.00  0.00    -0.388 OA
HETATM   28  C1  UNL     1      -5.328  48.041 -29.461  1.00  0.00     0.202 C 
ENDBRANCH  22  27
BRANCH  23  29
HETATM   29  O9  UNL     1      -2.412  48.754 -25.938  1.00  0.00    -0.390 OA
HETATM   30  H49 UNL     1      -2.649  48.203 -25.163  1.00  0.00     0.210 HD
ENDBRANCH  23  29
ENDBRANCH  19  20
ENDBRANCH   1  19
BRANCH  17  31
HETATM   31  O7  UNL     1      -8.035  47.177 -21.294  1.00  0.00    -0.389 OA
HETATM   32  H41 UNL     1      -8.165  46.217 -21.422  1.00  0.00     0.210 HD
ENDBRANCH  17  31
BRANCH   4  33
HETATM   33  C9  UNL     1      -7.156  49.283 -19.971  1.00  0.00     0.068 C 
HETATM   34  N1  UNL     1      -7.144  48.501 -18.941  1.00  0.00    -0.399 N 
ATOM     35  H1  UNL     1      -6.544  47.679 -18.874  1.00  0.00     0.158 HD
BRANCH  34  36
HETATM   36  C10 UNL     1      -8.074  48.902 -17.879  1.00  0.00     0.144 C 
BRANCH  36  37
HETATM   37  C11 UNL     1      -9.205  47.873 -17.789  1.00  0.00     0.183 C 
BRANCH  37  38
HETATM   38  O3  UNL     1      -9.815  47.902 -16.507  1.00  0.00    -0.399 OA
HETATM   39  H18 UNL     1     -10.357  48.709 -16.478  1.00  0.00     0.209 HD
ENDBRANCH  37  38
ENDBRANCH  36  37
ENDBRANCH  34  36
ENDBRANCH   4  33
BRANCH  13  40
HETATM   40  O6  UNL     1      -1.970  47.452 -19.197  1.00  0.00    -0.389 OA
HETATM   41  H35 UNL     1      -2.009  46.578 -19.616  1.00  0.00     0.210 HD
ENDBRANCH  13  40
BRANCH  10  42
HETATM   42  C18 UNL     1      -0.056  51.294 -19.483  1.00  0.00    -0.045 A 
HETATM   43  C19 UNL     1       0.349  52.177 -20.395  1.00  0.00     0.087 A 
HETATM   44  C20 UNL     1       0.979  53.288 -19.676  1.00  0.00     0.283 A 
HETATM   45  O4  UNL     1       1.455  54.274 -20.206  1.00  0.00    -0.260 OA
HETATM   46  O5  UNL     1       0.960  53.028 -18.341  1.00  0.00    -0.314 OA
HETATM   47  C21 UNL     1       0.315  51.773 -18.123  1.00  0.00     0.213 A 
ENDBRANCH  10  42
TORSDOF 11
ENDMDL
MODEL 5
REMARK minimizedAffinity -7.09675837
REMARK CNNscore 0.493513197
REMARK CNNaffinity 5.81157064
REMARK  11 active torsions:
REMARK  status: ('A' for Active; 'I' for Inactive)
REMARK    1  A    between atoms: O1_2  and  C2_3 
REMARK    2  A    between atoms: C4_5  and  O2_6 
REMARK    3  A    between atoms: O2_6  and  C5_7 
REMARK    4  A    between atoms: C8_10  and  C9_11 
REMARK    5  A    between atoms: N1_12  and  C10_14 
REMARK    6  A    between atoms: C10_14  and  C11_15 
REMARK    7  A    between atoms: C11_15  and  O3_16 
REMARK    8  A    between atoms: C17_22  and  C18_23 
REMARK    9  A    between atoms: C24_31  and  O6_32 
REMARK   10  A    between atoms: C28_36  and  O7_37 
REMARK   11  A    between atoms: C32_42  and  O9_43 
ROOT
HETATM    1  C5  UNL     1      -7.918  46.482 -24.321  1.00  0.00     0.127 C 
HETATM    2  C6  UNL     1      -8.595  47.800 -24.721  1.00  0.00     0.033 C 
HETATM    3  C7  UNL     1     -10.050  47.623 -25.160  1.00  0.00     0.021 C 
HETATM    4  C8  UNL     1     -10.270  46.577 -26.313  1.00  0.00     0.026 C 
HETATM    5  C12 UNL     1     -11.719  45.962 -26.104  1.00  0.00     0.009 C 
HETATM    6  C13 UNL     1     -12.855  46.992 -26.347  1.00  0.00     0.007 C 
HETATM    7  C14 UNL     1     -14.243  46.417 -26.079  1.00  0.00     0.013 C 
HETATM    8  C15 UNL     1     -14.536  45.126 -26.881  1.00  0.00    -0.005 C 
HETATM    9  C16 UNL     1     -14.723  45.468 -28.374  1.00  0.00     0.019 C 
HETATM   10  C17 UNL     1     -15.776  44.351 -26.319  1.00  0.00     0.028 C 
HETATM   11  C22 UNL     1     -15.221  43.585 -25.088  1.00  0.00     0.013 C 
HETATM   12  C23 UNL     1     -13.688  43.548 -25.246  1.00  0.00     0.040 C 
HETATM   13  C24 UNL     1     -13.404  44.078 -26.660  1.00  0.00     0.070 C 
HETATM   14  C25 UNL     1     -11.980  44.653 -26.887  1.00  0.00     0.026 C 
HETATM   15  C26 UNL     1     -10.862  43.640 -26.580  1.00  0.00     0.011 C 
HETATM   16  C27 UNL     1      -9.519  44.193 -27.013  1.00  0.00     0.039 C 
HETATM   17  C28 UNL     1      -9.124  45.497 -26.307  1.00  0.00     0.073 C 
HETATM   18  C29 UNL     1      -8.641  45.246 -24.873  1.00  0.00     0.071 C 
ENDROOT
BRANCH   1  19
HETATM   19  O2  UNL     1      -7.833  46.364 -22.893  1.00  0.00    -0.356 OA
BRANCH  19  20
HETATM   20  C4  UNL     1      -6.481  46.305 -22.428  1.00  0.00     0.263 C 
HETATM   21  C3  UNL     1      -5.880  47.711 -22.463  1.00  0.00     0.095 C 
HETATM   22  C2  UNL     1      -4.614  47.763 -21.623  1.00  0.00     0.156 C 
HETATM   23  C32 UNL     1      -4.915  47.324 -20.164  1.00  0.00     0.175 C 
HETATM   24  C30 UNL     1      -6.292  46.620 -20.061  1.00  0.00     0.151 C 
HETATM   25  O8  UNL     1      -6.422  45.691 -21.137  1.00  0.00    -0.354 OA
HETATM   26  C31 UNL     1      -6.454  45.857 -18.756  1.00  0.00     0.042 C 
BRANCH  22  27
HETATM   27  O1  UNL     1      -4.118  49.112 -21.675  1.00  0.00    -0.388 OA
HETATM   28  C1  UNL     1      -4.863  50.010 -20.848  1.00  0.00     0.202 C 
ENDBRANCH  22  27
BRANCH  23  29
HETATM   29  O9  UNL     1      -3.856  46.437 -19.750  1.00  0.00    -0.390 OA
HETATM   30  H49 UNL     1      -4.018  45.564 -20.164  1.00  0.00     0.210 HD
ENDBRANCH  23  29
ENDBRANCH  19  20
ENDBRANCH   1  19
BRANCH  17  31
HETATM   31  O7  UNL     1      -7.968  45.995 -27.012  1.00  0.00    -0.389 OA
HETATM   32  H41 UNL     1      -7.333  45.260 -27.111  1.00  0.00     0.210 HD
ENDBRANCH  17  31
BRANCH   4  33
HETATM   33  C9  UNL     1     -10.153  47.329 -27.652  1.00  0.00     0.068 C 
HETATM   34  N1  UNL     1     -10.033  46.714 -28.783  1.00  0.00    -0.399 N 
ATOM     35  H1  UNL     1     -10.083  45.699 -28.872  1.00  0.00     0.158 HD
BRANCH  34  36
HETATM   36  C10 UNL     1      -9.818  47.609 -29.925  1.00  0.00     0.144 C 
BRANCH  36  37
HETATM   37  C11 UNL     1      -8.471  48.319 -29.757  1.00  0.00     0.183 C 
BRANCH  37  38
HETATM   38  O3  UNL     1      -8.655  49.660 -29.326  1.00  0.00    -0.399 OA
HETATM   39  H18 UNL     1      -8.908  49.615 -28.388  1.00  0.00     0.209 HD
ENDBRANCH  37  38
ENDBRANCH  36  37
ENDBRANCH  34  36
ENDBRANCH   4  33
BRANCH  13  40
HETATM   40  O6  UNL     1     -13.617  42.988 -27.571  1.00  0.00    -0.389 OA
HETATM   41  H35 UNL     1     -13.011  42.261 -27.355  1.00  0.00     0.210 HD
ENDBRANCH  13  40
BRANCH  10  42
HETATM   42  C18 UNL     1     -17.042  45.133 -26.095  1.00  0.00    -0.045 A 
HETATM   43  C19 UNL     1     -17.332  46.005 -25.130  1.00  0.00     0.087 A 
HETATM   44  C20 UNL     1     -18.725  46.418 -25.322  1.00  0.00     0.283 A 
HETATM   45  O4  UNL     1     -19.313  47.216 -24.616  1.00  0.00    -0.260 OA
HETATM   46  O5  UNL     1     -19.247  45.758 -26.390  1.00  0.00    -0.314 OA
HETATM   47  C21 UNL     1     -18.240  44.913 -26.949  1.00  0.00     0.213 A 
ENDBRANCH  10  42
TORSDOF 11
ENDMDL
MODEL 6
REMARK minimizedAffinity -7.37745285
REMARK CNNscore 0.363883466
REMARK CNNaffinity 6.55588007
REMARK  11 active torsions:
REMARK  status: ('A' for Active; 'I' for Inactive)
REMARK    1  A    between atoms: O1_2  and  C2_3 
REMARK    2  A    between atoms: C4_5  and  O2_6 
REMARK    3  A    between atoms: O2_6  and  C5_7 
REMARK    4  A    between atoms: C8_10  and  C9_11 
REMARK    5  A    between atoms: N1_12  and  C10_14 
REMARK    6  A    between atoms: C10_14  and  C11_15 
REMARK    7  A    between atoms: C11_15  and  O3_16 
REMARK    8  A    between atoms: C17_22  and  C18_23 
REMARK    9  A    between atoms: C24_31  and  O6_32 
REMARK   10  A    between atoms: C28_36  and  O7_37 
REMARK   11  A    between atoms: C32_42  and  O9_43 
ROOT
HETATM    1  C5  UNL     1      -4.174  44.678 -18.762  1.00  0.00     0.127 C 
HETATM    2  C6  UNL     1      -4.679  44.697 -20.211  1.00  0.00     0.033 C 
HETATM    3  C7  UNL     1      -4.205  45.918 -21.001  1.00  0.00     0.021 C 
HETATM    4  C8  UNL     1      -4.537  47.304 -20.338  1.00  0.00     0.026 C 
HETATM    5  C12 UNL     1      -3.394  48.312 -20.784  1.00  0.00     0.009 C 
HETATM    6  C13 UNL     1      -3.429  48.635 -22.301  1.00  0.00     0.007 C 
HETATM    7  C14 UNL     1      -2.288  49.549 -22.740  1.00  0.00     0.013 C 
HETATM    8  C15 UNL     1      -2.216  50.867 -21.932  1.00  0.00    -0.005 C 
HETATM    9  C16 UNL     1      -3.395  51.784 -22.320  1.00  0.00     0.019 C 
HETATM   10  C17 UNL     1      -0.843  51.600 -22.120  1.00  0.00     0.028 C 
HETATM   11  C22 UNL     1       0.126  50.844 -21.172  1.00  0.00     0.013 C 
HETATM   12  C23 UNL     1      -0.753  50.070 -20.170  1.00  0.00     0.040 C 
HETATM   13  C24 UNL     1      -2.187  50.569 -20.402  1.00  0.00     0.070 C 
HETATM   14  C25 UNL     1      -3.315  49.607 -19.942  1.00  0.00     0.026 C 
HETATM   15  C26 UNL     1      -3.229  49.245 -18.448  1.00  0.00     0.011 C 
HETATM   16  C27 UNL     1      -4.464  48.476 -18.022  1.00  0.00     0.039 C 
HETATM   17  C28 UNL     1      -4.665  47.154 -18.776  1.00  0.00     0.073 C 
HETATM   18  C29 UNL     1      -3.719  46.058 -18.269  1.00  0.00     0.071 C 
ENDROOT
BRANCH   1  19
HETATM   19  O2  UNL     1      -3.085  43.755 -18.612  1.00  0.00    -0.356 OA
BRANCH  19  20
HETATM   20  C4  UNL     1      -3.252  42.890 -17.484  1.00  0.00     0.263 C 
HETATM   21  C3  UNL     1      -4.328  41.852 -17.807  1.00  0.00     0.095 C 
HETATM   22  C2  UNL     1      -4.257  40.697 -16.821  1.00  0.00     0.156 C 
HETATM   23  C32 UNL     1      -2.842  40.057 -16.839  1.00  0.00     0.175 C 
HETATM   24  C30 UNL     1      -1.819  40.972 -17.556  1.00  0.00     0.151 C 
HETATM   25  O8  UNL     1      -1.999  42.315 -17.105  1.00  0.00    -0.354 OA
HETATM   26  C31 UNL     1      -0.381  40.568 -17.270  1.00  0.00     0.042 C 
BRANCH  22  27
HETATM   27  O1  UNL     1      -5.269  39.747 -17.196  1.00  0.00    -0.388 OA
HETATM   28  C1  UNL     1      -4.770  38.708 -18.041  1.00  0.00     0.202 C 
ENDBRANCH  22  27
BRANCH  23  29
HETATM   29  O9  UNL     1      -2.452  39.828 -15.470  1.00  0.00    -0.390 OA
HETATM   30  H49 UNL     1      -2.178  40.688 -15.089  1.00  0.00     0.210 HD
ENDBRANCH  23  29
ENDBRANCH  19  20
ENDBRANCH   1  19
BRANCH  17  31
HETATM   31  O7  UNL     1      -5.989  46.697 -18.428  1.00  0.00    -0.389 OA
HETATM   32  H41 UNL     1      -6.081  46.747 -17.456  1.00  0.00     0.210 HD
ENDBRANCH  17  31
BRANCH   4  33
HETATM   33  C9  UNL     1      -5.921  47.745 -20.849  1.00  0.00     0.068 C 
HETATM   34  N1  UNL     1      -6.519  48.802 -20.404  1.00  0.00    -0.399 N 
ATOM     35  H1  UNL     1      -6.085  49.451 -19.747  1.00  0.00     0.158 HD
BRANCH  34  36
HETATM   36  C10 UNL     1      -7.876  48.983 -20.931  1.00  0.00     0.144 C 
BRANCH  36  37
HETATM   37  C11 UNL     1      -7.800  49.190 -22.447  1.00  0.00     0.183 C 
BRANCH  37  38
HETATM   38  O3  UNL     1      -7.481  50.539 -22.759  1.00  0.00    -0.399 OA
HETATM   39  H18 UNL     1      -6.537  50.652 -22.554  1.00  0.00     0.209 HD
ENDBRANCH  37  38
ENDBRANCH  36  37
ENDBRANCH  34  36
ENDBRANCH   4  33
BRANCH  13  40
HETATM   40  O6  UNL     1      -2.321  51.815 -19.700  1.00  0.00    -0.389 OA
HETATM   41  H35 UNL     1      -2.163  51.672 -18.753  1.00  0.00     0.210 HD
ENDBRANCH  13  40
BRANCH  10  42
HETATM   42  C18 UNL     1      -0.357  51.815 -23.527  1.00  0.00    -0.045 A 
HETATM   43  C19 UNL     1       0.412  52.789 -24.012  1.00  0.00     0.087 A 
HETATM   44  C20 UNL     1       0.519  52.580 -25.459  1.00  0.00     0.283 A 
HETATM   45  O4  UNL     1       1.157  53.288 -26.215  1.00  0.00    -0.260 OA
HETATM   46  O5  UNL     1      -0.216  51.492 -25.811  1.00  0.00    -0.314 OA
HETATM   47  C21 UNL     1      -0.813  50.936 -24.639  1.00  0.00     0.213 A 
ENDBRANCH  10  42
TORSDOF 11
ENDMDL
MODEL 7
REMARK minimizedAffinity -6.86106777
REMARK CNNscore 0.350805879
REMARK CNNaffinity 5.95054007
REMARK  11 active torsions:
REMARK  status: ('A' for Active; 'I' for Inactive)
REMARK    1  A    between atoms: O1_2  and  C2_3 
REMARK    2  A    between atoms: C4_5  and  O2_6 
REMARK    3  A    between atoms: O2_6  and  C5_7 
REMARK    4  A    between atoms: C8_10  and  C9_11 
REMARK    5  A    between atoms: N1_12  and  C10_14 
REMARK    6  A    between atoms: C10_14  and  C11_15 
REMARK    7  A    between atoms: C11_15  and  O3_16 
REMARK    8  A    between atoms: C17_22  and  C18_23 
REMARK    9  A    between atoms: C24_31  and  O6_32 
REMARK   10  A    between atoms: C28_36  and  O7_37 
REMARK   11  A    between atoms: C32_42  and  O9_43 
ROOT
HETATM    1  C5  UNL     1     -10.774  46.022 -30.589  1.00  0.00     0.127 C 
HETATM    2  C6  UNL     1     -10.806  46.379 -32.082  1.00  0.00     0.033 C 
HETATM    3  C7  UNL     1     -10.058  45.376 -32.960  1.00  0.00     0.021 C 
HETATM    4  C8  UNL     1      -8.566  45.113 -32.541  1.00  0.00     0.026 C 
HETATM    5  C12 UNL     1      -8.225  43.622 -32.965  1.00  0.00     0.009 C 
HETATM    6  C13 UNL     1      -8.195  43.420 -34.504  1.00  0.00     0.007 C 
HETATM    7  C14 UNL     1      -7.936  41.971 -34.908  1.00  0.00     0.013 C 
HETATM    8  C15 UNL     1      -6.647  41.384 -34.284  1.00  0.00    -0.005 C 
HETATM    9  C16 UNL     1      -5.408  42.023 -34.945  1.00  0.00     0.019 C 
HETATM   10  C17 UNL     1      -6.601  39.821 -34.386  1.00  0.00     0.028 C 
HETATM   11  C22 UNL     1      -7.509  39.336 -33.225  1.00  0.00     0.013 C 
HETATM   12  C23 UNL     1      -7.651  40.522 -32.252  1.00  0.00     0.040 C 
HETATM   13  C24 UNL     1      -6.650  41.581 -32.737  1.00  0.00     0.070 C 
HETATM   14  C25 UNL     1      -6.953  43.040 -32.304  1.00  0.00     0.026 C 
HETATM   15  C26 UNL     1      -7.044  43.211 -30.777  1.00  0.00     0.011 C 
HETATM   16  C27 UNL     1      -7.137  44.681 -30.417  1.00  0.00     0.039 C 
HETATM   17  C28 UNL     1      -8.366  45.389 -31.004  1.00  0.00     0.073 C 
HETATM   18  C29 UNL     1      -9.646  45.044 -30.233  1.00  0.00     0.071 C 
ENDROOT
BRANCH   1  19
HETATM   19  O2  UNL     1     -12.024  45.453 -30.173  1.00  0.00    -0.356 OA
BRANCH  19  20
HETATM   20  C4  UNL     1     -12.705  46.269 -29.215  1.00  0.00     0.263 C 
HETATM   21  C3  UNL     1     -13.996  45.568 -28.791  1.00  0.00     0.095 C 
HETATM   22  C2  UNL     1     -14.537  46.189 -27.513  1.00  0.00     0.156 C 
HETATM   23  C32 UNL     1     -13.471  46.121 -26.386  1.00  0.00     0.175 C 
HETATM   24  C30 UNL     1     -12.069  45.790 -26.956  1.00  0.00     0.151 C 
HETATM   25  O8  UNL     1     -11.840  46.584 -28.121  1.00  0.00    -0.354 OA
HETATM   26  C31 UNL     1     -10.956  46.080 -25.961  1.00  0.00     0.042 C 
BRANCH  22  27
HETATM   27  O1  UNL     1     -15.729  45.469 -27.155  1.00  0.00    -0.388 OA
HETATM   28  C1  UNL     1     -16.202  44.620 -28.203  1.00  0.00     0.202 C 
ENDBRANCH  22  27
BRANCH  23  29
HETATM   29  O9  UNL     1     -13.462  47.399 -25.719  1.00  0.00    -0.390 OA
HETATM   30  H49 UNL     1     -12.978  48.031 -26.289  1.00  0.00     0.210 HD
ENDBRANCH  23  29
ENDBRANCH  19  20
ENDBRANCH   1  19
BRANCH  17  31
HETATM   31  O7  UNL     1      -8.158  46.798 -30.775  1.00  0.00    -0.389 OA
HETATM   32  H41 UNL     1      -7.901  46.919 -29.840  1.00  0.00     0.210 HD
ENDBRANCH  17  31
BRANCH   4  33
HETATM   33  C9  UNL     1      -7.687  46.135 -33.286  1.00  0.00     0.068 C 
HETATM   34  N1  UNL     1      -6.419  46.251 -33.061  1.00  0.00    -0.399 N 
ATOM     35  H1  UNL     1      -5.905  45.628 -32.437  1.00  0.00     0.158 HD
BRANCH  34  36
HETATM   36  C10 UNL     1      -5.786  47.360 -33.785  1.00  0.00     0.144 C 
BRANCH  36  37
HETATM   37  C11 UNL     1      -4.350  47.531 -33.280  1.00  0.00     0.183 C 
BRANCH  37  38
HETATM   38  O3  UNL     1      -4.269  48.586 -32.332  1.00  0.00    -0.399 OA
HETATM   39  H18 UNL     1      -4.667  48.249 -31.511  1.00  0.00     0.209 HD
ENDBRANCH  37  38
ENDBRANCH  36  37
ENDBRANCH  34  36
ENDBRANCH   4  33
BRANCH  13  40
HETATM   40  O6  UNL     1      -5.358  41.204 -32.235  1.00  0.00    -0.389 OA
HETATM   41  H35 UNL     1      -5.381  41.181 -31.265  1.00  0.00     0.210 HD
ENDBRANCH  13  40
BRANCH  10  42
HETATM   42  C18 UNL     1      -6.865  39.205 -35.733  1.00  0.00    -0.045 A 
HETATM   43  C19 UNL     1      -6.180  39.340 -36.869  1.00  0.00     0.087 A 
HETATM   44  C20 UNL     1      -6.906  38.599 -37.904  1.00  0.00     0.283 A 
HETATM   45  O4  UNL     1      -6.552  38.507 -39.065  1.00  0.00    -0.260 OA
HETATM   46  O5  UNL     1      -8.029  38.056 -37.365  1.00  0.00    -0.314 OA
HETATM   47  C21 UNL     1      -8.086  38.390 -35.978  1.00  0.00     0.213 A 
ENDBRANCH  10  42
TORSDOF 11
ENDMDL
MODEL 8
REMARK minimizedAffinity -7.70072079
REMARK CNNscore 0.344053
REMARK CNNaffinity 6.5489254
REMARK  11 active torsions:
REMARK  status: ('A' for Active; 'I' for Inactive)
REMARK    1  A    between atoms: O1_2  and  C2_3 
REMARK    2  A    between atoms: C4_5  and  O2_6 
REMARK    3  A    between atoms: O2_6  and  C5_7 
REMARK    4  A    between atoms: C8_10  and  C9_11 
REMARK    5  A    between atoms: N1_12  and  C10_14 
REMARK    6  A    between atoms: C10_14  and  C11_15 
REMARK    7  A    between atoms: C11_15  and  O3_16 
REMARK    8  A    between atoms: C17_22  and  C18_23 
REMARK    9  A    between atoms: C24_31  and  O6_32 
REMARK   10  A    between atoms: C28_36  and  O7_37 
REMARK   11  A    between atoms: C32_42  and  O9_43 
ROOT
HETATM    1  C5  UNL     1      -7.217  45.452 -29.514  1.00  0.00     0.127 C 
HETATM    2  C6  UNL     1      -6.983  46.888 -30.001  1.00  0.00     0.033 C 
HETATM    3  C7  UNL     1      -7.652  47.189 -31.343  1.00  0.00     0.021 C 
HETATM    4  C8  UNL     1      -7.277  46.199 -32.505  1.00  0.00     0.026 C 
HETATM    5  C12 UNL     1      -8.531  46.135 -33.477  1.00  0.00     0.009 C 
HETATM    6  C13 UNL     1      -8.785  47.471 -34.226  1.00  0.00     0.007 C 
HETATM    7  C14 UNL     1     -10.031  47.429 -35.107  1.00  0.00     0.013 C 
HETATM    8  C15 UNL     1     -10.024  46.261 -36.122  1.00  0.00    -0.005 C 
HETATM    9  C16 UNL     1      -8.981  46.533 -37.226  1.00  0.00     0.019 C 
HETATM   10  C17 UNL     1     -11.443  46.002 -36.734  1.00  0.00     0.028 C 
HETATM   11  C22 UNL     1     -12.186  45.187 -35.642  1.00  0.00     0.013 C 
HETATM   12  C23 UNL     1     -11.104  44.615 -34.706  1.00  0.00     0.040 C 
HETATM   13  C24 UNL     1      -9.762  44.907 -35.394  1.00  0.00     0.070 C 
HETATM   14  C25 UNL     1      -8.522  44.941 -34.460  1.00  0.00     0.026 C 
HETATM   15  C26 UNL     1      -8.321  43.631 -33.675  1.00  0.00     0.011 C 
HETATM   16  C27 UNL     1      -6.992  43.656 -32.945  1.00  0.00     0.039 C 
HETATM   17  C28 UNL     1      -6.863  44.795 -31.925  1.00  0.00     0.073 C 
HETATM   18  C29 UNL     1      -7.646  44.501 -30.640  1.00  0.00     0.071 C 
ENDROOT
BRANCH   1  19
HETATM   19  O2  UNL     1      -8.214  45.419 -28.481  1.00  0.00    -0.356 OA
BRANCH  19  20
HETATM   20  C4  UNL     1      -8.922  46.657 -28.365  1.00  0.00     0.263 C 
HETATM   21  C3  UNL     1     -10.346  46.469 -28.891  1.00  0.00     0.095 C 
HETATM   22  C2  UNL     1     -11.234  47.613 -28.429  1.00  0.00     0.156 C 
HETATM   23  C32 UNL     1     -11.222  47.715 -26.880  1.00  0.00     0.175 C 
HETATM   24  C30 UNL     1     -10.059  46.892 -26.270  1.00  0.00     0.151 C 
HETATM   25  O8  UNL     1      -8.869  47.140 -27.019  1.00  0.00    -0.354 OA
HETATM   26  C31 UNL     1      -9.788  47.260 -24.819  1.00  0.00     0.042 C 
BRANCH  22  27
HETATM   27  O1  UNL     1     -12.557  47.361 -28.930  1.00  0.00    -0.388 OA
HETATM   28  C1  UNL     1     -12.837  45.968 -29.085  1.00  0.00     0.202 C 
ENDBRANCH  22  27
BRANCH  23  29
HETATM   29  O9  UNL     1     -11.094  49.110 -26.537  1.00  0.00    -0.390 OA
HETATM   30  H49 UNL     1     -10.159  49.367 -26.671  1.00  0.00     0.210 HD
ENDBRANCH  23  29
ENDBRANCH  19  20
ENDBRANCH   1  19
BRANCH  17  31
HETATM   31  O7  UNL     1      -5.477  44.812 -31.524  1.00  0.00    -0.389 OA
HETATM   32  H41 UNL     1      -5.214  43.898 -31.300  1.00  0.00     0.210 HD
ENDBRANCH  17  31
BRANCH   4  33
HETATM   33  C9  UNL     1      -6.031  46.763 -33.213  1.00  0.00     0.068 C 
HETATM   34  N1  UNL     1      -5.719  48.017 -33.171  1.00  0.00    -0.399 N 
ATOM     35  H1  UNL     1      -6.229  48.698 -32.608  1.00  0.00     0.158 HD
BRANCH  34  36
HETATM   36  C10 UNL     1      -4.566  48.371 -34.005  1.00  0.00     0.144 C 
BRANCH  36  37
HETATM   37  C11 UNL     1      -3.419  47.399 -33.710  1.00  0.00     0.183 C 
BRANCH  37  38
HETATM   38  O3  UNL     1      -2.217  48.103 -33.431  1.00  0.00    -0.399 OA
HETATM   39  H18 UNL     1      -2.318  48.476 -32.539  1.00  0.00     0.209 HD
ENDBRANCH  37  38
ENDBRANCH  36  37
ENDBRANCH  34  36
ENDBRANCH   4  33
BRANCH  13  40
HETATM   40  O6  UNL     1      -9.568  43.892 -36.391  1.00  0.00    -0.389 OA
HETATM   41  H35 UNL     1      -9.546  43.019 -35.966  1.00  0.00     0.210 HD
ENDBRANCH  13  40
BRANCH  10  42
HETATM   42  C18 UNL     1     -12.184  47.185 -37.295  1.00  0.00    -0.045 A 
HETATM   43  C19 UNL     1     -11.779  48.082 -38.194  1.00  0.00     0.087 A 
HETATM   44  C20 UNL     1     -12.848  49.075 -38.329  1.00  0.00     0.283 A 
HETATM   45  O4  UNL     1     -12.810  50.035 -39.075  1.00  0.00    -0.260 OA
HETATM   46  O5  UNL     1     -13.864  48.760 -37.482  1.00  0.00    -0.314 OA
HETATM   47  C21 UNL     1     -13.528  47.563 -36.780  1.00  0.00     0.213 A 
ENDBRANCH  10  42
TORSDOF 11
ENDMDL
MODEL 9
REMARK minimizedAffinity -7.0763402
REMARK CNNscore 0.341719985
REMARK CNNaffinity 5.83212042
REMARK  11 active torsions:
REMARK  status: ('A' for Active; 'I' for Inactive)
REMARK    1  A    between atoms: O1_2  and  C2_3 
REMARK    2  A    between atoms: C4_5  and  O2_6 
REMARK    3  A    between atoms: O2_6  and  C5_7 
REMARK    4  A    between atoms: C8_10  and  C9_11 
REMARK    5  A    between atoms: N1_12  and  C10_14 
REMARK    6  A    between atoms: C10_14  and  C11_15 
REMARK    7  A    between atoms: C11_15  and  O3_16 
REMARK    8  A    between atoms: C17_22  and  C18_23 
REMARK    9  A    between atoms: C24_31  and  O6_32 
REMARK   10  A    between atoms: C28_36  and  O7_37 
REMARK   11  A    between atoms: C32_42  and  O9_43 
ROOT
HETATM    1  C5  UNL     1     -11.113  47.412 -18.697  1.00  0.00     0.127 C 
HETATM    2  C6  UNL     1     -10.340  48.211 -17.638  1.00  0.00     0.033 C 
HETATM    3  C7  UNL     1      -8.844  48.323 -17.937  1.00  0.00     0.021 C 
HETATM    4  C8  UNL     1      -8.111  46.951 -18.163  1.00  0.00     0.026 C 
HETATM    5  C12 UNL     1      -6.912  47.230 -19.165  1.00  0.00     0.009 C 
HETATM    6  C13 UNL     1      -5.801  48.122 -18.548  1.00  0.00     0.007 C 
HETATM    7  C14 UNL     1      -4.683  48.446 -19.536  1.00  0.00     0.013 C 
HETATM    8  C15 UNL     1      -4.043  47.187 -20.170  1.00  0.00    -0.005 C 
HETATM    9  C16 UNL     1      -3.198  46.442 -19.116  1.00  0.00     0.019 C 
HETATM   10  C17 UNL     1      -3.190  47.534 -21.438  1.00  0.00     0.028 C 
HETATM   11  C22 UNL     1      -4.240  47.698 -22.570  1.00  0.00     0.013 C 
HETATM   12  C23 UNL     1      -5.530  47.013 -22.078  1.00  0.00     0.040 C 
HETATM   13  C24 UNL     1      -5.141  46.270 -20.791  1.00  0.00     0.070 C 
HETATM   14  C25 UNL     1      -6.309  45.963 -19.815  1.00  0.00     0.026 C 
HETATM   15  C26 UNL     1      -7.433  45.133 -20.462  1.00  0.00     0.011 C 
HETATM   16  C27 UNL     1      -8.435  44.697 -19.410  1.00  0.00     0.039 C 
HETATM   17  C28 UNL     1      -9.121  45.862 -18.683  1.00  0.00     0.073 C 
HETATM   18  C29 UNL     1     -10.205  46.515 -19.549  1.00  0.00     0.071 C 
ENDROOT
BRANCH   1  19
HETATM   19  O2  UNL     1     -11.840  48.290 -19.569  1.00  0.00    -0.356 OA
BRANCH  19  20
HETATM   20  C4  UNL     1     -13.177  47.840 -19.809  1.00  0.00     0.263 C 
HETATM   21  C3  UNL     1     -13.412  46.541 -19.036  1.00  0.00     0.095 C 
HETATM   22  C2  UNL     1     -14.900  46.247 -18.940  1.00  0.00     0.156 C 
HETATM   23  C32 UNL     1     -15.642  47.435 -18.270  1.00  0.00     0.175 C 
HETATM   24  C30 UNL     1     -14.753  48.702 -18.225  1.00  0.00     0.151 C 
HETATM   25  O8  UNL     1     -14.117  48.870 -19.492  1.00  0.00    -0.354 OA
HETATM   26  C31 UNL     1     -15.554  49.961 -17.928  1.00  0.00     0.042 C 
BRANCH  22  27
HETATM   27  O1  UNL     1     -15.051  45.036 -18.180  1.00  0.00    -0.388 OA
HETATM   28  C1  UNL     1     -16.163  44.246 -18.608  1.00  0.00     0.202 C 
ENDBRANCH  22  27
BRANCH  23  29
HETATM   29  O9  UNL     1     -16.843  47.681 -19.029  1.00  0.00    -0.390 OA
HETATM   30  H49 UNL     1     -16.588  48.157 -19.846  1.00  0.00     0.210 HD
ENDBRANCH  23  29
ENDBRANCH  19  20
ENDBRANCH   1  19
BRANCH  17  31
HETATM   31  O7  UNL     1      -9.831  45.273 -17.574  1.00  0.00    -0.389 OA
HETATM   32  H41 UNL     1     -10.344  44.512 -17.911  1.00  0.00     0.210 HD
ENDBRANCH  17  31
BRANCH   4  33
HETATM   33  C9  UNL     1      -7.609  46.461 -16.792  1.00  0.00     0.068 C 
HETATM   34  N1  UNL     1      -8.065  46.935 -15.678  1.00  0.00    -0.399 N 
ATOM     35  H1  UNL     1      -8.834  47.603 -15.631  1.00  0.00     0.158 HD
BRANCH  34  36
HETATM   36  C10 UNL     1      -7.375  46.424 -14.488  1.00  0.00     0.144 C 
BRANCH  36  37
HETATM   37  C11 UNL     1      -8.317  46.522 -13.284  1.00  0.00     0.183 C 
BRANCH  37  38
HETATM   38  O3  UNL     1      -9.435  47.347 -13.582  1.00  0.00    -0.399 OA
HETATM   39  H18 UNL     1     -10.011  46.828 -14.169  1.00  0.00     0.209 HD
ENDBRANCH  37  38
ENDBRANCH  36  37
ENDBRANCH  34  36
ENDBRANCH   4  33
BRANCH  13  40
HETATM   40  O6  UNL     1      -4.524  45.035 -21.185  1.00  0.00    -0.389 OA
HETATM   41  H35 UNL     1      -5.154  44.507 -21.701  1.00  0.00     0.210 HD
ENDBRANCH  13  40
BRANCH  10  42
HETATM   42  C18 UNL     1      -2.175  48.637 -21.313  1.00  0.00    -0.045 A 
HETATM   43  C19 UNL     1      -2.185  49.854 -21.855  1.00  0.00     0.087 A 
HETATM   44  C20 UNL     1      -0.923  50.503 -21.488  1.00  0.00     0.283 A 
HETATM   45  O4  UNL     1      -0.605  51.632 -21.813  1.00  0.00    -0.260 OA
HETATM   46  O5  UNL     1      -0.172  49.642 -20.751  1.00  0.00    -0.314 OA
HETATM   47  C21 UNL     1      -0.894  48.421 -20.586  1.00  0.00     0.213 A 
ENDBRANCH  10  42
TORSDOF 11
ENDMDL
