MODEL 1
REMARK minimizedAffinity -7.81481314
REMARK CNNscore 0.457540512
REMARK CNNaffinity 7.26041603
REMARK  8 active torsions:
REMARK  status: ('A' for Active; 'I' for Inactive)
REMARK    1  A    between atoms: C3_3  and  O1_4 
REMARK    2  A    between atoms: N1_14  and  O2_16 
REMARK    3  A    between atoms: O2_16  and  C13_17 
REMARK    4  A    between atoms: C13_17  and  C14_18 
REMARK       I    between atoms: C14_18  and  N2_20 
REMARK    5  A    between atoms: N2_20  and  C15_21 
REMARK    6  A    between atoms: C15_21  and  C16_22 
REMARK    7  A    between atoms: C16_22  and  O4_23 
REMARK    8  A    between atoms: C16_22  and  C17_24 
ROOT
HETATM    1  C1  UNL     1       0.926  54.179  -7.103  1.00  0.00     0.015 C 
HETATM    2  C2  UNL     1       1.505  53.544  -7.943  1.00  0.00    -0.078 C 
HETATM    3  C3  UNL     1       2.228  52.778  -8.971  1.00  0.00     0.128 C 
HETATM    4  C4  UNL     1       2.859  51.504  -8.400  1.00  0.00     0.052 C 
HETATM    5  C5  UNL     1       3.248  50.737  -9.658  1.00  0.00     0.010 C 
HETATM    6  C6  UNL     1       2.031  50.903 -10.575  1.00  0.00     0.002 C 
HETATM    7  C7  UNL     1       2.266  50.675 -12.088  1.00  0.00    -0.004 C 
HETATM    8  C8  UNL     1       3.558  51.265 -12.681  1.00  0.00     0.010 C 
HETATM    9  C9  UNL     1       3.695  50.964 -14.174  1.00  0.00     0.035 C 
HETATM   10  C10 UNL     1       2.460  51.294 -14.982  1.00  0.00    -0.069 C 
HETATM   11  C11 UNL     1       2.571  51.976 -16.136  1.00  0.00     0.030 C 
HETATM   12  C12 UNL     1       1.406  52.191 -17.033  1.00  0.00     0.032 C 
HETATM   13  N1  UNL     1       1.569  52.973 -18.062  1.00  0.00    -0.271 N 
ATOM     14  H1  UNL     1       2.432  53.475 -18.271  1.00  0.00     0.194 HD
HETATM   15  C23 UNL     1       0.133  51.433 -16.717  1.00  0.00     0.060 C 
HETATM   16  C24 UNL     1      -0.080  51.386 -15.208  1.00  0.00     0.020 C 
HETATM   17  C25 UNL     1       1.129  50.786 -14.428  1.00  0.00    -0.016 C 
HETATM   18  C26 UNL     1       1.079  49.247 -14.616  1.00  0.00     0.020 C 
HETATM   19  C27 UNL     1       1.026  51.145 -12.895  1.00  0.00     0.002 C 
HETATM   20  C28 UNL     1       0.726  52.648 -12.632  1.00  0.00     0.007 C 
HETATM   21  C29 UNL     1       1.284  53.239 -11.336  1.00  0.00     0.014 C 
HETATM   22  C30 UNL     1       1.346  52.253 -10.161  1.00  0.00     0.003 C 
HETATM   23  C31 UNL     1      -0.106  51.935  -9.705  1.00  0.00     0.020 C 
ENDROOT
BRANCH   3  24
HETATM   24  O1  UNL     1       3.301  53.591  -9.455  1.00  0.00    -0.377 OA
HETATM   25  H2  UNL     1       3.719  54.008  -8.683  1.00  0.00     0.211 HD
ENDBRANCH   3  24
BRANCH  13  26
HETATM   26  O2  UNL     1       0.410  53.040 -18.847  1.00  0.00    -0.271 OA
BRANCH  26  27
HETATM   27  C13 UNL     1       0.747  53.561 -20.129  1.00  0.00     0.303 C 
BRANCH  27  28
HETATM   28  C14 UNL     1       0.428  52.527 -21.203  1.00  0.00     0.243 C 
HETATM   29  O3  UNL     1       0.256  51.339 -20.942  1.00  0.00    -0.271 OA
HETATM   30  N2  UNL     1       0.326  53.035 -22.481  1.00  0.00    -0.356 N 
HETATM   31  H16 UNL     1       0.677  53.976 -22.624  1.00  0.00     0.162 HD
BRANCH  30  32
HETATM   32  C15 UNL     1       0.167  52.164 -23.635  1.00  0.00     0.159 C 
BRANCH  32  33
HETATM   33  C16 UNL     1      -0.945  52.617 -24.603  1.00  0.00     0.170 C 
BRANCH  33  34
HETATM   34  O4  UNL     1      -0.606  52.217 -25.935  1.00  0.00    -0.389 OA
HETATM   35  H20 UNL     1      -1.340  52.505 -26.506  1.00  0.00     0.210 HD
ENDBRANCH  33  34
BRANCH  33  36
HETATM   36  C17 UNL     1      -2.287  52.026 -24.236  1.00  0.00    -0.013 A 
HETATM   37  C18 UNL     1      -2.485  51.304 -23.055  1.00  0.00     0.013 A 
HETATM   38  C19 UNL     1      -3.749  50.808 -22.750  1.00  0.00     0.025 A 
HETATM   39  C20 UNL     1      -4.798  51.057 -23.627  1.00  0.00     0.005 A 
HETATM   40  C21 UNL     1      -6.172  50.532 -23.323  1.00  0.00     0.068 C 
HETATM   41  N3  UNL     1      -4.638  51.762 -24.770  1.00  0.00    -0.369 N 
HETATM   42  C22 UNL     1      -3.396  52.224 -25.050  1.00  0.00     0.097 A 
ATOM     43  H3  UNL     1      -5.422  51.939 -25.398  1.00  0.00     0.165 HD
ENDBRANCH  33  36
ENDBRANCH  32  33
ENDBRANCH  30  32
ENDBRANCH  27  28
ENDBRANCH  26  27
ENDBRANCH  13  26
TORSDOF 8
ENDMDL
MODEL 2
REMARK minimizedAffinity -7.4737668
REMARK CNNscore 0.421178341
REMARK CNNaffinity 5.82618284
REMARK  8 active torsions:
REMARK  status: ('A' for Active; 'I' for Inactive)
REMARK    1  A    between atoms: C3_3  and  O1_4 
REMARK    2  A    between atoms: N1_14  and  O2_16 
REMARK    3  A    between atoms: O2_16  and  C13_17 
REMARK    4  A    between atoms: C13_17  and  C14_18 
REMARK       I    between atoms: C14_18  and  N2_20 
REMARK    5  A    between atoms: N2_20  and  C15_21 
REMARK    6  A    between atoms: C15_21  and  C16_22 
REMARK    7  A    between atoms: C16_22  and  O4_23 
REMARK    8  A    between atoms: C16_22  and  C17_24 
ROOT
HETATM    1  C1  UNL     1      -8.063  48.839 -31.713  1.00  0.00     0.015 C 
HETATM    2  C2  UNL     1      -8.531  47.817 -31.288  1.00  0.00    -0.078 C 
HETATM    3  C3  UNL     1      -9.107  46.560 -30.786  1.00  0.00     0.128 C 
HETATM    4  C4  UNL     1      -8.026  45.576 -30.327  1.00  0.00     0.052 C 
HETATM    5  C5  UNL     1      -8.833  44.530 -29.567  1.00  0.00     0.010 C 
HETATM    6  C6  UNL     1      -9.818  45.364 -28.739  1.00  0.00     0.002 C 
HETATM    7  C7  UNL     1     -11.088  44.637 -28.232  1.00  0.00    -0.004 C 
HETATM    8  C8  UNL     1     -11.781  43.689 -29.226  1.00  0.00     0.010 C 
HETATM    9  C9  UNL     1     -13.009  43.013 -28.615  1.00  0.00     0.035 C 
HETATM   10  C10 UNL     1     -13.963  43.971 -27.936  1.00  0.00    -0.069 C 
HETATM   11  C11 UNL     1     -15.284  43.891 -28.173  1.00  0.00     0.030 C 
HETATM   12  C12 UNL     1     -16.266  44.711 -27.416  1.00  0.00     0.032 C 
HETATM   13  N1  UNL     1     -17.512  44.670 -27.798  1.00  0.00    -0.271 N 
ATOM     14  H1  UNL     1     -17.848  44.142 -28.602  1.00  0.00     0.194 HD
HETATM   15  C23 UNL     1     -15.754  45.484 -26.218  1.00  0.00     0.060 C 
HETATM   16  C24 UNL     1     -14.375  46.057 -26.524  1.00  0.00     0.020 C 
HETATM   17  C25 UNL     1     -13.340  44.981 -26.971  1.00  0.00    -0.016 C 
HETATM   18  C26 UNL     1     -12.887  44.221 -25.696  1.00  0.00     0.020 C 
HETATM   19  C27 UNL     1     -12.096  45.667 -27.659  1.00  0.00     0.002 C 
HETATM   20  C28 UNL     1     -12.489  46.721 -28.733  1.00  0.00     0.007 C 
HETATM   21  C29 UNL     1     -11.512  46.907 -29.895  1.00  0.00     0.014 C 
HETATM   22  C30 UNL     1     -10.036  46.703 -29.526  1.00  0.00     0.003 C 
HETATM   23  C31 UNL     1      -9.589  47.877 -28.611  1.00  0.00     0.020 C 
ENDROOT
BRANCH   3  24
HETATM   24  O1  UNL     1      -9.808  45.932 -31.864  1.00  0.00    -0.377 OA
HETATM   25  H2  UNL     1      -9.247  46.004 -32.654  1.00  0.00     0.211 HD
ENDBRANCH   3  24
BRANCH  13  26
HETATM   26  O2  UNL     1     -18.331  45.444 -26.966  1.00  0.00    -0.271 OA
BRANCH  26  27
HETATM   27  C13 UNL     1     -17.600  45.798 -25.796  1.00  0.00     0.303 C 
BRANCH  27  28
HETATM   28  C14 UNL     1     -18.563  46.282 -24.716  1.00  0.00     0.243 C 
HETATM   29  O3  UNL     1     -19.246  47.294 -24.850  1.00  0.00    -0.271 OA
HETATM   30  N2  UNL     1     -18.619  45.484 -23.593  1.00  0.00    -0.356 N 
HETATM   31  H16 UNL     1     -17.883  44.793 -23.490  1.00  0.00     0.162 HD
BRANCH  30  32
HETATM   32  C15 UNL     1     -19.378  45.878 -22.418  1.00  0.00     0.159 C 
BRANCH  32  33
HETATM   33  C16 UNL     1     -19.286  44.870 -21.254  1.00  0.00     0.170 C 
BRANCH  33  34
HETATM   34  O4  UNL     1     -19.646  45.521 -20.032  1.00  0.00    -0.389 OA
HETATM   35  H20 UNL     1     -19.593  44.847 -19.332  1.00  0.00     0.210 HD
ENDBRANCH  33  34
BRANCH  33  36
HETATM   36  C17 UNL     1     -20.195  43.681 -21.466  1.00  0.00    -0.013 A 
HETATM   37  C18 UNL     1     -20.851  43.451 -22.680  1.00  0.00     0.013 A 
HETATM   38  C19 UNL     1     -21.651  42.323 -22.833  1.00  0.00     0.025 A 
HETATM   39  C20 UNL     1     -21.770  41.434 -21.770  1.00  0.00     0.005 A 
HETATM   40  C21 UNL     1     -22.628  40.211 -21.906  1.00  0.00     0.068 C 
HETATM   41  N3  UNL     1     -21.138  41.625 -20.589  1.00  0.00    -0.369 N 
HETATM   42  C22 UNL     1     -20.374  42.737 -20.463  1.00  0.00     0.097 A 
ATOM     43  H3  UNL     1     -21.233  40.958 -19.824  1.00  0.00     0.165 HD
ENDBRANCH  33  36
ENDBRANCH  32  33
ENDBRANCH  30  32
ENDBRANCH  27  28
ENDBRANCH  26  27
ENDBRANCH  13  26
TORSDOF 8
ENDMDL
MODEL 3
REMARK minimizedAffinity -9.41245365
REMARK CNNscore 0.336675942
REMARK CNNaffinity 6.67802191
REMARK  8 active torsions:
REMARK  status: ('A' for Active; 'I' for Inactive)
REMARK    1  A    between atoms: C3_3  and  O1_4 
REMARK    2  A    between atoms: N1_14  and  O2_16 
REMARK    3  A    between atoms: O2_16  and  C13_17 
REMARK    4  A    between atoms: C13_17  and  C14_18 
REMARK       I    between atoms: C14_18  and  N2_20 
REMARK    5  A    between atoms: N2_20  and  C15_21 
REMARK    6  A    between atoms: C15_21  and  C16_22 
REMARK    7  A    between atoms: C16_22  and  O4_23 
REMARK    8  A    between atoms: C16_22  and  C17_24 
ROOT
HETATM    1  C1  UNL     1      -8.062  49.590 -24.026  1.00  0.00     0.015 C 
HETATM    2  C2  UNL     1      -6.919  49.281 -23.823  1.00  0.00    -0.078 C 
HETATM    3  C3  UNL     1      -5.525  48.885 -23.568  1.00  0.00     0.128 C 
HETATM    4  C4  UNL     1      -4.791  48.504 -24.857  1.00  0.00     0.052 C 
HETATM    5  C5  UNL     1      -3.335  48.459 -24.407  1.00  0.00     0.010 C 
HETATM    6  C6  UNL     1      -3.190  49.705 -23.526  1.00  0.00     0.002 C 
HETATM    7  C7  UNL     1      -2.008  49.714 -22.526  1.00  0.00    -0.004 C 
HETATM    8  C8  UNL     1      -1.735  48.401 -21.771  1.00  0.00     0.010 C 
HETATM    9  C9  UNL     1      -0.537  48.519 -20.828  1.00  0.00     0.035 C 
HETATM   10  C10 UNL     1      -0.584  49.731 -19.924  1.00  0.00    -0.069 C 
HETATM   11  C11 UNL     1      -0.328  49.605 -18.610  1.00  0.00     0.030 C 
HETATM   12  C12 UNL     1      -0.217  50.787 -17.717  1.00  0.00     0.032 C 
HETATM   13  N1  UNL     1      -0.099  50.572 -16.437  1.00  0.00    -0.271 N 
ATOM     14  H1  UNL     1      -0.114  49.648 -16.007  1.00  0.00     0.194 HD
HETATM   15  C23 UNL     1      -0.187  52.154 -18.370  1.00  0.00     0.060 C 
HETATM   16  C24 UNL     1      -1.159  52.189 -19.543  1.00  0.00     0.020 C 
HETATM   17  C25 UNL     1      -0.902  51.068 -20.596  1.00  0.00    -0.016 C 
HETATM   18  C26 UNL     1       0.331  51.497 -21.434  1.00  0.00     0.020 C 
HETATM   19  C27 UNL     1      -2.159  50.898 -21.535  1.00  0.00     0.002 C 
HETATM   20  C28 UNL     1      -3.503  50.806 -20.757  1.00  0.00     0.007 C 
HETATM   21  C29 UNL     1      -4.611  49.974 -21.405  1.00  0.00     0.014 C 
HETATM   22  C30 UNL     1      -4.615  50.002 -22.940  1.00  0.00     0.003 C 
HETATM   23  C31 UNL     1      -5.041  51.422 -23.407  1.00  0.00     0.020 C 
ENDROOT
BRANCH   3  24
HETATM   24  O1  UNL     1      -5.541  47.718 -22.739  1.00  0.00    -0.377 OA
HETATM   25  H2  UNL     1      -6.226  47.125 -23.089  1.00  0.00     0.211 HD
ENDBRANCH   3  24
BRANCH  13  26
HETATM   26  O2  UNL     1       0.051  51.769 -15.725  1.00  0.00    -0.271 OA
BRANCH  26  27
HETATM   27  C13 UNL     1       1.239  51.698 -14.943  1.00  0.00     0.303 C 
BRANCH  27  28
HETATM   28  C14 UNL     1       0.879  51.711 -13.461  1.00  0.00     0.243 C 
HETATM   29  O3  UNL     1       0.625  50.685 -12.836  1.00  0.00    -0.271 OA
HETATM   30  N2  UNL     1       0.884  52.961 -12.877  1.00  0.00    -0.356 N 
HETATM   31  H16 UNL     1       0.908  53.756 -13.508  1.00  0.00     0.162 HD
BRANCH  30  32
HETATM   32  C15 UNL     1       0.428  53.164 -11.512  1.00  0.00     0.159 C 
BRANCH  32  33
HETATM   33  C16 UNL     1       0.772  54.557 -10.944  1.00  0.00     0.170 C 
BRANCH  33  34
HETATM   34  O4  UNL     1      -0.006  54.795  -9.767  1.00  0.00    -0.389 OA
HETATM   35  H20 UNL     1       0.257  55.671  -9.434  1.00  0.00     0.210 HD
ENDBRANCH  33  34
BRANCH  33  36
HETATM   36  C17 UNL     1       2.239  54.678 -10.601  1.00  0.00    -0.013 A 
HETATM   37  C18 UNL     1       2.919  55.899 -10.656  1.00  0.00     0.013 A 
HETATM   38  C19 UNL     1       4.262  55.961 -10.299  1.00  0.00     0.025 A 
HETATM   39  C20 UNL     1       4.899  54.799  -9.876  1.00  0.00     0.005 A 
HETATM   40  C21 UNL     1       6.348  54.837  -9.486  1.00  0.00     0.068 C 
HETATM   41  N3  UNL     1       4.263  53.608  -9.802  1.00  0.00    -0.369 N 
HETATM   42  C22 UNL     1       2.960  53.572 -10.166  1.00  0.00     0.097 A 
ATOM     43  H3  UNL     1       4.747  52.768  -9.483  1.00  0.00     0.165 HD
ENDBRANCH  33  36
ENDBRANCH  32  33
ENDBRANCH  30  32
ENDBRANCH  27  28
ENDBRANCH  26  27
ENDBRANCH  13  26
TORSDOF 8
ENDMDL
MODEL 4
REMARK minimizedAffinity -8.4870224
REMARK CNNscore 0.334037423
REMARK CNNaffinity 5.77451563
REMARK  8 active torsions:
REMARK  status: ('A' for Active; 'I' for Inactive)
REMARK    1  A    between atoms: C3_3  and  O1_4 
REMARK    2  A    between atoms: N1_14  and  O2_16 
REMARK    3  A    between atoms: O2_16  and  C13_17 
REMARK    4  A    between atoms: C13_17  and  C14_18 
REMARK       I    between atoms: C14_18  and  N2_20 
REMARK    5  A    between atoms: N2_20  and  C15_21 
REMARK    6  A    between atoms: C15_21  and  C16_22 
REMARK    7  A    between atoms: C16_22  and  O4_23 
REMARK    8  A    between atoms: C16_22  and  C17_24 
ROOT
HETATM    1  C1  UNL     1       8.340  62.048 -34.159  1.00  0.00     0.015 C 
HETATM    2  C2  UNL     1       7.281  62.590 -34.324  1.00  0.00    -0.078 C 
HETATM    3  C3  UNL     1       5.976  63.239 -34.532  1.00  0.00     0.128 C 
HETATM    4  C4  UNL     1       5.191  63.382 -33.224  1.00  0.00     0.052 C 
HETATM    5  C5  UNL     1       4.073  64.342 -33.614  1.00  0.00     0.010 C 
HETATM    6  C6  UNL     1       4.787  65.408 -34.453  1.00  0.00     0.002 C 
HETATM    7  C7  UNL     1       3.901  66.252 -35.402  1.00  0.00    -0.004 C 
HETATM    8  C8  UNL     1       2.812  65.494 -36.182  1.00  0.00     0.010 C 
HETATM    9  C9  UNL     1       1.988  66.427 -37.071  1.00  0.00     0.035 C 
HETATM   10  C10 UNL     1       2.822  67.341 -37.941  1.00  0.00    -0.069 C 
HETATM   11  C11 UNL     1       2.531  67.482 -39.247  1.00  0.00     0.030 C 
HETATM   12  C12 UNL     1       3.228  68.478 -40.101  1.00  0.00     0.032 C 
HETATM   13  N1  UNL     1       2.980  68.459 -41.380  1.00  0.00    -0.271 N 
ATOM     14  H1  UNL     1       2.368  67.783 -41.836  1.00  0.00     0.194 HD
HETATM   15  C23 UNL     1       4.127  69.483 -39.409  1.00  0.00     0.060 C 
HETATM   16  C24 UNL     1       4.887  68.803 -38.277  1.00  0.00     0.020 C 
HETATM   17  C25 UNL     1       3.960  68.090 -37.247  1.00  0.00    -0.016 C 
HETATM   18  C26 UNL     1       3.340  69.190 -36.346  1.00  0.00     0.020 C 
HETATM   19  C27 UNL     1       4.793  67.079 -36.365  1.00  0.00     0.002 C 
HETATM   20  C28 UNL     1       5.722  66.152 -37.201  1.00  0.00     0.007 C 
HETATM   21  C29 UNL     1       5.997  64.763 -36.623  1.00  0.00     0.014 C 
HETATM   22  C30 UNL     1       6.038  64.707 -35.089  1.00  0.00     0.003 C 
HETATM   23  C31 UNL     1       7.309  65.456 -34.601  1.00  0.00     0.020 C 
ENDROOT
BRANCH   3  24
HETATM   24  O1  UNL     1       5.198  62.401 -35.392  1.00  0.00    -0.377 OA
HETATM   25  H2  UNL     1       5.315  61.486 -35.088  1.00  0.00     0.211 HD
ENDBRANCH   3  24
BRANCH  13  26
HETATM   26  O2  UNL     1       3.660  69.484 -42.051  1.00  0.00    -0.271 OA
BRANCH  26  27
HETATM   27  C13 UNL     1       2.847  69.956 -43.122  1.00  0.00     0.303 C 
BRANCH  27  28
HETATM   28  C14 UNL     1       1.502  70.424 -42.576  1.00  0.00     0.243 C 
HETATM   29  O3  UNL     1       1.408  71.289 -41.709  1.00  0.00    -0.271 OA
HETATM   30  N2  UNL     1       0.404  69.817 -43.149  1.00  0.00    -0.356 N 
HETATM   31  H16 UNL     1       0.583  68.985 -43.703  1.00  0.00     0.162 HD
BRANCH  30  32
HETATM   32  C15 UNL     1      -0.940  70.046 -42.645  1.00  0.00     0.159 C 
BRANCH  32  33
HETATM   33  C16 UNL     1      -1.804  68.769 -42.583  1.00  0.00     0.170 C 
BRANCH  33  34
HETATM   34  O4  UNL     1      -1.304  67.907 -41.556  1.00  0.00    -0.389 OA
HETATM   35  H20 UNL     1      -1.887  67.128 -41.540  1.00  0.00     0.210 HD
ENDBRANCH  33  34
BRANCH  33  36
HETATM   36  C17 UNL     1      -3.255  69.085 -42.299  1.00  0.00    -0.013 A 
HETATM   37  C18 UNL     1      -3.639  70.075 -41.389  1.00  0.00     0.013 A 
HETATM   38  C19 UNL     1      -4.988  70.347 -41.189  1.00  0.00     0.025 A 
HETATM   39  C20 UNL     1      -5.933  69.631 -41.917  1.00  0.00     0.005 A 
HETATM   40  C21 UNL     1      -7.396  69.903 -41.719  1.00  0.00     0.068 C 
HETATM   41  N3  UNL     1      -5.590  68.677 -42.812  1.00  0.00    -0.369 N 
HETATM   42  C22 UNL     1      -4.271  68.424 -42.979  1.00  0.00     0.097 A 
ATOM     43  H3  UNL     1      -6.299  68.168 -43.341  1.00  0.00     0.165 HD
ENDBRANCH  33  36
ENDBRANCH  32  33
ENDBRANCH  30  32
ENDBRANCH  27  28
ENDBRANCH  26  27
ENDBRANCH  13  26
TORSDOF 8
ENDMDL
MODEL 5
REMARK minimizedAffinity -7.73677778
REMARK CNNscore 0.332720637
REMARK CNNaffinity 5.75218248
REMARK  8 active torsions:
REMARK  status: ('A' for Active; 'I' for Inactive)
REMARK    1  A    between atoms: C3_3  and  O1_4 
REMARK    2  A    between atoms: N1_14  and  O2_16 
REMARK    3  A    between atoms: O2_16  and  C13_17 
REMARK    4  A    between atoms: C13_17  and  C14_18 
REMARK       I    between atoms: C14_18  and  N2_20 
REMARK    5  A    between atoms: N2_20  and  C15_21 
REMARK    6  A    between atoms: C15_21  and  C16_22 
REMARK    7  A    between atoms: C16_22  and  O4_23 
REMARK    8  A    between atoms: C16_22  and  C17_24 
ROOT
HETATM    1  C1  UNL     1      -6.043  47.718 -34.124  1.00  0.00     0.015 C 
HETATM    2  C2  UNL     1      -6.271  47.384 -32.993  1.00  0.00    -0.078 C 
HETATM    3  C3  UNL     1      -6.544  46.958 -31.611  1.00  0.00     0.128 C 
HETATM    4  C4  UNL     1      -5.408  47.339 -30.657  1.00  0.00     0.052 C 
HETATM    5  C5  UNL     1      -6.037  47.109 -29.288  1.00  0.00     0.010 C 
HETATM    6  C6  UNL     1      -7.442  47.705 -29.429  1.00  0.00     0.002 C 
HETATM    7  C7  UNL     1      -8.507  47.222 -28.414  1.00  0.00    -0.004 C 
HETATM    8  C8  UNL     1      -8.515  45.718 -28.089  1.00  0.00     0.010 C 
HETATM    9  C9  UNL     1      -9.592  45.357 -27.065  1.00  0.00     0.035 C 
HETATM   10  C10 UNL     1     -10.961  45.907 -27.394  1.00  0.00    -0.069 C 
HETATM   11  C11 UNL     1     -12.045  45.113 -27.316  1.00  0.00     0.030 C 
HETATM   12  C12 UNL     1     -13.421  45.648 -27.485  1.00  0.00     0.032 C 
HETATM   13  N1  UNL     1     -14.403  44.793 -27.526  1.00  0.00    -0.271 N 
ATOM     14  H1  UNL     1     -14.285  43.781 -27.486  1.00  0.00     0.194 HD
HETATM   15  C23 UNL     1     -13.583  47.154 -27.534  1.00  0.00     0.060 C 
HETATM   16  C24 UNL     1     -12.435  47.772 -28.323  1.00  0.00     0.020 C 
HETATM   17  C25 UNL     1     -11.027  47.385 -27.778  1.00  0.00    -0.016 C 
HETATM   18  C26 UNL     1     -10.779  48.231 -26.501  1.00  0.00     0.020 C 
HETATM   19  C27 UNL     1      -9.916  47.698 -28.855  1.00  0.00     0.002 C 
HETATM   20  C28 UNL     1     -10.266  47.167 -30.275  1.00  0.00     0.007 C 
HETATM   21  C29 UNL     1      -9.087  46.768 -31.163  1.00  0.00     0.014 C 
HETATM   22  C30 UNL     1      -7.816  47.603 -30.949  1.00  0.00     0.003 C 
HETATM   23  C31 UNL     1      -8.074  49.041 -31.479  1.00  0.00     0.020 C 
ENDROOT
BRANCH   3  24
HETATM   24  O1  UNL     1      -6.635  45.530 -31.599  1.00  0.00    -0.377 OA
HETATM   25  H2  UNL     1      -5.908  45.190 -32.146  1.00  0.00     0.211 HD
ENDBRANCH   3  24
BRANCH  13  26
HETATM   26  O2  UNL     1     -15.642  45.437 -27.633  1.00  0.00    -0.271 OA
BRANCH  26  27
HETATM   27  C13 UNL     1     -16.582  44.777 -26.791  1.00  0.00     0.303 C 
BRANCH  27  28
HETATM   28  C14 UNL     1     -16.649  45.485 -25.441  1.00  0.00     0.243 C 
HETATM   29  O3  UNL     1     -16.049  46.534 -25.219  1.00  0.00    -0.271 OA
HETATM   30  N2  UNL     1     -17.451  44.868 -24.504  1.00  0.00    -0.356 N 
HETATM   31  H16 UNL     1     -17.739  43.917 -24.710  1.00  0.00     0.162 HD
BRANCH  30  32
HETATM   32  C15 UNL     1     -17.510  45.335 -23.129  1.00  0.00     0.159 C 
BRANCH  32  33
HETATM   33  C16 UNL     1     -18.934  45.701 -22.661  1.00  0.00     0.170 C 
BRANCH  33  34
HETATM   34  O4  UNL     1     -19.891  45.088 -23.529  1.00  0.00    -0.389 OA
HETATM   35  H20 UNL     1     -20.770  45.328 -23.187  1.00  0.00     0.210 HD
ENDBRANCH  33  34
BRANCH  33  36
HETATM   36  C17 UNL     1     -19.193  45.250 -21.242  1.00  0.00    -0.013 A 
HETATM   37  C18 UNL     1     -19.005  46.097 -20.144  1.00  0.00     0.013 A 
HETATM   38  C19 UNL     1     -19.289  45.641 -18.861  1.00  0.00     0.025 A 
HETATM   39  C20 UNL     1     -19.773  44.348 -18.699  1.00  0.00     0.005 A 
HETATM   40  C21 UNL     1     -20.086  43.830 -17.325  1.00  0.00     0.068 C 
HETATM   41  N3  UNL     1     -19.976  43.512 -19.743  1.00  0.00    -0.369 N 
HETATM   42  C22 UNL     1     -19.680  43.976 -20.980  1.00  0.00     0.097 A 
ATOM     43  H3  UNL     1     -20.338  42.568 -19.603  1.00  0.00     0.165 HD
ENDBRANCH  33  36
ENDBRANCH  32  33
ENDBRANCH  30  32
ENDBRANCH  27  28
ENDBRANCH  26  27
ENDBRANCH  13  26
TORSDOF 8
ENDMDL
MODEL 6
REMARK minimizedAffinity -8.36759758
REMARK CNNscore 0.331821561
REMARK CNNaffinity 7.41707563
REMARK  8 active torsions:
REMARK  status: ('A' for Active; 'I' for Inactive)
REMARK    1  A    between atoms: C3_3  and  O1_4 
REMARK    2  A    between atoms: N1_14  and  O2_16 
REMARK    3  A    between atoms: O2_16  and  C13_17 
REMARK    4  A    between atoms: C13_17  and  C14_18 
REMARK       I    between atoms: C14_18  and  N2_20 
REMARK    5  A    between atoms: N2_20  and  C15_21 
REMARK    6  A    between atoms: C15_21  and  C16_22 
REMARK    7  A    between atoms: C16_22  and  O4_23 
REMARK    8  A    between atoms: C16_22  and  C17_24 
ROOT
HETATM    1  C1  UNL     1      -0.427  54.298  -7.669  1.00  0.00     0.015 C 
HETATM    2  C2  UNL     1       0.306  53.776  -8.465  1.00  0.00    -0.078 C 
HETATM    3  C3  UNL     1       1.216  53.152  -9.439  1.00  0.00     0.128 C 
HETATM    4  C4  UNL     1       2.083  52.064  -8.798  1.00  0.00     0.052 C 
HETATM    5  C5  UNL     1       2.676  51.358 -10.012  1.00  0.00     0.010 C 
HETATM    6  C6  UNL     1       1.488  51.228 -10.972  1.00  0.00     0.002 C 
HETATM    7  C7  UNL     1       1.825  51.007 -12.467  1.00  0.00    -0.004 C 
HETATM    8  C8  UNL     1       2.982  51.842 -13.043  1.00  0.00     0.010 C 
HETATM    9  C9  UNL     1       3.238  51.529 -14.518  1.00  0.00     0.035 C 
HETATM   10  C10 UNL     1       1.993  51.558 -15.376  1.00  0.00    -0.069 C 
HETATM   11  C11 UNL     1       1.998  52.210 -16.553  1.00  0.00     0.030 C 
HETATM   12  C12 UNL     1       0.850  52.139 -17.493  1.00  0.00     0.032 C 
HETATM   13  N1  UNL     1       0.880  52.904 -18.547  1.00  0.00    -0.271 N 
ATOM     14  H1  UNL     1       1.623  53.573 -18.749  1.00  0.00     0.194 HD
HETATM   15  C23 UNL     1      -0.242  51.134 -17.185  1.00  0.00     0.060 C 
HETATM   16  C24 UNL     1      -0.497  51.091 -15.683  1.00  0.00     0.020 C 
HETATM   17  C25 UNL     1       0.782  50.793 -14.844  1.00  0.00    -0.016 C 
HETATM   18  C26 UNL     1       1.071  49.274 -14.971  1.00  0.00     0.020 C 
HETATM   19  C27 UNL     1       0.545  51.171 -13.329  1.00  0.00     0.002 C 
HETATM   20  C28 UNL     1      -0.081  52.581 -13.136  1.00  0.00     0.007 C 
HETATM   21  C29 UNL     1       0.286  53.320 -11.849  1.00  0.00     0.014 C 
HETATM   22  C30 UNL     1       0.514  52.410 -10.634  1.00  0.00     0.003 C 
HETATM   23  C31 UNL     1      -0.852  51.801 -10.210  1.00  0.00     0.020 C 
ENDROOT
BRANCH   3  24
HETATM   24  O1  UNL     1       2.107  54.162  -9.922  1.00  0.00    -0.377 OA
HETATM   25  H2  UNL     1       2.396  54.683  -9.155  1.00  0.00     0.211 HD
ENDBRANCH   3  24
BRANCH  13  26
HETATM   26  O2  UNL     1      -0.234  52.694 -19.368  1.00  0.00    -0.271 OA
BRANCH  26  27
HETATM   27  C13 UNL     1      -0.113  51.422 -19.998  1.00  0.00     0.303 C 
BRANCH  27  28
HETATM   28  C14 UNL     1      -1.385  51.114 -20.782  1.00  0.00     0.243 C 
HETATM   29  O3  UNL     1      -2.261  50.371 -20.347  1.00  0.00    -0.271 OA
HETATM   30  N2  UNL     1      -1.480  51.751 -22.001  1.00  0.00    -0.356 N 
HETATM   31  H16 UNL     1      -0.631  52.177 -22.358  1.00  0.00     0.162 HD
BRANCH  30  32
HETATM   32  C15 UNL     1      -2.559  51.456 -22.930  1.00  0.00     0.159 C 
BRANCH  32  33
HETATM   33  C16 UNL     1      -2.157  50.478 -24.054  1.00  0.00     0.170 C 
BRANCH  33  34
HETATM   34  O4  UNL     1      -3.322  49.790 -24.523  1.00  0.00    -0.389 OA
HETATM   35  H20 UNL     1      -3.026  49.202 -25.240  1.00  0.00     0.210 HD
ENDBRANCH  33  34
BRANCH  33  36
HETATM   36  C17 UNL     1      -1.504  51.191 -25.215  1.00  0.00    -0.013 A 
HETATM   37  C18 UNL     1      -0.693  50.524 -26.139  1.00  0.00     0.013 A 
HETATM   38  C19 UNL     1      -0.141  51.223 -27.208  1.00  0.00     0.025 A 
HETATM   39  C20 UNL     1      -0.424  52.578 -27.343  1.00  0.00     0.005 A 
HETATM   40  C21 UNL     1       0.160  53.356 -28.486  1.00  0.00     0.068 C 
HETATM   41  N3  UNL     1      -1.214  53.245 -26.472  1.00  0.00    -0.369 N 
HETATM   42  C22 UNL     1      -1.729  52.545 -25.434  1.00  0.00     0.097 A 
ATOM     43  H3  UNL     1      -1.414  54.238 -26.592  1.00  0.00     0.165 HD
ENDBRANCH  33  36
ENDBRANCH  32  33
ENDBRANCH  30  32
ENDBRANCH  27  28
ENDBRANCH  26  27
ENDBRANCH  13  26
TORSDOF 8
ENDMDL
MODEL 7
REMARK minimizedAffinity -8.33802319
REMARK CNNscore 0.326275378
REMARK CNNaffinity 5.66962194
REMARK  8 active torsions:
REMARK  status: ('A' for Active; 'I' for Inactive)
REMARK    1  A    between atoms: C3_3  and  O1_4 
REMARK    2  A    between atoms: N1_14  and  O2_16 
REMARK    3  A    between atoms: O2_16  and  C13_17 
REMARK    4  A    between atoms: C13_17  and  C14_18 
REMARK       I    between atoms: C14_18  and  N2_20 
REMARK    5  A    between atoms: N2_20  and  C15_21 
REMARK    6  A    between atoms: C15_21  and  C16_22 
REMARK    7  A    between atoms: C16_22  and  O4_23 
REMARK    8  A    between atoms: C16_22  and  C17_24 
ROOT
HETATM    1  C1  UNL     1      -5.182  47.723 -33.140  1.00  0.00     0.015 C 
HETATM    2  C2  UNL     1      -5.623  47.453 -32.056  1.00  0.00    -0.078 C 
HETATM    3  C3  UNL     1      -6.156  47.105 -30.729  1.00  0.00     0.128 C 
HETATM    4  C4  UNL     1      -5.342  47.743 -29.599  1.00  0.00     0.052 C 
HETATM    5  C5  UNL     1      -6.240  47.530 -28.386  1.00  0.00     0.010 C 
HETATM    6  C6  UNL     1      -7.639  47.878 -28.905  1.00  0.00     0.002 C 
HETATM    7  C7  UNL     1      -8.838  47.316 -28.101  1.00  0.00    -0.004 C 
HETATM    8  C8  UNL     1      -8.716  45.863 -27.611  1.00  0.00     0.010 C 
HETATM    9  C9  UNL     1      -9.945  45.420 -26.815  1.00  0.00     0.035 C 
HETATM   10  C10 UNL     1     -11.260  45.713 -27.503  1.00  0.00    -0.069 C 
HETATM   11  C11 UNL     1     -12.211  44.764 -27.574  1.00  0.00     0.030 C 
HETATM   12  C12 UNL     1     -13.568  45.054 -28.106  1.00  0.00     0.032 C 
HETATM   13  N1  UNL     1     -14.385  44.051 -28.262  1.00  0.00    -0.271 N 
ATOM     14  H1  UNL     1     -14.142  43.079 -28.077  1.00  0.00     0.194 HD
HETATM   15  C23 UNL     1     -13.919  46.505 -28.368  1.00  0.00     0.060 C 
HETATM   16  C24 UNL     1     -12.712  47.232 -28.951  1.00  0.00     0.020 C 
HETATM   17  C25 UNL     1     -11.434  47.124 -28.065  1.00  0.00    -0.016 C 
HETATM   18  C26 UNL     1     -11.615  48.102 -26.875  1.00  0.00     0.020 C 
HETATM   19  C27 UNL     1     -10.153  47.520 -28.898  1.00  0.00     0.002 C 
HETATM   20  C28 UNL     1     -10.080  46.823 -30.286  1.00  0.00     0.007 C 
HETATM   21  C29 UNL     1      -8.681  46.546 -30.837  1.00  0.00     0.014 C 
HETATM   22  C30 UNL     1      -7.624  47.590 -30.447  1.00  0.00     0.003 C 
HETATM   23  C31 UNL     1      -7.944  48.918 -31.188  1.00  0.00     0.020 C 
ENDROOT
BRANCH   3  24
HETATM   24  O1  UNL     1      -6.049  45.687 -30.568  1.00  0.00    -0.377 OA
HETATM   25  H2  UNL     1      -5.174  45.424 -30.895  1.00  0.00     0.211 HD
ENDBRANCH   3  24
BRANCH  13  26
HETATM   26  O2  UNL     1     -15.640  44.476 -28.717  1.00  0.00    -0.271 OA
BRANCH  26  27
HETATM   27  C13 UNL     1     -16.653  43.739 -28.040  1.00  0.00     0.303 C 
BRANCH  27  28
HETATM   28  C14 UNL     1     -17.188  44.559 -26.870  1.00  0.00     0.243 C 
HETATM   29  O3  UNL     1     -16.688  45.628 -26.532  1.00  0.00    -0.271 OA
HETATM   30  N2  UNL     1     -18.288  44.015 -26.240  1.00  0.00    -0.356 N 
HETATM   31  H16 UNL     1     -18.503  43.047 -26.457  1.00  0.00     0.162 HD
BRANCH  30  32
HETATM   32  C15 UNL     1     -18.832  44.596 -25.024  1.00  0.00     0.159 C 
BRANCH  32  33
HETATM   33  C16 UNL     1     -18.373  46.048 -24.773  1.00  0.00     0.170 C 
BRANCH  33  34
HETATM   34  O4  UNL     1     -19.435  46.946 -25.106  1.00  0.00    -0.389 OA
HETATM   35  H20 UNL     1     -19.110  47.844 -24.915  1.00  0.00     0.210 HD
ENDBRANCH  33  34
BRANCH  33  36
HETATM   36  C17 UNL     1     -17.971  46.270 -23.333  1.00  0.00    -0.013 A 
HETATM   37  C18 UNL     1     -18.912  46.369 -22.303  1.00  0.00     0.013 A 
HETATM   38  C19 UNL     1     -18.487  46.542 -20.990  1.00  0.00     0.025 A 
HETATM   39  C20 UNL     1     -17.123  46.598 -20.727  1.00  0.00     0.005 A 
HETATM   40  C21 UNL     1     -16.636  46.786 -19.319  1.00  0.00     0.068 C 
HETATM   41  N3  UNL     1     -16.190  46.493 -21.701  1.00  0.00    -0.369 N 
HETATM   42  C22 UNL     1     -16.631  46.337 -22.972  1.00  0.00     0.097 A 
ATOM     43  H3  UNL     1     -15.194  46.531 -21.487  1.00  0.00     0.165 HD
ENDBRANCH  33  36
ENDBRANCH  32  33
ENDBRANCH  30  32
ENDBRANCH  27  28
ENDBRANCH  26  27
ENDBRANCH  13  26
TORSDOF 8
ENDMDL
MODEL 8
REMARK minimizedAffinity -9.2924509
REMARK CNNscore 0.285262644
REMARK CNNaffinity 6.74484825
REMARK  8 active torsions:
REMARK  status: ('A' for Active; 'I' for Inactive)
REMARK    1  A    between atoms: C3_3  and  O1_4 
REMARK    2  A    between atoms: N1_14  and  O2_16 
REMARK    3  A    between atoms: O2_16  and  C13_17 
REMARK    4  A    between atoms: C13_17  and  C14_18 
REMARK       I    between atoms: C14_18  and  N2_20 
REMARK    5  A    between atoms: N2_20  and  C15_21 
REMARK    6  A    between atoms: C15_21  and  C16_22 
REMARK    7  A    between atoms: C16_22  and  O4_23 
REMARK    8  A    between atoms: C16_22  and  C17_24 
ROOT
HETATM    1  C1  UNL     1       2.596  51.935 -27.200  1.00  0.00     0.015 C 
HETATM    2  C2  UNL     1       1.465  52.150 -26.857  1.00  0.00    -0.078 C 
HETATM    3  C3  UNL     1       0.085  52.431 -26.431  1.00  0.00     0.128 C 
HETATM    4  C4  UNL     1      -0.818  52.795 -27.613  1.00  0.00     0.052 C 
HETATM    5  C5  UNL     1      -2.212  52.715 -27.001  1.00  0.00     0.010 C 
HETATM    6  C6  UNL     1      -2.165  51.435 -26.160  1.00  0.00     0.002 C 
HETATM    7  C7  UNL     1      -3.221  51.305 -25.034  1.00  0.00    -0.004 C 
HETATM    8  C8  UNL     1      -3.498  52.569 -24.201  1.00  0.00     0.010 C 
HETATM    9  C9  UNL     1      -4.568  52.331 -23.135  1.00  0.00     0.035 C 
HETATM   10  C10 UNL     1      -4.330  51.098 -22.292  1.00  0.00    -0.069 C 
HETATM   11  C11 UNL     1      -4.442  51.163 -20.953  1.00  0.00     0.030 C 
HETATM   12  C12 UNL     1      -4.364  49.948 -20.101  1.00  0.00     0.032 C 
HETATM   13  N1  UNL     1      -4.349  50.114 -18.808  1.00  0.00    -0.271 N 
ATOM     14  H1  UNL     1      -4.351  51.023 -18.346  1.00  0.00     0.194 HD
HETATM   15  C23 UNL     1      -4.371  48.604 -20.800  1.00  0.00     0.060 C 
HETATM   16  C24 UNL     1      -3.541  48.681 -22.076  1.00  0.00     0.020 C 
HETATM   17  C25 UNL     1      -3.997  49.811 -23.047  1.00  0.00    -0.016 C 
HETATM   18  C26 UNL     1      -5.284  49.316 -23.758  1.00  0.00     0.020 C 
HETATM   19  C27 UNL     1      -2.871  50.105 -24.114  1.00  0.00     0.002 C 
HETATM   20  C28 UNL     1      -1.457  50.274 -23.489  1.00  0.00     0.007 C 
HETATM   21  C29 UNL     1      -0.494  51.208 -24.224  1.00  0.00     0.014 C 
HETATM   22  C30 UNL     1      -0.665  51.228 -25.749  1.00  0.00     0.003 C 
HETATM   23  C31 UNL     1      -0.195  49.860 -26.318  1.00  0.00     0.020 C 
ENDROOT
BRANCH   3  24
HETATM   24  O1  UNL     1       0.112  53.568 -25.564  1.00  0.00    -0.377 OA
HETATM   25  H2  UNL     1       0.708  54.222 -25.964  1.00  0.00     0.211 HD
ENDBRANCH   3  24
BRANCH  13  26
HETATM   26  O2  UNL     1      -4.330  48.887 -18.132  1.00  0.00    -0.271 OA
BRANCH  26  27
HETATM   27  C13 UNL     1      -3.128  48.794 -17.374  1.00  0.00     0.303 C 
BRANCH  27  28
HETATM   28  C14 UNL     1      -2.865  50.118 -16.663  1.00  0.00     0.243 C 
HETATM   29  O3  UNL     1      -2.181  51.008 -17.161  1.00  0.00    -0.271 OA
HETATM   30  N2  UNL     1      -3.474  50.242 -15.432  1.00  0.00    -0.356 N 
HETATM   31  H16 UNL     1      -3.846  49.391 -15.022  1.00  0.00     0.162 HD
BRANCH  30  32
HETATM   32  C15 UNL     1      -3.211  51.379 -14.565  1.00  0.00     0.159 C 
BRANCH  32  33
HETATM   33  C16 UNL     1      -3.175  51.020 -13.065  1.00  0.00     0.170 C 
BRANCH  33  34
HETATM   34  O4  UNL     1      -2.248  49.951 -12.855  1.00  0.00    -0.389 OA
HETATM   35  H20 UNL     1      -2.243  49.771 -11.899  1.00  0.00     0.210 HD
ENDBRANCH  33  34
BRANCH  33  36
HETATM   36  C17 UNL     1      -2.771  52.200 -12.213  1.00  0.00    -0.013 A 
HETATM   37  C18 UNL     1      -3.701  52.946 -11.482  1.00  0.00     0.013 A 
HETATM   38  C19 UNL     1      -3.271  54.004 -10.687  1.00  0.00     0.025 A 
HETATM   39  C20 UNL     1      -1.911  54.289 -10.626  1.00  0.00     0.005 A 
HETATM   40  C21 UNL     1      -1.420  55.426  -9.778  1.00  0.00     0.068 C 
HETATM   41  N3  UNL     1      -0.988  53.578 -11.314  1.00  0.00    -0.369 N 
HETATM   42  C22 UNL     1      -1.434  52.561 -12.088  1.00  0.00     0.097 A 
ATOM     43  H3  UNL     1       0.005  53.799 -11.251  1.00  0.00     0.165 HD
ENDBRANCH  33  36
ENDBRANCH  32  33
ENDBRANCH  30  32
ENDBRANCH  27  28
ENDBRANCH  26  27
ENDBRANCH  13  26
TORSDOF 8
ENDMDL
MODEL 9
REMARK minimizedAffinity -10.2017126
REMARK CNNscore 0.266040564
REMARK CNNaffinity 6.77036238
REMARK  8 active torsions:
REMARK  status: ('A' for Active; 'I' for Inactive)
REMARK    1  A    between atoms: C3_3  and  O1_4 
REMARK    2  A    between atoms: N1_14  and  O2_16 
REMARK    3  A    between atoms: O2_16  and  C13_17 
REMARK    4  A    between atoms: C13_17  and  C14_18 
REMARK       I    between atoms: C14_18  and  N2_20 
REMARK    5  A    between atoms: N2_20  and  C15_21 
REMARK    6  A    between atoms: C15_21  and  C16_22 
REMARK    7  A    between atoms: C16_22  and  O4_23 
REMARK    8  A    between atoms: C16_22  and  C17_24 
ROOT
HETATM    1  C1  UNL     1      -0.246  53.769 -28.089  1.00  0.00     0.015 C 
HETATM    2  C2  UNL     1      -0.995  53.035 -27.502  1.00  0.00    -0.078 C 
HETATM    3  C3  UNL     1      -1.926  52.150 -26.784  1.00  0.00     0.128 C 
HETATM    4  C4  UNL     1      -2.451  51.023 -27.679  1.00  0.00     0.052 C 
HETATM    5  C5  UNL     1      -3.102  50.080 -26.674  1.00  0.00     0.010 C 
HETATM    6  C6  UNL     1      -2.094  50.029 -25.520  1.00  0.00     0.002 C 
HETATM    7  C7  UNL     1      -2.637  49.568 -24.144  1.00  0.00    -0.004 C 
HETATM    8  C8  UNL     1      -4.011  50.119 -23.726  1.00  0.00     0.010 C 
HETATM    9  C9  UNL     1      -4.454  49.584 -22.364  1.00  0.00     0.035 C 
HETATM   10  C10 UNL     1      -3.404  49.710 -21.283  1.00  0.00    -0.069 C 
HETATM   11  C11 UNL     1      -3.734  50.198 -20.074  1.00  0.00     0.030 C 
HETATM   12  C12 UNL     1      -2.772  50.200 -18.942  1.00  0.00     0.032 C 
HETATM   13  N1  UNL     1      -3.126  50.810 -17.846  1.00  0.00    -0.271 N 
ATOM     14  H1  UNL     1      -4.004  51.315 -17.729  1.00  0.00     0.194 HD
HETATM   15  C23 UNL     1      -1.475  49.438 -19.126  1.00  0.00     0.060 C 
HETATM   16  C24 UNL     1      -0.961  49.629 -20.548  1.00  0.00     0.020 C 
HETATM   17  C25 UNL     1      -1.997  49.231 -21.643  1.00  0.00    -0.016 C 
HETATM   18  C26 UNL     1      -2.015  47.681 -21.717  1.00  0.00     0.020 C 
HETATM   19  C27 UNL     1      -1.578  49.832 -23.041  1.00  0.00     0.002 C 
HETATM   20  C28 UNL     1      -1.202  51.340 -22.977  1.00  0.00     0.007 C 
HETATM   21  C29 UNL     1      -1.474  52.164 -24.236  1.00  0.00     0.014 C 
HETATM   22  C30 UNL     1      -1.314  51.390 -25.552  1.00  0.00     0.003 C 
HETATM   23  C31 UNL     1       0.194  51.076 -25.760  1.00  0.00     0.020 C 
ENDROOT
BRANCH   3  24
HETATM   24  O1  UNL     1      -3.060  52.928 -26.389  1.00  0.00    -0.377 OA
HETATM   25  H2  UNL     1      -3.304  53.487 -27.145  1.00  0.00     0.211 HD
ENDBRANCH   3  24
BRANCH  13  26
HETATM   26  O2  UNL     1      -2.150  50.685 -16.849  1.00  0.00    -0.271 OA
BRANCH  26  27
HETATM   27  C13 UNL     1      -2.592  49.736 -15.884  1.00  0.00     0.303 C 
BRANCH  27  28
HETATM   28  C14 UNL     1      -2.234  50.223 -14.483  1.00  0.00     0.243 C 
HETATM   29  O3  UNL     1      -1.072  50.387 -14.120  1.00  0.00    -0.271 OA
HETATM   30  N2  UNL     1      -3.316  50.485 -13.669  1.00  0.00    -0.356 N 
HETATM   31  H16 UNL     1      -4.215  50.134 -13.983  1.00  0.00     0.162 HD
BRANCH  30  32
HETATM   32  C15 UNL     1      -3.147  50.820 -12.265  1.00  0.00     0.159 C 
BRANCH  32  33
HETATM   33  C16 UNL     1      -3.585  52.257 -11.914  1.00  0.00     0.170 C 
BRANCH  33  34
HETATM   34  O4  UNL     1      -4.609  52.210 -10.915  1.00  0.00    -0.389 OA
HETATM   35  H20 UNL     1      -4.841  53.133 -10.712  1.00  0.00     0.210 HD
ENDBRANCH  33  34
BRANCH  33  36
HETATM   36  C17 UNL     1      -2.433  53.088 -11.401  1.00  0.00    -0.013 A 
HETATM   37  C18 UNL     1      -2.628  54.233 -10.620  1.00  0.00     0.013 A 
HETATM   38  C19 UNL     1      -1.530  54.944 -10.147  1.00  0.00     0.025 A 
HETATM   39  C20 UNL     1      -0.252  54.489 -10.451  1.00  0.00     0.005 A 
HETATM   40  C21 UNL     1       0.950  55.238  -9.954  1.00  0.00     0.068 C 
HETATM   41  N3  UNL     1      -0.034  53.379 -11.193  1.00  0.00    -0.369 N 
HETATM   42  C22 UNL     1      -1.119  52.711 -11.651  1.00  0.00     0.097 A 
ATOM     43  H3  UNL     1       0.912  53.058 -11.400  1.00  0.00     0.165 HD
ENDBRANCH  33  36
ENDBRANCH  32  33
ENDBRANCH  30  32
ENDBRANCH  27  28
ENDBRANCH  26  27
ENDBRANCH  13  26
TORSDOF 8
ENDMDL
