MODEL 1
REMARK minimizedAffinity -9.07460594
REMARK  6 active torsions:
REMARK  status: ('A' for Active; 'I' for Inactive)
REMARK    1  A    between atoms: C2_2  and  C30_31 
REMARK    2  A    between atoms: C3_3  and  C4_4 
REMARK    3  A    between atoms: C4_4  and  C5_5 
REMARK    4  A    between atoms: C5_5  and  C6_6 
REMARK    5  A    between atoms: C6_6  and  C8_8 
REMARK    6  A    between atoms: C30_31  and  O3_33 
ROOT
HETATM    1  C8  UNL     1      -1.107   5.838  11.924  1.00  0.00    -0.002 C 
HETATM    2  C9  UNL     1       0.437   5.884  12.028  1.00  0.00     0.007 C 
HETATM    3  C10 UNL     1       0.782   7.145  12.864  1.00  0.00     0.015 C 
HETATM    4  C11 UNL     1      -0.545   7.933  12.964  1.00  0.00    -0.013 C 
HETATM    5  C12 UNL     1      -0.649   8.767  11.646  1.00  0.00     0.021 C 
HETATM    6  C13 UNL     1      -0.817   8.894  14.120  1.00  0.00    -0.070 C 
HETATM    7  C14 UNL     1       0.071   9.163  15.094  1.00  0.00    -0.022 C 
HETATM    8  C15 UNL     1      -0.244   9.962  16.325  1.00  0.00     0.034 C 
HETATM    9  C16 UNL     1      -1.765  10.131  16.552  1.00  0.00     0.013 C 
HETATM   10  C17 UNL     1      -2.174  10.928  17.849  1.00  0.00     0.018 C 
HETATM   11  C18 UNL     1      -2.973   9.999  18.795  1.00  0.00     0.023 C 
HETATM   12  C19 UNL     1      -0.963  11.450  18.653  1.00  0.00     0.023 C 
HETATM   13  C20 UNL     1      -3.098  12.122  17.546  1.00  0.00     0.135 C 
HETATM   14  O1  UNL     1      -3.020  13.185  18.165  1.00  0.00    -0.297 OA
HETATM   15  C21 UNL     1      -4.202  11.950  16.525  1.00  0.00     0.080 C 
HETATM   16  C22 UNL     1      -3.950  10.830  15.528  1.00  0.00     0.017 C 
HETATM   17  C23 UNL     1      -2.455  10.596  15.226  1.00  0.00    -0.031 C 
HETATM   18  C24 UNL     1      -1.832  11.916  14.675  1.00  0.00     0.016 C 
HETATM   19  C25 UNL     1      -2.242   9.488  14.112  1.00  0.00     0.024 C 
HETATM   20  C26 UNL     1      -3.298   8.349  14.088  1.00  0.00     0.010 C 
HETATM   21  C27 UNL     1      -3.017   7.256  13.028  1.00  0.00     0.011 C 
HETATM   22  C28 UNL     1      -1.569   6.734  13.107  1.00  0.00    -0.029 C 
HETATM   23  C29 UNL     1      -1.428   5.988  14.473  1.00  0.00     0.016 C 
ENDROOT
BRANCH   1  24
HETATM   24  C6  UNL     1      -1.756   4.440  11.726  1.00  0.00    -0.014 C 
HETATM   25  C7  UNL     1      -0.646   3.369  11.790  1.00  0.00     0.010 C 
BRANCH  24  26
HETATM   26  C5  UNL     1      -2.874   4.056  12.721  1.00  0.00     0.008 C 
BRANCH  26  27
HETATM   27  C4  UNL     1      -4.141   3.523  12.034  1.00  0.00     0.028 C 
BRANCH  27  28
HETATM   28  C3  UNL     1      -5.416   4.107  12.583  1.00  0.00    -0.013 C 
HETATM   29  C2  UNL     1      -6.626   3.519  12.663  1.00  0.00     0.008 C 
HETATM   30  C1  UNL     1      -7.812   4.215  13.267  1.00  0.00     0.055 C 
BRANCH  29  31
HETATM   31  C30 UNL     1      -6.864   2.170  12.104  1.00  0.00     0.171 C 
HETATM   32  O2  UNL     1      -6.201   1.597  11.260  1.00  0.00    -0.646 OA
BRANCH  31  33
HETATM   33  O3  UNL     1      -7.952   1.594  12.642  1.00  0.00    -0.773 OA
HETATM   34  H46 UNL     1      -7.987   0.721  12.201  1.00  0.00     0.167 HD
ENDBRANCH  31  33
ENDBRANCH  29  31
ENDBRANCH  27  28
ENDBRANCH  26  27
ENDBRANCH  24  26
ENDBRANCH   1  24
TORSDOF 6
ENDMDL
MODEL 2
REMARK minimizedAffinity -8.98314476
REMARK  6 active torsions:
REMARK  status: ('A' for Active; 'I' for Inactive)
REMARK    1  A    between atoms: C2_2  and  C30_31 
REMARK    2  A    between atoms: C3_3  and  C4_4 
REMARK    3  A    between atoms: C4_4  and  C5_5 
REMARK    4  A    between atoms: C5_5  and  C6_6 
REMARK    5  A    between atoms: C6_6  and  C8_8 
REMARK    6  A    between atoms: C30_31  and  O3_33 
ROOT
HETATM    1  C8  UNL     1      -2.889   5.541  12.505  1.00  0.00    -0.002 C 
HETATM    2  C9  UNL     1      -1.433   5.060  12.720  1.00  0.00     0.007 C 
HETATM    3  C10 UNL     1      -0.711   6.187  13.503  1.00  0.00     0.015 C 
HETATM    4  C11 UNL     1      -1.682   7.390  13.459  1.00  0.00    -0.013 C 
HETATM    5  C12 UNL     1      -1.424   8.099  12.090  1.00  0.00     0.021 C 
HETATM    6  C13 UNL     1      -1.656   8.477  14.533  1.00  0.00    -0.070 C 
HETATM    7  C14 UNL     1      -0.779   8.500  15.553  1.00  0.00    -0.022 C 
HETATM    8  C15 UNL     1      -0.854   9.455  16.708  1.00  0.00     0.034 C 
HETATM    9  C16 UNL     1      -2.229  10.157  16.812  1.00  0.00     0.013 C 
HETATM   10  C17 UNL     1      -2.396  11.148  18.027  1.00  0.00     0.018 C 
HETATM   11  C18 UNL     1      -3.514  10.631  18.964  1.00  0.00     0.023 C 
HETATM   12  C19 UNL     1      -1.120  11.283  18.885  1.00  0.00     0.023 C 
HETATM   13  C20 UNL     1      -2.829  12.558  17.586  1.00  0.00     0.135 C 
HETATM   14  O1  UNL     1      -2.414  13.576  18.146  1.00  0.00    -0.297 OA
HETATM   15  C21 UNL     1      -3.873  12.696  16.499  1.00  0.00     0.080 C 
HETATM   16  C22 UNL     1      -3.980  11.481  15.591  1.00  0.00     0.017 C 
HETATM   17  C23 UNL     1      -2.648  10.722  15.414  1.00  0.00    -0.031 C 
HETATM   18  C24 UNL     1      -1.577  11.697  14.834  1.00  0.00     0.016 C 
HETATM   19  C25 UNL     1      -2.782   9.523  14.386  1.00  0.00     0.024 C 
HETATM   20  C26 UNL     1      -4.167   8.820  14.351  1.00  0.00     0.010 C 
HETATM   21  C27 UNL     1      -4.234   7.615  13.381  1.00  0.00     0.011 C 
HETATM   22  C28 UNL     1      -3.066   6.634  13.597  1.00  0.00    -0.029 C 
HETATM   23  C29 UNL     1      -3.261   5.998  15.010  1.00  0.00     0.016 C 
ENDROOT
BRANCH   1  24
HETATM   24  C6  UNL     1      -3.976   4.442  12.343  1.00  0.00    -0.014 C 
HETATM   25  C7  UNL     1      -3.273   3.082  12.141  1.00  0.00     0.010 C 
BRANCH  24  26
HETATM   26  C5  UNL     1      -4.993   4.308  13.498  1.00  0.00     0.008 C 
BRANCH  26  27
HETATM   27  C4  UNL     1      -6.394   3.886  13.026  1.00  0.00     0.028 C 
BRANCH  27  28
HETATM   28  C3  UNL     1      -7.410   4.996  13.084  1.00  0.00    -0.013 C 
HETATM   29  C2  UNL     1      -7.850   5.656  14.174  1.00  0.00     0.008 C 
HETATM   30  C1  UNL     1      -8.851   6.772  14.080  1.00  0.00     0.055 C 
BRANCH  29  31
HETATM   31  C30 UNL     1      -7.409   5.275  15.534  1.00  0.00     0.171 C 
HETATM   32  O2  UNL     1      -6.572   5.833  16.218  1.00  0.00    -0.646 OA
BRANCH  31  33
HETATM   33  O3  UNL     1      -8.053   4.182  15.977  1.00  0.00    -0.773 OA
HETATM   34  H46 UNL     1      -7.681   4.049  16.873  1.00  0.00     0.167 HD
ENDBRANCH  31  33
ENDBRANCH  29  31
ENDBRANCH  27  28
ENDBRANCH  26  27
ENDBRANCH  24  26
ENDBRANCH   1  24
TORSDOF 6
ENDMDL
MODEL 3
REMARK minimizedAffinity -8.91212749
REMARK  6 active torsions:
REMARK  status: ('A' for Active; 'I' for Inactive)
REMARK    1  A    between atoms: C2_2  and  C30_31 
REMARK    2  A    between atoms: C3_3  and  C4_4 
REMARK    3  A    between atoms: C4_4  and  C5_5 
REMARK    4  A    between atoms: C5_5  and  C6_6 
REMARK    5  A    between atoms: C6_6  and  C8_8 
REMARK    6  A    between atoms: C30_31  and  O3_33 
ROOT
HETATM    1  C8  UNL     1      -1.232   6.464  12.192  1.00  0.00    -0.002 C 
HETATM    2  C9  UNL     1      -0.991   5.163  11.388  1.00  0.00     0.007 C 
HETATM    3  C10 UNL     1       0.463   5.243  10.852  1.00  0.00     0.015 C 
HETATM    4  C11 UNL     1       0.906   6.701  11.117  1.00  0.00    -0.013 C 
HETATM    5  C12 UNL     1       0.359   7.541   9.918  1.00  0.00     0.021 C 
HETATM    6  C13 UNL     1       2.380   7.069  11.280  1.00  0.00    -0.070 C 
HETATM    7  C14 UNL     1       3.389   6.186  11.163  1.00  0.00    -0.022 C 
HETATM    8  C15 UNL     1       4.821   6.493  11.494  1.00  0.00     0.034 C 
HETATM    9  C16 UNL     1       4.974   7.787  12.330  1.00  0.00     0.013 C 
HETATM   10  C17 UNL     1       6.449   8.153  12.750  1.00  0.00     0.018 C 
HETATM   11  C18 UNL     1       6.567   8.126  14.293  1.00  0.00     0.023 C 
HETATM   12  C19 UNL     1       7.503   7.167  12.203  1.00  0.00     0.023 C 
HETATM   13  C20 UNL     1       6.853   9.575  12.318  1.00  0.00     0.135 C 
HETATM   14  O1  UNL     1       7.993   9.844  11.933  1.00  0.00    -0.297 OA
HETATM   15  C21 UNL     1       5.847  10.696  12.465  1.00  0.00     0.080 C 
HETATM   16  C22 UNL     1       4.402  10.226  12.501  1.00  0.00     0.017 C 
HETATM   17  C23 UNL     1       4.147   8.945  11.679  1.00  0.00    -0.031 C 
HETATM   18  C24 UNL     1       4.563   9.198  10.197  1.00  0.00     0.016 C 
HETATM   19  C25 UNL     1       2.613   8.546  11.664  1.00  0.00     0.024 C 
HETATM   20  C26 UNL     1       1.815   8.899  12.950  1.00  0.00     0.010 C 
HETATM   21  C27 UNL     1       0.338   8.435  12.918  1.00  0.00     0.011 C 
HETATM   22  C28 UNL     1       0.208   6.953  12.515  1.00  0.00    -0.029 C 
HETATM   23  C29 UNL     1       0.849   6.110  13.664  1.00  0.00     0.016 C 
ENDROOT
BRANCH   1  24
HETATM   24  C6  UNL     1      -2.290   6.400  13.329  1.00  0.00    -0.014 C 
HETATM   25  C7  UNL     1      -3.401   7.429  13.025  1.00  0.00     0.010 C 
BRANCH  24  26
HETATM   26  C5  UNL     1      -2.944   5.024  13.581  1.00  0.00     0.008 C 
BRANCH  26  27
HETATM   27  C4  UNL     1      -3.784   4.524  12.394  1.00  0.00     0.028 C 
BRANCH  27  28
HETATM   28  C3  UNL     1      -5.221   4.248  12.747  1.00  0.00    -0.013 C 
HETATM   29  C2  UNL     1      -6.014   3.268  12.270  1.00  0.00     0.008 C 
HETATM   30  C1  UNL     1      -7.431   3.090  12.737  1.00  0.00     0.055 C 
BRANCH  29  31
HETATM   31  C30 UNL     1      -5.545   2.344  11.213  1.00  0.00     0.171 C 
HETATM   32  O2  UNL     1      -5.251   1.171  11.341  1.00  0.00    -0.646 OA
BRANCH  31  33
HETATM   33  O3  UNL     1      -5.463   2.956  10.020  1.00  0.00    -0.773 OA
HETATM   34  H46 UNL     1      -5.157   2.244   9.422  1.00  0.00     0.167 HD
ENDBRANCH  31  33
ENDBRANCH  29  31
ENDBRANCH  27  28
ENDBRANCH  26  27
ENDBRANCH  24  26
ENDBRANCH   1  24
TORSDOF 6
ENDMDL
MODEL 4
REMARK minimizedAffinity -8.71203995
REMARK  6 active torsions:
REMARK  status: ('A' for Active; 'I' for Inactive)
REMARK    1  A    between atoms: C2_2  and  C30_31 
REMARK    2  A    between atoms: C3_3  and  C4_4 
REMARK    3  A    between atoms: C4_4  and  C5_5 
REMARK    4  A    between atoms: C5_5  and  C6_6 
REMARK    5  A    between atoms: C6_6  and  C8_8 
REMARK    6  A    between atoms: C30_31  and  O3_33 
ROOT
HETATM    1  C8  UNL     1      -1.297   6.478  12.296  1.00  0.00    -0.002 C 
HETATM    2  C9  UNL     1      -1.067   5.138  11.556  1.00  0.00     0.007 C 
HETATM    3  C10 UNL     1       0.378   5.189  10.994  1.00  0.00     0.015 C 
HETATM    4  C11 UNL     1       0.824   6.660  11.176  1.00  0.00    -0.013 C 
HETATM    5  C12 UNL     1       0.257   7.436   9.944  1.00  0.00     0.021 C 
HETATM    6  C13 UNL     1       2.300   7.035  11.297  1.00  0.00    -0.070 C 
HETATM    7  C14 UNL     1       3.308   6.148  11.209  1.00  0.00    -0.022 C 
HETATM    8  C15 UNL     1       4.744   6.472  11.502  1.00  0.00     0.034 C 
HETATM    9  C16 UNL     1       4.909   7.807  12.267  1.00  0.00     0.013 C 
HETATM   10  C17 UNL     1       6.390   8.195  12.645  1.00  0.00     0.018 C 
HETATM   11  C18 UNL     1       6.533   8.247  14.184  1.00  0.00     0.023 C 
HETATM   12  C19 UNL     1       7.437   7.181  12.133  1.00  0.00     0.023 C 
HETATM   13  C20 UNL     1       6.786   9.592  12.133  1.00  0.00     0.135 C 
HETATM   14  O1  UNL     1       7.920   9.841  11.717  1.00  0.00    -0.297 OA
HETATM   15  C21 UNL     1       5.782  10.720  12.237  1.00  0.00     0.080 C 
HETATM   16  C22 UNL     1       4.338  10.252  12.320  1.00  0.00     0.017 C 
HETATM   17  C23 UNL     1       4.072   8.930  11.570  1.00  0.00    -0.031 C 
HETATM   18  C24 UNL     1       4.464   9.105  10.070  1.00  0.00     0.016 C 
HETATM   19  C25 UNL     1       2.538   8.530  11.600  1.00  0.00     0.024 C 
HETATM   20  C26 UNL     1       1.760   8.949  12.878  1.00  0.00     0.010 C 
HETATM   21  C27 UNL     1       0.283   8.484  12.894  1.00  0.00     0.011 C 
HETATM   22  C28 UNL     1       0.147   6.983  12.570  1.00  0.00    -0.029 C 
HETATM   23  C29 UNL     1       0.807   6.201  13.751  1.00  0.00     0.016 C 
ENDROOT
BRANCH   1  24
HETATM   24  C6  UNL     1      -2.336   6.474  13.451  1.00  0.00    -0.014 C 
HETATM   25  C7  UNL     1      -3.441   7.502  13.122  1.00  0.00     0.010 C 
BRANCH  24  26
HETATM   26  C5  UNL     1      -3.001   5.116  13.770  1.00  0.00     0.008 C 
BRANCH  26  27
HETATM   27  C4  UNL     1      -4.426   4.990  13.205  1.00  0.00     0.028 C 
BRANCH  27  28
HETATM   28  C3  UNL     1      -4.628   3.772  12.343  1.00  0.00    -0.013 C 
HETATM   29  C2  UNL     1      -5.780   3.120  12.094  1.00  0.00     0.008 C 
HETATM   30  C1  UNL     1      -5.840   1.928  11.182  1.00  0.00     0.055 C 
BRANCH  29  31
HETATM   31  C30 UNL     1      -7.045   3.511  12.755  1.00  0.00     0.171 C 
HETATM   32  O2  UNL     1      -7.563   2.984  13.721  1.00  0.00    -0.646 OA
BRANCH  31  33
HETATM   33  O3  UNL     1      -7.613   4.569  12.152  1.00  0.00    -0.773 OA
HETATM   34  H46 UNL     1      -8.419   4.726  12.685  1.00  0.00     0.167 HD
ENDBRANCH  31  33
ENDBRANCH  29  31
ENDBRANCH  27  28
ENDBRANCH  26  27
ENDBRANCH  24  26
ENDBRANCH   1  24
TORSDOF 6
ENDMDL
MODEL 5
REMARK minimizedAffinity -8.51305389
REMARK  6 active torsions:
REMARK  status: ('A' for Active; 'I' for Inactive)
REMARK    1  A    between atoms: C2_2  and  C30_31 
REMARK    2  A    between atoms: C3_3  and  C4_4 
REMARK    3  A    between atoms: C4_4  and  C5_5 
REMARK    4  A    between atoms: C5_5  and  C6_6 
REMARK    5  A    between atoms: C6_6  and  C8_8 
REMARK    6  A    between atoms: C30_31  and  O3_33 
ROOT
HETATM    1  C8  UNL     1      -2.128   5.996  13.270  1.00  0.00    -0.002 C 
HETATM    2  C9  UNL     1      -3.601   6.061  12.798  1.00  0.00     0.007 C 
HETATM    3  C10 UNL     1      -4.296   7.135  13.676  1.00  0.00     0.015 C 
HETATM    4  C11 UNL     1      -3.285   7.440  14.807  1.00  0.00    -0.013 C 
HETATM    5  C12 UNL     1      -3.505   6.334  15.888  1.00  0.00     0.021 C 
HETATM    6  C13 UNL     1      -3.289   8.782  15.537  1.00  0.00    -0.070 C 
HETATM    7  C14 UNL     1      -4.177   9.764  15.296  1.00  0.00    -0.022 C 
HETATM    8  C15 UNL     1      -4.084  11.146  15.875  1.00  0.00     0.034 C 
HETATM    9  C16 UNL     1      -2.688  11.450  16.469  1.00  0.00     0.013 C 
HETATM   10  C17 UNL     1      -2.503  12.899  17.061  1.00  0.00     0.018 C 
HETATM   11  C18 UNL     1      -1.414  13.649  16.259  1.00  0.00     0.023 C 
HETATM   12  C19 UNL     1      -3.784  13.758  16.987  1.00  0.00     0.023 C 
HETATM   13  C20 UNL     1      -2.020  12.885  18.523  1.00  0.00     0.135 C 
HETATM   14  O1  UNL     1      -2.408  13.714  19.350  1.00  0.00    -0.297 OA
HETATM   15  C21 UNL     1      -0.959  11.885  18.932  1.00  0.00     0.080 C 
HETATM   16  C22 UNL     1      -0.881  10.666  18.028  1.00  0.00     0.017 C 
HETATM   17  C23 UNL     1      -2.235  10.275  17.398  1.00  0.00    -0.031 C 
HETATM   18  C24 UNL     1      -3.267   9.999  18.536  1.00  0.00     0.016 C 
HETATM   19  C25 UNL     1      -2.128   8.945  16.542  1.00  0.00     0.024 C 
HETATM   20  C26 UNL     1      -0.766   8.711  15.832  1.00  0.00     0.010 C 
HETATM   21  C27 UNL     1      -0.727   7.435  14.957  1.00  0.00     0.011 C 
HETATM   22  C28 UNL     1      -1.929   7.357  13.996  1.00  0.00    -0.029 C 
HETATM   23  C29 UNL     1      -1.771   8.527  12.973  1.00  0.00     0.016 C 
ENDROOT
BRANCH   1  24
HETATM   24  C6  UNL     1      -1.076   5.526  12.228  1.00  0.00    -0.014 C 
HETATM   25  C7  UNL     1      -1.688   4.377  11.397  1.00  0.00     0.010 C 
BRANCH  24  26
HETATM   26  C5  UNL     1      -0.538   6.605  11.262  1.00  0.00     0.008 C 
BRANCH  26  27
HETATM   27  C4  UNL     1       0.750   6.181  10.536  1.00  0.00     0.028 C 
BRANCH  27  28
HETATM   28  C3  UNL     1       1.255   7.207   9.556  1.00  0.00    -0.013 C 
HETATM   29  C2  UNL     1       2.332   7.118   8.750  1.00  0.00     0.008 C 
HETATM   30  C1  UNL     1       2.702   8.214   7.793  1.00  0.00     0.055 C 
BRANCH  29  31
HETATM   31  C30 UNL     1       3.242   5.954   8.808  1.00  0.00     0.171 C 
HETATM   32  O2  UNL     1       3.213   4.962   8.104  1.00  0.00    -0.646 OA
BRANCH  31  33
HETATM   33  O3  UNL     1       4.165   6.092   9.775  1.00  0.00    -0.773 OA
HETATM   34  H46 UNL     1       4.697   5.274   9.698  1.00  0.00     0.167 HD
ENDBRANCH  31  33
ENDBRANCH  29  31
ENDBRANCH  27  28
ENDBRANCH  26  27
ENDBRANCH  24  26
ENDBRANCH   1  24
TORSDOF 6
ENDMDL
MODEL 6
REMARK minimizedAffinity -8.49355316
REMARK  6 active torsions:
REMARK  status: ('A' for Active; 'I' for Inactive)
REMARK    1  A    between atoms: C2_2  and  C30_31 
REMARK    2  A    between atoms: C3_3  and  C4_4 
REMARK    3  A    between atoms: C4_4  and  C5_5 
REMARK    4  A    between atoms: C5_5  and  C6_6 
REMARK    5  A    between atoms: C6_6  and  C8_8 
REMARK    6  A    between atoms: C30_31  and  O3_33 
ROOT
HETATM    1  C8  UNL     1      -1.642   7.008  13.930  1.00  0.00    -0.002 C 
HETATM    2  C9  UNL     1      -2.132   7.576  12.576  1.00  0.00     0.007 C 
HETATM    3  C10 UNL     1      -0.913   8.288  11.932  1.00  0.00     0.015 C 
HETATM    4  C11 UNL     1       0.147   8.358  13.057  1.00  0.00    -0.013 C 
HETATM    5  C12 UNL     1      -0.212   9.619  13.907  1.00  0.00     0.021 C 
HETATM    6  C13 UNL     1       1.640   8.445  12.741  1.00  0.00    -0.070 C 
HETATM    7  C14 UNL     1       2.138   8.514  11.493  1.00  0.00    -0.022 C 
HETATM    8  C15 UNL     1       3.599   8.422  11.162  1.00  0.00     0.034 C 
HETATM    9  C16 UNL     1       4.442   7.870  12.338  1.00  0.00     0.013 C 
HETATM   10  C17 UNL     1       5.983   7.707  12.051  1.00  0.00     0.018 C 
HETATM   11  C18 UNL     1       6.372   6.213  12.153  1.00  0.00     0.023 C 
HETATM   12  C19 UNL     1       6.395   8.180  10.640  1.00  0.00     0.023 C 
HETATM   13  C20 UNL     1       6.859   8.445  13.079  1.00  0.00     0.135 C 
HETATM   14  O1  UNL     1       7.910   9.008  12.762  1.00  0.00    -0.297 OA
HETATM   15  C21 UNL     1       6.471   8.393  14.541  1.00  0.00     0.080 C 
HETATM   16  C22 UNL     1       4.999   8.096  14.776  1.00  0.00     0.017 C 
HETATM   17  C23 UNL     1       4.075   8.624  13.659  1.00  0.00    -0.031 C 
HETATM   18  C24 UNL     1       4.266  10.166  13.523  1.00  0.00     0.016 C 
HETATM   19  C25 UNL     1       2.544   8.379  13.991  1.00  0.00     0.024 C 
HETATM   20  C26 UNL     1       2.232   7.096  14.811  1.00  0.00     0.010 C 
HETATM   21  C27 UNL     1       0.722   6.862  15.058  1.00  0.00     0.011 C 
HETATM   22  C28 UNL     1      -0.098   6.960  13.756  1.00  0.00    -0.029 C 
HETATM   23  C29 UNL     1       0.334   5.757  12.856  1.00  0.00     0.016 C 
ENDROOT
BRANCH   1  24
HETATM   24  C6  UNL     1      -2.388   5.761  14.481  1.00  0.00    -0.014 C 
HETATM   25  C7  UNL     1      -3.471   6.235  15.474  1.00  0.00     0.010 C 
BRANCH  24  26
HETATM   26  C5  UNL     1      -3.046   4.838  13.432  1.00  0.00     0.008 C 
BRANCH  26  27
HETATM   27  C4  UNL     1      -4.506   5.210  13.126  1.00  0.00     0.028 C 
BRANCH  27  28
HETATM   28  C3  UNL     1      -5.389   4.020  12.858  1.00  0.00    -0.013 C 
HETATM   29  C2  UNL     1      -6.664   3.833  13.254  1.00  0.00     0.008 C 
HETATM   30  C1  UNL     1      -7.439   2.601  12.885  1.00  0.00     0.055 C 
BRANCH  29  31
HETATM   31  C30 UNL     1      -7.351   4.812  14.125  1.00  0.00     0.171 C 
HETATM   32  O2  UNL     1      -7.513   5.998  13.912  1.00  0.00    -0.646 OA
BRANCH  31  33
HETATM   33  O3  UNL     1      -7.807   4.239  15.252  1.00  0.00    -0.773 OA
HETATM   34  H46 UNL     1      -8.240   4.981  15.722  1.00  0.00     0.167 HD
ENDBRANCH  31  33
ENDBRANCH  29  31
ENDBRANCH  27  28
ENDBRANCH  26  27
ENDBRANCH  24  26
ENDBRANCH   1  24
TORSDOF 6
ENDMDL
MODEL 7
REMARK minimizedAffinity -8.45834351
REMARK  6 active torsions:
REMARK  status: ('A' for Active; 'I' for Inactive)
REMARK    1  A    between atoms: C2_2  and  C30_31 
REMARK    2  A    between atoms: C3_3  and  C4_4 
REMARK    3  A    between atoms: C4_4  and  C5_5 
REMARK    4  A    between atoms: C5_5  and  C6_6 
REMARK    5  A    between atoms: C6_6  and  C8_8 
REMARK    6  A    between atoms: C30_31  and  O3_33 
ROOT
HETATM    1  C8  UNL     1      -4.795   5.435  13.015  1.00  0.00    -0.002 C 
HETATM    2  C9  UNL     1      -3.675   4.458  13.447  1.00  0.00     0.007 C 
HETATM    3  C10 UNL     1      -2.613   5.310  14.191  1.00  0.00     0.015 C 
HETATM    4  C11 UNL     1      -3.012   6.778  13.910  1.00  0.00    -0.013 C 
HETATM    5  C12 UNL     1      -2.399   7.129  12.516  1.00  0.00     0.021 C 
HETATM    6  C13 UNL     1      -2.622   7.907  14.863  1.00  0.00    -0.070 C 
HETATM    7  C14 UNL     1      -1.880   7.728  15.971  1.00  0.00    -0.022 C 
HETATM    8  C15 UNL     1      -1.641   8.788  17.006  1.00  0.00     0.034 C 
HETATM    9  C16 UNL     1      -2.620   9.979  16.875  1.00  0.00     0.013 C 
HETATM   10  C17 UNL     1      -2.455  11.117  17.955  1.00  0.00     0.018 C 
HETATM   11  C18 UNL     1      -3.746  11.216  18.801  1.00  0.00     0.023 C 
HETATM   12  C19 UNL     1      -1.293  10.860  18.939  1.00  0.00     0.023 C 
HETATM   13  C20 UNL     1      -2.251  12.507  17.325  1.00  0.00     0.135 C 
HETATM   14  O1  UNL     1      -1.500  13.349  17.822  1.00  0.00    -0.297 OA
HETATM   15  C21 UNL     1      -3.076  12.888  16.114  1.00  0.00     0.080 C 
HETATM   16  C22 UNL     1      -3.602  11.697  15.328  1.00  0.00     0.017 C 
HETATM   17  C23 UNL     1      -2.681  10.461  15.388  1.00  0.00    -0.031 C 
HETATM   18  C24 UNL     1      -1.272  10.847  14.841  1.00  0.00     0.016 C 
HETATM   19  C25 UNL     1      -3.217   9.278  14.479  1.00  0.00     0.024 C 
HETATM   20  C26 UNL     1      -4.763   9.176  14.353  1.00  0.00     0.010 C 
HETATM   21  C27 UNL     1      -5.245   7.971  13.509  1.00  0.00     0.011 C 
HETATM   22  C28 UNL     1      -4.588   6.651  13.960  1.00  0.00    -0.029 C 
HETATM   23  C29 UNL     1      -5.118   6.348  15.399  1.00  0.00     0.016 C 
ENDROOT
BRANCH   1  24
HETATM   24  C6  UNL     1      -6.219   4.838  12.839  1.00  0.00    -0.014 C 
HETATM   25  C7  UNL     1      -6.084   3.337  12.500  1.00  0.00     0.010 C 
BRANCH  24  26
HETATM   26  C5  UNL     1      -7.180   4.991  14.039  1.00  0.00     0.008 C 
BRANCH  26  27
HETATM   27  C4  UNL     1      -8.467   5.757  13.692  1.00  0.00     0.028 C 
BRANCH  27  28
HETATM   28  C3  UNL     1      -8.695   6.972  14.550  1.00  0.00    -0.013 C 
HETATM   29  C2  UNL     1      -9.854   7.629  14.759  1.00  0.00     0.008 C 
HETATM   30  C1  UNL     1      -9.942   8.818  15.673  1.00  0.00     0.055 C 
BRANCH  29  31
HETATM   31  C30 UNL     1     -11.095   7.246  14.050  1.00  0.00     0.171 C 
HETATM   32  O2  UNL     1     -11.950   6.472  14.434  1.00  0.00    -0.646 OA
BRANCH  31  33
HETATM   33  O3  UNL     1     -11.199   7.865  12.862  1.00  0.00    -0.773 OA
HETATM   34  H46 UNL     1     -12.052   7.536  12.511  1.00  0.00     0.167 HD
ENDBRANCH  31  33
ENDBRANCH  29  31
ENDBRANCH  27  28
ENDBRANCH  26  27
ENDBRANCH  24  26
ENDBRANCH   1  24
TORSDOF 6
ENDMDL
MODEL 8
REMARK minimizedAffinity -8.45699501
REMARK  6 active torsions:
REMARK  status: ('A' for Active; 'I' for Inactive)
REMARK    1  A    between atoms: C2_2  and  C30_31 
REMARK    2  A    between atoms: C3_3  and  C4_4 
REMARK    3  A    between atoms: C4_4  and  C5_5 
REMARK    4  A    between atoms: C5_5  and  C6_6 
REMARK    5  A    between atoms: C6_6  and  C8_8 
REMARK    6  A    between atoms: C30_31  and  O3_33 
ROOT
HETATM    1  C8  UNL     1      -4.339   7.242  14.800  1.00  0.00    -0.002 C 
HETATM    2  C9  UNL     1      -3.931   6.110  15.773  1.00  0.00     0.007 C 
HETATM    3  C10 UNL     1      -2.574   5.559  15.262  1.00  0.00     0.015 C 
HETATM    4  C11 UNL     1      -2.392   6.188  13.860  1.00  0.00    -0.013 C 
HETATM    5  C12 UNL     1      -3.196   5.280  12.874  1.00  0.00     0.021 C 
HETATM    6  C13 UNL     1      -1.005   6.387  13.250  1.00  0.00    -0.070 C 
HETATM    7  C14 UNL     1       0.137   5.998  13.845  1.00  0.00    -0.022 C 
HETATM    8  C15 UNL     1       1.509   6.344  13.344  1.00  0.00     0.034 C 
HETATM    9  C16 UNL     1       1.492   7.489  12.303  1.00  0.00     0.013 C 
HETATM   10  C17 UNL     1       2.903   7.935  11.759  1.00  0.00     0.018 C 
HETATM   11  C18 UNL     1       3.166   9.408  12.154  1.00  0.00     0.023 C 
HETATM   12  C19 UNL     1       4.070   7.103  12.334  1.00  0.00     0.023 C 
HETATM   13  C20 UNL     1       2.989   7.885  10.223  1.00  0.00     0.135 C 
HETATM   14  O1  UNL     1       4.018   7.542   9.635  1.00  0.00    -0.297 OA
HETATM   15  C21 UNL     1       1.808   8.366   9.409  1.00  0.00     0.080 C 
HETATM   16  C22 UNL     1       0.487   8.330  10.160  1.00  0.00     0.017 C 
HETATM   17  C23 UNL     1       0.405   7.206  11.214  1.00  0.00    -0.031 C 
HETATM   18  C24 UNL     1       0.627   5.830  10.512  1.00  0.00     0.016 C 
HETATM   19  C25 UNL     1      -1.021   7.143  11.904  1.00  0.00     0.024 C 
HETATM   20  C26 UNL     1      -1.750   8.507  12.063  1.00  0.00     0.010 C 
HETATM   21  C27 UNL     1      -3.109   8.408  12.799  1.00  0.00     0.011 C 
HETATM   22  C28 UNL     1      -2.993   7.628  14.123  1.00  0.00    -0.029 C 
HETATM   23  C29 UNL     1      -2.102   8.484  15.079  1.00  0.00     0.016 C 
ENDROOT
BRANCH   1  24
HETATM   24  C6  UNL     1      -5.256   8.361  15.368  1.00  0.00    -0.014 C 
HETATM   25  C7  UNL     1      -4.631   9.730  15.025  1.00  0.00     0.010 C 
BRANCH  24  26
HETATM   26  C5  UNL     1      -6.725   8.352  14.888  1.00  0.00     0.008 C 
BRANCH  26  27
HETATM   27  C4  UNL     1      -7.606   7.349  15.650  1.00  0.00     0.028 C 
BRANCH  27  28
HETATM   28  C3  UNL     1      -7.353   5.914  15.269  1.00  0.00    -0.013 C 
HETATM   29  C2  UNL     1      -7.828   5.249  14.197  1.00  0.00     0.008 C 
HETATM   30  C1  UNL     1      -7.466   3.817  13.924  1.00  0.00     0.055 C 
BRANCH  29  31
HETATM   31  C30 UNL     1      -8.782   5.881  13.260  1.00  0.00     0.171 C 
HETATM   32  O2  UNL     1      -9.834   6.424  13.538  1.00  0.00    -0.646 OA
BRANCH  31  33
HETATM   33  O3  UNL     1      -8.359   5.794  11.987  1.00  0.00    -0.773 OA
HETATM   34  H46 UNL     1      -9.064   6.251  11.484  1.00  0.00     0.167 HD
ENDBRANCH  31  33
ENDBRANCH  29  31
ENDBRANCH  27  28
ENDBRANCH  26  27
ENDBRANCH  24  26
ENDBRANCH   1  24
TORSDOF 6
ENDMDL
MODEL 9
REMARK minimizedAffinity -8.38684654
REMARK  6 active torsions:
REMARK  status: ('A' for Active; 'I' for Inactive)
REMARK    1  A    between atoms: C2_2  and  C30_31 
REMARK    2  A    between atoms: C3_3  and  C4_4 
REMARK    3  A    between atoms: C4_4  and  C5_5 
REMARK    4  A    between atoms: C5_5  and  C6_6 
REMARK    5  A    between atoms: C6_6  and  C8_8 
REMARK    6  A    between atoms: C30_31  and  O3_33 
ROOT
HETATM    1  C8  UNL     1      -0.308  10.962  17.219  1.00  0.00    -0.002 C 
HETATM    2  C9  UNL     1      -1.088  12.297  17.301  1.00  0.00     0.007 C 
HETATM    3  C10 UNL     1      -2.418  12.074  16.534  1.00  0.00     0.015 C 
HETATM    4  C11 UNL     1      -2.232  10.728  15.795  1.00  0.00    -0.013 C 
HETATM    5  C12 UNL     1      -1.463  11.064  14.477  1.00  0.00     0.021 C 
HETATM    6  C13 UNL     1      -3.429   9.862  15.402  1.00  0.00    -0.070 C 
HETATM    7  C14 UNL     1      -4.710  10.213  15.619  1.00  0.00    -0.022 C 
HETATM    8  C15 UNL     1      -5.882   9.301  15.402  1.00  0.00     0.034 C 
HETATM    9  C16 UNL     1      -5.464   7.817  15.267  1.00  0.00     0.013 C 
HETATM   10  C17 UNL     1      -6.647   6.792  15.076  1.00  0.00     0.018 C 
HETATM   11  C18 UNL     1      -6.683   5.816  16.276  1.00  0.00     0.023 C 
HETATM   12  C19 UNL     1      -8.034   7.467  15.008  1.00  0.00     0.023 C 
HETATM   13  C20 UNL     1      -6.477   5.917  13.821  1.00  0.00     0.135 C 
HETATM   14  O1  UNL     1      -7.437   5.575  13.126  1.00  0.00    -0.297 OA
HETATM   15  C21 UNL     1      -5.103   5.378  13.487  1.00  0.00     0.080 C 
HETATM   16  C22 UNL     1      -3.963   6.183  14.089  1.00  0.00     0.017 C 
HETATM   17  C23 UNL     1      -4.282   7.684  14.250  1.00  0.00    -0.031 C 
HETATM   18  C24 UNL     1      -4.644   8.281  12.854  1.00  0.00     0.016 C 
HETATM   19  C25 UNL     1      -3.036   8.501  14.789  1.00  0.00     0.024 C 
HETATM   20  C26 UNL     1      -2.094   7.729  15.755  1.00  0.00     0.010 C 
HETATM   21  C27 UNL     1      -0.927   8.582  16.307  1.00  0.00     0.011 C 
HETATM   22  C28 UNL     1      -1.416   9.924  16.887  1.00  0.00    -0.029 C 
HETATM   23  C29 UNL     1      -2.275   9.588  18.149  1.00  0.00     0.016 C 
ENDROOT
BRANCH   1  24
HETATM   24  C6  UNL     1       0.698  10.665  18.366  1.00  0.00    -0.014 C 
HETATM   25  C7  UNL     1       2.123  10.984  17.864  1.00  0.00     0.010 C 
BRANCH  24  26
HETATM   26  C5  UNL     1       0.462  11.414  19.696  1.00  0.00     0.008 C 
BRANCH  26  27
HETATM   27  C4  UNL     1       1.677  11.376  20.638  1.00  0.00     0.028 C 
BRANCH  27  28
HETATM   28  C3  UNL     1       1.884  10.041  21.302  1.00  0.00    -0.013 C 
HETATM   29  C2  UNL     1       2.634   9.768  22.388  1.00  0.00     0.008 C 
HETATM   30  C1  UNL     1       2.726   8.384  22.965  1.00  0.00     0.055 C 
BRANCH  29  31
HETATM   31  C30 UNL     1       3.456  10.812  23.038  1.00  0.00     0.171 C 
HETATM   32  O2  UNL     1       3.075  11.882  23.472  1.00  0.00    -0.646 OA
BRANCH  31  33
HETATM   33  O3  UNL     1       4.749  10.453  23.110  1.00  0.00    -0.773 OA
HETATM   34  H46 UNL     1       5.169  11.213  23.561  1.00  0.00     0.167 HD
ENDBRANCH  31  33
ENDBRANCH  29  31
ENDBRANCH  27  28
ENDBRANCH  26  27
ENDBRANCH  24  26
ENDBRANCH   1  24
TORSDOF 6
ENDMDL
