MODEL 1
REMARK minimizedAffinity -7.77602148
REMARK CNNscore 0.756040692
REMARK CNNaffinity 6.99683332
REMARK  4 active torsions:
REMARK  status: ('A' for Active; 'I' for Inactive)
REMARK    1  A    between atoms: C4_4  and  C5_5 
REMARK    2  A    between atoms: C5_5  and  C6_6 
REMARK    3  A    between atoms: C6_6  and  C7_7 
REMARK    4  A    between atoms: C7_7  and  C9_9 
ROOT
HETATM    1  C9  UNL     1       2.667  53.473 -10.842  1.00  0.00    -0.002 C 
HETATM    2  C10 UNL     1       1.285  54.196 -10.868  1.00  0.00     0.006 C 
HETATM    3  C11 UNL     1       1.360  55.379  -9.882  1.00  0.00     0.011 C 
HETATM    4  C12 UNL     1       2.857  55.528  -9.563  1.00  0.00    -0.032 C 
HETATM    5  C13 UNL     1       3.459  56.334 -10.771  1.00  0.00     0.016 C 
HETATM    6  C14 UNL     1       3.265  56.310  -8.269  1.00  0.00     0.004 C 
HETATM    7  C15 UNL     1       2.151  56.561  -7.253  1.00  0.00     0.007 C 
HETATM    8  C16 UNL     1       2.603  57.397  -6.045  1.00  0.00     0.007 C 
HETATM    9  C17 UNL     1       4.111  57.761  -5.991  1.00  0.00     0.010 C 
HETATM   10  C18 UNL     1       4.540  58.360  -4.610  1.00  0.00     0.018 C 
HETATM   11  C19 UNL     1       3.802  59.689  -4.350  1.00  0.00     0.023 C 
HETATM   12  C20 UNL     1       4.275  57.425  -3.417  1.00  0.00     0.023 C 
HETATM   13  C21 UNL     1       6.051  58.636  -4.659  1.00  0.00     0.135 C 
HETATM   14  O1  UNL     1       6.542  59.721  -4.350  1.00  0.00    -0.297 OA
HETATM   15  C22 UNL     1       6.939  57.483  -5.057  1.00  0.00     0.080 C 
HETATM   16  C23 UNL     1       6.507  56.962  -6.413  1.00  0.00     0.018 C 
HETATM   17  C24 UNL     1       5.033  56.605  -6.438  1.00  0.00    -0.026 A 
HETATM   18  C25 UNL     1       4.597  55.190  -6.175  1.00  0.00     0.021 A 
HETATM   19  C26 UNL     1       4.532  55.730  -7.603  1.00  0.00    -0.027 A 
HETATM   20  C27 UNL     1       5.495  55.074  -8.583  1.00  0.00     0.011 C 
HETATM   21  C28 UNL     1       4.851  53.963  -9.441  1.00  0.00     0.011 C 
HETATM   22  C29 UNL     1       3.310  54.021  -9.523  1.00  0.00    -0.032 C 
HETATM   23  C30 UNL     1       2.717  53.219  -8.328  1.00  0.00     0.016 C 
ENDROOT
BRANCH   1  24
HETATM   24  C7  UNL     1       2.535  51.937 -11.080  1.00  0.00    -0.014 C 
HETATM   25  C8  UNL     1       3.894  51.230 -11.022  1.00  0.00     0.010 C 
BRANCH  24  26
HETATM   26  C6  UNL     1       1.847  51.670 -12.450  1.00  0.00     0.008 C 
BRANCH  26  27
HETATM   27  C5  UNL     1       2.821  51.414 -13.609  1.00  0.00     0.028 C 
BRANCH  27  28
HETATM   28  C4  UNL     1       2.208  51.828 -14.920  1.00  0.00    -0.025 C 
HETATM   29  C2  UNL     1       2.831  52.248 -16.040  1.00  0.00    -0.091 C 
HETATM   30  C1  UNL     1       2.036  52.608 -17.268  1.00  0.00     0.042 C 
HETATM   31  C3  UNL     1       4.318  52.402 -16.207  1.00  0.00     0.042 C 
ENDBRANCH  27  28
ENDBRANCH  26  27
ENDBRANCH  24  26
ENDBRANCH   1  24
TORSDOF 4
ENDMDL
MODEL 2
REMARK minimizedAffinity -7.25070763
REMARK CNNscore 0.701914132
REMARK CNNaffinity 6.97681475
REMARK  4 active torsions:
REMARK  status: ('A' for Active; 'I' for Inactive)
REMARK    1  A    between atoms: C4_4  and  C5_5 
REMARK    2  A    between atoms: C5_5  and  C6_6 
REMARK    3  A    between atoms: C6_6  and  C7_7 
REMARK    4  A    between atoms: C7_7  and  C9_9 
ROOT
HETATM    1  C9  UNL     1      -2.087  52.237 -10.107  1.00  0.00    -0.002 C 
HETATM    2  C10 UNL     1      -1.428  50.823 -10.100  1.00  0.00     0.006 C 
HETATM    3  C11 UNL     1       0.036  50.993  -9.647  1.00  0.00     0.011 C 
HETATM    4  C12 UNL     1       0.107  52.422  -9.083  1.00  0.00    -0.032 C 
HETATM    5  C13 UNL     1      -0.464  52.317  -7.622  1.00  0.00     0.016 C 
HETATM    6  C14 UNL     1       1.512  53.100  -8.955  1.00  0.00     0.004 C 
HETATM    7  C15 UNL     1       2.655  52.430  -9.716  1.00  0.00     0.007 C 
HETATM    8  C16 UNL     1       4.019  53.103  -9.486  1.00  0.00     0.007 C 
HETATM    9  C17 UNL     1       4.009  54.391  -8.620  1.00  0.00     0.010 C 
HETATM   10  C18 UNL     1       5.369  55.163  -8.668  1.00  0.00     0.018 C 
HETATM   11  C19 UNL     1       6.498  54.296  -8.074  1.00  0.00     0.023 C 
HETATM   12  C20 UNL     1       5.791  55.593 -10.084  1.00  0.00     0.023 C 
HETATM   13  C21 UNL     1       5.225  56.435  -7.818  1.00  0.00     0.135 C 
HETATM   14  O1  UNL     1       6.027  56.744  -6.936  1.00  0.00    -0.297 OA
HETATM   15  C22 UNL     1       4.066  57.344  -8.146  1.00  0.00     0.080 C 
HETATM   16  C23 UNL     1       2.773  56.561  -8.053  1.00  0.00     0.018 C 
HETATM   17  C24 UNL     1       2.804  55.312  -8.914  1.00  0.00    -0.026 A 
HETATM   18  C25 UNL     1       2.242  55.346 -10.308  1.00  0.00     0.021 A 
HETATM   19  C26 UNL     1       1.460  54.622  -9.214  1.00  0.00    -0.027 A 
HETATM   20  C27 UNL     1       0.129  55.262  -8.844  1.00  0.00     0.011 C 
HETATM   21  C28 UNL     1      -1.090  54.614  -9.535  1.00  0.00     0.011 C 
HETATM   22  C29 UNL     1      -0.843  53.189 -10.076  1.00  0.00    -0.032 C 
HETATM   23  C30 UNL     1      -0.282  53.295 -11.525  1.00  0.00     0.016 C 
ENDROOT
BRANCH   1  24
HETATM   24  C7  UNL     1      -3.167  52.380 -11.224  1.00  0.00    -0.014 C 
HETATM   25  C8  UNL     1      -4.190  53.473 -10.894  1.00  0.00     0.010 C 
BRANCH  24  26
HETATM   26  C6  UNL     1      -3.887  51.018 -11.444  1.00  0.00     0.008 C 
BRANCH  26  27
HETATM   27  C5  UNL     1      -4.910  50.660 -10.358  1.00  0.00     0.028 C 
BRANCH  27  28
HETATM   28  C4  UNL     1      -5.632  49.385 -10.707  1.00  0.00    -0.025 C 
HETATM   29  C2  UNL     1      -6.924  49.069 -10.490  1.00  0.00    -0.091 C 
HETATM   30  C1  UNL     1      -7.468  47.734 -10.929  1.00  0.00     0.042 C 
HETATM   31  C3  UNL     1      -7.941  49.955  -9.824  1.00  0.00     0.042 C 
ENDBRANCH  27  28
ENDBRANCH  26  27
ENDBRANCH  24  26
ENDBRANCH   1  24
TORSDOF 4
ENDMDL
MODEL 3
REMARK minimizedAffinity -8.00367641
REMARK CNNscore 0.635082901
REMARK CNNaffinity 6.72330618
REMARK  4 active torsions:
REMARK  status: ('A' for Active; 'I' for Inactive)
REMARK    1  A    between atoms: C4_4  and  C5_5 
REMARK    2  A    between atoms: C5_5  and  C6_6 
REMARK    3  A    between atoms: C6_6  and  C7_7 
REMARK    4  A    between atoms: C7_7  and  C9_9 
ROOT
HETATM    1  C9  UNL     1       4.816  55.968  -8.532  1.00  0.00    -0.002 C 
HETATM    2  C10 UNL     1       5.650  55.175  -9.586  1.00  0.00     0.006 C 
HETATM    3  C11 UNL     1       4.657  54.454 -10.519  1.00  0.00     0.011 C 
HETATM    4  C12 UNL     1       3.294  55.099 -10.212  1.00  0.00    -0.032 C 
HETATM    5  C13 UNL     1       3.280  56.442 -11.028  1.00  0.00     0.016 C 
HETATM    6  C14 UNL     1       1.997  54.324 -10.624  1.00  0.00     0.004 C 
HETATM    7  C15 UNL     1       2.179  52.848 -10.979  1.00  0.00     0.007 C 
HETATM    8  C16 UNL     1       0.880  52.169 -11.446  1.00  0.00     0.007 C 
HETATM    9  C17 UNL     1      -0.405  53.036 -11.387  1.00  0.00     0.010 C 
HETATM   10  C18 UNL     1      -1.710  52.201 -11.604  1.00  0.00     0.018 C 
HETATM   11  C19 UNL     1      -1.718  51.577 -13.015  1.00  0.00     0.023 C 
HETATM   12  C20 UNL     1      -1.901  51.068 -10.580  1.00  0.00     0.023 C 
HETATM   13  C21 UNL     1      -2.911  53.150 -11.478  1.00  0.00     0.135 C 
HETATM   14  O1  UNL     1      -3.801  53.219 -12.326  1.00  0.00    -0.297 OA
HETATM   15  C22 UNL     1      -2.993  53.978 -10.219  1.00  0.00     0.080 C 
HETATM   16  C23 UNL     1      -1.725  54.793 -10.072  1.00  0.00     0.018 C 
HETATM   17  C24 UNL     1      -0.483  53.923 -10.124  1.00  0.00    -0.026 A 
HETATM   18  C25 UNL     1       0.139  53.424  -8.850  1.00  0.00     0.021 A 
HETATM   19  C26 UNL     1       0.838  54.539  -9.626  1.00  0.00    -0.027 A 
HETATM   20  C27 UNL     1       0.879  55.886  -8.920  1.00  0.00     0.011 C 
HETATM   21  C28 UNL     1       2.207  56.165  -8.182  1.00  0.00     0.011 C 
HETATM   22  C29 UNL     1       3.401  55.309  -8.656  1.00  0.00    -0.032 C 
HETATM   23  C30 UNL     1       3.415  53.980  -7.843  1.00  0.00     0.016 C 
ENDROOT
BRANCH   1  24
HETATM   24  C7  UNL     1       5.535  56.049  -7.149  1.00  0.00    -0.014 C 
HETATM   25  C8  UNL     1       5.447  57.453  -6.541  1.00  0.00     0.010 C 
BRANCH  24  26
HETATM   26  C6  UNL     1       7.022  55.618  -7.299  1.00  0.00     0.008 C 
BRANCH  26  27
HETATM   27  C5  UNL     1       7.760  55.415  -5.968  1.00  0.00     0.028 C 
BRANCH  27  28
HETATM   28  C4  UNL     1       8.447  56.686  -5.542  1.00  0.00    -0.025 C 
HETATM   29  C2  UNL     1       9.737  56.862  -5.192  1.00  0.00    -0.091 C 
HETATM   30  C1  UNL     1      10.244  58.227  -4.805  1.00  0.00     0.042 C 
HETATM   31  C3  UNL     1      10.786  55.785  -5.146  1.00  0.00     0.042 C 
ENDBRANCH  27  28
ENDBRANCH  26  27
ENDBRANCH  24  26
ENDBRANCH   1  24
TORSDOF 4
ENDMDL
MODEL 4
REMARK minimizedAffinity -7.17964411
REMARK CNNscore 0.612968147
REMARK CNNaffinity 6.71353292
REMARK  4 active torsions:
REMARK  status: ('A' for Active; 'I' for Inactive)
REMARK    1  A    between atoms: C4_4  and  C5_5 
REMARK    2  A    between atoms: C5_5  and  C6_6 
REMARK    3  A    between atoms: C6_6  and  C7_7 
REMARK    4  A    between atoms: C7_7  and  C9_9 
ROOT
HETATM    1  C9  UNL     1       4.586  54.815  -8.412  1.00  0.00    -0.002 C 
HETATM    2  C10 UNL     1       4.069  56.287  -8.387  1.00  0.00     0.006 C 
HETATM    3  C11 UNL     1       2.545  56.251  -8.615  1.00  0.00     0.011 C 
HETATM    4  C12 UNL     1       2.158  54.773  -8.432  1.00  0.00    -0.032 C 
HETATM    5  C13 UNL     1       2.056  54.562  -6.878  1.00  0.00     0.016 C 
HETATM    6  C14 UNL     1       0.796  54.284  -9.029  1.00  0.00     0.004 C 
HETATM    7  C15 UNL     1       0.127  55.219 -10.036  1.00  0.00     0.007 C 
HETATM    8  C16 UNL     1      -1.241  54.713 -10.524  1.00  0.00     0.007 C 
HETATM    9  C17 UNL     1      -1.675  53.314 -10.012  1.00  0.00     0.010 C 
HETATM   10  C18 UNL     1      -2.927  52.755 -10.766  1.00  0.00     0.018 C 
HETATM   11  C19 UNL     1      -4.149  53.663 -10.521  1.00  0.00     0.023 C 
HETATM   12  C20 UNL     1      -2.729  52.620 -12.286  1.00  0.00     0.023 C 
HETATM   13  C21 UNL     1      -3.233  51.356 -10.210  1.00  0.00     0.135 C 
HETATM   14  O1  UNL     1      -4.351  51.023  -9.815  1.00  0.00    -0.297 OA
HETATM   15  C22 UNL     1      -2.100  50.359 -10.215  1.00  0.00     0.080 C 
HETATM   16  C23 UNL     1      -0.927  50.931  -9.445  1.00  0.00     0.018 C 
HETATM   17  C24 UNL     1      -0.515  52.294  -9.970  1.00  0.00    -0.026 A 
HETATM   18  C25 UNL     1       0.584  52.407 -10.989  1.00  0.00     0.021 A 
HETATM   19  C26 UNL     1       0.866  52.831  -9.549  1.00  0.00    -0.027 A 
HETATM   20  C27 UNL     1       1.872  51.962  -8.807  1.00  0.00     0.011 C 
HETATM   21  C28 UNL     1       3.304  52.538  -8.794  1.00  0.00     0.011 C 
HETATM   22  C29 UNL     1       3.395  54.052  -9.085  1.00  0.00    -0.032 C 
HETATM   23  C30 UNL     1       3.499  54.258 -10.625  1.00  0.00     0.016 C 
ENDROOT
BRANCH   1  24
HETATM   24  C7  UNL     1       6.028  54.705  -8.996  1.00  0.00    -0.014 C 
HETATM   25  C8  UNL     1       6.525  53.255  -9.023  1.00  0.00     0.010 C 
BRANCH  24  26
HETATM   26  C6  UNL     1       7.004  55.592  -8.170  1.00  0.00     0.008 C 
BRANCH  26  27
HETATM   27  C5  UNL     1       7.039  55.269  -6.670  1.00  0.00     0.028 C 
BRANCH  27  28
HETATM   28  C4  UNL     1       8.192  55.969  -6.001  1.00  0.00    -0.025 C 
HETATM   29  C2  UNL     1       8.203  57.173  -5.396  1.00  0.00    -0.091 C 
HETATM   30  C1  UNL     1       9.466  57.701  -4.766  1.00  0.00     0.042 C 
HETATM   31  C3  UNL     1       7.024  58.099  -5.270  1.00  0.00     0.042 C 
ENDBRANCH  27  28
ENDBRANCH  26  27
ENDBRANCH  24  26
ENDBRANCH   1  24
TORSDOF 4
ENDMDL
MODEL 5
REMARK minimizedAffinity -7.06175089
REMARK CNNscore 0.592952847
REMARK CNNaffinity 6.86172152
REMARK  4 active torsions:
REMARK  status: ('A' for Active; 'I' for Inactive)
REMARK    1  A    between atoms: C4_4  and  C5_5 
REMARK    2  A    between atoms: C5_5  and  C6_6 
REMARK    3  A    between atoms: C6_6  and  C7_7 
REMARK    4  A    between atoms: C7_7  and  C9_9 
ROOT
HETATM    1  C9  UNL     1      -1.909  52.895 -10.060  1.00  0.00    -0.002 C 
HETATM    2  C10 UNL     1      -1.409  51.418 -10.003  1.00  0.00     0.006 C 
HETATM    3  C11 UNL     1       0.034  51.435  -9.460  1.00  0.00     0.011 C 
HETATM    4  C12 UNL     1       0.224  52.855  -8.900  1.00  0.00    -0.032 C 
HETATM    5  C13 UNL     1      -0.445  52.831  -7.478  1.00  0.00     0.016 C 
HETATM    6  C14 UNL     1       1.683  53.380  -8.688  1.00  0.00     0.004 C 
HETATM    7  C15 UNL     1       2.793  52.580  -9.373  1.00  0.00     0.007 C 
HETATM    8  C16 UNL     1       4.204  53.105  -9.061  1.00  0.00     0.007 C 
HETATM    9  C17 UNL     1       4.280  54.397  -8.205  1.00  0.00     0.010 C 
HETATM   10  C18 UNL     1       5.717  55.018  -8.172  1.00  0.00     0.018 C 
HETATM   11  C19 UNL     1       6.706  54.041  -7.504  1.00  0.00     0.023 C 
HETATM   12  C20 UNL     1       6.270  55.382  -9.561  1.00  0.00     0.023 C 
HETATM   13  C21 UNL     1       5.659  56.308  -7.340  1.00  0.00     0.135 C 
HETATM   14  O1  UNL     1       6.434  56.540  -6.412  1.00  0.00    -0.297 OA
HETATM   15  C22 UNL     1       4.629  57.333  -7.746  1.00  0.00     0.080 C 
HETATM   16  C23 UNL     1       3.255  56.695  -7.729  1.00  0.00     0.018 C 
HETATM   17  C24 UNL     1       3.203  55.440  -8.580  1.00  0.00    -0.026 A 
HETATM   18  C25 UNL     1       2.736  55.517 -10.007  1.00  0.00     0.021 A 
HETATM   19  C26 UNL     1       1.813  54.894  -8.960  1.00  0.00    -0.027 A 
HETATM   20  C27 UNL     1       0.539  55.679  -8.677  1.00  0.00     0.011 C 
HETATM   21  C28 UNL     1      -0.697  55.158  -9.440  1.00  0.00     0.011 C 
HETATM   22  C29 UNL     1      -0.574  53.707  -9.956  1.00  0.00    -0.032 C 
HETATM   23  C30 UNL     1       0.084  53.735 -11.367  1.00  0.00     0.016 C 
ENDROOT
BRANCH   1  24
HETATM   24  C7  UNL     1      -2.896  53.140 -11.243  1.00  0.00    -0.014 C 
HETATM   25  C8  UNL     1      -4.233  53.718 -10.763  1.00  0.00     0.010 C 
BRANCH  24  26
HETATM   26  C6  UNL     1      -3.132  51.813 -12.021  1.00  0.00     0.008 C 
BRANCH  26  27
HETATM   27  C5  UNL     1      -3.068  51.953 -13.548  1.00  0.00     0.028 C 
BRANCH  27  28
HETATM   28  C4  UNL     1      -1.886  51.205 -14.102  1.00  0.00    -0.025 C 
HETATM   29  C2  UNL     1      -1.727  50.688 -15.337  1.00  0.00    -0.091 C 
HETATM   30  C1  UNL     1      -0.451  49.978 -15.710  1.00  0.00     0.042 C 
HETATM   31  C3  UNL     1      -2.740  50.749 -16.447  1.00  0.00     0.042 C 
ENDBRANCH  27  28
ENDBRANCH  26  27
ENDBRANCH  24  26
ENDBRANCH   1  24
TORSDOF 4
ENDMDL
MODEL 6
REMARK minimizedAffinity -7.89224148
REMARK CNNscore 0.572285712
REMARK CNNaffinity 5.96543741
REMARK  4 active torsions:
REMARK  status: ('A' for Active; 'I' for Inactive)
REMARK    1  A    between atoms: C4_4  and  C5_5 
REMARK    2  A    between atoms: C5_5  and  C6_6 
REMARK    3  A    between atoms: C6_6  and  C7_7 
REMARK    4  A    between atoms: C7_7  and  C9_9 
ROOT
HETATM    1  C9  UNL     1     -10.112  46.187 -28.104  1.00  0.00    -0.002 C 
HETATM    2  C10 UNL     1     -10.490  45.627 -29.510  1.00  0.00     0.006 C 
HETATM    3  C11 UNL     1     -12.023  45.472 -29.554  1.00  0.00     0.011 C 
HETATM    4  C12 UNL     1     -12.530  46.248 -28.326  1.00  0.00    -0.032 C 
HETATM    5  C13 UNL     1     -12.544  47.756 -28.768  1.00  0.00     0.016 C 
HETATM    6  C14 UNL     1     -13.968  45.936 -27.792  1.00  0.00     0.004 C 
HETATM    7  C15 UNL     1     -14.616  44.653 -28.313  1.00  0.00     0.007 C 
HETATM    8  C16 UNL     1     -16.054  44.447 -27.808  1.00  0.00     0.007 C 
HETATM    9  C17 UNL     1     -16.578  45.494 -26.789  1.00  0.00     0.010 C 
HETATM   10  C18 UNL     1     -17.924  45.064 -26.117  1.00  0.00     0.018 C 
HETATM   11  C19 UNL     1     -19.039  44.950 -27.176  1.00  0.00     0.023 C 
HETATM   12  C20 UNL     1     -17.843  43.724 -25.363  1.00  0.00     0.023 C 
HETATM   13  C21 UNL     1     -18.317  46.147 -25.101  1.00  0.00     0.135 C 
HETATM   14  O1  UNL     1     -19.431  46.671 -25.081  1.00  0.00    -0.297 OA
HETATM   15  C22 UNL     1     -17.282  46.518 -24.068  1.00  0.00     0.080 C 
HETATM   16  C23 UNL     1     -16.012  46.959 -24.766  1.00  0.00     0.018 C 
HETATM   17  C24 UNL     1     -15.515  45.916 -25.750  1.00  0.00    -0.026 A 
HETATM   18  C25 UNL     1     -14.482  44.912 -25.323  1.00  0.00     0.021 A 
HETATM   19  C26 UNL     1     -14.066  46.048 -26.255  1.00  0.00    -0.027 A 
HETATM   20  C27 UNL     1     -13.094  47.053 -25.651  1.00  0.00     0.011 C 
HETATM   21  C28 UNL     1     -11.618  46.795 -26.021  1.00  0.00     0.011 C 
HETATM   22  C29 UNL     1     -11.411  45.912 -27.271  1.00  0.00    -0.032 C 
HETATM   23  C30 UNL     1     -11.393  44.419 -26.830  1.00  0.00     0.016 C 
ENDROOT
BRANCH   1  24
HETATM   24  C7  UNL     1      -8.728  45.662 -27.610  1.00  0.00    -0.014 C 
HETATM   25  C8  UNL     1      -8.674  45.542 -26.083  1.00  0.00     0.010 C 
BRANCH  24  26
HETATM   26  C6  UNL     1      -7.594  46.599 -28.117  1.00  0.00     0.008 C 
BRANCH  26  27
HETATM   27  C5  UNL     1      -6.953  47.466 -27.025  1.00  0.00     0.028 C 
BRANCH  27  28
HETATM   28  C4  UNL     1      -5.552  47.858 -27.411  1.00  0.00    -0.025 C 
HETATM   29  C2  UNL     1      -4.563  48.317 -26.618  1.00  0.00    -0.091 C 
HETATM   30  C1  UNL     1      -3.210  48.644 -27.195  1.00  0.00     0.042 C 
HETATM   31  C3  UNL     1      -4.667  48.547 -25.135  1.00  0.00     0.042 C 
ENDBRANCH  27  28
ENDBRANCH  26  27
ENDBRANCH  24  26
ENDBRANCH   1  24
TORSDOF 4
ENDMDL
MODEL 7
REMARK minimizedAffinity -6.85321426
REMARK CNNscore 0.524522245
REMARK CNNaffinity 6.48662138
REMARK  4 active torsions:
REMARK  status: ('A' for Active; 'I' for Inactive)
REMARK    1  A    between atoms: C4_4  and  C5_5 
REMARK    2  A    between atoms: C5_5  and  C6_6 
REMARK    3  A    between atoms: C6_6  and  C7_7 
REMARK    4  A    between atoms: C7_7  and  C9_9 
ROOT
HETATM    1  C9  UNL     1      -1.062  53.133 -11.486  1.00  0.00    -0.002 C 
HETATM    2  C10 UNL     1      -0.234  52.328 -12.536  1.00  0.00     0.006 C 
HETATM    3  C11 UNL     1      -1.046  51.071 -12.904  1.00  0.00     0.011 C 
HETATM    4  C12 UNL     1      -2.451  51.332 -12.335  1.00  0.00    -0.032 C 
HETATM    5  C13 UNL     1      -3.161  52.253 -13.392  1.00  0.00     0.016 C 
HETATM    6  C14 UNL     1      -3.402  50.108 -12.114  1.00  0.00     0.004 C 
HETATM    7  C15 UNL     1      -2.744  48.728 -12.154  1.00  0.00     0.007 C 
HETATM    8  C16 UNL     1      -3.745  47.570 -12.006  1.00  0.00     0.007 C 
HETATM    9  C17 UNL     1      -5.220  47.971 -11.741  1.00  0.00     0.010 C 
HETATM   10  C18 UNL     1      -6.112  46.754 -11.325  1.00  0.00     0.018 C 
HETATM   11  C19 UNL     1      -6.182  45.725 -12.471  1.00  0.00     0.023 C 
HETATM   12  C20 UNL     1      -5.623  46.028 -10.059  1.00  0.00     0.023 C 
HETATM   13  C21 UNL     1      -7.530  47.276 -11.045  1.00  0.00     0.135 C 
HETATM   14  O1  UNL     1      -8.536  46.783 -11.553  1.00  0.00    -0.297 OA
HETATM   15  C22 UNL     1      -7.653  48.410 -10.056  1.00  0.00     0.080 C 
HETATM   16  C23 UNL     1      -6.800  49.573 -10.520  1.00  0.00     0.018 C 
HETATM   17  C24 UNL     1      -5.361  49.159 -10.764  1.00  0.00    -0.026 A 
HETATM   18  C25 UNL     1      -4.336  49.329  -9.678  1.00  0.00     0.021 A 
HETATM   19  C26 UNL     1      -4.308  50.278 -10.876  1.00  0.00    -0.027 A 
HETATM   20  C27 UNL     1      -4.642  51.728 -10.555  1.00  0.00     0.011 C 
HETATM   21  C28 UNL     1      -3.401  52.628 -10.371  1.00  0.00     0.011 C 
HETATM   22  C29 UNL     1      -2.101  52.071 -10.990  1.00  0.00    -0.032 C 
HETATM   23  C30 UNL     1      -1.398  51.163  -9.939  1.00  0.00     0.016 C 
ENDROOT
BRANCH   1  24
HETATM   24  C7  UNL     1      -0.151  53.886 -10.467  1.00  0.00    -0.014 C 
HETATM   25  C8  UNL     1      -0.737  55.246 -10.072  1.00  0.00     0.010 C 
BRANCH  24  26
HETATM   26  C6  UNL     1       1.275  54.067 -11.063  1.00  0.00     0.008 C 
BRANCH  26  27
HETATM   27  C5  UNL     1       2.027  55.300 -10.544  1.00  0.00     0.028 C 
BRANCH  27  28
HETATM   28  C4  UNL     1       3.509  55.039 -10.497  1.00  0.00    -0.025 C 
HETATM   29  C2  UNL     1       4.419  55.537  -9.636  1.00  0.00    -0.091 C 
HETATM   30  C1  UNL     1       5.869  55.141  -9.743  1.00  0.00     0.042 C 
HETATM   31  C3  UNL     1       4.128  56.496  -8.514  1.00  0.00     0.042 C 
ENDBRANCH  27  28
ENDBRANCH  26  27
ENDBRANCH  24  26
ENDBRANCH   1  24
TORSDOF 4
ENDMDL
MODEL 8
REMARK minimizedAffinity -7.16654921
REMARK CNNscore 0.516289711
REMARK CNNaffinity 5.84005737
REMARK  4 active torsions:
REMARK  status: ('A' for Active; 'I' for Inactive)
REMARK    1  A    between atoms: C4_4  and  C5_5 
REMARK    2  A    between atoms: C5_5  and  C6_6 
REMARK    3  A    between atoms: C6_6  and  C7_7 
REMARK    4  A    between atoms: C7_7  and  C9_9 
ROOT
HETATM    1  C9  UNL     1      -9.525  46.940 -28.676  1.00  0.00    -0.002 C 
HETATM    2  C10 UNL     1      -9.861  46.382 -30.094  1.00  0.00     0.006 C 
HETATM    3  C11 UNL     1     -11.363  46.035 -30.115  1.00  0.00     0.011 C 
HETATM    4  C12 UNL     1     -11.935  46.699 -28.852  1.00  0.00    -0.032 C 
HETATM    5  C13 UNL     1     -12.150  48.207 -29.240  1.00  0.00     0.016 C 
HETATM    6  C14 UNL     1     -13.310  46.189 -28.303  1.00  0.00     0.004 C 
HETATM    7  C15 UNL     1     -13.802  44.852 -28.857  1.00  0.00     0.007 C 
HETATM    8  C16 UNL     1     -15.190  44.448 -28.334  1.00  0.00     0.007 C 
HETATM    9  C17 UNL     1     -15.819  45.386 -27.269  1.00  0.00     0.010 C 
HETATM   10  C18 UNL     1     -17.084  44.766 -26.588  1.00  0.00     0.018 C 
HETATM   11  C19 UNL     1     -18.200  44.546 -27.630  1.00  0.00     0.023 C 
HETATM   12  C20 UNL     1     -16.817  43.423 -25.884  1.00  0.00     0.023 C 
HETATM   13  C21 UNL     1     -17.589  45.756 -25.527  1.00  0.00     0.135 C 
HETATM   14  O1  UNL     1     -18.759  46.133 -25.468  1.00  0.00    -0.297 OA
HETATM   15  C22 UNL     1     -16.585  46.221 -24.500  1.00  0.00     0.080 C 
HETATM   16  C23 UNL     1     -15.398  46.843 -25.206  1.00  0.00     0.018 C 
HETATM   17  C24 UNL     1     -14.795  45.905 -26.235  1.00  0.00    -0.026 A 
HETATM   18  C25 UNL     1     -13.634  45.027 -25.863  1.00  0.00     0.021 A 
HETATM   19  C26 UNL     1     -13.386  46.238 -26.761  1.00  0.00    -0.027 A 
HETATM   20  C27 UNL     1     -12.537  47.337 -26.140  1.00  0.00     0.011 C 
HETATM   21  C28 UNL     1     -11.048  47.282 -26.546  1.00  0.00     0.011 C 
HETATM   22  C29 UNL     1     -10.759  46.474 -27.830  1.00  0.00    -0.032 C 
HETATM   23  C30 UNL     1     -10.542  44.982 -27.442  1.00  0.00     0.016 C 
ENDROOT
BRANCH   1  24
HETATM   24  C7  UNL     1      -8.075  46.579 -28.227  1.00  0.00    -0.014 C 
HETATM   25  C8  UNL     1      -7.764  47.107 -26.822  1.00  0.00     0.010 C 
BRANCH  24  26
HETATM   26  C6  UNL     1      -7.048  47.139 -29.252  1.00  0.00     0.008 C 
BRANCH  26  27
HETATM   27  C5  UNL     1      -6.407  46.075 -30.153  1.00  0.00     0.028 C 
BRANCH  27  28
HETATM   28  C4  UNL     1      -5.569  46.720 -31.225  1.00  0.00    -0.025 C 
HETATM   29  C2  UNL     1      -4.848  46.123 -32.196  1.00  0.00    -0.091 C 
HETATM   30  C1  UNL     1      -4.079  46.949 -33.194  1.00  0.00     0.042 C 
HETATM   31  C3  UNL     1      -4.723  44.639 -32.405  1.00  0.00     0.042 C 
ENDBRANCH  27  28
ENDBRANCH  26  27
ENDBRANCH  24  26
ENDBRANCH   1  24
TORSDOF 4
ENDMDL
MODEL 9
REMARK minimizedAffinity -7.05358791
REMARK CNNscore 0.49333179
REMARK CNNaffinity 6.52897596
REMARK  4 active torsions:
REMARK  status: ('A' for Active; 'I' for Inactive)
REMARK    1  A    between atoms: C4_4  and  C5_5 
REMARK    2  A    between atoms: C5_5  and  C6_6 
REMARK    3  A    between atoms: C6_6  and  C7_7 
REMARK    4  A    between atoms: C7_7  and  C9_9 
ROOT
HETATM    1  C9  UNL     1      -2.458  52.011 -10.251  1.00  0.00    -0.002 C 
HETATM    2  C10 UNL     1      -3.127  53.383 -10.573  1.00  0.00     0.006 C 
HETATM    3  C11 UNL     1      -2.093  54.487 -10.276  1.00  0.00     0.011 C 
HETATM    4  C12 UNL     1      -0.758  53.740 -10.118  1.00  0.00    -0.032 C 
HETATM    5  C13 UNL     1      -0.252  53.484 -11.584  1.00  0.00     0.016 C 
HETATM    6  C14 UNL     1       0.413  54.462  -9.371  1.00  0.00     0.004 C 
HETATM    7  C15 UNL     1       0.032  55.702  -8.562  1.00  0.00     0.007 C 
HETATM    8  C16 UNL     1       1.239  56.404  -7.918  1.00  0.00     0.007 C 
HETATM    9  C17 UNL     1       2.613  55.705  -8.096  1.00  0.00     0.010 C 
HETATM   10  C18 UNL     1       3.728  56.319  -7.185  1.00  0.00     0.018 C 
HETATM   11  C19 UNL     1       3.980  57.792  -7.568  1.00  0.00     0.023 C 
HETATM   12  C20 UNL     1       3.403  56.266  -5.682  1.00  0.00     0.023 C 
HETATM   13  C21 UNL     1       5.021  55.522  -7.412  1.00  0.00     0.135 C 
HETATM   14  O1  UNL     1       6.098  56.057  -7.677  1.00  0.00    -0.297 OA
HETATM   15  C22 UNL     1       4.936  54.025  -7.240  1.00  0.00     0.080 C 
HETATM   16  C23 UNL     1       3.870  53.475  -8.165  1.00  0.00     0.018 C 
HETATM   17  C24 UNL     1       2.534  54.168  -7.966  1.00  0.00    -0.026 A 
HETATM   18  C25 UNL     1       1.508  53.571  -7.044  1.00  0.00     0.021 A 
HETATM   19  C26 UNL     1       1.284  53.485  -8.553  1.00  0.00    -0.027 A 
HETATM   20  C27 UNL     1       1.336  52.078  -9.131  1.00  0.00     0.011 C 
HETATM   21  C28 UNL     1      -0.052  51.433  -9.330  1.00  0.00     0.011 C 
HETATM   22  C29 UNL     1      -1.228  52.432  -9.378  1.00  0.00    -0.032 C 
HETATM   23  C30 UNL     1      -1.730  52.680  -7.925  1.00  0.00     0.016 C 
ENDROOT
BRANCH   1  24
HETATM   24  C7  UNL     1      -3.485  50.962  -9.720  1.00  0.00    -0.014 C 
HETATM   25  C8  UNL     1      -2.896  49.547  -9.697  1.00  0.00     0.010 C 
BRANCH  24  26
HETATM   26  C6  UNL     1      -4.774  50.995 -10.590  1.00  0.00     0.008 C 
BRANCH  26  27
HETATM   27  C5  UNL     1      -5.545  49.669 -10.631  1.00  0.00     0.028 C 
BRANCH  27  28
HETATM   28  C4  UNL     1      -6.597  49.631  -9.554  1.00  0.00    -0.025 C 
HETATM   29  C2  UNL     1      -7.930  49.482  -9.691  1.00  0.00    -0.091 C 
HETATM   30  C1  UNL     1      -8.824  49.455  -8.479  1.00  0.00     0.042 C 
HETATM   31  C3  UNL     1      -8.662  49.327 -10.996  1.00  0.00     0.042 C 
ENDBRANCH  27  28
ENDBRANCH  26  27
ENDBRANCH  24  26
ENDBRANCH   1  24
TORSDOF 4
ENDMDL
