MODEL 1
REMARK minimizedAffinity -7.88515854
REMARK CNNscore 0.474507332
REMARK CNNaffinity 5.41396189
REMARK  2 active torsions:
REMARK  status: ('A' for Active; 'I' for Inactive)
REMARK    1  A    between atoms: C13_16  and  C14_17 
REMARK    2  A    between atoms: C14_17  and  O4_19 
ROOT
HETATM    1  C1  UNL     1      16.565  -1.001   5.367  1.00  0.00     0.046 C 
HETATM    2  C2  UNL     1      15.676  -1.991   4.667  1.00  0.00    -0.054 C 
HETATM    3  C3  UNL     1      15.088  -1.704   3.498  1.00  0.00     0.011 C 
HETATM    4  C4  UNL     1      14.138  -2.638   2.792  1.00  0.00     0.159 C 
HETATM    5  O1  UNL     1      14.391  -2.411   1.393  1.00  0.00    -0.372 OA
HETATM    6  C5  UNL     1      15.199  -3.375   0.732  1.00  0.00     0.162 C 
HETATM    7  C6  UNL     1      16.550  -3.624   1.449  1.00  0.00     0.068 C 
HETATM    8  C7  UNL     1      16.351  -4.984   2.133  1.00  0.00     0.147 C 
HETATM    9  O2  UNL     1      17.012  -5.174   3.386  1.00  0.00    -0.312 OA
HETATM   10  C8  UNL     1      17.726  -6.333   3.455  1.00  0.00     0.283 C 
HETATM   11  O3  UNL     1      18.235  -6.924   2.510  1.00  0.00    -0.260 OA
HETATM   12  C9  UNL     1      17.561  -6.999   4.760  1.00  0.00     0.082 C 
HETATM   13  C10 UNL     1      17.669  -6.522   6.006  1.00  0.00     0.006 C 
HETATM   14  C11 UNL     1      18.132  -5.225   6.425  1.00  0.00    -0.001 C 
HETATM   15  C12 UNL     1      17.928  -4.673   7.636  1.00  0.00     0.007 C 
HETATM   16  C13 UNL     1      17.047  -5.112   8.794  1.00  0.00     0.172 C 
HETATM   17  O5  UNL     1      15.995  -5.967   8.333  1.00  0.00    -0.379 OA
HETATM   18  C16 UNL     1      14.690  -5.413   8.529  1.00  0.00     0.173 C 
HETATM   19  C17 UNL     1      13.650  -6.291   7.818  1.00  0.00     0.060 C 
HETATM   20  C18 UNL     1      12.247  -5.703   7.803  1.00  0.00    -0.076 C 
HETATM   21  C19 UNL     1      11.646  -5.435   9.158  1.00  0.00     0.043 C 
HETATM   22  C20 UNL     1      11.533  -5.412   6.691  1.00  0.00     0.084 C 
HETATM   23  C21 UNL     1      11.981  -5.673   5.305  1.00  0.00     0.283 C 
HETATM   24  O6  UNL     1      12.411  -6.744   4.913  1.00  0.00    -0.260 OA
HETATM   25  O7  UNL     1      11.874  -4.526   4.586  1.00  0.00    -0.317 OA
HETATM   26  C22 UNL     1      12.490  -4.556   3.280  1.00  0.00     0.195 C 
HETATM   27  C23 UNL     1      14.037  -4.178   3.263  1.00  0.00     0.053 C 
HETATM   28  C24 UNL     1      14.634  -4.338   4.668  1.00  0.00     0.170 A 
HETATM   29  O8  UNL     1      14.025  -3.537   5.700  1.00  0.00    -0.370 OA
HETATM   30  C25 UNL     1      15.375  -3.226   5.375  1.00  0.00     0.180 A 
HETATM   31  C26 UNL     1      14.792  -5.173   2.223  1.00  0.00     0.034 C 
HETATM   32  C27 UNL     1      14.507  -6.671   2.437  1.00  0.00     0.022 C 
HETATM   33  C28 UNL     1      14.483  -4.676   0.840  1.00  0.00     0.119 A 
HETATM   34  C29 UNL     1      14.138  -5.517  -0.369  1.00  0.00     0.210 A 
HETATM   35  O9  UNL     1      13.145  -4.759   0.353  1.00  0.00    -0.371 OA
ENDROOT
BRANCH  16  36
HETATM   36  C14 UNL     1      17.825  -5.792   9.949  1.00  0.00     0.146 C 
HETATM   37  C15 UNL     1      18.976  -4.967  10.513  1.00  0.00     0.042 C 
BRANCH  36  38
HETATM   38  O4  UNL     1      16.940  -6.162  11.013  1.00  0.00    -0.393 OA
HETATM   39  H19 UNL     1      16.744  -5.355  11.519  1.00  0.00     0.210 HD
ENDBRANCH  36  38
ENDBRANCH  16  36
TORSDOF 2
ENDMDL
MODEL 2
REMARK minimizedAffinity -6.8986063
REMARK CNNscore 0.330498427
REMARK CNNaffinity 5.62029791
REMARK  2 active torsions:
REMARK  status: ('A' for Active; 'I' for Inactive)
REMARK    1  A    between atoms: C13_16  and  C14_17 
REMARK    2  A    between atoms: C14_17  and  O4_19 
ROOT
HETATM    1  C1  UNL     1      18.117  -6.882   5.438  1.00  0.00     0.046 C 
HETATM    2  C2  UNL     1      17.432  -6.814   4.101  1.00  0.00    -0.054 C 
HETATM    3  C3  UNL     1      18.048  -7.197   2.975  1.00  0.00     0.011 C 
HETATM    4  C4  UNL     1      17.427  -7.086   1.606  1.00  0.00     0.159 C 
HETATM    5  O1  UNL     1      17.929  -8.232   0.893  1.00  0.00    -0.372 OA
HETATM    6  C5  UNL     1      17.044  -9.336   0.767  1.00  0.00     0.162 C 
HETATM    7  C6  UNL     1      16.470  -9.807   2.126  1.00  0.00     0.068 C 
HETATM    8  C7  UNL     1      15.027  -9.282   2.111  1.00  0.00     0.147 C 
HETATM    9  O2  UNL     1      14.477  -8.883   3.368  1.00  0.00    -0.312 OA
HETATM   10  C8  UNL     1      13.250  -9.422   3.621  1.00  0.00     0.283 C 
HETATM   11  O3  UNL     1      12.828 -10.488   3.189  1.00  0.00    -0.260 OA
HETATM   12  C9  UNL     1      12.334  -8.435   4.222  1.00  0.00     0.082 C 
HETATM   13  C10 UNL     1      12.499  -7.603   5.257  1.00  0.00     0.006 C 
HETATM   14  C11 UNL     1      13.598  -7.547   6.186  1.00  0.00    -0.001 C 
HETATM   15  C12 UNL     1      13.884  -6.513   7.000  1.00  0.00     0.007 C 
HETATM   16  C13 UNL     1      13.312  -5.106   7.060  1.00  0.00     0.172 C 
HETATM   17  O5  UNL     1      12.724  -4.744   5.806  1.00  0.00    -0.379 OA
HETATM   18  C16 UNL     1      13.382  -3.643   5.170  1.00  0.00     0.173 C 
HETATM   19  C17 UNL     1      12.828  -3.468   3.749  1.00  0.00     0.060 C 
HETATM   20  C18 UNL     1      13.578  -2.443   2.912  1.00  0.00    -0.076 C 
HETATM   21  C19 UNL     1      13.609  -1.047   3.477  1.00  0.00     0.043 C 
HETATM   22  C20 UNL     1      14.202  -2.697   1.739  1.00  0.00     0.084 C 
HETATM   23  C21 UNL     1      14.205  -4.006   1.048  1.00  0.00     0.283 C 
HETATM   24  O6  UNL     1      13.204  -4.661   0.815  1.00  0.00    -0.260 OA
HETATM   25  O7  UNL     1      15.488  -4.355   0.774  1.00  0.00    -0.317 OA
HETATM   26  C22 UNL     1      15.676  -5.710   0.313  1.00  0.00     0.195 C 
HETATM   27  C23 UNL     1      15.846  -6.792   1.470  1.00  0.00     0.053 C 
HETATM   28  C24 UNL     1      15.299  -6.240   2.792  1.00  0.00     0.170 A 
HETATM   29  O8  UNL     1      15.918  -5.028   3.267  1.00  0.00    -0.370 OA
HETATM   30  C25 UNL     1      16.118  -6.190   4.062  1.00  0.00     0.180 A 
HETATM   31  C26 UNL     1      15.023  -8.127   1.043  1.00  0.00     0.034 C 
HETATM   32  C27 UNL     1      13.565  -7.880   0.615  1.00  0.00     0.022 C 
HETATM   33  C28 UNL     1      15.855  -8.844   0.018  1.00  0.00     0.119 A 
HETATM   34  C29 UNL     1      15.359  -9.508  -1.247  1.00  0.00     0.210 A 
HETATM   35  O9  UNL     1      16.055  -8.244  -1.260  1.00  0.00    -0.371 OA
ENDROOT
BRANCH  16  36
HETATM   36  C14 UNL     1      12.295  -4.894   8.210  1.00  0.00     0.146 C 
HETATM   37  C15 UNL     1      11.917  -6.161   8.967  1.00  0.00     0.042 C 
BRANCH  36  38
HETATM   38  O4  UNL     1      12.771  -3.911   9.137  1.00  0.00    -0.393 OA
HETATM   39  H19 UNL     1      13.434  -4.344   9.702  1.00  0.00     0.210 HD
ENDBRANCH  36  38
ENDBRANCH  16  36
TORSDOF 2
ENDMDL
MODEL 3
REMARK minimizedAffinity -7.32222176
REMARK CNNscore 0.182524532
REMARK CNNaffinity 5.45552111
REMARK  2 active torsions:
REMARK  status: ('A' for Active; 'I' for Inactive)
REMARK    1  A    between atoms: C13_16  and  C14_17 
REMARK    2  A    between atoms: C14_17  and  O4_19 
ROOT
HETATM    1  C1  UNL     1      18.483  -7.467   4.798  1.00  0.00     0.046 C 
HETATM    2  C2  UNL     1      17.983  -6.880   6.089  1.00  0.00    -0.054 C 
HETATM    3  C3  UNL     1      18.483  -7.257   7.273  1.00  0.00     0.011 C 
HETATM    4  C4  UNL     1      17.970  -6.745   8.595  1.00  0.00     0.159 C 
HETATM    5  O1  UNL     1      19.141  -6.682   9.430  1.00  0.00    -0.372 OA
HETATM    6  C5  UNL     1      19.720  -5.398   9.612  1.00  0.00     0.162 C 
HETATM    7  C6  UNL     1      20.024  -4.678   8.274  1.00  0.00     0.068 C 
HETATM    8  C7  UNL     1      18.916  -3.620   8.173  1.00  0.00     0.147 C 
HETATM    9  O2  UNL     1      18.445  -3.309   6.860  1.00  0.00    -0.312 OA
HETATM   10  C8  UNL     1      18.407  -1.972   6.597  1.00  0.00     0.283 C 
HETATM   11  O3  UNL     1      19.127  -1.118   7.102  1.00  0.00    -0.260 OA
HETATM   12  C9  UNL     1      17.185  -1.593   5.867  1.00  0.00     0.082 C 
HETATM   13  C10 UNL     1      16.622  -2.115   4.771  1.00  0.00     0.006 C 
HETATM   14  C11 UNL     1      17.152  -3.127   3.895  1.00  0.00    -0.001 C 
HETATM   15  C12 UNL     1      16.440  -3.846   3.006  1.00  0.00     0.007 C 
HETATM   16  C13 UNL     1      14.939  -3.960   2.793  1.00  0.00     0.172 C 
HETATM   17  O5  UNL     1      14.230  -3.590   3.980  1.00  0.00    -0.379 OA
HETATM   18  C16 UNL     1      13.475  -4.668   4.545  1.00  0.00     0.173 C 
HETATM   19  C17 UNL     1      12.929  -4.244   5.916  1.00  0.00     0.060 C 
HETATM   20  C18 UNL     1      12.262  -5.370   6.694  1.00  0.00    -0.076 C 
HETATM   21  C19 UNL     1      11.090  -6.020   6.008  1.00  0.00     0.043 C 
HETATM   22  C20 UNL     1      12.646  -5.810   7.914  1.00  0.00     0.084 C 
HETATM   23  C21 UNL     1      13.743  -5.228   8.718  1.00  0.00     0.283 C 
HETATM   24  O6  UNL     1      13.860  -4.040   8.960  1.00  0.00    -0.260 OA
HETATM   25  O7  UNL     1      14.594  -6.221   9.084  1.00  0.00    -0.317 OA
HETATM   26  C22 UNL     1      15.838  -5.784   9.673  1.00  0.00     0.195 C 
HETATM   27  C23 UNL     1      16.995  -5.460   8.627  1.00  0.00     0.053 C 
HETATM   28  C24 UNL     1      16.395  -5.220   7.236  1.00  0.00     0.170 A 
HETATM   29  O8  UNL     1      15.637  -6.315   6.685  1.00  0.00    -0.370 OA
HETATM   30  C25 UNL     1      16.842  -5.980   6.008  1.00  0.00     0.180 A 
HETATM   31  C26 UNL     1      17.776  -4.127   9.132  1.00  0.00     0.034 C 
HETATM   32  C27 UNL     1      16.868  -2.929   9.465  1.00  0.00     0.022 C 
HETATM   33  C28 UNL     1      18.679  -4.549  10.256  1.00  0.00     0.119 A 
HETATM   34  C29 UNL     1      18.923  -3.805  11.550  1.00  0.00     0.210 A 
HETATM   35  O9  UNL     1      18.104  -4.991  11.483  1.00  0.00    -0.371 OA
ENDROOT
BRANCH  16  36
HETATM   36  C14 UNL     1      14.418  -3.148   1.580  1.00  0.00     0.146 C 
HETATM   37  C15 UNL     1      15.434  -2.190   0.971  1.00  0.00     0.042 C 
BRANCH  36  38
HETATM   38  O4  UNL     1      13.916  -4.020   0.560  1.00  0.00    -0.393 OA
HETATM   39  H19 UNL     1      14.684  -4.380   0.084  1.00  0.00     0.210 HD
ENDBRANCH  36  38
ENDBRANCH  16  36
TORSDOF 2
ENDMDL
MODEL 4
REMARK minimizedAffinity -6.16299295
REMARK CNNscore 0.177096218
REMARK CNNaffinity 4.97080183
REMARK  2 active torsions:
REMARK  status: ('A' for Active; 'I' for Inactive)
REMARK    1  A    between atoms: C13_16  and  C14_17 
REMARK    2  A    between atoms: C14_17  and  O4_19 
ROOT
HETATM    1  C1  UNL     1       1.293  16.547  20.573  1.00  0.00     0.046 C 
HETATM    2  C2  UNL     1       0.960  15.171  20.067  1.00  0.00    -0.054 C 
HETATM    3  C3  UNL     1      -0.301  14.805  19.802  1.00  0.00     0.011 C 
HETATM    4  C4  UNL     1      -0.690  13.418  19.356  1.00  0.00     0.159 C 
HETATM    5  O1  UNL     1      -1.792  13.631  18.455  1.00  0.00    -0.372 OA
HETATM    6  C5  UNL     1      -1.497  13.562  17.067  1.00  0.00     0.162 C 
HETATM    7  C6  UNL     1      -0.328  14.489  16.652  1.00  0.00     0.068 C 
HETATM    8  C7  UNL     1       0.847  13.521  16.447  1.00  0.00     0.147 C 
HETATM    9  O2  UNL     1       2.147  14.013  16.780  1.00  0.00    -0.312 OA
HETATM   10  C8  UNL     1       3.073  13.811  15.800  1.00  0.00     0.283 C 
HETATM   11  O3  UNL     1       2.845  13.730  14.599  1.00  0.00    -0.260 OA
HETATM   12  C9  UNL     1       4.367  13.373  16.353  1.00  0.00     0.082 C 
HETATM   13  C10 UNL     1       5.109  13.875  17.347  1.00  0.00     0.006 C 
HETATM   14  C11 UNL     1       4.911  15.102  18.074  1.00  0.00    -0.001 C 
HETATM   15  C12 UNL     1       5.474  15.412  19.257  1.00  0.00     0.007 C 
HETATM   16  C13 UNL     1       6.276  14.565  20.230  1.00  0.00     0.172 C 
HETATM   17  O5  UNL     1       5.997  13.174  20.039  1.00  0.00    -0.379 OA
HETATM   18  C16 UNL     1       5.382  12.560  21.177  1.00  0.00     0.173 C 
HETATM   19  C17 UNL     1       4.926  11.140  20.808  1.00  0.00     0.060 C 
HETATM   20  C18 UNL     1       4.097  10.455  21.884  1.00  0.00    -0.076 C 
HETATM   21  C19 UNL     1       4.776  10.295  23.218  1.00  0.00     0.043 C 
HETATM   22  C20 UNL     1       2.832  10.003  21.725  1.00  0.00     0.084 C 
HETATM   23  C21 UNL     1       2.069  10.049  20.458  1.00  0.00     0.283 C 
HETATM   24  O6  UNL     1       2.491   9.648  19.388  1.00  0.00    -0.260 OA
HETATM   25  O7  UNL     1       0.870  10.643  20.689  1.00  0.00    -0.317 OA
HETATM   26  C22 UNL     1       0.107  10.975  19.509  1.00  0.00     0.195 C 
HETATM   27  C23 UNL     1       0.451  12.390  18.865  1.00  0.00     0.053 C 
HETATM   28  C24 UNL     1       1.829  12.865  19.345  1.00  0.00     0.170 A 
HETATM   29  O8  UNL     1       1.976  13.014  20.771  1.00  0.00    -0.370 OA
HETATM   30  C25 UNL     1       2.050  14.209  20.002  1.00  0.00     0.180 A 
HETATM   31  C26 UNL     1       0.454  12.225  17.248  1.00  0.00     0.034 C 
HETATM   32  C27 UNL     1       1.309  11.061  16.716  1.00  0.00     0.022 C 
HETATM   33  C28 UNL     1      -0.982  12.188  16.810  1.00  0.00     0.119 A 
HETATM   34  C29 UNL     1      -1.588  11.275  15.768  1.00  0.00     0.210 A 
HETATM   35  O9  UNL     1      -1.794  11.076  17.182  1.00  0.00    -0.371 OA
ENDROOT
BRANCH  16  36
HETATM   36  C14 UNL     1       7.803  14.819  20.168  1.00  0.00     0.146 C 
HETATM   37  C15 UNL     1       8.663  13.661  20.659  1.00  0.00     0.042 C 
BRANCH  36  38
HETATM   38  O4  UNL     1       8.207  15.181  18.842  1.00  0.00    -0.393 OA
HETATM   39  H19 UNL     1       8.246  14.362  18.318  1.00  0.00     0.210 HD
ENDBRANCH  36  38
ENDBRANCH  16  36
TORSDOF 2
ENDMDL
MODEL 5
REMARK minimizedAffinity -6.80490398
REMARK CNNscore 0.175834894
REMARK CNNaffinity 5.12336493
REMARK  2 active torsions:
REMARK  status: ('A' for Active; 'I' for Inactive)
REMARK    1  A    between atoms: C13_16  and  C14_17 
REMARK    2  A    between atoms: C14_17  and  O4_19 
ROOT
HETATM    1  C1  UNL     1       2.911  16.704  21.675  1.00  0.00     0.046 C 
HETATM    2  C2  UNL     1       2.467  15.627  20.725  1.00  0.00    -0.054 C 
HETATM    3  C3  UNL     1       1.400  15.786  19.931  1.00  0.00     0.011 C 
HETATM    4  C4  UNL     1       0.878  14.712  19.011  1.00  0.00     0.159 C 
HETATM    5  O1  UNL     1       0.384  15.432  17.867  1.00  0.00    -0.372 OA
HETATM    6  C5  UNL     1       1.222  15.449  16.719  1.00  0.00     0.162 C 
HETATM    7  C6  UNL     1       2.660  15.933  17.030  1.00  0.00     0.068 C 
HETATM    8  C7  UNL     1       3.489  14.640  17.008  1.00  0.00     0.147 C 
HETATM    9  O2  UNL     1       4.595  14.573  17.911  1.00  0.00    -0.312 OA
HETATM   10  C8  UNL     1       5.759  14.182  17.320  1.00  0.00     0.283 C 
HETATM   11  O3  UNL     1       6.064  14.354  16.145  1.00  0.00    -0.260 OA
HETATM   12  C9  UNL     1       6.508  13.231  18.162  1.00  0.00     0.082 C 
HETATM   13  C10 UNL     1       6.849  13.288  19.454  1.00  0.00     0.006 C 
HETATM   14  C11 UNL     1       6.701  14.392  20.366  1.00  0.00    -0.001 C 
HETATM   15  C12 UNL     1       6.755  14.311  21.709  1.00  0.00     0.007 C 
HETATM   16  C13 UNL     1       6.786  13.106  22.634  1.00  0.00     0.172 C 
HETATM   17  O5  UNL     1       6.246  11.952  21.980  1.00  0.00    -0.379 OA
HETATM   18  C16 UNL     1       5.055  11.457  22.601  1.00  0.00     0.173 C 
HETATM   19  C17 UNL     1       4.434  10.366  21.716  1.00  0.00     0.060 C 
HETATM   20  C18 UNL     1       3.066   9.892  22.184  1.00  0.00    -0.076 C 
HETATM   21  C19 UNL     1       3.024   9.315  23.574  1.00  0.00     0.043 C 
HETATM   22  C20 UNL     1       1.926   9.958  21.459  1.00  0.00     0.084 C 
HETATM   23  C21 UNL     1       1.835  10.451  20.066  1.00  0.00     0.283 C 
HETATM   24  O6  UNL     1       2.552  10.073  19.157  1.00  0.00    -0.260 OA
HETATM   25  O7  UNL     1       0.871  11.406  20.000  1.00  0.00    -0.317 OA
HETATM   26  C22 UNL     1       0.821  12.149  18.764  1.00  0.00     0.195 C 
HETATM   27  C23 UNL     1       1.787  13.414  18.705  1.00  0.00     0.053 C 
HETATM   28  C24 UNL     1       2.890  13.284  19.763  1.00  0.00     0.170 A 
HETATM   29  O8  UNL     1       2.437  13.173  21.127  1.00  0.00    -0.370 OA
HETATM   30  C25 UNL     1       3.164  14.352  20.799  1.00  0.00     0.180 A 
HETATM   31  C26 UNL     1       2.447  13.481  17.222  1.00  0.00     0.034 C 
HETATM   32  C27 UNL     1       3.091  12.169  16.738  1.00  0.00     0.022 C 
HETATM   33  C28 UNL     1       1.396  14.030  16.300  1.00  0.00     0.119 A 
HETATM   34  C29 UNL     1       1.078  13.552  14.900  1.00  0.00     0.210 A 
HETATM   35  O9  UNL     1       0.232  13.253  16.030  1.00  0.00    -0.371 OA
ENDROOT
BRANCH  16  36
HETATM   36  C14 UNL     1       8.192  12.791  23.203  1.00  0.00     0.146 C 
HETATM   37  C15 UNL     1       9.174  12.214  22.191  1.00  0.00     0.042 C 
BRANCH  36  38
HETATM   38  O4  UNL     1       8.767  13.953  23.814  1.00  0.00    -0.393 OA
HETATM   39  H19 UNL     1       9.101  14.520  23.098  1.00  0.00     0.210 HD
ENDBRANCH  36  38
ENDBRANCH  16  36
TORSDOF 2
ENDMDL
MODEL 6
REMARK minimizedAffinity -6.05442858
REMARK CNNscore 0.166831195
REMARK CNNaffinity 5.24807978
REMARK  2 active torsions:
REMARK  status: ('A' for Active; 'I' for Inactive)
REMARK    1  A    between atoms: C13_16  and  C14_17 
REMARK    2  A    between atoms: C14_17  and  O4_19 
ROOT
HETATM    1  C1  UNL     1      16.951  -3.736   7.661  1.00  0.00     0.046 C 
HETATM    2  C2  UNL     1      16.560  -4.603   6.496  1.00  0.00    -0.054 C 
HETATM    3  C3  UNL     1      16.247  -5.895   6.657  1.00  0.00     0.011 C 
HETATM    4  C4  UNL     1      15.912  -6.819   5.513  1.00  0.00     0.159 C 
HETATM    5  O1  UNL     1      14.922  -7.712   6.056  1.00  0.00    -0.372 OA
HETATM    6  C5  UNL     1      13.571  -7.444   5.709  1.00  0.00     0.162 C 
HETATM    7  C6  UNL     1      13.148  -5.985   6.016  1.00  0.00     0.068 C 
HETATM    8  C7  UNL     1      13.118  -5.319   4.632  1.00  0.00     0.147 C 
HETATM    9  O2  UNL     1      13.489  -3.940   4.577  1.00  0.00    -0.312 OA
HETATM   10  C8  UNL     1      12.598  -3.163   3.898  1.00  0.00     0.283 C 
HETATM   11  O3  UNL     1      11.397  -3.378   3.780  1.00  0.00    -0.260 OA
HETATM   12  C9  UNL     1      13.277  -2.182   3.033  1.00  0.00     0.082 C 
HETATM   13  C10 UNL     1      14.266  -1.320   3.295  1.00  0.00     0.006 C 
HETATM   14  C11 UNL     1      14.855  -1.002   4.570  1.00  0.00    -0.001 C 
HETATM   15  C12 UNL     1      16.038  -0.386   4.755  1.00  0.00     0.007 C 
HETATM   16  C13 UNL     1      17.140  -0.032   3.771  1.00  0.00     0.172 C 
HETATM   17  O5  UNL     1      17.067  -0.864   2.608  1.00  0.00    -0.379 OA
HETATM   18  C16 UNL     1      18.215  -1.703   2.440  1.00  0.00     0.173 C 
HETATM   19  C17 UNL     1      17.955  -2.702   1.304  1.00  0.00     0.060 C 
HETATM   20  C18 UNL     1      19.033  -3.765   1.153  1.00  0.00    -0.076 C 
HETATM   21  C19 UNL     1      20.420  -3.243   0.882  1.00  0.00     0.043 C 
HETATM   22  C20 UNL     1      18.834  -5.100   1.248  1.00  0.00     0.084 C 
HETATM   23  C21 UNL     1      17.520  -5.747   1.458  1.00  0.00     0.283 C 
HETATM   24  O6  UNL     1      16.524  -5.508   0.796  1.00  0.00    -0.260 OA
HETATM   25  O7  UNL     1      17.610  -6.592   2.517  1.00  0.00    -0.317 OA
HETATM   26  C22 UNL     1      16.355  -7.121   2.994  1.00  0.00     0.195 C 
HETATM   27  C23 UNL     1      15.601  -6.202   4.055  1.00  0.00     0.053 C 
HETATM   28  C24 UNL     1      16.125  -4.763   3.971  1.00  0.00     0.170 A 
HETATM   29  O8  UNL     1      17.537  -4.597   4.210  1.00  0.00    -0.370 OA
HETATM   30  C25 UNL     1      16.663  -4.014   5.170  1.00  0.00     0.180 A 
HETATM   31  C26 UNL     1      14.012  -6.235   3.717  1.00  0.00     0.034 C 
HETATM   32  C27 UNL     1      13.654  -5.934   2.250  1.00  0.00     0.022 C 
HETATM   33  C28 UNL     1      13.484  -7.546   4.226  1.00  0.00     0.119 A 
HETATM   34  C29 UNL     1      12.496  -8.456   3.531  1.00  0.00     0.210 A 
HETATM   35  O9  UNL     1      13.906  -8.756   3.601  1.00  0.00    -0.371 OA
ENDROOT
BRANCH  16  36
HETATM   36  C14 UNL     1      17.157   1.462   3.363  1.00  0.00     0.146 C 
HETATM   37  C15 UNL     1      16.915   2.438   4.508  1.00  0.00     0.042 C 
BRANCH  36  38
HETATM   38  O4  UNL     1      18.384   1.798   2.705  1.00  0.00    -0.393 OA
HETATM   39  H19 UNL     1      19.063   1.901   3.393  1.00  0.00     0.210 HD
ENDBRANCH  36  38
ENDBRANCH  16  36
TORSDOF 2
ENDMDL
MODEL 7
REMARK minimizedAffinity -7.46330023
REMARK CNNscore 0.161134213
REMARK CNNaffinity 5.3403163
REMARK  2 active torsions:
REMARK  status: ('A' for Active; 'I' for Inactive)
REMARK    1  A    between atoms: C13_16  and  C14_17 
REMARK    2  A    between atoms: C14_17  and  O4_19 
ROOT
HETATM    1  C1  UNL     1      12.561  -5.784   9.137  1.00  0.00     0.046 C 
HETATM    2  C2  UNL     1      13.908  -5.295   8.684  1.00  0.00    -0.054 C 
HETATM    3  C3  UNL     1      14.654  -4.484   9.446  1.00  0.00     0.011 C 
HETATM    4  C4  UNL     1      15.980  -3.915   9.007  1.00  0.00     0.159 C 
HETATM    5  O1  UNL     1      16.758  -3.854  10.217  1.00  0.00    -0.372 OA
HETATM    6  C5  UNL     1      17.716  -4.887  10.406  1.00  0.00     0.162 C 
HETATM    7  C6  UNL     1      17.107  -6.305  10.276  1.00  0.00     0.068 C 
HETATM    8  C7  UNL     1      17.593  -6.783   8.900  1.00  0.00     0.147 C 
HETATM    9  O2  UNL     1      16.706  -7.631   8.167  1.00  0.00    -0.312 OA
HETATM   10  C8  UNL     1      17.302  -8.761   7.691  1.00  0.00     0.283 C 
HETATM   11  O3  UNL     1      18.266  -9.332   8.189  1.00  0.00    -0.260 OA
HETATM   12  C9  UNL     1      16.871  -9.070   6.316  1.00  0.00     0.082 C 
HETATM   13  C10 UNL     1      15.648  -9.144   5.778  1.00  0.00     0.006 C 
HETATM   14  C11 UNL     1      14.376  -9.085   6.449  1.00  0.00    -0.001 C 
HETATM   15  C12 UNL     1      13.189  -8.843   5.859  1.00  0.00     0.007 C 
HETATM   16  C13 UNL     1      12.853  -8.392   4.448  1.00  0.00     0.172 C 
HETATM   17  O5  UNL     1      13.973  -7.733   3.846  1.00  0.00    -0.379 OA
HETATM   18  C16 UNL     1      13.723  -6.357   3.542  1.00  0.00     0.173 C 
HETATM   19  C17 UNL     1      15.032  -5.684   3.107  1.00  0.00     0.060 C 
HETATM   20  C18 UNL     1      14.927  -4.176   2.932  1.00  0.00    -0.076 C 
HETATM   21  C19 UNL     1      13.913  -3.713   1.919  1.00  0.00     0.043 C 
HETATM   22  C20 UNL     1      15.655  -3.258   3.609  1.00  0.00     0.084 C 
HETATM   23  C21 UNL     1      16.718  -3.576   4.589  1.00  0.00     0.283 C 
HETATM   24  O6  UNL     1      17.635  -4.350   4.380  1.00  0.00    -0.260 OA
HETATM   25  O7  UNL     1      16.464  -2.906   5.743  1.00  0.00    -0.317 OA
HETATM   26  C22 UNL     1      17.277  -3.291   6.872  1.00  0.00     0.195 C 
HETATM   27  C23 UNL     1      16.718  -4.525   7.709  1.00  0.00     0.053 C 
HETATM   28  C24 UNL     1      15.718  -5.324   6.863  1.00  0.00     0.170 A 
HETATM   29  O8  UNL     1      14.570  -4.590   6.394  1.00  0.00    -0.370 OA
HETATM   30  C25 UNL     1      14.312  -5.632   7.328  1.00  0.00     0.180 A 
HETATM   31  C26 UNL     1      17.974  -5.470   8.122  1.00  0.00     0.034 C 
HETATM   32  C27 UNL     1      18.902  -5.861   6.957  1.00  0.00     0.022 C 
HETATM   33  C28 UNL     1      18.671  -4.794   9.268  1.00  0.00     0.119 A 
HETATM   34  C29 UNL     1      20.165  -4.662   9.469  1.00  0.00     0.210 A 
HETATM   35  O9  UNL     1      19.342  -3.556   9.041  1.00  0.00    -0.371 OA
ENDROOT
BRANCH  16  36
HETATM   36  C14 UNL     1      12.346  -9.534   3.532  1.00  0.00     0.146 C 
HETATM   37  C15 UNL     1      10.929 -10.009   3.831  1.00  0.00     0.042 C 
BRANCH  36  38
HETATM   38  O4  UNL     1      12.440  -9.161   2.152  1.00  0.00    -0.393 OA
HETATM   39  H19 UNL     1      11.690  -8.573   1.959  1.00  0.00     0.210 HD
ENDBRANCH  36  38
ENDBRANCH  16  36
TORSDOF 2
ENDMDL
MODEL 8
REMARK minimizedAffinity -6.4527545
REMARK CNNscore 0.139523521
REMARK CNNaffinity 5.10703421
REMARK  2 active torsions:
REMARK  status: ('A' for Active; 'I' for Inactive)
REMARK    1  A    between atoms: C13_16  and  C14_17 
REMARK    2  A    between atoms: C14_17  and  O4_19 
ROOT
HETATM    1  C1  UNL     1       3.714  14.065  -3.263  1.00  0.00     0.046 C 
HETATM    2  C2  UNL     1       4.053  14.408  -1.839  1.00  0.00    -0.054 C 
HETATM    3  C3  UNL     1       5.287  14.234  -1.348  1.00  0.00     0.011 C 
HETATM    4  C4  UNL     1       5.658  14.501   0.089  1.00  0.00     0.159 C 
HETATM    5  O1  UNL     1       7.011  14.989   0.021  1.00  0.00    -0.372 OA
HETATM    6  C5  UNL     1       7.182  16.395   0.133  1.00  0.00     0.162 C 
HETATM    7  C6  UNL     1       6.314  17.191  -0.874  1.00  0.00     0.068 C 
HETATM    8  C7  UNL     1       5.180  17.757  -0.007  1.00  0.00     0.147 C 
HETATM    9  O2  UNL     1       3.900  17.882  -0.629  1.00  0.00    -0.312 OA
HETATM   10  C8  UNL     1       3.332  19.111  -0.463  1.00  0.00     0.283 C 
HETATM   11  O3  UNL     1       3.932  20.167  -0.303  1.00  0.00    -0.260 OA
HETATM   12  C9  UNL     1       1.890  19.011  -0.172  1.00  0.00     0.082 C 
HETATM   13  C10 UNL     1       0.918  18.328  -0.788  1.00  0.00     0.006 C 
HETATM   14  C11 UNL     1       0.991  17.598  -2.027  1.00  0.00    -0.001 C 
HETATM   15  C12 UNL     1       0.105  16.674  -2.445  1.00  0.00     0.007 C 
HETATM   16  C13 UNL     1      -1.054  16.008  -1.723  1.00  0.00     0.172 C 
HETATM   17  O5  UNL     1      -0.870  16.071  -0.305  1.00  0.00    -0.379 OA
HETATM   18  C16 UNL     1      -0.729  14.783   0.304  1.00  0.00     0.173 C 
HETATM   19  C17 UNL     1      -0.324  14.956   1.776  1.00  0.00     0.060 C 
HETATM   20  C18 UNL     1       0.032  13.654   2.478  1.00  0.00    -0.076 C 
HETATM   21  C19 UNL     1      -1.061  12.618   2.510  1.00  0.00     0.043 C 
HETATM   22  C20 UNL     1       1.226  13.376   3.050  1.00  0.00     0.084 C 
HETATM   23  C21 UNL     1       2.363  14.319   3.137  1.00  0.00     0.283 C 
HETATM   24  O6  UNL     1       2.277  15.462   3.551  1.00  0.00    -0.260 OA
HETATM   25  O7  UNL     1       3.474  13.714   2.642  1.00  0.00    -0.317 OA
HETATM   26  C22 UNL     1       4.611  14.579   2.440  1.00  0.00     0.195 C 
HETATM   27  C23 UNL     1       4.643  15.326   1.033  1.00  0.00     0.053 C 
HETATM   28  C24 UNL     1       3.240  15.338   0.413  1.00  0.00     0.170 A 
HETATM   29  O8  UNL     1       2.648  14.044   0.180  1.00  0.00    -0.370 OA
HETATM   30  C25 UNL     1       2.953  14.814  -0.977  1.00  0.00     0.180 A 
HETATM   31  C26 UNL     1       5.155  16.848   1.278  1.00  0.00     0.034 C 
HETATM   32  C27 UNL     1       4.408  17.614   2.385  1.00  0.00     0.022 C 
HETATM   33  C28 UNL     1       6.644  16.784   1.466  1.00  0.00     0.119 A 
HETATM   34  C29 UNL     1       7.462  17.551   2.481  1.00  0.00     0.210 A 
HETATM   35  O9  UNL     1       7.171  16.145   2.626  1.00  0.00    -0.371 OA
ENDROOT
BRANCH  16  36
HETATM   36  C14 UNL     1      -2.442  16.577  -2.111  1.00  0.00     0.146 C 
HETATM   37  C15 UNL     1      -2.783  16.469  -3.592  1.00  0.00     0.042 C 
BRANCH  36  38
HETATM   38  O4  UNL     1      -3.480  15.964  -1.339  1.00  0.00    -0.393 OA
HETATM   39  H19 UNL     1      -3.648  15.087  -1.725  1.00  0.00     0.210 HD
ENDBRANCH  36  38
ENDBRANCH  16  36
TORSDOF 2
ENDMDL
MODEL 9
REMARK minimizedAffinity -6.66361237
REMARK CNNscore 0.138341486
REMARK CNNaffinity 5.29220343
REMARK  2 active torsions:
REMARK  status: ('A' for Active; 'I' for Inactive)
REMARK    1  A    between atoms: C13_16  and  C14_17 
REMARK    2  A    between atoms: C14_17  and  O4_19 
ROOT
HETATM    1  C1  UNL     1      18.687  -7.715   7.020  1.00  0.00     0.046 C 
HETATM    2  C2  UNL     1      17.494  -7.480   6.135  1.00  0.00    -0.054 C 
HETATM    3  C3  UNL     1      17.033  -8.430   5.311  1.00  0.00     0.011 C 
HETATM    4  C4  UNL     1      15.882  -8.219   4.359  1.00  0.00     0.159 C 
HETATM    5  O1  UNL     1      15.216  -9.495   4.320  1.00  0.00    -0.372 OA
HETATM    6  C5  UNL     1      14.031  -9.614   5.095  1.00  0.00     0.162 C 
HETATM    7  C6  UNL     1      14.235  -9.203   6.575  1.00  0.00     0.068 C 
HETATM    8  C7  UNL     1      13.564  -7.824   6.663  1.00  0.00     0.147 C 
HETATM    9  O2  UNL     1      14.153  -6.883   7.563  1.00  0.00    -0.312 OA
HETATM   10  C8  UNL     1      13.254  -6.298   8.404  1.00  0.00     0.283 C 
HETATM   11  O3  UNL     1      12.202  -6.793   8.792  1.00  0.00    -0.260 OA
HETATM   12  C9  UNL     1      13.512  -4.855   8.562  1.00  0.00     0.082 C 
HETATM   13  C10 UNL     1      14.640  -4.193   8.845  1.00  0.00     0.006 C 
HETATM   14  C11 UNL     1      15.917  -4.735   9.228  1.00  0.00    -0.001 C 
HETATM   15  C12 UNL     1      17.091  -4.076   9.191  1.00  0.00     0.007 C 
HETATM   16  C13 UNL     1      17.457  -2.727   8.596  1.00  0.00     0.172 C 
HETATM   17  O5  UNL     1      16.520  -2.350   7.581  1.00  0.00    -0.379 OA
HETATM   18  C16 UNL     1      17.108  -2.243   6.281  1.00  0.00     0.173 C 
HETATM   19  C17 UNL     1      16.002  -2.050   5.234  1.00  0.00     0.060 C 
HETATM   20  C18 UNL     1      16.493  -2.105   3.795  1.00  0.00    -0.076 C 
HETATM   21  C19 UNL     1      17.535  -1.081   3.430  1.00  0.00     0.043 C 
HETATM   22  C20 UNL     1      16.072  -2.986   2.858  1.00  0.00     0.084 C 
HETATM   23  C21 UNL     1      15.019  -4.005   3.067  1.00  0.00     0.283 C 
HETATM   24  O6  UNL     1      13.919  -3.769   3.535  1.00  0.00    -0.260 OA
HETATM   25  O7  UNL     1      15.504  -5.219   2.698  1.00  0.00    -0.317 OA
HETATM   26  C22 UNL     1      14.681  -6.348   3.060  1.00  0.00     0.195 C 
HETATM   27  C23 UNL     1      14.939  -6.921   4.524  1.00  0.00     0.053 C 
HETATM   28  C24 UNL     1      15.644  -5.865   5.385  1.00  0.00     0.170 A 
HETATM   29  O8  UNL     1      16.918  -5.405   4.892  1.00  0.00    -0.370 OA
HETATM   30  C25 UNL     1      16.941  -6.134   6.114  1.00  0.00     0.180 A 
HETATM   31  C26 UNL     1      13.502  -7.304   5.179  1.00  0.00     0.034 C 
HETATM   32  C27 UNL     1      12.441  -6.190   5.112  1.00  0.00     0.022 C 
HETATM   33  C28 UNL     1      13.073  -8.605   4.564  1.00  0.00     0.119 A 
HETATM   34  C29 UNL     1      11.681  -8.972   4.098  1.00  0.00     0.210 A 
HETATM   35  O9  UNL     1      12.743  -8.643   3.178  1.00  0.00    -0.371 OA
ENDROOT
BRANCH  16  36
HETATM   36  C14 UNL     1      17.592  -1.597   9.648  1.00  0.00     0.146 C 
HETATM   37  C15 UNL     1      18.970  -0.948   9.711  1.00  0.00     0.042 C 
BRANCH  36  38
HETATM   38  O4  UNL     1      16.600  -0.585   9.441  1.00  0.00    -0.393 OA
HETATM   39  H19 UNL     1      16.900  -0.033   8.699  1.00  0.00     0.210 HD
ENDBRANCH  36  38
ENDBRANCH  16  36
TORSDOF 2
ENDMDL
