MODEL 1
REMARK minimizedAffinity -8.31601715
REMARK CNNscore 0.327873409
REMARK CNNaffinity 6.61949158
REMARK  12 active torsions:
REMARK  status: ('A' for Active; 'I' for Inactive)
REMARK    1  A    between atoms: C3_3  and  O1_4 
REMARK    2  A    between atoms: N1_14  and  O2_16 
REMARK    3  A    between atoms: O2_16  and  C13_17 
REMARK    4  A    between atoms: C13_17  and  C14_18 
REMARK       I    between atoms: C14_18  and  N2_20 
REMARK    5  A    between atoms: N2_20  and  C15_21 
REMARK    6  A    between atoms: C15_21  and  C16_22 
REMARK    7  A    between atoms: C15_21  and  C26_36 
REMARK       I    between atoms: C16_22  and  N3_24 
REMARK    8  A    between atoms: N3_24  and  C17_25 
REMARK    9  A    between atoms: C17_25  and  C18_26 
REMARK   10  A    between atoms: C17_25  and  C25_33 
REMARK   11  A    between atoms: C18_26  and  C19_27 
REMARK   12  A    between atoms: C25_33  and  O6_35 
ROOT
HETATM    1  C1  UNL     1      -6.427  18.722  22.222  1.00  0.00     0.015 C 
HETATM    2  C2  UNL     1      -6.708  17.587  21.937  1.00  0.00    -0.078 C 
HETATM    3  C3  UNL     1      -7.041  16.185  21.586  1.00  0.00     0.128 C 
HETATM    4  C4  UNL     1      -7.799  16.148  20.249  1.00  0.00     0.052 C 
HETATM    5  C5  UNL     1      -6.743  15.848  19.168  1.00  0.00     0.010 C 
HETATM    6  C6  UNL     1      -5.387  15.755  19.897  1.00  0.00     0.002 C 
HETATM    7  C7  UNL     1      -4.267  14.926  19.228  1.00  0.00    -0.004 C 
HETATM    8  C8  UNL     1      -4.230  15.106  17.694  1.00  0.00     0.010 C 
HETATM    9  C9  UNL     1      -4.756  13.896  16.933  1.00  0.00     0.035 C 
HETATM   10  C10 UNL     1      -3.982  12.648  17.263  1.00  0.00    -0.069 C 
HETATM   11  C11 UNL     1      -3.794  11.696  16.328  1.00  0.00     0.030 C 
HETATM   12  C12 UNL     1      -3.007  10.464  16.631  1.00  0.00     0.032 C 
HETATM   13  N1  UNL     1      -2.464   9.677  15.753  1.00  0.00    -0.271 N 
ATOM     14  H1  UNL     1      -1.910   8.854  15.991  1.00  0.00     0.194 HD
HETATM   15  C29 UNL     1      -2.767  10.108  18.091  1.00  0.00     0.060 C 
HETATM   16  C30 UNL     1      -3.516  11.015  19.062  1.00  0.00     0.020 C 
HETATM   17  C31 UNL     1      -3.421  12.517  18.676  1.00  0.00    -0.016 C 
HETATM   18  C32 UNL     1      -1.919  12.927  18.679  1.00  0.00     0.020 C 
HETATM   19  C33 UNL     1      -4.181  13.440  19.706  1.00  0.00     0.002 C 
HETATM   20  C34 UNL     1      -5.548  12.936  20.181  1.00  0.00     0.007 C 
HETATM   21  C35 UNL     1      -6.150  13.773  21.319  1.00  0.00     0.014 C 
HETATM   22  C36 UNL     1      -5.784  15.290  21.314  1.00  0.00     0.003 C 
HETATM   23  C37 UNL     1      -4.665  15.529  22.350  1.00  0.00     0.020 C 
ENDROOT
BRANCH   3  24
HETATM   24  O1  UNL     1      -7.861  15.646  22.615  1.00  0.00    -0.377 OA
HETATM   25  H2  UNL     1      -7.526  15.990  23.461  1.00  0.00     0.211 HD
ENDBRANCH   3  24
BRANCH  13  26
HETATM   26  O2  UNL     1      -2.730  10.091  14.436  1.00  0.00    -0.271 OA
BRANCH  26  27
HETATM   27  C13 UNL     1      -1.526  10.096  13.693  1.00  0.00     0.303 C 
BRANCH  27  28
HETATM   28  C14 UNL     1      -1.408   9.050  12.579  1.00  0.00     0.244 C 
HETATM   29  O3  UNL     1      -1.654   9.255  11.392  1.00  0.00    -0.271 OA
HETATM   30  N2  UNL     1      -0.957   7.816  13.043  1.00  0.00    -0.346 N 
HETATM   31  H16 UNL     1      -0.401   7.857  13.892  1.00  0.00     0.163 HD
BRANCH  30  32
HETATM   32  C15 UNL     1      -0.522   6.802  12.080  1.00  0.00     0.180 C 
BRANCH  32  33
HETATM   33  C16 UNL     1       0.930   6.426  12.461  1.00  0.00     0.241 C 
HETATM   34  O4  UNL     1       1.202   5.869  13.527  1.00  0.00    -0.271 OA
HETATM   35  N3  UNL     1       1.876   6.729  11.504  1.00  0.00    -0.345 N 
HETATM   36  H18 UNL     1       1.605   7.417  10.804  1.00  0.00     0.163 HD
BRANCH  35  37
HETATM   37  C17 UNL     1       3.304   6.788  11.857  1.00  0.00     0.186 C 
BRANCH  37  38
HETATM   38  C18 UNL     1       4.170   6.539  10.619  1.00  0.00     0.074 C 
BRANCH  38  39
HETATM   39  C19 UNL     1       3.458   6.890   9.334  1.00  0.00    -0.056 A 
HETATM   40  C20 UNL     1       2.951   5.878   8.511  1.00  0.00     0.007 A 
HETATM   41  C21 UNL     1       2.308   6.195   7.314  1.00  0.00     0.001 A 
HETATM   42  C22 UNL     1       2.168   7.523   6.923  1.00  0.00     0.000 A 
HETATM   43  C23 UNL     1       2.684   8.539   7.727  1.00  0.00     0.001 A 
HETATM   44  C24 UNL     1       3.323   8.227   8.926  1.00  0.00     0.007 A 
ENDBRANCH  38  39
ENDBRANCH  37  38
BRANCH  37  45
HETATM   45  C25 UNL     1       3.596   8.174  12.451  1.00  0.00     0.163 C 
HETATM   46  O5  UNL     1       2.949   9.197  12.306  1.00  0.00    -0.648 OA
BRANCH  45  47
HETATM   47  O6  UNL     1       4.699   8.186  13.245  1.00  0.00    -0.775 OA
HETATM   48  H27 UNL     1       4.804   9.130  13.482  1.00  0.00     0.167 HD
ENDBRANCH  45  47
ENDBRANCH  37  45
ENDBRANCH  35  37
ENDBRANCH  32  33
BRANCH  32  49
HETATM   49  C26 UNL     1      -1.487   5.596  12.054  1.00  0.00     0.009 C 
HETATM   50  C27 UNL     1      -0.734   4.266  11.912  1.00  0.00     0.012 C 
HETATM   51  C28 UNL     1      -2.429   5.529  13.264  1.00  0.00     0.012 C 
ENDBRANCH  32  49
ENDBRANCH  30  32
ENDBRANCH  27  28
ENDBRANCH  26  27
ENDBRANCH  13  26
TORSDOF 12
ENDMDL
MODEL 2
REMARK minimizedAffinity -9.11873245
REMARK CNNscore 0.293561459
REMARK CNNaffinity 7.32725
REMARK  12 active torsions:
REMARK  status: ('A' for Active; 'I' for Inactive)
REMARK    1  A    between atoms: C3_3  and  O1_4 
REMARK    2  A    between atoms: N1_14  and  O2_16 
REMARK    3  A    between atoms: O2_16  and  C13_17 
REMARK    4  A    between atoms: C13_17  and  C14_18 
REMARK       I    between atoms: C14_18  and  N2_20 
REMARK    5  A    between atoms: N2_20  and  C15_21 
REMARK    6  A    between atoms: C15_21  and  C16_22 
REMARK    7  A    between atoms: C15_21  and  C26_36 
REMARK       I    between atoms: C16_22  and  N3_24 
REMARK    8  A    between atoms: N3_24  and  C17_25 
REMARK    9  A    between atoms: C17_25  and  C18_26 
REMARK   10  A    between atoms: C17_25  and  C25_33 
REMARK   11  A    between atoms: C18_26  and  C19_27 
REMARK   12  A    between atoms: C25_33  and  O6_35 
ROOT
HETATM    1  C1  UNL     1       0.636   6.358  10.880  1.00  0.00     0.015 C 
HETATM    2  C2  UNL     1       0.181   6.274  11.991  1.00  0.00    -0.078 C 
HETATM    3  C3  UNL     1      -0.393   6.164  13.354  1.00  0.00     0.128 C 
HETATM    4  C4  UNL     1      -0.406   7.548  14.026  1.00  0.00     0.052 C 
HETATM    5  C5  UNL     1      -1.821   8.115  13.806  1.00  0.00     0.010 C 
HETATM    6  C6  UNL     1      -2.588   7.064  12.977  1.00  0.00     0.002 C 
HETATM    7  C7  UNL     1      -4.131   7.054  13.079  1.00  0.00    -0.004 C 
HETATM    8  C8  UNL     1      -4.731   8.476  13.141  1.00  0.00     0.010 C 
HETATM    9  C9  UNL     1      -5.241   8.855  14.525  1.00  0.00     0.035 C 
HETATM   10  C10 UNL     1      -6.292   7.896  15.016  1.00  0.00    -0.069 C 
HETATM   11  C11 UNL     1      -7.296   8.331  15.802  1.00  0.00     0.030 C 
HETATM   12  C12 UNL     1      -8.361   7.398  16.276  1.00  0.00     0.032 C 
HETATM   13  N1  UNL     1      -9.533   7.746  16.715  1.00  0.00    -0.271 N 
ATOM     14  H1  UNL     1     -10.250   7.083  17.009  1.00  0.00     0.194 HD
HETATM   15  C29 UNL     1      -8.089   5.902  16.203  1.00  0.00     0.060 C 
HETATM   16  C30 UNL     1      -6.662   5.572  15.777  1.00  0.00     0.020 C 
HETATM   17  C31 UNL     1      -6.176   6.437  14.582  1.00  0.00    -0.016 C 
HETATM   18  C32 UNL     1      -7.123   6.177  13.374  1.00  0.00     0.020 C 
HETATM   19  C33 UNL     1      -4.708   6.063  14.141  1.00  0.00     0.002 C 
HETATM   20  C34 UNL     1      -3.703   5.826  15.274  1.00  0.00     0.007 C 
HETATM   21  C35 UNL     1      -2.351   5.281  14.792  1.00  0.00     0.014 C 
HETATM   22  C36 UNL     1      -1.901   5.740  13.370  1.00  0.00     0.003 C 
HETATM   23  C37 UNL     1      -2.195   4.601  12.370  1.00  0.00     0.020 C 
ENDROOT
BRANCH   3  24
HETATM   24  O1  UNL     1       0.415   5.273  14.112  1.00  0.00    -0.377 OA
HETATM   25  H2  UNL     1       0.690   4.554  13.517  1.00  0.00     0.211 HD
ENDBRANCH   3  24
BRANCH  13  26
HETATM   26  O2  UNL     1      -9.696   9.142  16.736  1.00  0.00    -0.271 OA
BRANCH  26  27
HETATM   27  C13 UNL     1     -11.075   9.452  16.812  1.00  0.00     0.303 C 
BRANCH  27  28
HETATM   28  C14 UNL     1     -11.606   9.859  18.190  1.00  0.00     0.244 C 
HETATM   29  O3  UNL     1     -12.095  10.953  18.463  1.00  0.00    -0.271 OA
HETATM   30  N2  UNL     1     -11.508   8.834  19.130  1.00  0.00    -0.346 N 
HETATM   31  H16 UNL     1     -11.500   7.897  18.740  1.00  0.00     0.163 HD
BRANCH  30  32
HETATM   32  C15 UNL     1     -12.221   8.956  20.404  1.00  0.00     0.180 C 
BRANCH  32  33
HETATM   33  C16 UNL     1     -11.773  10.296  21.033  1.00  0.00     0.241 C 
HETATM   34  O4  UNL     1     -12.111  11.384  20.562  1.00  0.00    -0.271 OA
HETATM   35  N3  UNL     1     -11.006  10.172  22.173  1.00  0.00    -0.345 N 
HETATM   36  H18 UNL     1     -10.560   9.268  22.321  1.00  0.00     0.163 HD
BRANCH  35  37
HETATM   37  C17 UNL     1     -10.203  11.305  22.660  1.00  0.00     0.186 C 
BRANCH  37  38
HETATM   38  C18 UNL     1     -10.081  12.377  21.573  1.00  0.00     0.074 C 
BRANCH  38  39
HETATM   39  C19 UNL     1      -8.665  12.876  21.409  1.00  0.00    -0.056 A 
HETATM   40  C20 UNL     1      -8.217  13.324  20.160  1.00  0.00     0.007 A 
HETATM   41  C21 UNL     1      -6.905  13.770  19.997  1.00  0.00     0.001 A 
HETATM   42  C22 UNL     1      -6.024  13.768  21.075  1.00  0.00     0.000 A 
HETATM   43  C23 UNL     1      -6.454  13.308  22.320  1.00  0.00     0.001 A 
HETATM   44  C24 UNL     1      -7.766  12.867  22.488  1.00  0.00     0.007 A 
ENDBRANCH  38  39
ENDBRANCH  37  38
BRANCH  37  45
HETATM   45  C25 UNL     1     -10.885  11.878  23.910  1.00  0.00     0.163 C 
HETATM   46  O5  UNL     1     -12.047  12.227  24.030  1.00  0.00    -0.648 OA
BRANCH  45  47
HETATM   47  O6  UNL     1     -10.052  11.949  24.981  1.00  0.00    -0.775 OA
HETATM   48  H27 UNL     1     -10.590  12.397  25.666  1.00  0.00     0.167 HD
ENDBRANCH  45  47
ENDBRANCH  37  45
ENDBRANCH  35  37
ENDBRANCH  32  33
BRANCH  32  49
HETATM   49  C26 UNL     1     -13.749   8.843  20.209  1.00  0.00     0.009 C 
HETATM   50  C27 UNL     1     -14.484  10.083  20.735  1.00  0.00     0.012 C 
HETATM   51  C28 UNL     1     -14.171   8.568  18.760  1.00  0.00     0.012 C 
ENDBRANCH  32  49
ENDBRANCH  30  32
ENDBRANCH  27  28
ENDBRANCH  26  27
ENDBRANCH  13  26
TORSDOF 12
ENDMDL
MODEL 3
REMARK minimizedAffinity -8.66361427
REMARK CNNscore 0.264928907
REMARK CNNaffinity 7.14318895
REMARK  12 active torsions:
REMARK  status: ('A' for Active; 'I' for Inactive)
REMARK    1  A    between atoms: C3_3  and  O1_4 
REMARK    2  A    between atoms: N1_14  and  O2_16 
REMARK    3  A    between atoms: O2_16  and  C13_17 
REMARK    4  A    between atoms: C13_17  and  C14_18 
REMARK       I    between atoms: C14_18  and  N2_20 
REMARK    5  A    between atoms: N2_20  and  C15_21 
REMARK    6  A    between atoms: C15_21  and  C16_22 
REMARK    7  A    between atoms: C15_21  and  C26_36 
REMARK       I    between atoms: C16_22  and  N3_24 
REMARK    8  A    between atoms: N3_24  and  C17_25 
REMARK    9  A    between atoms: C17_25  and  C18_26 
REMARK   10  A    between atoms: C17_25  and  C25_33 
REMARK   11  A    between atoms: C18_26  and  C19_27 
REMARK   12  A    between atoms: C25_33  and  O6_35 
ROOT
HETATM    1  C1  UNL     1       0.758   6.569  10.994  1.00  0.00     0.015 C 
HETATM    2  C2  UNL     1       0.270   6.474  12.090  1.00  0.00    -0.078 C 
HETATM    3  C3  UNL     1      -0.343   6.350  13.434  1.00  0.00     0.128 C 
HETATM    4  C4  UNL     1      -0.428   7.736  14.097  1.00  0.00     0.052 C 
HETATM    5  C5  UNL     1      -1.854   8.251  13.827  1.00  0.00     0.010 C 
HETATM    6  C6  UNL     1      -2.556   7.170  12.980  1.00  0.00     0.002 C 
HETATM    7  C7  UNL     1      -4.100   7.105  13.032  1.00  0.00    -0.004 C 
HETATM    8  C8  UNL     1      -4.752   8.505  13.066  1.00  0.00     0.010 C 
HETATM    9  C9  UNL     1      -5.320   8.872  14.431  1.00  0.00     0.035 C 
HETATM   10  C10 UNL     1      -6.351   7.878  14.893  1.00  0.00    -0.069 C 
HETATM   11  C11 UNL     1      -7.396   8.281  15.643  1.00  0.00     0.030 C 
HETATM   12  C12 UNL     1      -8.442   7.313  16.088  1.00  0.00     0.032 C 
HETATM   13  N1  UNL     1      -9.639   7.621  16.486  1.00  0.00    -0.271 N 
ATOM     14  H1  UNL     1     -10.342   6.934  16.761  1.00  0.00     0.194 HD
HETATM   15  C29 UNL     1      -8.115   5.827  16.033  1.00  0.00     0.060 C 
HETATM   16  C30 UNL     1      -6.664   5.546  15.654  1.00  0.00     0.020 C 
HETATM   17  C31 UNL     1      -6.170   6.423  14.472  1.00  0.00    -0.016 C 
HETATM   18  C32 UNL     1      -7.067   6.124  13.235  1.00  0.00     0.020 C 
HETATM   19  C33 UNL     1      -4.676   6.099  14.080  1.00  0.00     0.002 C 
HETATM   20  C34 UNL     1      -3.701   5.903  15.246  1.00  0.00     0.007 C 
HETATM   21  C35 UNL     1      -2.315   5.404  14.812  1.00  0.00     0.014 C 
HETATM   22  C36 UNL     1      -1.835   5.873  13.403  1.00  0.00     0.003 C 
HETATM   23  C37 UNL     1      -2.056   4.720  12.401  1.00  0.00     0.020 C 
ENDROOT
BRANCH   3  24
HETATM   24  O1  UNL     1       0.470   5.492  14.223  1.00  0.00    -0.377 OA
HETATM   25  H2  UNL     1       0.789   4.781  13.641  1.00  0.00     0.211 HD
ENDBRANCH   3  24
BRANCH  13  26
HETATM   26  O2  UNL     1      -9.852   9.010  16.493  1.00  0.00    -0.271 OA
BRANCH  26  27
HETATM   27  C13 UNL     1     -11.227   9.273  16.702  1.00  0.00     0.303 C 
BRANCH  27  28
HETATM   28  C14 UNL     1     -11.575  10.635  17.311  1.00  0.00     0.244 C 
HETATM   29  O3  UNL     1     -12.469  11.378  16.911  1.00  0.00    -0.271 OA
HETATM   30  N2  UNL     1     -10.782  10.953  18.411  1.00  0.00    -0.346 N 
HETATM   31  H16 UNL     1     -10.396  10.153  18.904  1.00  0.00     0.163 HD
BRANCH  30  32
HETATM   32  C15 UNL     1     -11.164  12.072  19.275  1.00  0.00     0.180 C 
BRANCH  32  33
HETATM   33  C16 UNL     1     -11.722  11.453  20.578  1.00  0.00     0.241 C 
HETATM   34  O4  UNL     1     -12.932  11.320  20.772  1.00  0.00    -0.271 OA
HETATM   35  N3  UNL     1     -10.763  11.032  21.476  1.00  0.00    -0.345 N 
HETATM   36  H18 UNL     1      -9.830  11.425  21.357  1.00  0.00     0.163 HD
BRANCH  35  37
HETATM   37  C17 UNL     1     -11.114  10.783  22.883  1.00  0.00     0.186 C 
BRANCH  37  38
HETATM   38  C18 UNL     1     -10.744   9.350  23.278  1.00  0.00     0.074 C 
BRANCH  38  39
HETATM   39  C19 UNL     1     -11.901   8.604  23.899  1.00  0.00    -0.056 A 
HETATM   40  C20 UNL     1     -12.610   9.166  24.966  1.00  0.00     0.007 A 
HETATM   41  C21 UNL     1     -13.669   8.475  25.555  1.00  0.00     0.001 A 
HETATM   42  C22 UNL     1     -14.028   7.213  25.091  1.00  0.00     0.000 A 
HETATM   43  C23 UNL     1     -13.317   6.634  24.040  1.00  0.00     0.001 A 
HETATM   44  C24 UNL     1     -12.261   7.325  23.445  1.00  0.00     0.007 A 
ENDBRANCH  38  39
ENDBRANCH  37  38
BRANCH  37  45
HETATM   45  C25 UNL     1     -10.359  11.796  23.755  1.00  0.00     0.163 C 
HETATM   46  O5  UNL     1      -9.322  12.379  23.489  1.00  0.00    -0.648 OA
BRANCH  45  47
HETATM   47  O6  UNL     1     -10.988  12.052  24.932  1.00  0.00    -0.775 OA
HETATM   48  H27 UNL     1     -10.365  12.640  25.406  1.00  0.00     0.167 HD
ENDBRANCH  45  47
ENDBRANCH  37  45
ENDBRANCH  35  37
ENDBRANCH  32  33
BRANCH  32  49
HETATM   49  C26 UNL     1      -9.981  13.039  19.505  1.00  0.00     0.009 C 
HETATM   50  C27 UNL     1      -9.153  13.241  18.229  1.00  0.00     0.012 C 
HETATM   51  C28 UNL     1     -10.396  14.402  20.073  1.00  0.00     0.012 C 
ENDBRANCH  32  49
ENDBRANCH  30  32
ENDBRANCH  27  28
ENDBRANCH  26  27
ENDBRANCH  13  26
TORSDOF 12
ENDMDL
MODEL 4
REMARK minimizedAffinity -8.51955509
REMARK CNNscore 0.193582878
REMARK CNNaffinity 5.805655
REMARK  12 active torsions:
REMARK  status: ('A' for Active; 'I' for Inactive)
REMARK    1  A    between atoms: C3_3  and  O1_4 
REMARK    2  A    between atoms: N1_14  and  O2_16 
REMARK    3  A    between atoms: O2_16  and  C13_17 
REMARK    4  A    between atoms: C13_17  and  C14_18 
REMARK       I    between atoms: C14_18  and  N2_20 
REMARK    5  A    between atoms: N2_20  and  C15_21 
REMARK    6  A    between atoms: C15_21  and  C16_22 
REMARK    7  A    between atoms: C15_21  and  C26_36 
REMARK       I    between atoms: C16_22  and  N3_24 
REMARK    8  A    between atoms: N3_24  and  C17_25 
REMARK    9  A    between atoms: C17_25  and  C18_26 
REMARK   10  A    between atoms: C17_25  and  C25_33 
REMARK   11  A    between atoms: C18_26  and  C19_27 
REMARK   12  A    between atoms: C25_33  and  O6_35 
ROOT
HETATM    1  C1  UNL     1       0.065   7.815   9.134  1.00  0.00     0.015 C 
HETATM    2  C2  UNL     1       1.227   7.503   9.161  1.00  0.00    -0.078 C 
HETATM    3  C3  UNL     1       2.658   7.118   9.208  1.00  0.00     0.128 C 
HETATM    4  C4  UNL     1       3.519   8.232   8.589  1.00  0.00     0.052 C 
HETATM    5  C5  UNL     1       4.023   9.086   9.768  1.00  0.00     0.010 C 
HETATM    6  C6  UNL     1       3.413   8.472  11.044  1.00  0.00     0.002 C 
HETATM    7  C7  UNL     1       4.150   8.713  12.382  1.00  0.00    -0.004 C 
HETATM    8  C8  UNL     1       4.722  10.145  12.494  1.00  0.00     0.010 C 
HETATM    9  C9  UNL     1       6.237  10.201  12.340  1.00  0.00     0.035 C 
HETATM   10  C10 UNL     1       6.935   9.350  13.366  1.00  0.00    -0.069 C 
HETATM   11  C11 UNL     1       8.136   9.719  13.853  1.00  0.00     0.030 C 
HETATM   12  C12 UNL     1       8.830   8.900  14.890  1.00  0.00     0.032 C 
HETATM   13  N1  UNL     1       9.777   9.316  15.675  1.00  0.00    -0.271 N 
ATOM     14  H1  UNL     1      10.217   8.739  16.393  1.00  0.00     0.194 HD
HETATM   15  C29 UNL     1       8.372   7.463  15.094  1.00  0.00     0.060 C 
HETATM   16  C30 UNL     1       7.333   7.013  14.073  1.00  0.00     0.020 C 
HETATM   17  C31 UNL     1       6.229   8.079  13.829  1.00  0.00    -0.016 C 
HETATM   18  C32 UNL     1       5.505   8.349  15.181  1.00  0.00     0.020 C 
HETATM   19  C33 UNL     1       5.150   7.584  12.789  1.00  0.00     0.002 C 
HETATM   20  C34 UNL     1       5.690   6.857  11.553  1.00  0.00     0.007 C 
HETATM   21  C35 UNL     1       4.593   6.234  10.678  1.00  0.00     0.014 C 
HETATM   22  C36 UNL     1       3.227   6.988  10.662  1.00  0.00     0.003 C 
HETATM   23  C37 UNL     1       2.250   6.253  11.605  1.00  0.00     0.020 C 
ENDROOT
BRANCH   3  24
HETATM   24  O1  UNL     1       2.826   5.917   8.466  1.00  0.00    -0.377 OA
HETATM   25  H2  UNL     1       2.048   5.359   8.639  1.00  0.00     0.211 HD
ENDBRANCH   3  24
BRANCH  13  26
HETATM   26  O2  UNL     1      10.124  10.654  15.421  1.00  0.00    -0.271 OA
BRANCH  26  27
HETATM   27  C13 UNL     1      10.030  11.400  16.620  1.00  0.00     0.303 C 
BRANCH  27  28
HETATM   28  C14 UNL     1       8.835  11.086  17.525  1.00  0.00     0.244 C 
HETATM   29  O3  UNL     1       8.761  10.124  18.287  1.00  0.00    -0.271 OA
HETATM   30  N2  UNL     1       7.819  12.035  17.426  1.00  0.00    -0.346 N 
HETATM   31  H16 UNL     1       8.123  12.957  17.129  1.00  0.00     0.163 HD
BRANCH  30  32
HETATM   32  C15 UNL     1       6.742  12.042  18.419  1.00  0.00     0.180 C 
BRANCH  32  33
HETATM   33  C16 UNL     1       7.137  13.086  19.490  1.00  0.00     0.241 C 
HETATM   34  O4  UNL     1       7.387  14.258  19.200  1.00  0.00    -0.271 OA
HETATM   35  N3  UNL     1       7.150  12.610  20.785  1.00  0.00    -0.345 N 
HETATM   36  H18 UNL     1       7.203  11.598  20.893  1.00  0.00     0.163 HD
BRANCH  35  37
HETATM   37  C17 UNL     1       7.855  13.347  21.846  1.00  0.00     0.186 C 
BRANCH  37  38
HETATM   38  C18 UNL     1       6.936  13.551  23.054  1.00  0.00     0.074 C 
BRANCH  38  39
HETATM   39  C19 UNL     1       5.678  12.720  22.972  1.00  0.00    -0.056 A 
HETATM   40  C20 UNL     1       4.434  13.340  22.814  1.00  0.00     0.007 A 
HETATM   41  C21 UNL     1       3.266  12.579  22.754  1.00  0.00     0.001 A 
HETATM   42  C22 UNL     1       3.325  11.193  22.860  1.00  0.00     0.000 A 
HETATM   43  C23 UNL     1       4.559  10.565  23.036  1.00  0.00     0.001 A 
HETATM   44  C24 UNL     1       5.729  11.322  23.090  1.00  0.00     0.007 A 
ENDBRANCH  38  39
ENDBRANCH  37  38
BRANCH  37  45
HETATM   45  C25 UNL     1       9.100  12.542  22.244  1.00  0.00     0.163 C 
HETATM   46  O5  UNL     1       9.801  11.851  21.525  1.00  0.00    -0.648 OA
BRANCH  45  47
HETATM   47  O6  UNL     1       9.423  12.684  23.557  1.00  0.00    -0.775 OA
HETATM   48  H27 UNL     1      10.172  12.066  23.681  1.00  0.00     0.167 HD
ENDBRANCH  45  47
ENDBRANCH  37  45
ENDBRANCH  35  37
ENDBRANCH  32  33
BRANCH  32  49
HETATM   49  C26 UNL     1       5.370  12.317  17.763  1.00  0.00     0.009 C 
HETATM   50  C27 UNL     1       5.341  11.869  16.295  1.00  0.00     0.012 C 
HETATM   51  C28 UNL     1       4.187  11.695  18.517  1.00  0.00     0.012 C 
ENDBRANCH  32  49
ENDBRANCH  30  32
ENDBRANCH  27  28
ENDBRANCH  26  27
ENDBRANCH  13  26
TORSDOF 12
ENDMDL
MODEL 5
REMARK minimizedAffinity -10.07376
REMARK CNNscore 0.175658241
REMARK CNNaffinity 7.14714813
REMARK  12 active torsions:
REMARK  status: ('A' for Active; 'I' for Inactive)
REMARK    1  A    between atoms: C3_3  and  O1_4 
REMARK    2  A    between atoms: N1_14  and  O2_16 
REMARK    3  A    between atoms: O2_16  and  C13_17 
REMARK    4  A    between atoms: C13_17  and  C14_18 
REMARK       I    between atoms: C14_18  and  N2_20 
REMARK    5  A    between atoms: N2_20  and  C15_21 
REMARK    6  A    between atoms: C15_21  and  C16_22 
REMARK    7  A    between atoms: C15_21  and  C26_36 
REMARK       I    between atoms: C16_22  and  N3_24 
REMARK    8  A    between atoms: N3_24  and  C17_25 
REMARK    9  A    between atoms: C17_25  and  C18_26 
REMARK   10  A    between atoms: C17_25  and  C25_33 
REMARK   11  A    between atoms: C18_26  and  C19_27 
REMARK   12  A    between atoms: C25_33  and  O6_35 
ROOT
HETATM    1  C1  UNL     1      -8.939   5.835  12.059  1.00  0.00     0.015 C 
HETATM    2  C2  UNL     1      -8.108   5.571  12.889  1.00  0.00    -0.078 C 
HETATM    3  C3  UNL     1      -7.083   5.261  13.915  1.00  0.00     0.128 C 
HETATM    4  C4  UNL     1      -5.969   4.400  13.294  1.00  0.00     0.052 C 
HETATM    5  C5  UNL     1      -4.844   5.377  12.903  1.00  0.00     0.010 C 
HETATM    6  C6  UNL     1      -5.345   6.788  13.270  1.00  0.00     0.002 C 
HETATM    7  C7  UNL     1      -4.284   7.881  13.539  1.00  0.00    -0.004 C 
HETATM    8  C8  UNL     1      -3.080   7.789  12.575  1.00  0.00     0.010 C 
HETATM    9  C9  UNL     1      -1.819   7.246  13.235  1.00  0.00     0.035 C 
HETATM   10  C10 UNL     1      -1.398   8.087  14.410  1.00  0.00    -0.069 C 
HETATM   11  C11 UNL     1      -0.092   8.232  14.709  1.00  0.00     0.030 C 
HETATM   12  C12 UNL     1       0.345   9.083  15.856  1.00  0.00     0.032 C 
HETATM   13  N1  UNL     1       1.532   9.582  16.021  1.00  0.00    -0.271 N 
ATOM     14  H1  UNL     1       1.795  10.181  16.803  1.00  0.00     0.194 HD
HETATM   15  C29 UNL     1      -0.689   9.451  16.911  1.00  0.00     0.060 C 
HETATM   16  C30 UNL     1      -2.029   8.750  16.708  1.00  0.00     0.020 C 
HETATM   17  C31 UNL     1      -2.496   8.762  15.227  1.00  0.00    -0.016 C 
HETATM   18  C32 UNL     1      -2.643  10.245  14.774  1.00  0.00     0.020 C 
HETATM   19  C33 UNL     1      -3.894   8.055  15.043  1.00  0.00     0.002 C 
HETATM   20  C34 UNL     1      -4.096   6.748  15.817  1.00  0.00     0.007 C 
HETATM   21  C35 UNL     1      -5.532   6.210  15.752  1.00  0.00     0.014 C 
HETATM   22  C36 UNL     1      -6.316   6.522  14.439  1.00  0.00     0.003 C 
HETATM   23  C37 UNL     1      -7.264   7.711  14.704  1.00  0.00     0.020 C 
ENDROOT
BRANCH   3  24
HETATM   24  O1  UNL     1      -7.707   4.544  14.972  1.00  0.00    -0.377 OA
HETATM   25  H2  UNL     1      -8.589   4.932  15.104  1.00  0.00     0.211 HD
ENDBRANCH   3  24
BRANCH  13  26
HETATM   26  O2  UNL     1       2.413   9.198  14.994  1.00  0.00    -0.271 OA
BRANCH  26  27
HETATM   27  C13 UNL     1       3.636   8.768  15.561  1.00  0.00     0.303 C 
BRANCH  27  28
HETATM   28  C14 UNL     1       4.817   8.617  14.597  1.00  0.00     0.244 C 
HETATM   29  O3  UNL     1       5.230   9.497  13.845  1.00  0.00    -0.271 OA
HETATM   30  N2  UNL     1       5.419   7.363  14.674  1.00  0.00    -0.346 N 
HETATM   31  H16 UNL     1       5.303   6.887  15.563  1.00  0.00     0.163 HD
BRANCH  30  32
HETATM   32  C15 UNL     1       6.721   7.149  14.036  1.00  0.00     0.180 C 
BRANCH  32  33
HETATM   33  C16 UNL     1       6.475   7.186  12.510  1.00  0.00     0.241 C 
HETATM   34  O4  UNL     1       7.324   7.610  11.721  1.00  0.00    -0.271 OA
HETATM   35  N3  UNL     1       5.258   6.677  12.106  1.00  0.00    -0.345 N 
HETATM   36  H18 UNL     1       4.536   6.613  12.823  1.00  0.00     0.163 HD
BRANCH  35  37
HETATM   37  C17 UNL     1       4.726   6.983  10.769  1.00  0.00     0.186 C 
BRANCH  37  38
HETATM   38  C18 UNL     1       3.541   6.068  10.445  1.00  0.00     0.074 C 
BRANCH  38  39
HETATM   39  C19 UNL     1       2.480   6.764   9.626  1.00  0.00    -0.056 A 
HETATM   40  C20 UNL     1       1.268   7.139  10.217  1.00  0.00     0.007 A 
HETATM   41  C21 UNL     1       0.276   7.766   9.462  1.00  0.00     0.001 A 
HETATM   42  C22 UNL     1       0.480   8.020   8.109  1.00  0.00     0.000 A 
HETATM   43  C23 UNL     1       1.677   7.635   7.505  1.00  0.00     0.001 A 
HETATM   44  C24 UNL     1       2.672   7.013   8.258  1.00  0.00     0.007 A 
ENDBRANCH  38  39
ENDBRANCH  37  38
BRANCH  37  45
HETATM   45  C25 UNL     1       4.293   8.456  10.749  1.00  0.00     0.163 C 
HETATM   46  O5  UNL     1       3.415   8.983  11.410  1.00  0.00    -0.648 OA
BRANCH  45  47
HETATM   47  O6  UNL     1       5.034   9.213   9.897  1.00  0.00    -0.775 OA
HETATM   48  H27 UNL     1       4.602  10.091   9.930  1.00  0.00     0.167 HD
ENDBRANCH  45  47
ENDBRANCH  37  45
ENDBRANCH  35  37
ENDBRANCH  32  33
BRANCH  32  49
HETATM   49  C26 UNL     1       7.764   8.180  14.521  1.00  0.00     0.009 C 
HETATM   50  C27 UNL     1       7.714   8.369  16.044  1.00  0.00     0.012 C 
HETATM   51  C28 UNL     1       9.200   7.859  14.088  1.00  0.00     0.012 C 
ENDBRANCH  32  49
ENDBRANCH  30  32
ENDBRANCH  27  28
ENDBRANCH  26  27
ENDBRANCH  13  26
TORSDOF 12
ENDMDL
MODEL 6
REMARK minimizedAffinity -9.37852573
REMARK CNNscore 0.150315911
REMARK CNNaffinity 6.63367844
REMARK  12 active torsions:
REMARK  status: ('A' for Active; 'I' for Inactive)
REMARK    1  A    between atoms: C3_3  and  O1_4 
REMARK    2  A    between atoms: N1_14  and  O2_16 
REMARK    3  A    between atoms: O2_16  and  C13_17 
REMARK    4  A    between atoms: C13_17  and  C14_18 
REMARK       I    between atoms: C14_18  and  N2_20 
REMARK    5  A    between atoms: N2_20  and  C15_21 
REMARK    6  A    between atoms: C15_21  and  C16_22 
REMARK    7  A    between atoms: C15_21  and  C26_36 
REMARK       I    between atoms: C16_22  and  N3_24 
REMARK    8  A    between atoms: N3_24  and  C17_25 
REMARK    9  A    between atoms: C17_25  and  C18_26 
REMARK   10  A    between atoms: C17_25  and  C25_33 
REMARK   11  A    between atoms: C18_26  and  C19_27 
REMARK   12  A    between atoms: C25_33  and  O6_35 
ROOT
HETATM    1  C1  UNL     1       5.822   6.670  11.446  1.00  0.00     0.015 C 
HETATM    2  C2  UNL     1       4.761   6.865  10.911  1.00  0.00    -0.078 C 
HETATM    3  C3  UNL     1       3.450   7.113  10.265  1.00  0.00     0.128 C 
HETATM    4  C4  UNL     1       2.860   5.786   9.757  1.00  0.00     0.052 C 
HETATM    5  C5  UNL     1       1.888   5.306  10.851  1.00  0.00     0.010 C 
HETATM    6  C6  UNL     1       1.963   6.344  11.988  1.00  0.00     0.002 C 
HETATM    7  C7  UNL     1       0.741   6.471  12.928  1.00  0.00    -0.004 C 
HETATM    8  C8  UNL     1       0.108   5.102  13.266  1.00  0.00     0.010 C 
HETATM    9  C9  UNL     1      -1.218   4.861  12.557  1.00  0.00     0.035 C 
HETATM   10  C10 UNL     1      -2.230   5.925  12.888  1.00  0.00    -0.069 C 
HETATM   11  C11 UNL     1      -3.541   5.619  12.955  1.00  0.00     0.030 C 
HETATM   12  C12 UNL     1      -4.555   6.657  13.308  1.00  0.00     0.032 C 
HETATM   13  N1  UNL     1      -5.755   6.425  13.747  1.00  0.00    -0.271 N 
ATOM     14  H1  UNL     1      -6.419   7.156  14.004  1.00  0.00     0.194 HD
HETATM   15  C29 UNL     1      -4.154   8.120  13.195  1.00  0.00     0.060 C 
HETATM   16  C30 UNL     1      -2.773   8.318  12.579  1.00  0.00     0.020 C 
HETATM   17  C31 UNL     1      -1.713   7.336  13.149  1.00  0.00    -0.016 C 
HETATM   18  C32 UNL     1      -1.605   7.574  14.684  1.00  0.00     0.020 C 
HETATM   19  C33 UNL     1      -0.287   7.574  12.518  1.00  0.00     0.002 C 
HETATM   20  C34 UNL     1      -0.252   7.821  11.005  1.00  0.00     0.007 C 
HETATM   21  C35 UNL     1       1.130   8.233  10.481  1.00  0.00     0.014 C 
HETATM   22  C36 UNL     1       2.353   7.642  11.250  1.00  0.00     0.003 C 
HETATM   23  C37 UNL     1       2.902   8.724  12.205  1.00  0.00     0.020 C 
ENDROOT
BRANCH   3  24
HETATM   24  O1  UNL     1       3.648   7.997   9.169  1.00  0.00    -0.377 OA
HETATM   25  H2  UNL     1       4.315   8.650   9.442  1.00  0.00     0.211 HD
ENDBRANCH   3  24
BRANCH  13  26
HETATM   26  O2  UNL     1      -6.031   5.049  13.828  1.00  0.00    -0.271 OA
BRANCH  26  27
HETATM   27  C13 UNL     1      -7.327   4.860  14.365  1.00  0.00     0.303 C 
BRANCH  27  28
HETATM   28  C14 UNL     1      -8.089   6.127  14.766  1.00  0.00     0.244 C 
HETATM   29  O3  UNL     1      -7.783   6.869  15.697  1.00  0.00    -0.271 OA
HETATM   30  N2  UNL     1      -9.177   6.388  13.936  1.00  0.00    -0.346 N 
HETATM   31  H16 UNL     1      -9.103   6.000  13.000  1.00  0.00     0.163 HD
BRANCH  30  32
HETATM   32  C15 UNL     1      -9.836   7.695  14.001  1.00  0.00     0.180 C 
BRANCH  32  33
HETATM   33  C16 UNL     1     -11.357   7.420  14.040  1.00  0.00     0.241 C 
HETATM   34  O4  UNL     1     -11.814   6.312  14.327  1.00  0.00    -0.271 OA
HETATM   35  N3  UNL     1     -12.151   8.516  13.767  1.00  0.00    -0.345 N 
HETATM   36  H18 UNL     1     -11.698   9.290  13.282  1.00  0.00     0.163 HD
BRANCH  35  37
HETATM   37  C17 UNL     1     -13.564   8.342  13.395  1.00  0.00     0.186 C 
BRANCH  37  38
HETATM   38  C18 UNL     1     -14.464   8.531  14.620  1.00  0.00     0.074 C 
BRANCH  38  39
HETATM   39  C19 UNL     1     -15.177   7.260  15.016  1.00  0.00    -0.056 A 
HETATM   40  C20 UNL     1     -15.316   6.215  14.096  1.00  0.00     0.007 A 
HETATM   41  C21 UNL     1     -15.988   5.045  14.450  1.00  0.00     0.001 A 
HETATM   42  C22 UNL     1     -16.536   4.907  15.722  1.00  0.00     0.000 A 
HETATM   43  C23 UNL     1     -16.420   5.950  16.641  1.00  0.00     0.001 A 
HETATM   44  C24 UNL     1     -15.743   7.118  16.293  1.00  0.00     0.007 A 
ENDBRANCH  38  39
ENDBRANCH  37  38
BRANCH  37  45
HETATM   45  C25 UNL     1     -13.906   9.371  12.309  1.00  0.00     0.163 C 
HETATM   46  O5  UNL     1     -14.982   9.547  11.764  1.00  0.00    -0.648 OA
BRANCH  45  47
HETATM   47  O6  UNL     1     -12.854  10.168  11.986  1.00  0.00    -0.775 OA
HETATM   48  H27 UNL     1     -13.191  10.709  11.242  1.00  0.00     0.167 HD
ENDBRANCH  45  47
ENDBRANCH  37  45
ENDBRANCH  35  37
ENDBRANCH  32  33
BRANCH  32  49
HETATM   49  C26 UNL     1      -9.325   8.526  15.199  1.00  0.00     0.009 C 
HETATM   50  C27 UNL     1      -9.656   7.856  16.540  1.00  0.00     0.012 C 
HETATM   51  C28 UNL     1      -7.826   8.846  15.137  1.00  0.00     0.012 C 
ENDBRANCH  32  49
ENDBRANCH  30  32
ENDBRANCH  27  28
ENDBRANCH  26  27
ENDBRANCH  13  26
TORSDOF 12
ENDMDL
MODEL 7
REMARK minimizedAffinity -8.32447815
REMARK CNNscore 0.147265315
REMARK CNNaffinity 5.59828949
REMARK  12 active torsions:
REMARK  status: ('A' for Active; 'I' for Inactive)
REMARK    1  A    between atoms: C3_3  and  O1_4 
REMARK    2  A    between atoms: N1_14  and  O2_16 
REMARK    3  A    between atoms: O2_16  and  C13_17 
REMARK    4  A    between atoms: C13_17  and  C14_18 
REMARK       I    between atoms: C14_18  and  N2_20 
REMARK    5  A    between atoms: N2_20  and  C15_21 
REMARK    6  A    between atoms: C15_21  and  C16_22 
REMARK    7  A    between atoms: C15_21  and  C26_36 
REMARK       I    between atoms: C16_22  and  N3_24 
REMARK    8  A    between atoms: N3_24  and  C17_25 
REMARK    9  A    between atoms: C17_25  and  C18_26 
REMARK   10  A    between atoms: C17_25  and  C25_33 
REMARK   11  A    between atoms: C18_26  and  C19_27 
REMARK   12  A    between atoms: C25_33  and  O6_35 
ROOT
HETATM    1  C1  UNL     1       9.143  16.418  25.840  1.00  0.00     0.015 C 
HETATM    2  C2  UNL     1       8.683  16.493  24.730  1.00  0.00    -0.078 C 
HETATM    3  C3  UNL     1       8.104  16.582  23.368  1.00  0.00     0.128 C 
HETATM    4  C4  UNL     1       8.906  15.695  22.401  1.00  0.00     0.052 C 
HETATM    5  C5  UNL     1       8.139  14.362  22.311  1.00  0.00     0.010 C 
HETATM    6  C6  UNL     1       6.929  14.490  23.257  1.00  0.00     0.002 C 
HETATM    7  C7  UNL     1       5.695  13.602  22.971  1.00  0.00    -0.004 C 
HETATM    8  C8  UNL     1       6.083  12.178  22.513  1.00  0.00     0.010 C 
HETATM    9  C9  UNL     1       5.850  11.939  21.026  1.00  0.00     0.035 C 
HETATM   10  C10 UNL     1       4.413  12.166  20.642  1.00  0.00    -0.069 C 
HETATM   11  C11 UNL     1       3.848  11.436  19.661  1.00  0.00     0.030 C 
HETATM   12  C12 UNL     1       2.416  11.630  19.285  1.00  0.00     0.032 C 
HETATM   13  N1  UNL     1       1.680  10.777  18.638  1.00  0.00    -0.271 N 
ATOM     14  H1  UNL     1       0.695  10.927  18.416  1.00  0.00     0.194 HD
HETATM   15  C29 UNL     1       1.724  12.910  19.730  1.00  0.00     0.060 C 
HETATM   16  C30 UNL     1       2.671  13.905  20.393  1.00  0.00     0.020 C 
HETATM   17  C31 UNL     1       3.635  13.233  21.409  1.00  0.00    -0.016 C 
HETATM   18  C32 UNL     1       2.779  12.555  22.518  1.00  0.00     0.020 C 
HETATM   19  C33 UNL     1       4.589  14.281  22.101  1.00  0.00     0.002 C 
HETATM   20  C34 UNL     1       5.192  15.352  21.184  1.00  0.00     0.007 C 
HETATM   21  C35 UNL     1       5.952  16.451  21.940  1.00  0.00     0.014 C 
HETATM   22  C36 UNL     1       6.650  16.008  23.264  1.00  0.00     0.003 C 
HETATM   23  C37 UNL     1       5.767  16.441  24.453  1.00  0.00     0.020 C 
ENDROOT
BRANCH   3  24
HETATM   24  O1  UNL     1       8.169  17.936  22.938  1.00  0.00    -0.377 OA
HETATM   25  H2  UNL     1       7.975  18.494  23.711  1.00  0.00     0.211 HD
ENDBRANCH   3  24
BRANCH  13  26
HETATM   26  O2  UNL     1       2.400   9.624  18.279  1.00  0.00    -0.271 OA
BRANCH  26  27
HETATM   27  C13 UNL     1       2.153   9.321  16.919  1.00  0.00     0.303 C 
BRANCH  27  28
HETATM   28  C14 UNL     1       0.828   9.825  16.338  1.00  0.00     0.244 C 
HETATM   29  O3  UNL     1       0.644  10.949  15.874  1.00  0.00    -0.271 OA
HETATM   30  N2  UNL     1      -0.173   8.856  16.356  1.00  0.00    -0.346 N 
HETATM   31  H16 UNL     1       0.162   7.897  16.350  1.00  0.00     0.163 HD
BRANCH  30  32
HETATM   32  C15 UNL     1      -1.401   9.075  15.589  1.00  0.00     0.180 C 
BRANCH  32  33
HETATM   33  C16 UNL     1      -1.395   8.039  14.441  1.00  0.00     0.241 C 
HETATM   34  O4  UNL     1      -1.292   8.375  13.259  1.00  0.00    -0.271 OA
HETATM   35  N3  UNL     1      -1.474   6.723  14.847  1.00  0.00    -0.345 N 
HETATM   36  H18 UNL     1      -1.827   6.563  15.790  1.00  0.00     0.163 HD
BRANCH  35  37
HETATM   37  C17 UNL     1      -1.857   5.668  13.895  1.00  0.00     0.186 C 
BRANCH  37  38
HETATM   38  C18 UNL     1      -2.916   6.190  12.919  1.00  0.00     0.074 C 
BRANCH  38  39
HETATM   39  C19 UNL     1      -4.213   5.423  13.009  1.00  0.00    -0.056 A 
HETATM   40  C20 UNL     1      -4.364   4.212  12.325  1.00  0.00     0.007 A 
HETATM   41  C21 UNL     1      -5.566   3.507  12.390  1.00  0.00     0.001 A 
HETATM   42  C22 UNL     1      -6.633   4.005  13.131  1.00  0.00     0.000 A 
HETATM   43  C23 UNL     1      -6.501   5.221  13.803  1.00  0.00     0.001 A 
HETATM   44  C24 UNL     1      -5.299   5.926  13.745  1.00  0.00     0.007 A 
ENDBRANCH  38  39
ENDBRANCH  37  38
BRANCH  37  45
HETATM   45  C25 UNL     1      -0.597   5.223  13.139  1.00  0.00     0.163 C 
HETATM   46  O5  UNL     1       0.559   5.271  13.524  1.00  0.00    -0.648 OA
BRANCH  45  47
HETATM   47  O6  UNL     1      -0.874   4.695  11.918  1.00  0.00    -0.775 OA
HETATM   48  H27 UNL     1       0.010   4.533  11.528  1.00  0.00     0.167 HD
ENDBRANCH  45  47
ENDBRANCH  37  45
ENDBRANCH  35  37
ENDBRANCH  32  33
BRANCH  32  49
HETATM   49  C26 UNL     1      -2.653   8.993  16.491  1.00  0.00     0.009 C 
HETATM   50  C27 UNL     1      -2.572   9.972  17.670  1.00  0.00     0.012 C 
HETATM   51  C28 UNL     1      -3.974   9.199  15.738  1.00  0.00     0.012 C 
ENDBRANCH  32  49
ENDBRANCH  30  32
ENDBRANCH  27  28
ENDBRANCH  26  27
ENDBRANCH  13  26
TORSDOF 12
ENDMDL
MODEL 8
REMARK minimizedAffinity -7.97611189
REMARK CNNscore 0.142783403
REMARK CNNaffinity 6.86808443
REMARK  12 active torsions:
REMARK  status: ('A' for Active; 'I' for Inactive)
REMARK    1  A    between atoms: C3_3  and  O1_4 
REMARK    2  A    between atoms: N1_14  and  O2_16 
REMARK    3  A    between atoms: O2_16  and  C13_17 
REMARK    4  A    between atoms: C13_17  and  C14_18 
REMARK       I    between atoms: C14_18  and  N2_20 
REMARK    5  A    between atoms: N2_20  and  C15_21 
REMARK    6  A    between atoms: C15_21  and  C16_22 
REMARK    7  A    between atoms: C15_21  and  C26_36 
REMARK       I    between atoms: C16_22  and  N3_24 
REMARK    8  A    between atoms: N3_24  and  C17_25 
REMARK    9  A    between atoms: C17_25  and  C18_26 
REMARK   10  A    between atoms: C17_25  and  C25_33 
REMARK   11  A    between atoms: C18_26  and  C19_27 
REMARK   12  A    between atoms: C25_33  and  O6_35 
ROOT
HETATM    1  C1  UNL     1      -0.253   5.546  14.689  1.00  0.00     0.015 C 
HETATM    2  C2  UNL     1      -1.096   6.201  14.132  1.00  0.00    -0.078 C 
HETATM    3  C3  UNL     1      -2.140   7.010  13.459  1.00  0.00     0.128 C 
HETATM    4  C4  UNL     1      -2.829   6.171  12.370  1.00  0.00     0.052 C 
HETATM    5  C5  UNL     1      -4.109   5.606  13.012  1.00  0.00     0.010 C 
HETATM    6  C6  UNL     1      -4.118   6.098  14.473  1.00  0.00     0.002 C 
HETATM    7  C7  UNL     1      -5.484   6.198  15.191  1.00  0.00    -0.004 C 
HETATM    8  C8  UNL     1      -6.427   5.025  14.838  1.00  0.00     0.010 C 
HETATM    9  C9  UNL     1      -7.563   5.426  13.906  1.00  0.00     0.035 C 
HETATM   10  C10 UNL     1      -8.406   6.526  14.492  1.00  0.00    -0.069 C 
HETATM   11  C11 UNL     1      -9.727   6.582  14.234  1.00  0.00     0.030 C 
HETATM   12  C12 UNL     1     -10.582   7.653  14.828  1.00  0.00     0.032 C 
HETATM   13  N1  UNL     1     -11.874   7.609  14.951  1.00  0.00    -0.271 N 
ATOM     14  H1  UNL     1     -12.430   8.346  15.385  1.00  0.00     0.194 HD
HETATM   15  C29 UNL     1      -9.896   8.890  15.389  1.00  0.00     0.060 C 
HETATM   16  C30 UNL     1      -8.395   8.919  15.119  1.00  0.00     0.020 C 
HETATM   17  C31 UNL     1      -7.710   7.551  15.384  1.00  0.00    -0.016 C 
HETATM   18  C32 UNL     1      -7.934   7.175  16.879  1.00  0.00     0.020 C 
HETATM   19  C33 UNL     1      -6.155   7.608  15.124  1.00  0.00     0.002 C 
HETATM   20  C34 UNL     1      -5.710   8.369  13.871  1.00  0.00     0.007 C 
HETATM   21  C35 UNL     1      -4.189   8.555  13.773  1.00  0.00     0.014 C 
HETATM   22  C36 UNL     1      -3.323   7.419  14.401  1.00  0.00     0.003 C 
HETATM   23  C37 UNL     1      -2.828   7.888  15.786  1.00  0.00     0.020 C 
ENDROOT
BRANCH   3  24
HETATM   24  O1  UNL     1      -1.519   8.144  12.867  1.00  0.00    -0.377 OA
HETATM   25  H2  UNL     1      -0.827   8.447  13.479  1.00  0.00     0.211 HD
ENDBRANCH   3  24
BRANCH  13  26
HETATM   26  O2  UNL     1     -12.416   6.427  14.417  1.00  0.00    -0.271 OA
BRANCH  26  27
HETATM   27  C13 UNL     1     -13.486   6.751  13.549  1.00  0.00     0.303 C 
BRANCH  27  28
HETATM   28  C14 UNL     1     -14.831   7.060  14.213  1.00  0.00     0.244 C 
HETATM   29  O3  UNL     1     -15.603   7.951  13.861  1.00  0.00    -0.271 OA
HETATM   30  N2  UNL     1     -15.125   6.197  15.266  1.00  0.00    -0.346 N 
HETATM   31  H16 UNL     1     -14.676   5.288  15.210  1.00  0.00     0.163 HD
BRANCH  30  32
HETATM   32  C15 UNL     1     -16.481   6.171  15.819  1.00  0.00     0.180 C 
BRANCH  32  33
HETATM   33  C16 UNL     1     -16.944   4.695  15.782  1.00  0.00     0.241 C 
HETATM   34  O4  UNL     1     -17.104   4.035  16.811  1.00  0.00    -0.271 OA
HETATM   35  N3  UNL     1     -17.195   4.198  14.520  1.00  0.00    -0.345 N 
HETATM   36  H18 UNL     1     -16.780   4.710  13.743  1.00  0.00     0.163 HD
BRANCH  35  37
HETATM   37  C17 UNL     1     -17.268   2.747  14.288  1.00  0.00     0.186 C 
BRANCH  37  38
HETATM   38  C18 UNL     1     -16.038   2.051  14.878  1.00  0.00     0.074 C 
BRANCH  38  39
HETATM   39  C19 UNL     1     -15.808   0.681  14.286  1.00  0.00    -0.056 A 
HETATM   40  C20 UNL     1     -15.894   0.489  12.902  1.00  0.00     0.007 A 
HETATM   41  C21 UNL     1     -15.700  -0.777  12.350  1.00  0.00     0.001 A 
HETATM   42  C22 UNL     1     -15.426  -1.867  13.171  1.00  0.00     0.000 A 
HETATM   43  C23 UNL     1     -15.356  -1.691  14.553  1.00  0.00     0.001 A 
HETATM   44  C24 UNL     1     -15.543  -0.426  15.109  1.00  0.00     0.007 A 
ENDBRANCH  38  39
ENDBRANCH  37  38
BRANCH  37  45
HETATM   45  C25 UNL     1     -18.553   2.219  14.943  1.00  0.00     0.163 C 
HETATM   46  O5  UNL     1     -19.688   2.273  14.503  1.00  0.00    -0.648 OA
BRANCH  45  47
HETATM   47  O6  UNL     1     -18.324   1.604  16.133  1.00  0.00    -0.775 OA
HETATM   48  H27 UNL     1     -19.222   1.394  16.463  1.00  0.00     0.167 HD
ENDBRANCH  45  47
ENDBRANCH  37  45
ENDBRANCH  35  37
ENDBRANCH  32  33
BRANCH  32  49
HETATM   49  C26 UNL     1     -16.529   6.800  17.229  1.00  0.00     0.009 C 
HETATM   50  C27 UNL     1     -17.241   5.887  18.237  1.00  0.00     0.012 C 
HETATM   51  C28 UNL     1     -15.153   7.200  17.776  1.00  0.00     0.012 C 
ENDBRANCH  32  49
ENDBRANCH  30  32
ENDBRANCH  27  28
ENDBRANCH  26  27
ENDBRANCH  13  26
TORSDOF 12
ENDMDL
MODEL 9
REMARK minimizedAffinity -9.34850883
REMARK CNNscore 0.141894877
REMARK CNNaffinity 5.36512232
REMARK  12 active torsions:
REMARK  status: ('A' for Active; 'I' for Inactive)
REMARK    1  A    between atoms: C3_3  and  O1_4 
REMARK    2  A    between atoms: N1_14  and  O2_16 
REMARK    3  A    between atoms: O2_16  and  C13_17 
REMARK    4  A    between atoms: C13_17  and  C14_18 
REMARK       I    between atoms: C14_18  and  N2_20 
REMARK    5  A    between atoms: N2_20  and  C15_21 
REMARK    6  A    between atoms: C15_21  and  C16_22 
REMARK    7  A    between atoms: C15_21  and  C26_36 
REMARK       I    between atoms: C16_22  and  N3_24 
REMARK    8  A    between atoms: N3_24  and  C17_25 
REMARK    9  A    between atoms: C17_25  and  C18_26 
REMARK   10  A    between atoms: C17_25  and  C25_33 
REMARK   11  A    between atoms: C18_26  and  C19_27 
REMARK   12  A    between atoms: C25_33  and  O6_35 
ROOT
HETATM    1  C1  UNL     1       8.050  15.051  23.774  1.00  0.00     0.015 C 
HETATM    2  C2  UNL     1       7.892  14.055  23.117  1.00  0.00    -0.078 C 
HETATM    3  C3  UNL     1       7.691  12.835  22.297  1.00  0.00     0.128 C 
HETATM    4  C4  UNL     1       6.811  11.832  23.062  1.00  0.00     0.052 C 
HETATM    5  C5  UNL     1       5.375  12.046  22.548  1.00  0.00     0.010 C 
HETATM    6  C6  UNL     1       5.446  13.196  21.523  1.00  0.00     0.002 C 
HETATM    7  C7  UNL     1       4.343  13.265  20.441  1.00  0.00    -0.004 C 
HETATM    8  C8  UNL     1       2.946  12.899  20.994  1.00  0.00     0.010 C 
HETATM    9  C9  UNL     1       2.463  11.525  20.547  1.00  0.00     0.035 C 
HETATM   10  C10 UNL     1       2.402  11.415  19.047  1.00  0.00    -0.069 C 
HETATM   11  C11 UNL     1       1.458  10.654  18.459  1.00  0.00     0.030 C 
HETATM   12  C12 UNL     1       1.368  10.554  16.971  1.00  0.00     0.032 C 
HETATM   13  N1  UNL     1       0.326  10.167  16.300  1.00  0.00    -0.271 N 
ATOM     14  H1  UNL     1       0.285  10.132  15.281  1.00  0.00     0.194 HD
HETATM   15  C29 UNL     1       2.574  10.984  16.149  1.00  0.00     0.060 C 
HETATM   16  C30 UNL     1       3.791  11.328  17.002  1.00  0.00     0.020 C 
HETATM   17  C31 UNL     1       3.432  12.198  18.238  1.00  0.00    -0.016 C 
HETATM   18  C32 UNL     1       2.795  13.525  17.731  1.00  0.00     0.020 C 
HETATM   19  C33 UNL     1       4.707  12.564  19.093  1.00  0.00     0.002 C 
HETATM   20  C34 UNL     1       5.715  11.432  19.317  1.00  0.00     0.007 C 
HETATM   21  C35 UNL     1       7.018  11.892  19.986  1.00  0.00     0.014 C 
HETATM   22  C36 UNL     1       6.886  13.090  20.978  1.00  0.00     0.003 C 
HETATM   23  C37 UNL     1       7.342  14.377  20.257  1.00  0.00     0.020 C 
ENDROOT
BRANCH   3  24
HETATM   24  O1  UNL     1       8.962  12.254  22.037  1.00  0.00    -0.377 OA
HETATM   25  H2  UNL     1       9.588  12.983  21.885  1.00  0.00     0.211 HD
ENDBRANCH   3  24
BRANCH  13  26
HETATM   26  O2  UNL     1      -0.739   9.801  17.142  1.00  0.00    -0.271 OA
BRANCH  26  27
HETATM   27  C13 UNL     1      -1.399   8.672  16.601  1.00  0.00     0.303 C 
BRANCH  27  28
HETATM   28  C14 UNL     1      -0.524   7.671  15.840  1.00  0.00     0.244 C 
HETATM   29  O3  UNL     1       0.480   7.127  16.293  1.00  0.00    -0.271 OA
HETATM   30  N2  UNL     1      -1.001   7.403  14.559  1.00  0.00    -0.346 N 
HETATM   31  H16 UNL     1      -1.998   7.546  14.436  1.00  0.00     0.163 HD
BRANCH  30  32
HETATM   32  C15 UNL     1      -0.453   6.269  13.810  1.00  0.00     0.180 C 
BRANCH  32  33
HETATM   33  C16 UNL     1      -1.657   5.386  13.404  1.00  0.00     0.241 C 
HETATM   34  O4  UNL     1      -2.701   5.364  14.059  1.00  0.00    -0.271 OA
HETATM   35  N3  UNL     1      -1.480   4.665  12.241  1.00  0.00    -0.345 N 
HETATM   36  H18 UNL     1      -0.517   4.536  11.933  1.00  0.00     0.163 HD
BRANCH  35  37
HETATM   37  C17 UNL     1      -2.350   3.520  11.932  1.00  0.00     0.186 C 
BRANCH  37  38
HETATM   38  C18 UNL     1      -3.571   3.979  11.131  1.00  0.00     0.074 C 
BRANCH  38  39
HETATM   39  C19 UNL     1      -4.856   3.359  11.627  1.00  0.00    -0.056 A 
HETATM   40  C20 UNL     1      -5.664   4.047  12.539  1.00  0.00     0.007 A 
HETATM   41  C21 UNL     1      -6.843   3.473  13.014  1.00  0.00     0.001 A 
HETATM   42  C22 UNL     1      -7.225   2.203  12.591  1.00  0.00     0.000 A 
HETATM   43  C23 UNL     1      -6.419   1.500  11.696  1.00  0.00     0.001 A 
HETATM   44  C24 UNL     1      -5.242   2.073  11.214  1.00  0.00     0.007 A 
ENDBRANCH  38  39
ENDBRANCH  37  38
BRANCH  37  45
HETATM   45  C25 UNL     1      -1.532   2.497  11.131  1.00  0.00     0.163 C 
HETATM   46  O5  UNL     1      -0.636   1.777  11.539  1.00  0.00    -0.648 OA
BRANCH  45  47
HETATM   47  O6  UNL     1      -1.922   2.409   9.832  1.00  0.00    -0.775 OA
HETATM   48  H27 UNL     1      -1.275   1.791   9.435  1.00  0.00     0.167 HD
ENDBRANCH  45  47
ENDBRANCH  37  45
ENDBRANCH  35  37
ENDBRANCH  32  33
BRANCH  32  49
HETATM   49  C26 UNL     1       0.401   6.741  12.613  1.00  0.00     0.009 C 
HETATM   50  C27 UNL     1       1.862   6.988  13.016  1.00  0.00     0.012 C 
HETATM   51  C28 UNL     1       0.351   5.797  11.405  1.00  0.00     0.012 C 
ENDBRANCH  32  49
ENDBRANCH  30  32
ENDBRANCH  27  28
ENDBRANCH  26  27
ENDBRANCH  13  26
TORSDOF 12
ENDMDL
