MODEL 1
REMARK minimizedAffinity -5.15047836
REMARK CNNscore 0.463336438
REMARK CNNaffinity 6.15650034
REMARK  16 active torsions:
REMARK  status: ('A' for Active; 'I' for Inactive)
REMARK    1  A    between atoms: C2_2  and  C3_3 
REMARK    2  A    between atoms: C3_3  and  C4_4 
REMARK    3  A    between atoms: C4_4  and  C5_5 
REMARK    4  A    between atoms: C5_5  and  C6_6 
REMARK    5  A    between atoms: C6_6  and  C7_7 
REMARK    6  A    between atoms: C7_7  and  C8_8 
REMARK    7  A    between atoms: C8_8  and  N1_9 
REMARK    8  A    between atoms: N1_9  and  C9_10 
REMARK    9  A    between atoms: N1_9  and  C11_12 
REMARK   10  A    between atoms: N1_9  and  C13_14 
REMARK   11  A    between atoms: C13_14  and  C14_15 
REMARK   12  A    between atoms: C14_15  and  O1_16 
REMARK   13  A    between atoms: O1_16  and  C15_17 
REMARK   14  A    between atoms: C15_17  and  C16_19 
REMARK   15  A    between atoms: C16_19  and  C17_20 
REMARK   16  A    between atoms: C16_19  and  C22_25 
ROOT
HETATM    1  C14 UNL     1       2.041  52.742  -9.712  1.00  0.00     0.206 C 
ENDROOT
BRANCH   1   2
HETATM    2  C13 UNL     1       0.561  52.952  -9.345  1.00  0.00     0.264 C 
BRANCH   2   3
HETATM    3  N1  UNL     1      -0.474  52.984 -10.541  1.00  0.00    -0.066 N 
BRANCH   3   4
HETATM    4  C8  UNL     1       0.292  53.282 -11.854  1.00  0.00     0.237 C 
BRANCH   4   5
HETATM    5  C7  UNL     1       0.136  52.234 -12.953  1.00  0.00     0.028 C 
BRANCH   5   6
HETATM    6  C6  UNL     1       1.473  51.530 -13.218  1.00  0.00     0.002 C 
BRANCH   6   7
HETATM    7  C5  UNL     1       2.026  51.778 -14.626  1.00  0.00     0.000 C 
BRANCH   7   8
HETATM    8  C4  UNL     1       0.965  51.663 -15.725  1.00  0.00     0.000 C 
BRANCH   8   9
HETATM    9  C3  UNL     1       1.385  52.322 -17.043  1.00  0.00    -0.000 C 
BRANCH   9  10
HETATM   10  C2  UNL     1       0.384  52.109 -18.179  1.00  0.00    -0.005 C 
HETATM   11  C1  UNL     1       0.643  53.066 -19.333  1.00  0.00     0.005 C 
ENDBRANCH   9  10
ENDBRANCH   8   9
ENDBRANCH   7   8
ENDBRANCH   6   7
ENDBRANCH   5   6
ENDBRANCH   4   5
ENDBRANCH   3   4
BRANCH   3  12
HETATM   12  C9  UNL     1      -1.058  51.522 -10.569  1.00  0.00     0.233 C 
HETATM   13  C10 UNL     1      -2.300  51.288  -9.719  1.00  0.00     0.035 C 
ENDBRANCH   3  12
BRANCH   3  14
HETATM   14  C11 UNL     1      -1.612  53.985 -10.239  1.00  0.00     0.233 C 
HETATM   15  C12 UNL     1      -1.176  55.426 -10.053  1.00  0.00     0.035 C 
ENDBRANCH   3  14
ENDBRANCH   2   3
ENDBRANCH   1   2
BRANCH   1  16
HETATM   16  O1  UNL     1       2.861  53.810  -9.199  1.00  0.00    -0.319 OA
BRANCH  16  17
HETATM   17  C15 UNL     1       3.602  54.472 -10.131  1.00  0.00     0.263 C 
HETATM   18  O2  UNL     1       3.633  54.148 -11.311  1.00  0.00    -0.265 OA
BRANCH  17  19
HETATM   19  C16 UNL     1       4.373  55.647  -9.543  1.00  0.00     0.093 C 
BRANCH  19  20
HETATM   20  C17 UNL     1       5.870  55.284  -9.324  1.00  0.00    -0.001 C 
HETATM   21  C18 UNL     1       6.168  53.780  -9.347  1.00  0.00     0.005 C 
HETATM   22  C19 UNL     1       5.783  53.284  -7.959  1.00  0.00     0.000 C 
HETATM   23  C20 UNL     1       5.957  54.482  -7.026  1.00  0.00     0.000 C 
HETATM   24  C21 UNL     1       6.369  55.651  -7.917  1.00  0.00     0.005 C 
ENDBRANCH  19  20
BRANCH  19  25
HETATM   25  C22 UNL     1       3.677  56.218  -8.288  1.00  0.00    -0.001 C 
HETATM   26  C23 UNL     1       3.938  57.700  -8.006  1.00  0.00     0.005 C 
HETATM   27  C24 UNL     1       2.943  58.023  -6.900  1.00  0.00     0.000 C 
HETATM   28  C25 UNL     1       1.735  57.122  -7.156  1.00  0.00     0.000 C 
HETATM   29  C26 UNL     1       2.150  56.147  -8.259  1.00  0.00     0.005 C 
ENDBRANCH  19  25
ENDBRANCH  17  19
ENDBRANCH  16  17
ENDBRANCH   1  16
TORSDOF 16
ENDMDL
MODEL 2
REMARK minimizedAffinity -6.56454849
REMARK CNNscore 0.358105183
REMARK CNNaffinity 6.83651495
REMARK  16 active torsions:
REMARK  status: ('A' for Active; 'I' for Inactive)
REMARK    1  A    between atoms: C2_2  and  C3_3 
REMARK    2  A    between atoms: C3_3  and  C4_4 
REMARK    3  A    between atoms: C4_4  and  C5_5 
REMARK    4  A    between atoms: C5_5  and  C6_6 
REMARK    5  A    between atoms: C6_6  and  C7_7 
REMARK    6  A    between atoms: C7_7  and  C8_8 
REMARK    7  A    between atoms: C8_8  and  N1_9 
REMARK    8  A    between atoms: N1_9  and  C9_10 
REMARK    9  A    between atoms: N1_9  and  C11_12 
REMARK   10  A    between atoms: N1_9  and  C13_14 
REMARK   11  A    between atoms: C13_14  and  C14_15 
REMARK   12  A    between atoms: C14_15  and  O1_16 
REMARK   13  A    between atoms: O1_16  and  C15_17 
REMARK   14  A    between atoms: C15_17  and  C16_19 
REMARK   15  A    between atoms: C16_19  and  C17_20 
REMARK   16  A    between atoms: C16_19  and  C22_25 
ROOT
HETATM    1  C14 UNL     1      -3.466  51.915 -25.600  1.00  0.00     0.206 C 
ENDROOT
BRANCH   1   2
HETATM    2  C13 UNL     1      -4.296  51.151 -24.551  1.00  0.00     0.264 C 
BRANCH   2   3
HETATM    3  N1  UNL     1      -4.150  49.576 -24.534  1.00  0.00    -0.066 N 
BRANCH   3   4
HETATM    4  C8  UNL     1      -2.920  49.198 -23.670  1.00  0.00     0.237 C 
BRANCH   4   5
HETATM    5  C7  UNL     1      -3.191  48.194 -22.553  1.00  0.00     0.028 C 
BRANCH   5   6
HETATM    6  C6  UNL     1      -1.986  48.101 -21.609  1.00  0.00     0.002 C 
BRANCH   6   7
HETATM    7  C5  UNL     1      -1.084  49.340 -21.645  1.00  0.00     0.000 C 
BRANCH   7   8
HETATM    8  C4  UNL     1      -0.461  49.678 -20.288  1.00  0.00     0.000 C 
BRANCH   8   9
HETATM    9  C3  UNL     1      -1.395  50.476 -19.372  1.00  0.00    -0.000 C 
BRANCH   9  10
HETATM   10  C2  UNL     1      -0.691  51.593 -18.602  1.00  0.00    -0.005 C 
HETATM   11  C1  UNL     1       0.185  51.034 -17.491  1.00  0.00     0.005 C 
ENDBRANCH   9  10
ENDBRANCH   8   9
ENDBRANCH   7   8
ENDBRANCH   6   7
ENDBRANCH   5   6
ENDBRANCH   4   5
ENDBRANCH   3   4
BRANCH   3  12
HETATM   12  C9  UNL     1      -5.476  49.085 -23.841  1.00  0.00     0.233 C 
HETATM   13  C10 UNL     1      -6.297  48.070 -24.625  1.00  0.00     0.035 C 
ENDBRANCH   3  12
BRANCH   3  14
HETATM   14  C11 UNL     1      -4.092  49.027 -25.978  1.00  0.00     0.233 C 
HETATM   15  C12 UNL     1      -2.740  48.500 -26.418  1.00  0.00     0.035 C 
ENDBRANCH   3  14
ENDBRANCH   2   3
ENDBRANCH   1   2
BRANCH   1  16
HETATM   16  O1  UNL     1      -2.266  52.458 -25.018  1.00  0.00    -0.319 OA
BRANCH  16  17
HETATM   17  C15 UNL     1      -1.367  52.966 -25.907  1.00  0.00     0.263 C 
HETATM   18  O2  UNL     1      -1.694  53.437 -26.989  1.00  0.00    -0.265 OA
BRANCH  17  19
HETATM   19  C16 UNL     1       0.069  52.883 -25.406  1.00  0.00     0.093 C 
BRANCH  19  20
HETATM   20  C17 UNL     1       0.682  51.482 -25.688  1.00  0.00    -0.001 C 
HETATM   21  C18 UNL     1       2.177  51.500 -26.031  1.00  0.00     0.005 C 
HETATM   22  C19 UNL     1       2.237  51.889 -27.503  1.00  0.00     0.000 C 
HETATM   23  C20 UNL     1       0.918  51.414 -28.112  1.00  0.00     0.000 C 
HETATM   24  C21 UNL     1       0.109  50.829 -26.957  1.00  0.00     0.005 C 
ENDBRANCH  19  20
BRANCH  19  25
HETATM   25  C22 UNL     1       0.188  53.333 -23.934  1.00  0.00    -0.001 C 
HETATM   26  C23 UNL     1       0.572  52.236 -22.938  1.00  0.00     0.005 C 
HETATM   27  C24 UNL     1       0.860  53.012 -21.660  1.00  0.00     0.000 C 
HETATM   28  C25 UNL     1       1.413  54.363 -22.115  1.00  0.00     0.000 C 
HETATM   29  C26 UNL     1       1.219  54.421 -23.631  1.00  0.00     0.005 C 
ENDBRANCH  19  25
ENDBRANCH  17  19
ENDBRANCH  16  17
ENDBRANCH   1  16
TORSDOF 16
ENDMDL
MODEL 3
REMARK minimizedAffinity -6.15230417
REMARK CNNscore 0.314739227
REMARK CNNaffinity 6.71438551
REMARK  16 active torsions:
REMARK  status: ('A' for Active; 'I' for Inactive)
REMARK    1  A    between atoms: C2_2  and  C3_3 
REMARK    2  A    between atoms: C3_3  and  C4_4 
REMARK    3  A    between atoms: C4_4  and  C5_5 
REMARK    4  A    between atoms: C5_5  and  C6_6 
REMARK    5  A    between atoms: C6_6  and  C7_7 
REMARK    6  A    between atoms: C7_7  and  C8_8 
REMARK    7  A    between atoms: C8_8  and  N1_9 
REMARK    8  A    between atoms: N1_9  and  C9_10 
REMARK    9  A    between atoms: N1_9  and  C11_12 
REMARK   10  A    between atoms: N1_9  and  C13_14 
REMARK   11  A    between atoms: C13_14  and  C14_15 
REMARK   12  A    between atoms: C14_15  and  O1_16 
REMARK   13  A    between atoms: O1_16  and  C15_17 
REMARK   14  A    between atoms: C15_17  and  C16_19 
REMARK   15  A    between atoms: C16_19  and  C17_20 
REMARK   16  A    between atoms: C16_19  and  C22_25 
ROOT
HETATM    1  C14 UNL     1      -3.611  49.878 -25.392  1.00  0.00     0.206 C 
ENDROOT
BRANCH   1   2
HETATM    2  C13 UNL     1      -3.191  48.964 -24.227  1.00  0.00     0.264 C 
BRANCH   2   3
HETATM    3  N1  UNL     1      -4.227  48.793 -23.043  1.00  0.00    -0.066 N 
BRANCH   3   4
HETATM    4  C8  UNL     1      -3.501  48.149 -21.835  1.00  0.00     0.237 C 
BRANCH   4   5
HETATM    5  C7  UNL     1      -2.039  47.783 -22.072  1.00  0.00     0.028 C 
BRANCH   5   6
HETATM    6  C6  UNL     1      -1.251  47.837 -20.757  1.00  0.00     0.002 C 
BRANCH   6   7
HETATM    7  C5  UNL     1      -2.110  48.218 -19.545  1.00  0.00     0.000 C 
BRANCH   7   8
HETATM    8  C4  UNL     1      -1.643  49.498 -18.846  1.00  0.00     0.000 C 
BRANCH   8   9
HETATM    9  C3  UNL     1      -0.667  49.238 -17.694  1.00  0.00    -0.000 C 
BRANCH   9  10
HETATM   10  C2  UNL     1       0.204  50.445 -17.345  1.00  0.00    -0.005 C 
HETATM   11  C1  UNL     1       0.026  51.568 -18.356  1.00  0.00     0.005 C 
ENDBRANCH   9  10
ENDBRANCH   8   9
ENDBRANCH   7   8
ENDBRANCH   6   7
ENDBRANCH   5   6
ENDBRANCH   4   5
ENDBRANCH   3   4
BRANCH   3  12
HETATM   12  C9  UNL     1      -4.650  50.271 -22.701  1.00  0.00     0.233 C 
HETATM   13  C10 UNL     1      -6.133  50.585 -22.844  1.00  0.00     0.035 C 
ENDBRANCH   3  12
BRANCH   3  14
HETATM   14  C11 UNL     1      -5.465  48.003 -23.524  1.00  0.00     0.233 C 
HETATM   15  C12 UNL     1      -6.025  47.006 -22.528  1.00  0.00     0.035 C 
ENDBRANCH   3  14
ENDBRANCH   2   3
ENDBRANCH   1   2
BRANCH   1  16
HETATM   16  O1  UNL     1      -2.463  50.353 -26.121  1.00  0.00    -0.319 OA
BRANCH  16  17
HETATM   17  C15 UNL     1      -2.122  51.652 -25.886  1.00  0.00     0.263 C 
HETATM   18  O2  UNL     1      -2.831  52.595 -26.212  1.00  0.00    -0.265 OA
BRANCH  17  19
HETATM   19  C16 UNL     1      -0.779  51.790 -25.181  1.00  0.00     0.093 C 
BRANCH  19  20
HETATM   20  C17 UNL     1      -0.871  52.785 -23.988  1.00  0.00    -0.001 C 
HETATM   21  C18 UNL     1       0.436  52.958 -23.205  1.00  0.00     0.005 C 
HETATM   22  C19 UNL     1       0.497  51.754 -22.273  1.00  0.00     0.000 C 
HETATM   23  C20 UNL     1      -0.955  51.349 -22.023  1.00  0.00     0.000 C 
HETATM   24  C21 UNL     1      -1.806  52.289 -22.874  1.00  0.00     0.005 C 
ENDBRANCH  19  20
BRANCH  19  25
HETATM   25  C22 UNL     1       0.359  52.107 -26.175  1.00  0.00    -0.001 C 
HETATM   26  C23 UNL     1       1.678  51.372 -25.923  1.00  0.00     0.005 C 
HETATM   27  C24 UNL     1       2.490  51.677 -27.175  1.00  0.00     0.000 C 
HETATM   28  C25 UNL     1       1.470  51.803 -28.306  1.00  0.00     0.000 C 
HETATM   29  C26 UNL     1       0.090  51.793 -27.648  1.00  0.00     0.005 C 
ENDBRANCH  19  25
ENDBRANCH  17  19
ENDBRANCH  16  17
ENDBRANCH   1  16
TORSDOF 16
ENDMDL
MODEL 4
REMARK minimizedAffinity -5.37700701
REMARK CNNscore 0.307739824
REMARK CNNaffinity 6.05630636
REMARK  16 active torsions:
REMARK  status: ('A' for Active; 'I' for Inactive)
REMARK    1  A    between atoms: C2_2  and  C3_3 
REMARK    2  A    between atoms: C3_3  and  C4_4 
REMARK    3  A    between atoms: C4_4  and  C5_5 
REMARK    4  A    between atoms: C5_5  and  C6_6 
REMARK    5  A    between atoms: C6_6  and  C7_7 
REMARK    6  A    between atoms: C7_7  and  C8_8 
REMARK    7  A    between atoms: C8_8  and  N1_9 
REMARK    8  A    between atoms: N1_9  and  C9_10 
REMARK    9  A    between atoms: N1_9  and  C11_12 
REMARK   10  A    between atoms: N1_9  and  C13_14 
REMARK   11  A    between atoms: C13_14  and  C14_15 
REMARK   12  A    between atoms: C14_15  and  O1_16 
REMARK   13  A    between atoms: O1_16  and  C15_17 
REMARK   14  A    between atoms: C15_17  and  C16_19 
REMARK   15  A    between atoms: C16_19  and  C17_20 
REMARK   16  A    between atoms: C16_19  and  C22_25 
ROOT
HETATM    1  C14 UNL     1       2.614  52.088 -12.531  1.00  0.00     0.206 C 
ENDROOT
BRANCH   1   2
HETATM    2  C13 UNL     1       2.103  50.911 -13.383  1.00  0.00     0.264 C 
BRANCH   2   3
HETATM    3  N1  UNL     1       0.963  51.232 -14.432  1.00  0.00    -0.066 N 
BRANCH   3   4
HETATM    4  C8  UNL     1       1.609  51.865 -15.691  1.00  0.00     0.237 C 
BRANCH   4   5
HETATM    5  C7  UNL     1       0.812  51.704 -16.983  1.00  0.00     0.028 C 
BRANCH   5   6
HETATM    6  C6  UNL     1       1.293  52.708 -18.038  1.00  0.00     0.002 C 
BRANCH   6   7
HETATM    7  C5  UNL     1       0.204  53.110 -19.040  1.00  0.00     0.000 C 
BRANCH   7   8
HETATM    8  C4  UNL     1       0.723  53.262 -20.473  1.00  0.00     0.000 C 
BRANCH   8   9
HETATM    9  C3  UNL     1       0.091  52.270 -21.455  1.00  0.00    -0.000 C 
BRANCH   9  10
HETATM   10  C2  UNL     1      -0.879  51.289 -20.795  1.00  0.00    -0.005 C 
HETATM   11  C1  UNL     1      -0.285  49.891 -20.713  1.00  0.00     0.005 C 
ENDBRANCH   9  10
ENDBRANCH   8   9
ENDBRANCH   7   8
ENDBRANCH   6   7
ENDBRANCH   5   6
ENDBRANCH   4   5
ENDBRANCH   3   4
BRANCH   3  12
HETATM   12  C9  UNL     1       0.366  49.816 -14.778  1.00  0.00     0.233 C 
HETATM   13  C10 UNL     1       1.247  48.623 -14.431  1.00  0.00     0.035 C 
ENDBRANCH   3  12
BRANCH   3  14
HETATM   14  C11 UNL     1      -0.133  52.107 -13.784  1.00  0.00     0.233 C 
HETATM   15  C12 UNL     1      -1.449  51.403 -13.515  1.00  0.00     0.035 C 
ENDBRANCH   3  14
ENDBRANCH   2   3
ENDBRANCH   1   2
BRANCH   1  16
HETATM   16  O1  UNL     1       3.060  51.638 -11.237  1.00  0.00    -0.319 OA
BRANCH  16  17
HETATM   17  C15 UNL     1       3.335  52.627 -10.341  1.00  0.00     0.263 C 
HETATM   18  O2  UNL     1       3.915  52.424  -9.282  1.00  0.00    -0.265 OA
BRANCH  17  19
HETATM   19  C16 UNL     1       2.847  53.994 -10.804  1.00  0.00     0.093 C 
BRANCH  19  20
HETATM   20  C17 UNL     1       4.033  54.987 -10.971  1.00  0.00    -0.001 C 
HETATM   21  C18 UNL     1       5.064  54.941  -9.837  1.00  0.00     0.005 C 
HETATM   22  C19 UNL     1       4.450  55.769  -8.715  1.00  0.00     0.000 C 
HETATM   23  C20 UNL     1       3.532  56.779  -9.400  1.00  0.00     0.000 C 
HETATM   24  C21 UNL     1       3.589  56.457 -10.891  1.00  0.00     0.005 C 
ENDBRANCH  19  20
BRANCH  19  25
HETATM   25  C22 UNL     1       1.705  54.526  -9.911  1.00  0.00    -0.001 C 
HETATM   26  C23 UNL     1       0.386  54.814 -10.632  1.00  0.00     0.005 C 
HETATM   27  C24 UNL     1      -0.588  55.062  -9.487  1.00  0.00     0.000 C 
HETATM   28  C25 UNL     1      -0.103  54.180  -8.337  1.00  0.00     0.000 C 
HETATM   29  C26 UNL     1       1.255  53.622  -8.763  1.00  0.00     0.005 C 
ENDBRANCH  19  25
ENDBRANCH  17  19
ENDBRANCH  16  17
ENDBRANCH   1  16
TORSDOF 16
ENDMDL
MODEL 5
REMARK minimizedAffinity -5.7064476
REMARK CNNscore 0.304192096
REMARK CNNaffinity 6.30559158
REMARK  16 active torsions:
REMARK  status: ('A' for Active; 'I' for Inactive)
REMARK    1  A    between atoms: C2_2  and  C3_3 
REMARK    2  A    between atoms: C3_3  and  C4_4 
REMARK    3  A    between atoms: C4_4  and  C5_5 
REMARK    4  A    between atoms: C5_5  and  C6_6 
REMARK    5  A    between atoms: C6_6  and  C7_7 
REMARK    6  A    between atoms: C7_7  and  C8_8 
REMARK    7  A    between atoms: C8_8  and  N1_9 
REMARK    8  A    between atoms: N1_9  and  C9_10 
REMARK    9  A    between atoms: N1_9  and  C11_12 
REMARK   10  A    between atoms: N1_9  and  C13_14 
REMARK   11  A    between atoms: C13_14  and  C14_15 
REMARK   12  A    between atoms: C14_15  and  O1_16 
REMARK   13  A    between atoms: O1_16  and  C15_17 
REMARK   14  A    between atoms: C15_17  and  C16_19 
REMARK   15  A    between atoms: C16_19  and  C17_20 
REMARK   16  A    between atoms: C16_19  and  C22_25 
ROOT
HETATM    1  C14 UNL     1      -1.235  50.589 -14.239  1.00  0.00     0.206 C 
ENDROOT
BRANCH   1   2
HETATM    2  C13 UNL     1      -1.567  51.860 -13.435  1.00  0.00     0.264 C 
BRANCH   2   3
HETATM    3  N1  UNL     1      -1.510  51.742 -11.858  1.00  0.00    -0.066 N 
BRANCH   3   4
HETATM    4  C8  UNL     1      -0.608  52.873 -11.305  1.00  0.00     0.237 C 
BRANCH   4   5
HETATM    5  C7  UNL     1      -1.026  53.437  -9.950  1.00  0.00     0.028 C 
BRANCH   5   6
HETATM    6  C6  UNL     1      -0.968  54.970  -9.965  1.00  0.00     0.002 C 
BRANCH   6   7
HETATM    7  C5  UNL     1       0.046  55.554  -8.974  1.00  0.00     0.000 C 
BRANCH   7   8
HETATM    8  C4  UNL     1       1.500  55.248  -9.341  1.00  0.00     0.000 C 
BRANCH   8   9
HETATM    9  C3  UNL     1       2.512  56.106  -8.575  1.00  0.00    -0.000 C 
BRANCH   9  10
HETATM   10  C2  UNL     1       3.640  56.652  -9.452  1.00  0.00    -0.005 C 
HETATM   11  C1  UNL     1       3.412  56.321 -10.919  1.00  0.00     0.005 C 
ENDBRANCH   9  10
ENDBRANCH   8   9
ENDBRANCH   7   8
ENDBRANCH   6   7
ENDBRANCH   5   6
ENDBRANCH   4   5
ENDBRANCH   3   4
BRANCH   3  12
HETATM   12  C9  UNL     1      -3.004  51.968 -11.413  1.00  0.00     0.233 C 
HETATM   13  C10 UNL     1      -3.832  52.878 -12.311  1.00  0.00     0.035 C 
ENDBRANCH   3  12
BRANCH   3  14
HETATM   14  C11 UNL     1      -1.061  50.323 -11.442  1.00  0.00     0.233 C 
HETATM   15  C12 UNL     1       0.368  50.215 -10.945  1.00  0.00     0.035 C 
ENDBRANCH   3  14
ENDBRANCH   2   3
ENDBRANCH   1   2
BRANCH   1  16
HETATM   16  O1  UNL     1      -0.904  50.910 -15.604  1.00  0.00    -0.319 OA
BRANCH  16  17
HETATM   17  C15 UNL     1       0.258  50.367 -16.063  1.00  0.00     0.263 C 
HETATM   18  O2  UNL     1       0.581  49.205 -15.850  1.00  0.00    -0.265 OA
BRANCH  17  19
HETATM   19  C16 UNL     1       1.097  51.358 -16.861  1.00  0.00     0.093 C 
BRANCH  19  20
HETATM   20  C17 UNL     1       1.716  52.444 -15.935  1.00  0.00    -0.001 C 
HETATM   21  C18 UNL     1       3.041  53.027 -16.439  1.00  0.00     0.005 C 
HETATM   22  C19 UNL     1       4.097  52.002 -16.043  1.00  0.00     0.000 C 
HETATM   23  C20 UNL     1       3.543  51.292 -14.809  1.00  0.00     0.000 C 
HETATM   24  C21 UNL     1       2.154  51.881 -14.573  1.00  0.00     0.005 C 
ENDBRANCH  19  20
BRANCH  19  25
HETATM   25  C22 UNL     1       0.314  51.931 -18.062  1.00  0.00    -0.001 C 
HETATM   26  C23 UNL     1       1.116  52.842 -18.996  1.00  0.00     0.005 C 
HETATM   27  C24 UNL     1       0.182  53.029 -20.184  1.00  0.00     0.000 C 
HETATM   28  C25 UNL     1      -0.614  51.729 -20.291  1.00  0.00     0.000 C 
HETATM   29  C26 UNL     1      -0.286  50.917 -19.037  1.00  0.00     0.005 C 
ENDBRANCH  19  25
ENDBRANCH  17  19
ENDBRANCH  16  17
ENDBRANCH   1  16
TORSDOF 16
ENDMDL
MODEL 6
REMARK minimizedAffinity -6.41728067
REMARK CNNscore 0.302461058
REMARK CNNaffinity 6.5914712
REMARK  16 active torsions:
REMARK  status: ('A' for Active; 'I' for Inactive)
REMARK    1  A    between atoms: C2_2  and  C3_3 
REMARK    2  A    between atoms: C3_3  and  C4_4 
REMARK    3  A    between atoms: C4_4  and  C5_5 
REMARK    4  A    between atoms: C5_5  and  C6_6 
REMARK    5  A    between atoms: C6_6  and  C7_7 
REMARK    6  A    between atoms: C7_7  and  C8_8 
REMARK    7  A    between atoms: C8_8  and  N1_9 
REMARK    8  A    between atoms: N1_9  and  C9_10 
REMARK    9  A    between atoms: N1_9  and  C11_12 
REMARK   10  A    between atoms: N1_9  and  C13_14 
REMARK   11  A    between atoms: C13_14  and  C14_15 
REMARK   12  A    between atoms: C14_15  and  O1_16 
REMARK   13  A    between atoms: O1_16  and  C15_17 
REMARK   14  A    between atoms: C15_17  and  C16_19 
REMARK   15  A    between atoms: C16_19  and  C17_20 
REMARK   16  A    between atoms: C16_19  and  C22_25 
ROOT
HETATM    1  C14 UNL     1      -3.573  48.646 -25.353  1.00  0.00     0.206 C 
ENDROOT
BRANCH   1   2
HETATM    2  C13 UNL     1      -4.662  48.439 -24.284  1.00  0.00     0.264 C 
BRANCH   2   3
HETATM    3  N1  UNL     1      -4.191  48.444 -22.774  1.00  0.00    -0.066 N 
BRANCH   3   4
HETATM    4  C8  UNL     1      -2.644  48.371 -22.734  1.00  0.00     0.237 C 
BRANCH   4   5
HETATM    5  C7  UNL     1      -2.065  47.314 -21.797  1.00  0.00     0.028 C 
BRANCH   5   6
HETATM    6  C6  UNL     1      -1.004  47.933 -20.879  1.00  0.00     0.002 C 
BRANCH   6   7
HETATM    7  C5  UNL     1      -0.838  49.445 -21.069  1.00  0.00     0.000 C 
BRANCH   7   8
HETATM    8  C4  UNL     1      -0.725  50.215 -19.750  1.00  0.00     0.000 C 
BRANCH   8   9
HETATM    9  C3  UNL     1       0.256  51.390 -19.816  1.00  0.00    -0.000 C 
BRANCH   9  10
HETATM   10  C2  UNL     1      -0.417  52.758 -19.702  1.00  0.00    -0.005 C 
HETATM   11  C1  UNL     1       0.547  53.882 -20.050  1.00  0.00     0.005 C 
ENDBRANCH   9  10
ENDBRANCH   8   9
ENDBRANCH   7   8
ENDBRANCH   6   7
ENDBRANCH   5   6
ENDBRANCH   4   5
ENDBRANCH   3   4
BRANCH   3  12
HETATM   12  C9  UNL     1      -4.686  49.839 -22.234  1.00  0.00     0.233 C 
HETATM   13  C10 UNL     1      -4.500  50.074 -20.741  1.00  0.00     0.035 C 
ENDBRANCH   3  12
BRANCH   3  14
HETATM   14  C11 UNL     1      -4.892  47.312 -21.989  1.00  0.00     0.233 C 
HETATM   15  C12 UNL     1      -6.262  46.917 -22.505  1.00  0.00     0.035 C 
ENDBRANCH   3  14
ENDBRANCH   2   3
ENDBRANCH   1   2
BRANCH   1  16
HETATM   16  O1  UNL     1      -3.529  50.018 -25.790  1.00  0.00    -0.319 OA
BRANCH  16  17
HETATM   17  C15 UNL     1      -2.515  50.322 -26.649  1.00  0.00     0.263 C 
HETATM   18  O2  UNL     1      -2.562  50.077 -27.848  1.00  0.00    -0.265 OA
BRANCH  17  19
HETATM   19  C16 UNL     1      -1.337  50.993 -25.955  1.00  0.00     0.093 C 
BRANCH  19  20
HETATM   20  C17 UNL     1      -1.714  52.417 -25.457  1.00  0.00    -0.001 C 
HETATM   21  C18 UNL     1      -0.577  53.165 -24.751  1.00  0.00     0.005 C 
HETATM   22  C19 UNL     1      -0.563  52.608 -23.332  1.00  0.00     0.000 C 
HETATM   23  C20 UNL     1      -1.994  52.151 -23.052  1.00  0.00     0.000 C 
HETATM   24  C21 UNL     1      -2.773  52.394 -24.343  1.00  0.00     0.005 C 
ENDBRANCH  19  20
BRANCH  19  25
HETATM   25  C22 UNL     1      -0.062  50.951 -26.826  1.00  0.00    -0.001 C 
HETATM   26  C23 UNL     1       0.074  52.082 -27.849  1.00  0.00     0.005 C 
HETATM   27  C24 UNL     1       1.503  51.925 -28.351  1.00  0.00     0.000 C 
HETATM   28  C25 UNL     1       2.298  51.379 -27.166  1.00  0.00     0.000 C 
HETATM   29  C26 UNL     1       1.275  51.022 -26.087  1.00  0.00     0.005 C 
ENDBRANCH  19  25
ENDBRANCH  17  19
ENDBRANCH  16  17
ENDBRANCH   1  16
TORSDOF 16
ENDMDL
MODEL 7
REMARK minimizedAffinity -5.41910219
REMARK CNNscore 0.290090203
REMARK CNNaffinity 5.99893045
REMARK  16 active torsions:
REMARK  status: ('A' for Active; 'I' for Inactive)
REMARK    1  A    between atoms: C2_2  and  C3_3 
REMARK    2  A    between atoms: C3_3  and  C4_4 
REMARK    3  A    between atoms: C4_4  and  C5_5 
REMARK    4  A    between atoms: C5_5  and  C6_6 
REMARK    5  A    between atoms: C6_6  and  C7_7 
REMARK    6  A    between atoms: C7_7  and  C8_8 
REMARK    7  A    between atoms: C8_8  and  N1_9 
REMARK    8  A    between atoms: N1_9  and  C9_10 
REMARK    9  A    between atoms: N1_9  and  C11_12 
REMARK   10  A    between atoms: N1_9  and  C13_14 
REMARK   11  A    between atoms: C13_14  and  C14_15 
REMARK   12  A    between atoms: C14_15  and  O1_16 
REMARK   13  A    between atoms: O1_16  and  C15_17 
REMARK   14  A    between atoms: C15_17  and  C16_19 
REMARK   15  A    between atoms: C16_19  and  C17_20 
REMARK   16  A    between atoms: C16_19  and  C22_25 
ROOT
HETATM    1  C14 UNL     1      -0.107  52.635 -12.551  1.00  0.00     0.206 C 
ENDROOT
BRANCH   1   2
HETATM    2  C13 UNL     1      -0.020  52.076 -11.118  1.00  0.00     0.264 C 
BRANCH   2   3
HETATM    3  N1  UNL     1      -0.859  52.828 -10.007  1.00  0.00    -0.066 N 
BRANCH   3   4
HETATM    4  C8  UNL     1       0.114  53.367  -8.928  1.00  0.00     0.237 C 
BRANCH   4   5
HETATM    5  C7  UNL     1       1.594  53.306  -9.295  1.00  0.00     0.028 C 
BRANCH   5   6
HETATM    6  C6  UNL     1       2.245  54.685  -9.136  1.00  0.00     0.002 C 
BRANCH   6   7
HETATM    7  C5  UNL     1       2.174  55.545 -10.403  1.00  0.00     0.000 C 
BRANCH   7   8
HETATM    8  C4  UNL     1       3.469  56.309 -10.693  1.00  0.00     0.000 C 
BRANCH   8   9
HETATM    9  C3  UNL     1       4.700  55.402 -10.785  1.00  0.00    -0.000 C 
BRANCH   9  10
HETATM   10  C2  UNL     1       5.607  55.474  -9.556  1.00  0.00    -0.005 C 
HETATM   11  C1  UNL     1       6.339  54.159  -9.329  1.00  0.00     0.005 C 
ENDBRANCH   9  10
ENDBRANCH   8   9
ENDBRANCH   7   8
ENDBRANCH   6   7
ENDBRANCH   5   6
ENDBRANCH   4   5
ENDBRANCH   3   4
BRANCH   3  12
HETATM   12  C9  UNL     1      -1.526  54.022 -10.787  1.00  0.00     0.233 C 
HETATM   13  C10 UNL     1      -1.425  55.388 -10.121  1.00  0.00     0.035 C 
ENDBRANCH   3  12
BRANCH   3  14
HETATM   14  C11 UNL     1      -1.961  51.900  -9.448  1.00  0.00     0.233 C 
HETATM   15  C12 UNL     1      -3.298  51.980 -10.159  1.00  0.00     0.035 C 
ENDBRANCH   3  14
ENDBRANCH   2   3
ENDBRANCH   1   2
BRANCH   1  16
HETATM   16  O1  UNL     1      -0.951  51.812 -13.379  1.00  0.00    -0.319 OA
BRANCH  16  17
HETATM   17  C15 UNL     1      -0.317  50.795 -14.027  1.00  0.00     0.263 C 
HETATM   18  O2  UNL     1       0.038  49.766 -13.466  1.00  0.00    -0.265 OA
BRANCH  17  19
HETATM   19  C16 UNL     1      -0.104  51.083 -15.508  1.00  0.00     0.093 C 
BRANCH  19  20
HETATM   20  C17 UNL     1      -0.800  50.011 -16.394  1.00  0.00    -0.001 C 
HETATM   21  C18 UNL     1      -0.136  49.786 -17.758  1.00  0.00     0.005 C 
HETATM   22  C19 UNL     1      -0.644  50.926 -18.633  1.00  0.00     0.000 C 
HETATM   23  C20 UNL     1      -2.007  51.311 -18.062  1.00  0.00     0.000 C 
HETATM   24  C21 UNL     1      -2.213  50.430 -16.832  1.00  0.00     0.005 C 
ENDBRANCH  19  20
BRANCH  19  25
HETATM   25  C22 UNL     1       1.389  51.298 -15.840  1.00  0.00    -0.001 C 
HETATM   26  C23 UNL     1       1.737  52.652 -16.462  1.00  0.00     0.005 C 
HETATM   27  C24 UNL     1       3.259  52.668 -16.432  1.00  0.00     0.000 C 
HETATM   28  C25 UNL     1       3.653  51.863 -15.193  1.00  0.00     0.000 C 
HETATM   29  C26 UNL     1       2.370  51.218 -14.670  1.00  0.00     0.005 C 
ENDBRANCH  19  25
ENDBRANCH  17  19
ENDBRANCH  16  17
ENDBRANCH   1  16
TORSDOF 16
ENDMDL
MODEL 8
REMARK minimizedAffinity -6.65015697
REMARK CNNscore 0.261852384
REMARK CNNaffinity 5.90838099
REMARK  16 active torsions:
REMARK  status: ('A' for Active; 'I' for Inactive)
REMARK    1  A    between atoms: C2_2  and  C3_3 
REMARK    2  A    between atoms: C3_3  and  C4_4 
REMARK    3  A    between atoms: C4_4  and  C5_5 
REMARK    4  A    between atoms: C5_5  and  C6_6 
REMARK    5  A    between atoms: C6_6  and  C7_7 
REMARK    6  A    between atoms: C7_7  and  C8_8 
REMARK    7  A    between atoms: C8_8  and  N1_9 
REMARK    8  A    between atoms: N1_9  and  C9_10 
REMARK    9  A    between atoms: N1_9  and  C11_12 
REMARK   10  A    between atoms: N1_9  and  C13_14 
REMARK   11  A    between atoms: C13_14  and  C14_15 
REMARK   12  A    between atoms: C14_15  and  O1_16 
REMARK   13  A    between atoms: O1_16  and  C15_17 
REMARK   14  A    between atoms: C15_17  and  C16_19 
REMARK   15  A    between atoms: C16_19  and  C17_20 
REMARK   16  A    between atoms: C16_19  and  C22_25 
ROOT
HETATM    1  C14 UNL     1      -4.515  51.711 -24.202  1.00  0.00     0.206 C 
ENDROOT
BRANCH   1   2
HETATM    2  C13 UNL     1      -5.101  51.080 -22.925  1.00  0.00     0.264 C 
BRANCH   2   3
HETATM    3  N1  UNL     1      -5.611  49.587 -23.035  1.00  0.00    -0.066 N 
BRANCH   3   4
HETATM    4  C8  UNL     1      -4.512  48.734 -23.716  1.00  0.00     0.237 C 
BRANCH   4   5
HETATM    5  C7  UNL     1      -4.794  48.341 -25.164  1.00  0.00     0.028 C 
BRANCH   5   6
HETATM    6  C6  UNL     1      -3.513  48.427 -26.003  1.00  0.00     0.002 C 
BRANCH   6   7
HETATM    7  C5  UNL     1      -3.776  48.544 -27.509  1.00  0.00     0.000 C 
BRANCH   7   8
HETATM    8  C4  UNL     1      -5.144  48.003 -27.932  1.00  0.00     0.000 C 
BRANCH   8   9
HETATM    9  C3  UNL     1      -5.302  47.874 -29.451  1.00  0.00    -0.000 C 
BRANCH   9  10
HETATM   10  C2  UNL     1      -6.675  47.356 -29.882  1.00  0.00    -0.005 C 
HETATM   11  C1  UNL     1      -6.638  45.864 -30.175  1.00  0.00     0.005 C 
ENDBRANCH   9  10
ENDBRANCH   8   9
ENDBRANCH   7   8
ENDBRANCH   6   7
ENDBRANCH   5   6
ENDBRANCH   4   5
ENDBRANCH   3   4
BRANCH   3  12
HETATM   12  C9  UNL     1      -5.796  49.144 -21.535  1.00  0.00     0.233 C 
HETATM   13  C10 UNL     1      -4.918  47.989 -21.073  1.00  0.00     0.035 C 
ENDBRANCH   3  12
BRANCH   3  14
HETATM   14  C11 UNL     1      -6.977  49.539 -23.756  1.00  0.00     0.233 C 
HETATM   15  C12 UNL     1      -7.988  48.573 -23.168  1.00  0.00     0.035 C 
ENDBRANCH   3  14
ENDBRANCH   2   3
ENDBRANCH   1   2
BRANCH   1  16
HETATM   16  O1  UNL     1      -3.084  51.555 -24.249  1.00  0.00    -0.319 OA
BRANCH  16  17
HETATM   17  C15 UNL     1      -2.443  52.348 -25.153  1.00  0.00     0.263 C 
HETATM   18  O2  UNL     1      -3.028  52.952 -26.043  1.00  0.00    -0.265 OA
BRANCH  17  19
HETATM   19  C16 UNL     1      -0.937  52.395 -24.931  1.00  0.00     0.093 C 
BRANCH  19  20
HETATM   20  C17 UNL     1      -0.234  51.165 -25.574  1.00  0.00    -0.001 C 
HETATM   21  C18 UNL     1       1.238  51.394 -25.939  1.00  0.00     0.005 C 
HETATM   22  C19 UNL     1       1.202  52.143 -27.265  1.00  0.00     0.000 C 
HETATM   23  C20 UNL     1      -0.104  51.727 -27.941  1.00  0.00     0.000 C 
HETATM   24  C21 UNL     1      -0.814  50.806 -26.952  1.00  0.00     0.005 C 
ENDBRANCH  19  20
BRANCH  19  25
HETATM   25  C22 UNL     1      -0.585  52.609 -23.442  1.00  0.00    -0.001 C 
HETATM   26  C23 UNL     1      -0.373  51.332 -22.626  1.00  0.00     0.005 C 
HETATM   27  C24 UNL     1       0.200  51.850 -21.313  1.00  0.00     0.000 C 
HETATM   28  C25 UNL     1       1.003  53.098 -21.680  1.00  0.00     0.000 C 
HETATM   29  C26 UNL     1       0.691  53.398 -23.146  1.00  0.00     0.005 C 
ENDBRANCH  19  25
ENDBRANCH  17  19
ENDBRANCH  16  17
ENDBRANCH   1  16
TORSDOF 16
ENDMDL
MODEL 9
REMARK minimizedAffinity -5.22787762
REMARK CNNscore 0.256826252
REMARK CNNaffinity 5.44904709
REMARK  16 active torsions:
REMARK  status: ('A' for Active; 'I' for Inactive)
REMARK    1  A    between atoms: C2_2  and  C3_3 
REMARK    2  A    between atoms: C3_3  and  C4_4 
REMARK    3  A    between atoms: C4_4  and  C5_5 
REMARK    4  A    between atoms: C5_5  and  C6_6 
REMARK    5  A    between atoms: C6_6  and  C7_7 
REMARK    6  A    between atoms: C7_7  and  C8_8 
REMARK    7  A    between atoms: C8_8  and  N1_9 
REMARK    8  A    between atoms: N1_9  and  C9_10 
REMARK    9  A    between atoms: N1_9  and  C11_12 
REMARK   10  A    between atoms: N1_9  and  C13_14 
REMARK   11  A    between atoms: C13_14  and  C14_15 
REMARK   12  A    between atoms: C14_15  and  O1_16 
REMARK   13  A    between atoms: O1_16  and  C15_17 
REMARK   14  A    between atoms: C15_17  and  C16_19 
REMARK   15  A    between atoms: C16_19  and  C17_20 
REMARK   16  A    between atoms: C16_19  and  C22_25 
ROOT
HETATM    1  C14 UNL     1       1.811  53.182 -11.207  1.00  0.00     0.206 C 
ENDROOT
BRANCH   1   2
HETATM    2  C13 UNL     1       2.518  52.114 -12.063  1.00  0.00     0.264 C 
BRANCH   2   3
HETATM    3  N1  UNL     1       1.592  51.121 -12.874  1.00  0.00    -0.066 N 
BRANCH   3   4
HETATM    4  C8  UNL     1       1.257  51.758 -14.246  1.00  0.00     0.237 C 
BRANCH   4   5
HETATM    5  C7  UNL     1       0.933  50.770 -15.363  1.00  0.00     0.028 C 
BRANCH   5   6
HETATM    6  C6  UNL     1       1.056  51.448 -16.733  1.00  0.00     0.002 C 
BRANCH   6   7
HETATM    7  C5  UNL     1      -0.202  51.311 -17.598  1.00  0.00     0.000 C 
BRANCH   7   8
HETATM    8  C4  UNL     1       0.015  51.724 -19.057  1.00  0.00     0.000 C 
BRANCH   8   9
HETATM    9  C3  UNL     1       0.649  53.111 -19.207  1.00  0.00    -0.000 C 
BRANCH   9  10
HETATM   10  C2  UNL     1       0.751  53.584 -20.657  1.00  0.00    -0.005 C 
HETATM   11  C1  UNL     1       0.992  52.419 -21.605  1.00  0.00     0.005 C 
ENDBRANCH   9  10
ENDBRANCH   8   9
ENDBRANCH   7   8
ENDBRANCH   6   7
ENDBRANCH   5   6
ENDBRANCH   4   5
ENDBRANCH   3   4
BRANCH   3  12
HETATM   12  C9  UNL     1       2.495  49.845 -13.070  1.00  0.00     0.233 C 
HETATM   13  C10 UNL     1       3.966  50.113 -13.356  1.00  0.00     0.035 C 
ENDBRANCH   3  12
BRANCH   3  14
HETATM   14  C11 UNL     1       0.347  50.745 -12.038  1.00  0.00     0.233 C 
HETATM   15  C12 UNL     1       0.573  49.684 -10.978  1.00  0.00     0.035 C 
ENDBRANCH   3  14
ENDBRANCH   2   3
ENDBRANCH   1   2
BRANCH   1  16
HETATM   16  O1  UNL     1       2.681  53.677 -10.171  1.00  0.00    -0.319 OA
BRANCH  16  17
HETATM   17  C15 UNL     1       2.934  55.015 -10.216  1.00  0.00     0.263 C 
HETATM   18  O2  UNL     1       2.360  55.777 -10.985  1.00  0.00    -0.265 OA
BRANCH  17  19
HETATM   19  C16 UNL     1       3.997  55.447  -9.214  1.00  0.00     0.093 C 
BRANCH  19  20
HETATM   20  C17 UNL     1       4.903  54.251  -8.805  1.00  0.00    -0.001 C 
HETATM   21  C18 UNL     1       5.270  54.212  -7.316  1.00  0.00     0.005 C 
HETATM   22  C19 UNL     1       6.414  55.207  -7.168  1.00  0.00     0.000 C 
HETATM   23  C20 UNL     1       7.109  55.245  -8.528  1.00  0.00     0.000 C 
HETATM   24  C21 UNL     1       6.302  54.324  -9.439  1.00  0.00     0.005 C 
ENDBRANCH  19  20
BRANCH  19  25
HETATM   25  C22 UNL     1       3.380  56.203  -8.017  1.00  0.00    -0.001 C 
HETATM   26  C23 UNL     1       3.680  57.704  -7.960  1.00  0.00     0.005 C 
HETATM   27  C24 UNL     1       2.752  58.202  -6.860  1.00  0.00     0.000 C 
HETATM   28  C25 UNL     1       1.518  57.303  -6.925  1.00  0.00     0.000 C 
HETATM   29  C26 UNL     1       1.855  56.174  -7.900  1.00  0.00     0.005 C 
ENDBRANCH  19  25
ENDBRANCH  17  19
ENDBRANCH  16  17
ENDBRANCH   1  16
TORSDOF 16
ENDMDL
