MODEL 1
REMARK minimizedAffinity -9.38865089
REMARK CNNscore 0.439242035
REMARK CNNaffinity 7.21540403
REMARK  10 active torsions:
REMARK  status: ('A' for Active; 'I' for Inactive)
REMARK    1  A    between atoms: C2_2  and  C3_4 
REMARK    2  A    between atoms: C3_4  and  O2_5 
REMARK    3  A    between atoms: N1_15  and  O3_17 
REMARK    4  A    between atoms: O3_17  and  C13_18 
REMARK    5  A    between atoms: C13_18  and  C14_19 
REMARK       I    between atoms: C14_19  and  N2_21 
REMARK    6  A    between atoms: N2_21  and  C15_22 
REMARK    7  A    between atoms: C15_22  and  C16_23 
REMARK    8  A    between atoms: C15_22  and  C25_33 
REMARK    9  A    between atoms: C16_23  and  C17_24 
REMARK   10  A    between atoms: C25_33  and  O6_35 
ROOT
HETATM    1  C3  UNL     1      -2.210   6.323  13.175  1.00  0.00     0.125 C 
HETATM    2  C4  UNL     1      -2.312   4.955  12.433  1.00  0.00     0.047 C 
HETATM    3  C5  UNL     1      -3.771   4.477  12.577  1.00  0.00     0.009 C 
HETATM    4  C6  UNL     1      -4.505   5.670  13.178  1.00  0.00     0.002 C 
HETATM    5  C7  UNL     1      -5.862   5.453  13.864  1.00  0.00    -0.004 C 
HETATM    6  C8  UNL     1      -6.880   4.663  13.019  1.00  0.00     0.010 C 
HETATM    7  C9  UNL     1      -8.064   5.494  12.540  1.00  0.00     0.035 C 
HETATM    8  C10 UNL     1      -8.741   6.288  13.636  1.00  0.00    -0.069 C 
HETATM    9  C11 UNL     1     -10.035   6.622  13.494  1.00  0.00     0.030 C 
HETATM   10  C12 UNL     1     -10.716   7.541  14.442  1.00  0.00     0.032 C 
HETATM   11  N1  UNL     1     -12.002   7.699  14.306  1.00  0.00    -0.271 N 
ATOM     12  H1  UNL     1     -12.565   7.220  13.602  1.00  0.00     0.194 HD
HETATM   13  C26 UNL     1      -9.887   8.241  15.499  1.00  0.00     0.060 C 
HETATM   14  C27 UNL     1      -8.387   8.190  15.207  1.00  0.00     0.020 C 
HETATM   15  C28 UNL     1      -7.878   6.783  14.800  1.00  0.00    -0.016 C 
HETATM   16  C29 UNL     1      -8.021   5.818  16.002  1.00  0.00     0.020 C 
HETATM   17  C30 UNL     1      -6.397   6.856  14.296  1.00  0.00     0.002 C 
HETATM   18  C31 UNL     1      -5.391   7.547  15.246  1.00  0.00     0.007 C 
HETATM   19  C32 UNL     1      -3.989   7.657  14.613  1.00  0.00     0.013 C 
HETATM   20  C33 UNL     1      -3.447   6.295  14.131  1.00  0.00    -0.002 C 
HETATM   21  C34 UNL     1      -3.143   5.412  15.377  1.00  0.00     0.019 C 
ENDROOT
BRANCH  11  22
HETATM   22  O3  UNL     1     -12.520   8.607  15.243  1.00  0.00    -0.271 OA
BRANCH  22  23
HETATM   23  C13 UNL     1     -13.270   9.587  14.537  1.00  0.00     0.303 C 
BRANCH  23  24
HETATM   24  C14 UNL     1     -14.316   8.928  13.643  1.00  0.00     0.244 C 
HETATM   25  O4  UNL     1     -14.216   8.889  12.420  1.00  0.00    -0.271 OA
HETATM   26  N2  UNL     1     -15.353   8.324  14.328  1.00  0.00    -0.344 N 
HETATM   27  H18 UNL     1     -15.196   8.149  15.316  1.00  0.00     0.163 HD
BRANCH  26  28
HETATM   28  C15 UNL     1     -16.296   7.438  13.633  1.00  0.00     0.186 C 
BRANCH  28  29
HETATM   29  C16 UNL     1     -15.788   5.990  13.669  1.00  0.00     0.077 C 
BRANCH  29  30
HETATM   30  C17 UNL     1     -16.597   5.083  14.543  1.00  0.00    -0.028 A 
HETATM   31  C18 UNL     1     -17.820   5.377  15.109  1.00  0.00     0.096 A 
HETATM   32  N3  UNL     1     -18.226   4.292  15.841  1.00  0.00    -0.365 N 
HETATM   33  C19 UNL     1     -17.290   3.287  15.767  1.00  0.00     0.042 A 
HETATM   34  H23 UNL     1     -19.089   4.228  16.363  1.00  0.00     0.165 HD
HETATM   35  C20 UNL     1     -17.290   2.014  16.349  1.00  0.00     0.030 A 
HETATM   36  C24 UNL     1     -16.251   3.755  14.965  1.00  0.00    -0.002 A 
HETATM   37  C21 UNL     1     -16.191   1.188  16.099  1.00  0.00     0.002 A 
HETATM   38  C22 UNL     1     -15.134   1.625  15.304  1.00  0.00     0.001 A 
HETATM   39  C23 UNL     1     -15.149   2.904  14.733  1.00  0.00     0.014 A 
ENDBRANCH  29  30
ENDBRANCH  28  29
BRANCH  28  40
HETATM   40  C25 UNL     1     -16.384   7.915  12.185  1.00  0.00     0.163 C 
HETATM   41  O5  UNL     1     -15.801   7.414  11.234  1.00  0.00    -0.648 OA
BRANCH  40  42
HETATM   42  O6  UNL     1     -17.205   8.966  12.012  1.00  0.00    -0.775 OA
HETATM   43  H28 UNL     1     -17.208   9.136  11.050  1.00  0.00     0.167 HD
ENDBRANCH  40  42
ENDBRANCH  28  40
ENDBRANCH  26  28
ENDBRANCH  23  24
ENDBRANCH  22  23
ENDBRANCH  11  22
BRANCH   1  44
HETATM   44  C2  UNL     1      -0.845   6.469  13.900  1.00  0.00     0.158 C 
HETATM   45  C1  UNL     1       0.256   5.518  13.505  1.00  0.00     0.094 C 
HETATM   46  O1  UNL     1      -0.630   7.338  14.749  1.00  0.00    -0.295 OA
ENDBRANCH   1  44
BRANCH   1  47
HETATM   47  O2  UNL     1      -2.372   7.320  12.160  1.00  0.00    -0.381 OA
HETATM   48  H4  UNL     1      -2.308   8.202  12.556  1.00  0.00     0.211 HD
ENDBRANCH   1  47
TORSDOF 10
ENDMDL
MODEL 2
REMARK minimizedAffinity -8.43742085
REMARK CNNscore 0.307764351
REMARK CNNaffinity 6.76526403
REMARK  10 active torsions:
REMARK  status: ('A' for Active; 'I' for Inactive)
REMARK    1  A    between atoms: C2_2  and  C3_4 
REMARK    2  A    between atoms: C3_4  and  O2_5 
REMARK    3  A    between atoms: N1_15  and  O3_17 
REMARK    4  A    between atoms: O3_17  and  C13_18 
REMARK    5  A    between atoms: C13_18  and  C14_19 
REMARK       I    between atoms: C14_19  and  N2_21 
REMARK    6  A    between atoms: N2_21  and  C15_22 
REMARK    7  A    between atoms: C15_22  and  C16_23 
REMARK    8  A    between atoms: C15_22  and  C25_33 
REMARK    9  A    between atoms: C16_23  and  C17_24 
REMARK   10  A    between atoms: C25_33  and  O6_35 
ROOT
HETATM    1  C3  UNL     1     -14.365   1.673  25.842  1.00  0.00     0.125 C 
HETATM    2  C4  UNL     1     -15.890   1.421  26.051  1.00  0.00     0.047 C 
HETATM    3  C5  UNL     1     -16.636   2.501  25.241  1.00  0.00     0.009 C 
HETATM    4  C6  UNL     1     -15.546   3.179  24.417  1.00  0.00     0.002 C 
HETATM    5  C7  UNL     1     -15.810   4.567  23.816  1.00  0.00    -0.004 C 
HETATM    6  C8  UNL     1     -17.125   4.674  23.020  1.00  0.00     0.010 C 
HETATM    7  C9  UNL     1     -16.927   4.853  21.520  1.00  0.00     0.035 C 
HETATM    8  C10 UNL     1     -15.959   5.957  21.154  1.00  0.00    -0.069 C 
HETATM    9  C11 UNL     1     -16.079   6.560  19.959  1.00  0.00     0.030 C 
HETATM   10  C12 UNL     1     -15.066   7.527  19.464  1.00  0.00     0.032 C 
HETATM   11  N1  UNL     1     -15.333   8.163  18.359  1.00  0.00    -0.271 N 
ATOM     12  H1  UNL     1     -16.197   8.047  17.827  1.00  0.00     0.194 HD
HETATM   13  C26 UNL     1     -13.790   7.716  20.259  1.00  0.00     0.060 C 
HETATM   14  C27 UNL     1     -13.554   6.598  21.275  1.00  0.00     0.020 C 
HETATM   15  C28 UNL     1     -14.806   6.248  22.120  1.00  0.00    -0.016 C 
HETATM   16  C29 UNL     1     -15.171   7.452  23.020  1.00  0.00     0.020 C 
HETATM   17  C30 UNL     1     -14.557   4.954  22.966  1.00  0.00     0.002 C 
HETATM   18  C31 UNL     1     -13.287   4.954  23.848  1.00  0.00     0.007 C 
HETATM   19  C32 UNL     1     -13.082   3.600  24.557  1.00  0.00     0.013 C 
HETATM   20  C33 UNL     1     -14.318   3.163  25.370  1.00  0.00    -0.002 C 
HETATM   21  C34 UNL     1     -14.473   4.117  26.590  1.00  0.00     0.019 C 
ENDROOT
BRANCH  11  22
HETATM   22  O3  UNL     1     -14.291   9.026  17.986  1.00  0.00    -0.271 OA
BRANCH  22  23
HETATM   23  C13 UNL     1     -14.129   8.938  16.576  1.00  0.00     0.303 C 
BRANCH  23  24
HETATM   24  C14 UNL     1     -12.703   9.297  16.171  1.00  0.00     0.244 C 
HETATM   25  O4  UNL     1     -12.109  10.273  16.622  1.00  0.00    -0.271 OA
HETATM   26  N2  UNL     1     -12.113   8.397  15.304  1.00  0.00    -0.344 N 
HETATM   27  H18 UNL     1     -12.558   7.488  15.228  1.00  0.00     0.163 HD
BRANCH  26  28
HETATM   28  C15 UNL     1     -10.672   8.463  15.020  1.00  0.00     0.186 C 
BRANCH  28  29
HETATM   29  C16 UNL     1      -9.868   8.134  16.285  1.00  0.00     0.077 C 
BRANCH  29  30
HETATM   30  C17 UNL     1      -8.664   7.280  16.036  1.00  0.00    -0.028 A 
HETATM   31  C18 UNL     1      -7.588   7.123  16.884  1.00  0.00     0.096 A 
HETATM   32  N3  UNL     1      -6.696   6.268  16.294  1.00  0.00    -0.365 N 
HETATM   33  C19 UNL     1      -7.167   5.855  15.068  1.00  0.00     0.042 A 
HETATM   34  H23 UNL     1      -5.816   5.973  16.693  1.00  0.00     0.165 HD
HETATM   35  C20 UNL     1      -6.595   4.989  14.130  1.00  0.00     0.030 A 
HETATM   36  C24 UNL     1      -8.398   6.480  14.874  1.00  0.00    -0.002 A 
HETATM   37  C21 UNL     1      -7.308   4.747  12.953  1.00  0.00     0.002 A 
HETATM   38  C22 UNL     1      -8.540   5.355  12.725  1.00  0.00     0.001 A 
HETATM   39  C23 UNL     1      -9.095   6.224  13.674  1.00  0.00     0.014 A 
ENDBRANCH  29  30
ENDBRANCH  28  29
BRANCH  28  40
HETATM   40  C25 UNL     1     -10.363   9.889  14.571  1.00  0.00     0.163 C 
HETATM   41  O5  UNL     1      -9.481  10.603  15.027  1.00  0.00    -0.648 OA
BRANCH  40  42
HETATM   42  O6  UNL     1     -11.152  10.323  13.572  1.00  0.00    -0.775 OA
HETATM   43  H28 UNL     1     -10.821  11.215  13.351  1.00  0.00     0.167 HD
ENDBRANCH  40  42
ENDBRANCH  28  40
ENDBRANCH  26  28
ENDBRANCH  23  24
ENDBRANCH  22  23
ENDBRANCH  11  22
BRANCH   1  44
HETATM   44  C2  UNL     1     -13.565   1.388  27.140  1.00  0.00     0.158 C 
HETATM   45  C1  UNL     1     -12.060   1.446  27.056  1.00  0.00     0.094 C 
HETATM   46  O1  UNL     1     -14.109   1.149  28.222  1.00  0.00    -0.295 OA
ENDBRANCH   1  44
BRANCH   1  47
HETATM   47  O2  UNL     1     -13.975   0.790  24.784  1.00  0.00    -0.381 OA
HETATM   48  H4  UNL     1     -13.027   0.889  24.609  1.00  0.00     0.211 HD
ENDBRANCH   1  47
TORSDOF 10
ENDMDL
MODEL 3
REMARK minimizedAffinity -9.53090096
REMARK CNNscore 0.269814968
REMARK CNNaffinity 5.91172218
REMARK  10 active torsions:
REMARK  status: ('A' for Active; 'I' for Inactive)
REMARK    1  A    between atoms: C2_2  and  C3_4 
REMARK    2  A    between atoms: C3_4  and  O2_5 
REMARK    3  A    between atoms: N1_15  and  O3_17 
REMARK    4  A    between atoms: O3_17  and  C13_18 
REMARK    5  A    between atoms: C13_18  and  C14_19 
REMARK       I    between atoms: C14_19  and  N2_21 
REMARK    6  A    between atoms: N2_21  and  C15_22 
REMARK    7  A    between atoms: C15_22  and  C16_23 
REMARK    8  A    between atoms: C15_22  and  C25_33 
REMARK    9  A    between atoms: C16_23  and  C17_24 
REMARK   10  A    between atoms: C25_33  and  O6_35 
ROOT
HETATM    1  C3  UNL     1       3.027   6.423  10.536  1.00  0.00     0.125 C 
HETATM    2  C4  UNL     1       4.174   5.513   9.999  1.00  0.00     0.047 C 
HETATM    3  C5  UNL     1       5.472   5.977  10.689  1.00  0.00     0.009 C 
HETATM    4  C6  UNL     1       5.005   6.960  11.757  1.00  0.00     0.002 C 
HETATM    5  C7  UNL     1       6.012   7.952  12.360  1.00  0.00    -0.004 C 
HETATM    6  C8  UNL     1       7.314   7.304  12.867  1.00  0.00     0.010 C 
HETATM    7  C9  UNL     1       7.469   7.331  14.383  1.00  0.00     0.035 C 
HETATM    8  C10 UNL     1       7.244   8.695  14.999  1.00  0.00    -0.069 C 
HETATM    9  C11 UNL     1       7.833   8.985  16.172  1.00  0.00     0.030 C 
HETATM   10  C12 UNL     1       7.522  10.232  16.918  1.00  0.00     0.032 C 
HETATM   11  N1  UNL     1       8.239  10.494  17.974  1.00  0.00    -0.271 N 
ATOM     12  H1  UNL     1       9.004   9.906  18.306  1.00  0.00     0.194 HD
HETATM   13  C26 UNL     1       6.399  11.117  16.419  1.00  0.00     0.060 C 
HETATM   14  C27 UNL     1       5.485  10.410  15.418  1.00  0.00     0.020 C 
HETATM   15  C28 UNL     1       6.250   9.636  14.313  1.00  0.00    -0.016 C 
HETATM   16  C29 UNL     1       7.015  10.641  13.419  1.00  0.00     0.020 C 
HETATM   17  C30 UNL     1       5.265   8.756  13.473  1.00  0.00     0.002 C 
HETATM   18  C31 UNL     1       4.040   9.488  12.878  1.00  0.00     0.007 C 
HETATM   19  C32 UNL     1       3.084   8.514  12.158  1.00  0.00     0.013 C 
HETATM   20  C33 UNL     1       3.797   7.669  11.083  1.00  0.00    -0.002 C 
HETATM   21  C34 UNL     1       4.209   8.604   9.908  1.00  0.00     0.019 C 
ENDROOT
BRANCH  11  22
HETATM   22  O3  UNL     1       7.832  11.683  18.601  1.00  0.00    -0.271 OA
BRANCH  22  23
HETATM   23  C13 UNL     1       8.928  12.175  19.362  1.00  0.00     0.303 C 
BRANCH  23  24
HETATM   24  C14 UNL     1       8.691  11.959  20.853  1.00  0.00     0.244 C 
HETATM   25  O4  UNL     1       9.531  11.455  21.594  1.00  0.00    -0.271 OA
HETATM   26  N2  UNL     1       7.477  12.434  21.313  1.00  0.00    -0.344 N 
HETATM   27  H18 UNL     1       6.993  13.088  20.707  1.00  0.00     0.163 HD
BRANCH  26  28
HETATM   28  C15 UNL     1       7.206  12.529  22.754  1.00  0.00     0.186 C 
BRANCH  28  29
HETATM   29  C16 UNL     1       5.705  12.731  22.998  1.00  0.00     0.077 C 
BRANCH  29  30
HETATM   30  C17 UNL     1       4.827  11.956  22.065  1.00  0.00    -0.028 A 
HETATM   31  C18 UNL     1       4.680  12.180  20.712  1.00  0.00     0.096 A 
HETATM   32  N3  UNL     1       3.787  11.265  20.219  1.00  0.00    -0.365 N 
HETATM   33  C19 UNL     1       3.344  10.439  21.226  1.00  0.00     0.042 A 
HETATM   34  H23 UNL     1       3.492  11.196  19.256  1.00  0.00     0.165 HD
HETATM   35  C20 UNL     1       2.438   9.372  21.181  1.00  0.00     0.030 A 
HETATM   36  C24 UNL     1       3.973  10.852  22.400  1.00  0.00    -0.002 A 
HETATM   37  C21 UNL     1       2.170   8.700  22.376  1.00  0.00     0.002 A 
HETATM   38  C22 UNL     1       2.779   9.088  23.567  1.00  0.00     0.001 A 
HETATM   39  C23 UNL     1       3.679  10.161  23.595  1.00  0.00     0.014 A 
ENDBRANCH  29  30
ENDBRANCH  28  29
BRANCH  28  40
HETATM   40  C25 UNL     1       7.979  13.736  23.282  1.00  0.00     0.163 C 
HETATM   41  O5  UNL     1       7.565  14.886  23.318  1.00  0.00    -0.648 OA
BRANCH  40  42
HETATM   42  O6  UNL     1       9.202  13.431  23.750  1.00  0.00    -0.775 OA
HETATM   43  H28 UNL     1       9.562  14.269  24.097  1.00  0.00     0.167 HD
ENDBRANCH  40  42
ENDBRANCH  28  40
ENDBRANCH  26  28
ENDBRANCH  23  24
ENDBRANCH  22  23
ENDBRANCH  11  22
BRANCH   1  44
HETATM   44  C2  UNL     1       1.998   6.747   9.421  1.00  0.00     0.158 C 
HETATM   45  C1  UNL     1       0.702   7.396   9.839  1.00  0.00     0.094 C 
HETATM   46  O1  UNL     1       2.213   6.522   8.226  1.00  0.00    -0.295 OA
ENDBRANCH   1  44
BRANCH   1  47
HETATM   47  O2  UNL     1       2.424   5.686  11.605  1.00  0.00    -0.381 OA
HETATM   48  H4  UNL     1       1.691   6.195  11.980  1.00  0.00     0.211 HD
ENDBRANCH   1  47
TORSDOF 10
ENDMDL
MODEL 4
REMARK minimizedAffinity -8.98826981
REMARK CNNscore 0.242156416
REMARK CNNaffinity 6.15418005
REMARK  10 active torsions:
REMARK  status: ('A' for Active; 'I' for Inactive)
REMARK    1  A    between atoms: C2_2  and  C3_4 
REMARK    2  A    between atoms: C3_4  and  O2_5 
REMARK    3  A    between atoms: N1_15  and  O3_17 
REMARK    4  A    between atoms: O3_17  and  C13_18 
REMARK    5  A    between atoms: C13_18  and  C14_19 
REMARK       I    between atoms: C14_19  and  N2_21 
REMARK    6  A    between atoms: N2_21  and  C15_22 
REMARK    7  A    between atoms: C15_22  and  C16_23 
REMARK    8  A    between atoms: C15_22  and  C25_33 
REMARK    9  A    between atoms: C16_23  and  C17_24 
REMARK   10  A    between atoms: C25_33  and  O6_35 
ROOT
HETATM    1  C3  UNL     1      -3.809 -10.468   3.946  1.00  0.00     0.125 C 
HETATM    2  C4  UNL     1      -2.739 -11.389   3.284  1.00  0.00     0.047 C 
HETATM    3  C5  UNL     1      -3.205 -11.645   1.836  1.00  0.00     0.009 C 
HETATM    4  C6  UNL     1      -4.379 -10.691   1.640  1.00  0.00     0.002 C 
HETATM    5  C7  UNL     1      -5.373 -10.944   0.497  1.00  0.00    -0.004 C 
HETATM    6  C8  UNL     1      -4.715 -11.156  -0.880  1.00  0.00     0.010 C 
HETATM    7  C9  UNL     1      -4.971 -10.024  -1.868  1.00  0.00     0.035 C 
HETATM    8  C10 UNL     1      -6.428  -9.638  -1.997  1.00  0.00    -0.069 C 
HETATM    9  C11 UNL     1      -6.855  -9.073  -3.139  1.00  0.00     0.030 C 
HETATM   10  C12 UNL     1      -8.224  -8.514  -3.274  1.00  0.00     0.032 C 
HETATM   11  N1  UNL     1      -8.594  -8.111  -4.456  1.00  0.00    -0.271 N 
ATOM     12  H1  UNL     1      -8.009  -8.172  -5.290  1.00  0.00     0.194 HD
HETATM   13  C26 UNL     1      -9.103  -8.438  -2.043  1.00  0.00     0.060 C 
HETATM   14  C27 UNL     1      -8.318  -8.607  -0.742  1.00  0.00     0.020 C 
HETATM   15  C28 UNL     1      -7.323  -9.796  -0.764  1.00  0.00    -0.016 C 
HETATM   16  C29 UNL     1      -8.111 -11.124  -0.857  1.00  0.00     0.020 C 
HETATM   17  C30 UNL     1      -6.399  -9.765   0.501  1.00  0.00     0.002 C 
HETATM   18  C31 UNL     1      -7.120  -9.683   1.866  1.00  0.00     0.007 C 
HETATM   19  C32 UNL     1      -6.121  -9.555   3.034  1.00  0.00     0.013 C 
HETATM   20  C33 UNL     1      -5.063 -10.678   3.037  1.00  0.00    -0.002 C 
HETATM   21  C34 UNL     1      -5.765 -12.022   3.390  1.00  0.00     0.019 C 
ENDROOT
BRANCH  11  22
HETATM   22  O3  UNL     1      -9.896  -7.583  -4.446  1.00  0.00    -0.271 OA
BRANCH  22  23
HETATM   23  C13 UNL     1      -9.845  -6.300  -3.835  1.00  0.00     0.303 C 
BRANCH  23  24
HETATM   24  C14 UNL     1      -9.879  -5.198  -4.889  1.00  0.00     0.244 C 
HETATM   25  O4  UNL     1      -9.454  -5.355  -6.031  1.00  0.00    -0.271 OA
HETATM   26  N2  UNL     1     -10.485  -4.028  -4.471  1.00  0.00    -0.344 N 
HETATM   27  H18 UNL     1     -11.061  -4.094  -3.638  1.00  0.00     0.163 HD
BRANCH  26  28
HETATM   28  C15 UNL     1     -10.821  -2.971  -5.435  1.00  0.00     0.186 C 
BRANCH  28  29
HETATM   29  C16 UNL     1     -10.298  -1.617  -4.939  1.00  0.00     0.077 C 
BRANCH  29  30
HETATM   30  C17 UNL     1      -8.900  -1.307  -5.378  1.00  0.00    -0.028 A 
HETATM   31  C18 UNL     1      -7.746  -1.870  -4.876  1.00  0.00     0.096 A 
HETATM   32  N3  UNL     1      -6.677  -1.321  -5.534  1.00  0.00    -0.365 N 
HETATM   33  C19 UNL     1      -7.109  -0.403  -6.464  1.00  0.00     0.042 A 
HETATM   34  H23 UNL     1      -5.707  -1.550  -5.369  1.00  0.00     0.165 HD
HETATM   35  C20 UNL     1      -6.373   0.389  -7.354  1.00  0.00     0.030 A 
HETATM   36  C24 UNL     1      -8.500  -0.365  -6.385  1.00  0.00    -0.002 A 
HETATM   37  C21 UNL     1      -7.085   1.246  -8.197  1.00  0.00     0.002 A 
HETATM   38  C22 UNL     1      -8.475   1.310  -8.144  1.00  0.00     0.001 A 
HETATM   39  C23 UNL     1      -9.195   0.513  -7.244  1.00  0.00     0.014 A 
ENDBRANCH  29  30
ENDBRANCH  28  29
BRANCH  28  40
HETATM   40  C25 UNL     1     -12.343  -2.925  -5.545  1.00  0.00     0.163 C 
HETATM   41  O5  UNL     1     -13.119  -3.720  -5.034  1.00  0.00    -0.648 OA
BRANCH  40  42
HETATM   42  O6  UNL     1     -12.801  -1.882  -6.261  1.00  0.00    -0.775 OA
HETATM   43  H28 UNL     1     -13.774  -1.942  -6.211  1.00  0.00     0.167 HD
ENDBRANCH  40  42
ENDBRANCH  28  40
ENDBRANCH  26  28
ENDBRANCH  23  24
ENDBRANCH  22  23
ENDBRANCH  11  22
BRANCH   1  44
HETATM   44  C2  UNL     1      -4.031 -10.845   5.436  1.00  0.00     0.158 C 
HETATM   45  C1  UNL     1      -4.789  -9.864   6.294  1.00  0.00     0.094 C 
HETATM   46  O1  UNL     1      -3.640 -11.910   5.921  1.00  0.00    -0.295 OA
ENDBRANCH   1  44
BRANCH   1  47
HETATM   47  O2  UNL     1      -3.300  -9.136   3.815  1.00  0.00    -0.381 OA
HETATM   48  H4  UNL     1      -3.918  -8.509   4.219  1.00  0.00     0.211 HD
ENDBRANCH   1  47
TORSDOF 10
ENDMDL
MODEL 5
REMARK minimizedAffinity -9.99359035
REMARK CNNscore 0.232716963
REMARK CNNaffinity 6.96719217
REMARK  10 active torsions:
REMARK  status: ('A' for Active; 'I' for Inactive)
REMARK    1  A    between atoms: C2_2  and  C3_4 
REMARK    2  A    between atoms: C3_4  and  O2_5 
REMARK    3  A    between atoms: N1_15  and  O3_17 
REMARK    4  A    between atoms: O3_17  and  C13_18 
REMARK    5  A    between atoms: C13_18  and  C14_19 
REMARK       I    between atoms: C14_19  and  N2_21 
REMARK    6  A    between atoms: N2_21  and  C15_22 
REMARK    7  A    between atoms: C15_22  and  C16_23 
REMARK    8  A    between atoms: C15_22  and  C25_33 
REMARK    9  A    between atoms: C16_23  and  C17_24 
REMARK   10  A    between atoms: C25_33  and  O6_35 
ROOT
HETATM    1  C3  UNL     1       0.442   6.439  11.552  1.00  0.00     0.125 C 
HETATM    2  C4  UNL     1       0.730   4.906  11.542  1.00  0.00     0.047 C 
HETATM    3  C5  UNL     1      -0.509   4.215  12.146  1.00  0.00     0.009 C 
HETATM    4  C6  UNL     1      -1.546   5.327  12.262  1.00  0.00     0.002 C 
HETATM    5  C7  UNL     1      -2.747   5.143  13.202  1.00  0.00    -0.004 C 
HETATM    6  C8  UNL     1      -3.510   3.819  13.004  1.00  0.00     0.010 C 
HETATM    7  C9  UNL     1      -4.907   3.992  12.421  1.00  0.00     0.035 C 
HETATM    8  C10 UNL     1      -5.750   5.023  13.140  1.00  0.00    -0.069 C 
HETATM    9  C11 UNL     1      -7.089   4.915  13.097  1.00  0.00     0.030 C 
HETATM   10  C12 UNL     1      -7.979   5.977  13.631  1.00  0.00     0.032 C 
HETATM   11  N1  UNL     1      -9.257   5.727  13.670  1.00  0.00    -0.271 N 
ATOM     12  H1  UNL     1      -9.676   4.845  13.374  1.00  0.00     0.194 HD
HETATM   13  C26 UNL     1      -7.360   7.282  14.089  1.00  0.00     0.060 C 
HETATM   14  C27 UNL     1      -5.928   7.468  13.588  1.00  0.00     0.020 C 
HETATM   15  C28 UNL     1      -5.033   6.215  13.779  1.00  0.00    -0.016 C 
HETATM   16  C29 UNL     1      -4.831   5.955  15.291  1.00  0.00     0.020 C 
HETATM   17  C30 UNL     1      -3.664   6.398  13.040  1.00  0.00     0.002 C 
HETATM   18  C31 UNL     1      -2.878   7.686  13.377  1.00  0.00     0.007 C 
HETATM   19  C32 UNL     1      -1.600   7.817  12.523  1.00  0.00     0.013 C 
HETATM   20  C33 UNL     1      -0.691   6.575  12.622  1.00  0.00    -0.002 C 
HETATM   21  C34 UNL     1      -0.086   6.514  14.055  1.00  0.00     0.019 C 
ENDROOT
BRANCH  11  22
HETATM   22  O3  UNL     1      -9.989   6.816  14.170  1.00  0.00    -0.271 OA
BRANCH  22  23
HETATM   23  C13 UNL     1     -10.876   7.255  13.150  1.00  0.00     0.303 C 
BRANCH  23  24
HETATM   24  C14 UNL     1     -12.279   7.472  13.709  1.00  0.00     0.244 C 
HETATM   25  O4  UNL     1     -12.486   7.966  14.814  1.00  0.00    -0.271 OA
HETATM   26  N2  UNL     1     -13.298   7.123  12.843  1.00  0.00    -0.344 N 
HETATM   27  H18 UNL     1     -13.040   7.012  11.867  1.00  0.00     0.163 HD
BRANCH  26  28
HETATM   28  C15 UNL     1     -14.689   7.502  13.129  1.00  0.00     0.186 C 
BRANCH  28  29
HETATM   29  C16 UNL     1     -15.596   6.266  13.075  1.00  0.00     0.077 C 
BRANCH  29  30
HETATM   30  C17 UNL     1     -16.238   5.925  14.385  1.00  0.00    -0.028 A 
HETATM   31  C18 UNL     1     -16.819   6.817  15.262  1.00  0.00     0.096 A 
HETATM   32  N3  UNL     1     -17.285   6.115  16.342  1.00  0.00    -0.365 N 
HETATM   33  C19 UNL     1     -17.022   4.773  16.191  1.00  0.00     0.042 A 
HETATM   34  H23 UNL     1     -17.758   6.515  17.140  1.00  0.00     0.165 HD
HETATM   35  C20 UNL     1     -17.318   3.698  17.037  1.00  0.00     0.030 A 
HETATM   36  C24 UNL     1     -16.358   4.622  14.974  1.00  0.00    -0.002 A 
HETATM   37  C21 UNL     1     -16.927   2.422  16.623  1.00  0.00     0.002 A 
HETATM   38  C22 UNL     1     -16.261   2.235  15.414  1.00  0.00     0.001 A 
HETATM   39  C23 UNL     1     -15.968   3.324  14.582  1.00  0.00     0.014 A 
ENDBRANCH  29  30
ENDBRANCH  28  29
BRANCH  28  40
HETATM   40  C25 UNL     1     -15.117   8.500  12.056  1.00  0.00     0.163 C 
HETATM   41  O5  UNL     1     -14.726   9.655  11.961  1.00  0.00    -0.648 OA
BRANCH  40  42
HETATM   42  O6  UNL     1     -15.980   7.991  11.159  1.00  0.00    -0.775 OA
HETATM   43  H28 UNL     1     -16.131   8.706  10.511  1.00  0.00     0.167 HD
ENDBRANCH  40  42
ENDBRANCH  28  40
ENDBRANCH  26  28
ENDBRANCH  23  24
ENDBRANCH  22  23
ENDBRANCH  11  22
BRANCH   1  44
HETATM   44  C2  UNL     1       1.725   7.250  11.875  1.00  0.00     0.158 C 
HETATM   45  C1  UNL     1       1.636   8.753  11.792  1.00  0.00     0.094 C 
HETATM   46  O1  UNL     1       2.785   6.717  12.217  1.00  0.00    -0.295 OA
ENDBRANCH   1  44
BRANCH   1  47
HETATM   47  O2  UNL     1      -0.053   6.743  10.244  1.00  0.00    -0.381 OA
HETATM   48  H4  UNL     1      -0.243   7.690  10.179  1.00  0.00     0.211 HD
ENDBRANCH   1  47
TORSDOF 10
ENDMDL
MODEL 6
REMARK minimizedAffinity -9.85624027
REMARK CNNscore 0.195163578
REMARK CNNaffinity 6.92409468
REMARK  10 active torsions:
REMARK  status: ('A' for Active; 'I' for Inactive)
REMARK    1  A    between atoms: C2_2  and  C3_4 
REMARK    2  A    between atoms: C3_4  and  O2_5 
REMARK    3  A    between atoms: N1_15  and  O3_17 
REMARK    4  A    between atoms: O3_17  and  C13_18 
REMARK    5  A    between atoms: C13_18  and  C14_19 
REMARK       I    between atoms: C14_19  and  N2_21 
REMARK    6  A    between atoms: N2_21  and  C15_22 
REMARK    7  A    between atoms: C15_22  and  C16_23 
REMARK    8  A    between atoms: C15_22  and  C25_33 
REMARK    9  A    between atoms: C16_23  and  C17_24 
REMARK   10  A    between atoms: C25_33  and  O6_35 
ROOT
HETATM    1  C3  UNL     1       0.623   6.825  11.302  1.00  0.00     0.125 C 
HETATM    2  C4  UNL     1       0.988   5.309  11.274  1.00  0.00     0.047 C 
HETATM    3  C5  UNL     1      -0.190   4.554  11.920  1.00  0.00     0.009 C 
HETATM    4  C6  UNL     1      -1.277   5.611  12.081  1.00  0.00     0.002 C 
HETATM    5  C7  UNL     1      -2.430   5.363  13.065  1.00  0.00    -0.004 C 
HETATM    6  C8  UNL     1      -3.132   4.003  12.890  1.00  0.00     0.010 C 
HETATM    7  C9  UNL     1      -4.558   4.105  12.361  1.00  0.00     0.035 C 
HETATM    8  C10 UNL     1      -5.424   5.090  13.115  1.00  0.00    -0.069 C 
HETATM    9  C11 UNL     1      -6.756   4.914  13.123  1.00  0.00     0.030 C 
HETATM   10  C12 UNL     1      -7.678   5.928  13.694  1.00  0.00     0.032 C 
HETATM   11  N1  UNL     1      -8.939   5.612  13.781  1.00  0.00    -0.271 N 
ATOM     12  H1  UNL     1      -9.323   4.711  13.496  1.00  0.00     0.194 HD
HETATM   13  C26 UNL     1      -7.110   7.262  14.134  1.00  0.00     0.060 C 
HETATM   14  C27 UNL     1      -5.709   7.522  13.581  1.00  0.00     0.020 C 
HETATM   15  C28 UNL     1      -4.745   6.316  13.732  1.00  0.00    -0.016 C 
HETATM   16  C29 UNL     1      -4.473   6.062  15.234  1.00  0.00     0.020 C 
HETATM   17  C30 UNL     1      -3.416   6.570  12.943  1.00  0.00     0.002 C 
HETATM   18  C31 UNL     1      -2.684   7.896  13.256  1.00  0.00     0.007 C 
HETATM   19  C32 UNL     1      -1.448   8.094  12.355  1.00  0.00     0.013 C 
HETATM   20  C33 UNL     1      -0.474   6.900  12.414  1.00  0.00    -0.002 C 
HETATM   21  C34 UNL     1       0.187   6.866  13.823  1.00  0.00     0.019 C 
ENDROOT
BRANCH  11  22
HETATM   22  O3  UNL     1      -9.706   6.661  14.313  1.00  0.00    -0.271 OA
BRANCH  22  23
HETATM   23  C13 UNL     1     -10.660   7.050  13.332  1.00  0.00     0.303 C 
BRANCH  23  24
HETATM   24  C14 UNL     1     -11.994   7.401  13.983  1.00  0.00     0.244 C 
HETATM   25  O4  UNL     1     -12.553   8.481  13.814  1.00  0.00    -0.271 OA
HETATM   26  N2  UNL     1     -12.550   6.379  14.729  1.00  0.00    -0.344 N 
HETATM   27  H18 UNL     1     -12.176   5.450  14.567  1.00  0.00     0.163 HD
BRANCH  26  28
HETATM   28  C15 UNL     1     -13.937   6.469  15.207  1.00  0.00     0.186 C 
BRANCH  28  29
HETATM   29  C16 UNL     1     -14.909   6.069  14.090  1.00  0.00     0.077 C 
BRANCH  29  30
HETATM   30  C17 UNL     1     -16.098   5.292  14.566  1.00  0.00    -0.028 A 
HETATM   31  C18 UNL     1     -17.350   5.804  14.836  1.00  0.00     0.096 A 
HETATM   32  N3  UNL     1     -18.154   4.776  15.252  1.00  0.00    -0.365 N 
HETATM   33  C19 UNL     1     -17.452   3.592  15.260  1.00  0.00     0.042 A 
HETATM   34  H23 UNL     1     -19.125   4.863  15.515  1.00  0.00     0.165 HD
HETATM   35  C20 UNL     1     -17.870   2.302  15.609  1.00  0.00     0.030 A 
HETATM   36  C24 UNL     1     -16.155   3.884  14.842  1.00  0.00    -0.002 A 
HETATM   37  C21 UNL     1     -16.929   1.273  15.521  1.00  0.00     0.002 A 
HETATM   38  C22 UNL     1     -15.624   1.529  15.109  1.00  0.00     0.001 A 
HETATM   39  C23 UNL     1     -15.222   2.827  14.769  1.00  0.00     0.014 A 
ENDBRANCH  29  30
ENDBRANCH  28  29
BRANCH  28  40
HETATM   40  C25 UNL     1     -14.185   7.921  15.608  1.00  0.00     0.163 C 
HETATM   41  O5  UNL     1     -14.946   8.695  15.044  1.00  0.00    -0.648 OA
BRANCH  40  42
HETATM   42  O6  UNL     1     -13.493   8.307  16.695  1.00  0.00    -0.775 OA
HETATM   43  H28 UNL     1     -13.777   9.224  16.869  1.00  0.00     0.167 HD
ENDBRANCH  40  42
ENDBRANCH  28  40
ENDBRANCH  26  28
ENDBRANCH  23  24
ENDBRANCH  22  23
ENDBRANCH  11  22
BRANCH   1  44
HETATM   44  C2  UNL     1       1.875   7.700  11.579  1.00  0.00     0.158 C 
HETATM   45  C1  UNL     1       3.195   6.990  11.743  1.00  0.00     0.094 C 
HETATM   46  O1  UNL     1       1.829   8.932  11.640  1.00  0.00    -0.295 OA
ENDBRANCH   1  44
BRANCH   1  47
HETATM   47  O2  UNL     1       0.064   7.107  10.014  1.00  0.00    -0.381 OA
HETATM   48  H4  UNL     1      -0.177   8.043   9.960  1.00  0.00     0.211 HD
ENDBRANCH   1  47
TORSDOF 10
ENDMDL
MODEL 7
REMARK minimizedAffinity -9.95530415
REMARK CNNscore 0.188256368
REMARK CNNaffinity 6.51412725
REMARK  10 active torsions:
REMARK  status: ('A' for Active; 'I' for Inactive)
REMARK    1  A    between atoms: C2_2  and  C3_4 
REMARK    2  A    between atoms: C3_4  and  O2_5 
REMARK    3  A    between atoms: N1_15  and  O3_17 
REMARK    4  A    between atoms: O3_17  and  C13_18 
REMARK    5  A    between atoms: C13_18  and  C14_19 
REMARK       I    between atoms: C14_19  and  N2_21 
REMARK    6  A    between atoms: N2_21  and  C15_22 
REMARK    7  A    between atoms: C15_22  and  C16_23 
REMARK    8  A    between atoms: C15_22  and  C25_33 
REMARK    9  A    between atoms: C16_23  and  C17_24 
REMARK   10  A    between atoms: C25_33  and  O6_35 
ROOT
HETATM    1  C3  UNL     1      -4.290   6.989  15.057  1.00  0.00     0.125 C 
HETATM    2  C4  UNL     1      -5.054   5.828  14.350  1.00  0.00     0.047 C 
HETATM    3  C5  UNL     1      -4.176   5.370  13.168  1.00  0.00     0.009 C 
HETATM    4  C6  UNL     1      -2.855   6.104  13.369  1.00  0.00     0.002 C 
HETATM    5  C7  UNL     1      -1.886   6.249  12.185  1.00  0.00    -0.004 C 
HETATM    6  C8  UNL     1      -1.575   4.929  11.456  1.00  0.00     0.010 C 
HETATM    7  C9  UNL     1      -0.142   4.443  11.641  1.00  0.00     0.035 C 
HETATM    8  C10 UNL     1       0.906   5.498  11.363  1.00  0.00    -0.069 C 
HETATM    9  C11 UNL     1       2.135   5.112  10.980  1.00  0.00     0.030 C 
HETATM   10  C12 UNL     1       3.257   6.076  10.856  1.00  0.00     0.032 C 
HETATM   11  N1  UNL     1       4.374   5.636  10.349  1.00  0.00    -0.271 N 
ATOM     12  H1  UNL     1       4.515   4.680  10.021  1.00  0.00     0.194 HD
HETATM   13  C26 UNL     1       3.047   7.501  11.326  1.00  0.00     0.060 C 
HETATM   14  C27 UNL     1       1.814   7.657  12.216  1.00  0.00     0.020 C 
HETATM   15  C28 UNL     1       0.548   6.958  11.654  1.00  0.00    -0.016 C 
HETATM   16  C29 UNL     1       0.112   7.660  10.346  1.00  0.00     0.020 C 
HETATM   17  C30 UNL     1      -0.602   6.962  12.718  1.00  0.00     0.002 C 
HETATM   18  C31 UNL     1      -0.961   8.338  13.324  1.00  0.00     0.007 C 
HETATM   19  C32 UNL     1      -2.029   8.216  14.430  1.00  0.00     0.013 C 
HETATM   20  C33 UNL     1      -3.296   7.476  13.953  1.00  0.00    -0.002 C 
HETATM   21  C34 UNL     1      -4.038   8.375  12.920  1.00  0.00     0.019 C 
ENDROOT
BRANCH  11  22
HETATM   22  O3  UNL     1       5.360   6.635  10.309  1.00  0.00    -0.271 OA
BRANCH  22  23
HETATM   23  C13 UNL     1       6.460   6.200  11.098  1.00  0.00     0.303 C 
BRANCH  23  24
HETATM   24  C14 UNL     1       6.973   7.331  11.982  1.00  0.00     0.244 C 
HETATM   25  O4  UNL     1       7.218   8.454  11.550  1.00  0.00    -0.271 OA
HETATM   26  N2  UNL     1       7.079   7.005  13.321  1.00  0.00    -0.344 N 
HETATM   27  H18 UNL     1       6.580   6.174  13.622  1.00  0.00     0.163 HD
BRANCH  26  28
HETATM   28  C15 UNL     1       7.314   8.047  14.331  1.00  0.00     0.186 C 
BRANCH  28  29
HETATM   29  C16 UNL     1       8.539   7.690  15.183  1.00  0.00     0.077 C 
BRANCH  29  30
HETATM   30  C17 UNL     1       9.305   8.880  15.675  1.00  0.00    -0.028 A 
HETATM   31  C18 UNL     1       9.339   9.344  16.974  1.00  0.00     0.096 A 
HETATM   32  N3  UNL     1      10.145  10.452  17.013  1.00  0.00    -0.365 N 
HETATM   33  C19 UNL     1      10.644  10.724  15.760  1.00  0.00     0.042 A 
HETATM   34  H23 UNL     1      10.352  10.996  17.838  1.00  0.00     0.165 HD
HETATM   35  C20 UNL     1      11.501  11.748  15.336  1.00  0.00     0.030 A 
HETATM   36  C24 UNL     1      10.129   9.759  14.896  1.00  0.00    -0.002 A 
HETATM   37  C21 UNL     1      11.848  11.782  13.984  1.00  0.00     0.002 A 
HETATM   38  C22 UNL     1      11.350  10.835  13.092  1.00  0.00     0.001 A 
HETATM   39  C23 UNL     1      10.489   9.821  13.533  1.00  0.00     0.014 A 
ENDBRANCH  29  30
ENDBRANCH  28  29
BRANCH  28  40
HETATM   40  C25 UNL     1       6.073   8.108  15.217  1.00  0.00     0.163 C 
HETATM   41  O5  UNL     1       5.712   9.077  15.871  1.00  0.00    -0.648 OA
BRANCH  40  42
HETATM   42  O6  UNL     1       5.351   6.974  15.214  1.00  0.00    -0.775 OA
HETATM   43  H28 UNL     1       4.571   7.162  15.771  1.00  0.00     0.167 HD
ENDBRANCH  40  42
ENDBRANCH  28  40
ENDBRANCH  26  28
ENDBRANCH  23  24
ENDBRANCH  22  23
ENDBRANCH  11  22
BRANCH   1  44
HETATM   44  C2  UNL     1      -5.270   8.082  15.561  1.00  0.00     0.158 C 
HETATM   45  C1  UNL     1      -6.740   7.747  15.568  1.00  0.00     0.094 C 
HETATM   46  O1  UNL     1      -4.890   9.181  15.974  1.00  0.00    -0.295 OA
ENDBRANCH   1  44
BRANCH   1  47
HETATM   47  O2  UNL     1      -3.586   6.378  16.143  1.00  0.00    -0.381 OA
HETATM   48  H4  UNL     1      -3.094   7.052  16.635  1.00  0.00     0.211 HD
ENDBRANCH   1  47
TORSDOF 10
ENDMDL
MODEL 8
REMARK minimizedAffinity -9.42190838
REMARK CNNscore 0.179339856
REMARK CNNaffinity 6.7834506
REMARK  10 active torsions:
REMARK  status: ('A' for Active; 'I' for Inactive)
REMARK    1  A    between atoms: C2_2  and  C3_4 
REMARK    2  A    between atoms: C3_4  and  O2_5 
REMARK    3  A    between atoms: N1_15  and  O3_17 
REMARK    4  A    between atoms: O3_17  and  C13_18 
REMARK    5  A    between atoms: C13_18  and  C14_19 
REMARK       I    between atoms: C14_19  and  N2_21 
REMARK    6  A    between atoms: N2_21  and  C15_22 
REMARK    7  A    between atoms: C15_22  and  C16_23 
REMARK    8  A    between atoms: C15_22  and  C25_33 
REMARK    9  A    between atoms: C16_23  and  C17_24 
REMARK   10  A    between atoms: C25_33  and  O6_35 
ROOT
HETATM    1  C3  UNL     1       0.544   6.575  11.489  1.00  0.00     0.125 C 
HETATM    2  C4  UNL     1       0.829   5.042  11.458  1.00  0.00     0.047 C 
HETATM    3  C5  UNL     1      -0.401   4.347  12.075  1.00  0.00     0.009 C 
HETATM    4  C6  UNL     1      -1.434   5.459  12.221  1.00  0.00     0.002 C 
HETATM    5  C7  UNL     1      -2.618   5.266  13.180  1.00  0.00    -0.004 C 
HETATM    6  C8  UNL     1      -3.386   3.946  12.981  1.00  0.00     0.010 C 
HETATM    7  C9  UNL     1      -4.794   4.127  12.425  1.00  0.00     0.035 C 
HETATM    8  C10 UNL     1      -5.622   5.152  13.168  1.00  0.00    -0.069 C 
HETATM    9  C11 UNL     1      -6.962   5.046  13.148  1.00  0.00     0.030 C 
HETATM   10  C12 UNL     1      -7.840   6.104  13.707  1.00  0.00     0.032 C 
HETATM   11  N1  UNL     1      -9.118   5.855  13.767  1.00  0.00    -0.271 N 
ATOM     12  H1  UNL     1      -9.543   4.977  13.468  1.00  0.00     0.194 HD
HETATM   13  C26 UNL     1      -7.212   7.404  14.169  1.00  0.00     0.060 C 
HETATM   14  C27 UNL     1      -5.788   7.592  13.645  1.00  0.00     0.020 C 
HETATM   15  C28 UNL     1      -4.892   6.337  13.807  1.00  0.00    -0.016 C 
HETATM   16  C29 UNL     1      -4.665   6.060  15.313  1.00  0.00     0.020 C 
HETATM   17  C30 UNL     1      -3.536   6.525  13.047  1.00  0.00     0.002 C 
HETATM   18  C31 UNL     1      -2.742   7.808  13.384  1.00  0.00     0.007 C 
HETATM   19  C32 UNL     1      -1.479   7.946  12.509  1.00  0.00     0.013 C 
HETATM   20  C33 UNL     1      -0.570   6.702  12.579  1.00  0.00    -0.002 C 
HETATM   21  C34 UNL     1       0.059   6.625  14.002  1.00  0.00     0.019 C 
ENDROOT
BRANCH  11  22
HETATM   22  O3  UNL     1      -9.839   6.940  14.290  1.00  0.00    -0.271 OA
BRANCH  22  23
HETATM   23  C13 UNL     1     -11.224   6.631  14.202  1.00  0.00     0.303 C 
BRANCH  23  24
HETATM   24  C14 UNL     1     -11.998   7.789  13.579  1.00  0.00     0.244 C 
HETATM   25  O4  UNL     1     -11.447   8.739  13.030  1.00  0.00    -0.271 OA
HETATM   26  N2  UNL     1     -13.373   7.647  13.628  1.00  0.00    -0.344 N 
HETATM   27  H18 UNL     1     -13.721   6.714  13.822  1.00  0.00     0.163 HD
BRANCH  26  28
HETATM   28  C15 UNL     1     -14.247   8.542  12.857  1.00  0.00     0.186 C 
BRANCH  28  29
HETATM   29  C16 UNL     1     -14.766   9.676  13.752  1.00  0.00     0.077 C 
BRANCH  29  30
HETATM   30  C17 UNL     1     -14.405  11.046  13.268  1.00  0.00    -0.028 A 
HETATM   31  C18 UNL     1     -13.206  11.695  13.480  1.00  0.00     0.096 A 
HETATM   32  N3  UNL     1     -13.272  12.927  12.885  1.00  0.00    -0.365 N 
HETATM   33  C19 UNL     1     -14.497  13.101  12.282  1.00  0.00     0.042 A 
HETATM   34  H23 UNL     1     -12.533  13.615  12.881  1.00  0.00     0.165 HD
HETATM   35  C20 UNL     1     -14.998  14.193  11.563  1.00  0.00     0.030 A 
HETATM   36  C24 UNL     1     -15.234  11.941  12.512  1.00  0.00    -0.002 A 
HETATM   37  C21 UNL     1     -16.295  14.094  11.056  1.00  0.00     0.002 A 
HETATM   38  C22 UNL     1     -17.061  12.950  11.268  1.00  0.00     0.001 A 
HETATM   39  C23 UNL     1     -16.545  11.868  11.994  1.00  0.00     0.014 A 
ENDBRANCH  29  30
ENDBRANCH  28  29
BRANCH  28  40
HETATM   40  C25 UNL     1     -15.422   7.706  12.355  1.00  0.00     0.163 C 
HETATM   41  O5  UNL     1     -16.076   6.921  13.027  1.00  0.00    -0.648 OA
BRANCH  40  42
HETATM   42  O6  UNL     1     -15.721   7.918  11.061  1.00  0.00    -0.775 OA
HETATM   43  H28 UNL     1     -16.508   7.369  10.885  1.00  0.00     0.167 HD
ENDBRANCH  40  42
ENDBRANCH  28  40
ENDBRANCH  26  28
ENDBRANCH  23  24
ENDBRANCH  22  23
ENDBRANCH  11  22
BRANCH   1  44
HETATM   44  C2  UNL     1       1.834   7.381  11.798  1.00  0.00     0.158 C 
HETATM   45  C1  UNL     1       2.740   7.712  10.639  1.00  0.00     0.094 C 
HETATM   46  O1  UNL     1       2.121   7.774  12.932  1.00  0.00    -0.295 OA
ENDBRANCH   1  44
BRANCH   1  47
HETATM   47  O2  UNL     1       0.027   6.894  10.193  1.00  0.00    -0.381 OA
HETATM   48  H4  UNL     1      -0.163   7.842  10.141  1.00  0.00     0.211 HD
ENDBRANCH   1  47
TORSDOF 10
ENDMDL
MODEL 9
REMARK minimizedAffinity -8.71445274
REMARK CNNscore 0.1704662
REMARK CNNaffinity 6.2572999
REMARK  10 active torsions:
REMARK  status: ('A' for Active; 'I' for Inactive)
REMARK    1  A    between atoms: C2_2  and  C3_4 
REMARK    2  A    between atoms: C3_4  and  O2_5 
REMARK    3  A    between atoms: N1_15  and  O3_17 
REMARK    4  A    between atoms: O3_17  and  C13_18 
REMARK    5  A    between atoms: C13_18  and  C14_19 
REMARK       I    between atoms: C14_19  and  N2_21 
REMARK    6  A    between atoms: N2_21  and  C15_22 
REMARK    7  A    between atoms: C15_22  and  C16_23 
REMARK    8  A    between atoms: C15_22  and  C25_33 
REMARK    9  A    between atoms: C16_23  and  C17_24 
REMARK   10  A    between atoms: C25_33  and  O6_35 
ROOT
HETATM    1  C3  UNL     1       0.917   6.613  11.074  1.00  0.00     0.125 C 
HETATM    2  C4  UNL     1       0.950   5.056  10.998  1.00  0.00     0.047 C 
HETATM    3  C5  UNL     1      -0.263   4.544  11.799  1.00  0.00     0.009 C 
HETATM    4  C6  UNL     1      -1.074   5.798  12.106  1.00  0.00     0.002 C 
HETATM    5  C7  UNL     1      -2.112   5.767  13.238  1.00  0.00    -0.004 C 
HETATM    6  C8  UNL     1      -3.099   4.587  13.160  1.00  0.00     0.010 C 
HETATM    7  C9  UNL     1      -4.529   4.998  12.830  1.00  0.00     0.035 C 
HETATM    8  C10 UNL     1      -5.062   6.119  13.696  1.00  0.00    -0.069 C 
HETATM    9  C11 UNL     1      -6.389   6.223  13.885  1.00  0.00     0.030 C 
HETATM   10  C12 UNL     1      -6.993   7.390  14.576  1.00  0.00     0.032 C 
HETATM   11  N1  UNL     1      -8.269   7.340  14.833  1.00  0.00    -0.271 N 
ATOM     12  H1  UNL     1      -8.868   6.546  14.604  1.00  0.00     0.194 HD
HETATM   13  C26 UNL     1      -6.105   8.564  14.934  1.00  0.00     0.060 C 
HETATM   14  C27 UNL     1      -4.767   8.543  14.194  1.00  0.00     0.020 C 
HETATM   15  C28 UNL     1      -4.066   7.160  14.214  1.00  0.00    -0.016 C 
HETATM   16  C29 UNL     1      -3.655   6.813  15.665  1.00  0.00     0.020 C 
HETATM   17  C30 UNL     1      -2.830   7.155  13.251  1.00  0.00     0.002 C 
HETATM   18  C31 UNL     1      -1.802   8.291  13.460  1.00  0.00     0.007 C 
HETATM   19  C32 UNL     1      -0.683   8.254  12.399  1.00  0.00     0.013 C 
HETATM   20  C33 UNL     1       0.019   6.883  12.325  1.00  0.00    -0.002 C 
HETATM   21  C34 UNL     1       0.840   6.673  13.632  1.00  0.00     0.019 C 
ENDROOT
BRANCH  11  22
HETATM   22  O3  UNL     1      -8.722   8.510  15.465  1.00  0.00    -0.271 OA
BRANCH  22  23
HETATM   23  C13 UNL     1     -10.032   8.264  15.960  1.00  0.00     0.303 C 
BRANCH  23  24
HETATM   24  C14 UNL     1     -10.463   9.366  16.922  1.00  0.00     0.244 C 
HETATM   25  O4  UNL     1     -10.412  10.558  16.634  1.00  0.00    -0.271 OA
HETATM   26  N2  UNL     1     -10.976   8.908  18.121  1.00  0.00    -0.344 N 
HETATM   27  H18 UNL     1     -11.254   7.932  18.147  1.00  0.00     0.163 HD
BRANCH  26  28
HETATM   28  C15 UNL     1     -11.661   9.824  19.043  1.00  0.00     0.186 C 
BRANCH  28  29
HETATM   29  C16 UNL     1     -10.773  10.113  20.260  1.00  0.00     0.077 C 
BRANCH  29  30
HETATM   30  C17 UNL     1     -11.517  10.651  21.443  1.00  0.00    -0.028 A 
HETATM   31  C18 UNL     1     -12.174  11.862  21.507  1.00  0.00     0.096 A 
HETATM   32  N3  UNL     1     -12.723  11.988  22.757  1.00  0.00    -0.365 N 
HETATM   33  C19 UNL     1     -12.438  10.877  23.518  1.00  0.00     0.042 A 
HETATM   34  H23 UNL     1     -13.262  12.777  23.082  1.00  0.00     0.165 HD
HETATM   35  C20 UNL     1     -12.794  10.577  24.838  1.00  0.00     0.030 A 
HETATM   36  C24 UNL     1     -11.675  10.023  22.723  1.00  0.00    -0.002 A 
HETATM   37  C21 UNL     1     -12.360   9.357  25.363  1.00  0.00     0.002 A 
HETATM   38  C22 UNL     1     -11.595   8.480  24.598  1.00  0.00     0.001 A 
HETATM   39  C23 UNL     1     -11.244   8.800  23.280  1.00  0.00     0.014 A 
ENDBRANCH  29  30
ENDBRANCH  28  29
BRANCH  28  40
HETATM   40  C25 UNL     1     -12.945   9.133  19.497  1.00  0.00     0.163 C 
HETATM   41  O5  UNL     1     -13.007   8.067  20.094  1.00  0.00    -0.648 OA
BRANCH  40  42
HETATM   42  O6  UNL     1     -14.062   9.822  19.203  1.00  0.00    -0.775 OA
HETATM   43  H28 UNL     1     -14.794   9.303  19.586  1.00  0.00     0.167 HD
ENDBRANCH  40  42
ENDBRANCH  28  40
ENDBRANCH  26  28
ENDBRANCH  23  24
ENDBRANCH  22  23
ENDBRANCH  11  22
BRANCH   1  44
HETATM   44  C2  UNL     1       2.350   7.201  11.179  1.00  0.00     0.158 C 
HETATM   45  C1  UNL     1       3.506   6.250  11.000  1.00  0.00     0.094 C 
HETATM   46  O1  UNL     1       2.567   8.401  11.371  1.00  0.00    -0.295 OA
ENDBRANCH   1  44
BRANCH   1  47
HETATM   47  O2  UNL     1       0.263   7.041   9.875  1.00  0.00    -0.381 OA
HETATM   48  H4  UNL     1       0.219   8.008   9.854  1.00  0.00     0.211 HD
ENDBRANCH   1  47
TORSDOF 10
ENDMDL
