MODEL 1
REMARK minimizedAffinity -9.53883266
REMARK CNNscore 0.658752561
REMARK CNNaffinity 7.10591841
REMARK  7 active torsions:
REMARK  status: ('A' for Active; 'I' for Inactive)
REMARK    1  A    between atoms: C2_2  and  C4_4 
REMARK    2  A    between atoms: C4_4  and  O1_6 
REMARK    3  A    between atoms: C4_4  and  C6_7 
REMARK    4  A    between atoms: C7_9  and  C8_10 
REMARK    5  A    between atoms: C8_10  and  C9_11 
REMARK    6  A    between atoms: C12_14  and  O3_15 
REMARK    7  A    between atoms: C18_22  and  O5_23 
ROOT
HETATM    1  C9  UNL     1      -0.212   6.443  12.829  1.00  0.00     0.034 C 
HETATM    2  C10 UNL     1       0.870   5.969  13.851  1.00  0.00     0.012 C 
HETATM    3  C11 UNL     1       0.753   6.882  15.089  1.00  0.00     0.044 C 
HETATM    4  C12 UNL     1      -0.599   7.575  14.909  1.00  0.00     0.089 C 
HETATM    5  C13 UNL     1      -0.976   8.826  15.662  1.00  0.00    -0.037 C 
HETATM    6  C14 UNL     1      -0.118   9.514  16.429  1.00  0.00     0.057 C 
HETATM    7  C15 UNL     1      -0.464  10.852  16.957  1.00  0.00     0.154 C 
HETATM    8  O4  UNL     1       0.331  11.396  17.720  1.00  0.00    -0.293 OA
HETATM    9  C16 UNL     1      -1.755  11.514  16.471  1.00  0.00     0.071 C 
HETATM   10  C17 UNL     1      -2.163  12.662  17.413  1.00  0.00     0.045 C 
HETATM   11  C18 UNL     1      -2.842  12.199  18.708  1.00  0.00     0.119 C 
HETATM   12  C19 UNL     1      -2.832  10.689  18.915  1.00  0.00     0.032 C 
HETATM   13  C20 UNL     1      -3.299   9.888  17.691  1.00  0.00     0.013 C 
HETATM   14  C21 UNL     1      -2.883  10.470  16.295  1.00  0.00    -0.026 C 
HETATM   15  C22 UNL     1      -4.137  11.140  15.677  1.00  0.00     0.016 C 
HETATM   16  C23 UNL     1      -2.405   9.292  15.364  1.00  0.00     0.026 C 
HETATM   17  C24 UNL     1      -2.534   9.527  13.837  1.00  0.00     0.011 C 
HETATM   18  C25 UNL     1      -2.060   8.317  12.992  1.00  0.00     0.014 C 
HETATM   19  C26 UNL     1      -0.633   7.853  13.368  1.00  0.00    -0.002 C 
HETATM   20  C27 UNL     1       0.362   8.964  12.948  1.00  0.00     0.019 C 
ENDROOT
BRANCH   1  21
HETATM   21  C8  UNL     1       0.149   6.162  11.317  1.00  0.00     0.094 C 
HETATM   22  C28 UNL     1       0.202   7.452  10.436  1.00  0.00     0.045 C 
HETATM   23  C29 UNL     1       1.313   7.586   9.376  1.00  0.00    -0.014 C 
HETATM   24  C30 UNL     1       0.770   7.812   7.966  1.00  0.00     0.010 C 
HETATM   25  C31 UNL     1       2.330   6.456   9.423  1.00  0.00     0.030 C 
HETATM   26  C32 UNL     1       2.559   6.074  10.866  1.00  0.00     0.169 C 
HETATM   27  O6  UNL     1       1.402   5.445  11.385  1.00  0.00    -0.377 OA
BRANCH  21  28
HETATM   28  C7  UNL     1      -0.832   5.112  10.798  1.00  0.00     0.189 A 
HETATM   29  C6  UNL     1      -1.661   4.210  11.697  1.00  0.00     0.188 A 
HETATM   30  O2  UNL     1      -0.490   3.737  11.006  1.00  0.00    -0.369 OA
BRANCH  29  31
HETATM   31  C4  UNL     1      -2.966   3.554  11.280  1.00  0.00     0.086 C 
HETATM   32  C5  UNL     1      -2.922   2.083  11.732  1.00  0.00     0.049 C 
BRANCH  31  33
HETATM   33  C2  UNL     1      -4.184   4.298  11.918  1.00  0.00     0.014 C 
HETATM   34  C1  UNL     1      -3.835   4.996  13.240  1.00  0.00     0.012 C 
HETATM   35  C3  UNL     1      -5.387   3.376  12.170  1.00  0.00     0.012 C 
ENDBRANCH  31  33
BRANCH  31  36
HETATM   36  O1  UNL     1      -3.102   3.524   9.856  1.00  0.00    -0.387 OA
HETATM   37  H11 UNL     1      -3.147   4.438   9.535  1.00  0.00     0.210 HD
ENDBRANCH  31  36
ENDBRANCH  29  31
ENDBRANCH  21  28
ENDBRANCH   1  21
BRANCH   4  38
HETATM   38  O3  UNL     1      -1.586   6.592  15.269  1.00  0.00    -0.384 OA
HETATM   39  H19 UNL     1      -1.496   6.429  16.222  1.00  0.00     0.211 HD
ENDBRANCH   4  38
BRANCH  11  40
HETATM   40  O5  UNL     1      -4.194  12.655  18.700  1.00  0.00    -0.396 OA
HETATM   41  H25 UNL     1      -4.564  12.490  19.585  1.00  0.00     0.210 HD
ENDBRANCH  11  40
TORSDOF 7
ENDMDL
MODEL 2
REMARK minimizedAffinity -8.47483826
REMARK CNNscore 0.628705263
REMARK CNNaffinity 6.67596436
REMARK  7 active torsions:
REMARK  status: ('A' for Active; 'I' for Inactive)
REMARK    1  A    between atoms: C2_2  and  C4_4 
REMARK    2  A    between atoms: C4_4  and  O1_6 
REMARK    3  A    between atoms: C4_4  and  C6_7 
REMARK    4  A    between atoms: C7_9  and  C8_10 
REMARK    5  A    between atoms: C8_10  and  C9_11 
REMARK    6  A    between atoms: C12_14  and  O3_15 
REMARK    7  A    between atoms: C18_22  and  O5_23 
ROOT
HETATM    1  C9  UNL     1      -1.595   9.620  16.318  1.00  0.00     0.034 C 
HETATM    2  C10 UNL     1      -2.920   9.149  15.637  1.00  0.00     0.012 C 
HETATM    3  C11 UNL     1      -2.539   8.559  14.264  1.00  0.00     0.044 C 
HETATM    4  C12 UNL     1      -1.025   8.360  14.357  1.00  0.00     0.089 C 
HETATM    5  C13 UNL     1      -0.156   8.165  13.139  1.00  0.00    -0.037 C 
HETATM    6  C14 UNL     1      -0.604   8.297  11.882  1.00  0.00     0.057 C 
HETATM    7  C15 UNL     1       0.329   8.326  10.735  1.00  0.00     0.154 C 
HETATM    8  O4  UNL     1      -0.148   8.367   9.603  1.00  0.00    -0.293 OA
HETATM    9  C16 UNL     1       1.831   8.373  11.019  1.00  0.00     0.071 C 
HETATM   10  C17 UNL     1       2.633   7.974   9.768  1.00  0.00     0.045 C 
HETATM   11  C18 UNL     1       2.689   6.463   9.515  1.00  0.00     0.119 C 
HETATM   12  C19 UNL     1       1.800   5.640  10.439  1.00  0.00     0.032 C 
HETATM   13  C20 UNL     1       1.951   5.990  11.926  1.00  0.00     0.013 C 
HETATM   14  C21 UNL     1       2.192   7.506  12.249  1.00  0.00    -0.026 C 
HETATM   15  C22 UNL     1       3.692   7.676  12.598  1.00  0.00     0.016 C 
HETATM   16  C23 UNL     1       1.314   7.917  13.492  1.00  0.00     0.026 C 
HETATM   17  C24 UNL     1       1.826   9.119  14.328  1.00  0.00     0.011 C 
HETATM   18  C25 UNL     1       0.919   9.448  15.539  1.00  0.00     0.014 C 
HETATM   19  C26 UNL     1      -0.563   9.637  15.138  1.00  0.00    -0.002 C 
HETATM   20  C27 UNL     1      -0.672  10.923  14.281  1.00  0.00     0.019 C 
ENDROOT
BRANCH   1  21
HETATM   21  C8  UNL     1      -1.771  10.815  17.336  1.00  0.00     0.094 C 
HETATM   22  C28 UNL     1      -2.617  12.000  16.769  1.00  0.00     0.045 C 
HETATM   23  C29 UNL     1      -3.626  12.708  17.696  1.00  0.00    -0.014 C 
HETATM   24  C30 UNL     1      -3.376  14.211  17.816  1.00  0.00     0.010 C 
HETATM   25  C31 UNL     1      -3.763  12.042  19.057  1.00  0.00     0.030 C 
HETATM   26  C32 UNL     1      -3.666  10.546  18.872  1.00  0.00     0.169 C 
HETATM   27  O6  UNL     1      -2.344  10.192  18.508  1.00  0.00    -0.377 OA
BRANCH  21  28
HETATM   28  C7  UNL     1      -0.377  11.231  17.802  1.00  0.00     0.189 A 
HETATM   29  C6  UNL     1       0.213  10.853  19.151  1.00  0.00     0.188 A 
HETATM   30  O2  UNL     1      -0.300  12.170  18.880  1.00  0.00    -0.369 OA
BRANCH  29  31
HETATM   31  C4  UNL     1       1.702  10.788  19.443  1.00  0.00     0.086 C 
HETATM   32  C5  UNL     1       2.361  12.035  18.826  1.00  0.00     0.049 C 
BRANCH  31  33
HETATM   33  C2  UNL     1       1.957  10.727  20.984  1.00  0.00     0.014 C 
HETATM   34  C1  UNL     1       2.435  12.064  21.567  1.00  0.00     0.012 C 
HETATM   35  C3  UNL     1       2.971   9.644  21.384  1.00  0.00     0.012 C 
ENDBRANCH  31  33
BRANCH  31  36
HETATM   36  O1  UNL     1       2.311   9.663  18.801  1.00  0.00    -0.387 OA
HETATM   37  H11 UNL     1       1.929   8.855  19.176  1.00  0.00     0.210 HD
ENDBRANCH  31  36
ENDBRANCH  29  31
ENDBRANCH  21  28
ENDBRANCH   1  21
BRANCH   4  38
HETATM   38  O3  UNL     1      -0.840   7.181  15.159  1.00  0.00    -0.384 OA
HETATM   39  H19 UNL     1      -1.177   6.428  14.645  1.00  0.00     0.211 HD
ENDBRANCH   4  38
BRANCH  11  40
HETATM   40  O5  UNL     1       4.041   6.027   9.666  1.00  0.00    -0.396 OA
HETATM   41  H25 UNL     1       4.088   5.107   9.355  1.00  0.00     0.210 HD
ENDBRANCH  11  40
TORSDOF 7
ENDMDL
MODEL 3
REMARK minimizedAffinity -9.64631367
REMARK CNNscore 0.396596819
REMARK CNNaffinity 7.02252769
REMARK  7 active torsions:
REMARK  status: ('A' for Active; 'I' for Inactive)
REMARK    1  A    between atoms: C2_2  and  C4_4 
REMARK    2  A    between atoms: C4_4  and  O1_6 
REMARK    3  A    between atoms: C4_4  and  C6_7 
REMARK    4  A    between atoms: C7_9  and  C8_10 
REMARK    5  A    between atoms: C8_10  and  C9_11 
REMARK    6  A    between atoms: C12_14  and  O3_15 
REMARK    7  A    between atoms: C18_22  and  O5_23 
ROOT
HETATM    1  C9  UNL     1      -3.332   6.096  14.263  1.00  0.00     0.034 C 
HETATM    2  C10 UNL     1      -2.843   5.246  13.047  1.00  0.00     0.012 C 
HETATM    3  C11 UNL     1      -1.375   5.637  12.784  1.00  0.00     0.044 C 
HETATM    4  C12 UNL     1      -0.960   6.386  14.051  1.00  0.00     0.089 C 
HETATM    5  C13 UNL     1       0.254   7.279  14.106  1.00  0.00    -0.037 C 
HETATM    6  C14 UNL     1       0.979   7.608  13.027  1.00  0.00     0.057 C 
HETATM    7  C15 UNL     1       2.013   8.664  13.091  1.00  0.00     0.154 C 
HETATM    8  O4  UNL     1       2.699   8.863  12.090  1.00  0.00    -0.293 OA
HETATM    9  C16 UNL     1       2.126   9.495  14.369  1.00  0.00     0.071 C 
HETATM   10  C17 UNL     1       3.481  10.223  14.426  1.00  0.00     0.045 C 
HETATM   11  C18 UNL     1       4.654   9.332  14.855  1.00  0.00     0.119 C 
HETATM   12  C19 UNL     1       4.304   7.854  14.977  1.00  0.00     0.032 C 
HETATM   13  C20 UNL     1       3.032   7.578  15.790  1.00  0.00     0.013 C 
HETATM   14  C21 UNL     1       1.875   8.624  15.623  1.00  0.00    -0.026 C 
HETATM   15  C22 UNL     1       1.862   9.511  16.894  1.00  0.00     0.016 C 
HETATM   16  C23 UNL     1       0.501   7.862  15.501  1.00  0.00     0.026 C 
HETATM   17  C24 UNL     1      -0.763   8.651  15.932  1.00  0.00     0.011 C 
HETATM   18  C25 UNL     1      -2.069   7.828  15.798  1.00  0.00     0.014 C 
HETATM   19  C26 UNL     1      -2.245   7.217  14.388  1.00  0.00    -0.002 C 
HETATM   20  C27 UNL     1      -2.476   8.375  13.385  1.00  0.00     0.019 C 
ENDROOT
BRANCH   1  21
HETATM   21  C8  UNL     1      -4.886   6.386  14.275  1.00  0.00     0.094 C 
HETATM   22  C28 UNL     1      -5.521   6.331  15.702  1.00  0.00     0.045 C 
HETATM   23  C29 UNL     1      -6.590   7.375  16.084  1.00  0.00    -0.014 C 
HETATM   24  C30 UNL     1      -7.909   6.745  16.526  1.00  0.00     0.010 C 
HETATM   25  C31 UNL     1      -6.794   8.444  15.021  1.00  0.00     0.030 C 
HETATM   26  C32 UNL     1      -5.455   8.769  14.402  1.00  0.00     0.169 C 
HETATM   27  O6  UNL     1      -5.005   7.673  13.628  1.00  0.00    -0.377 OA
BRANCH  21  28
HETATM   28  C7  UNL     1      -5.540   5.427  13.282  1.00  0.00     0.189 A 
HETATM   29  C6  UNL     1      -6.690   4.498  13.634  1.00  0.00     0.188 A 
HETATM   30  O2  UNL     1      -5.338   4.026  13.494  1.00  0.00    -0.369 OA
BRANCH  29  31
HETATM   31  C4  UNL     1      -7.676   3.939  12.624  1.00  0.00     0.086 C 
HETATM   32  C5  UNL     1      -8.099   5.087  11.689  1.00  0.00     0.049 C 
BRANCH  31  33
HETATM   33  C2  UNL     1      -7.029   2.770  11.813  1.00  0.00     0.014 C 
HETATM   34  C1  UNL     1      -6.827   1.499  12.649  1.00  0.00     0.012 C 
HETATM   35  C3  UNL     1      -5.677   3.148  11.187  1.00  0.00     0.012 C 
ENDBRANCH  31  33
BRANCH  31  36
HETATM   36  O1  UNL     1      -8.875   3.488  13.260  1.00  0.00    -0.387 OA
HETATM   37  H11 UNL     1      -8.649   2.752  13.849  1.00  0.00     0.210 HD
ENDBRANCH  31  36
ENDBRANCH  29  31
ENDBRANCH  21  28
ENDBRANCH   1  21
BRANCH   4  38
HETATM   38  O3  UNL     1      -0.740   5.369  15.045  1.00  0.00    -0.384 OA
HETATM   39  H19 UNL     1       0.041   4.861  14.768  1.00  0.00     0.211 HD
ENDBRANCH   4  38
BRANCH  11  40
HETATM   40  O5  UNL     1       5.140   9.798  16.114  1.00  0.00    -0.396 OA
HETATM   41  H25 UNL     1       5.971   9.327  16.298  1.00  0.00     0.210 HD
ENDBRANCH  11  40
TORSDOF 7
ENDMDL
MODEL 4
REMARK minimizedAffinity -9.97815132
REMARK CNNscore 0.394322693
REMARK CNNaffinity 7.05585718
REMARK  7 active torsions:
REMARK  status: ('A' for Active; 'I' for Inactive)
REMARK    1  A    between atoms: C2_2  and  C4_4 
REMARK    2  A    between atoms: C4_4  and  O1_6 
REMARK    3  A    between atoms: C4_4  and  C6_7 
REMARK    4  A    between atoms: C7_9  and  C8_10 
REMARK    5  A    between atoms: C8_10  and  C9_11 
REMARK    6  A    between atoms: C12_14  and  O3_15 
REMARK    7  A    between atoms: C18_22  and  O5_23 
ROOT
HETATM    1  C9  UNL     1      -0.406   7.212  14.462  1.00  0.00     0.034 C 
HETATM    2  C10 UNL     1      -0.808   7.908  15.801  1.00  0.00     0.012 C 
HETATM    3  C11 UNL     1      -2.331   7.726  15.965  1.00  0.00     0.044 C 
HETATM    4  C12 UNL     1      -2.683   6.636  14.951  1.00  0.00     0.089 C 
HETATM    5  C13 UNL     1      -4.096   6.389  14.482  1.00  0.00    -0.037 C 
HETATM    6  C14 UNL     1      -5.128   7.188  14.793  1.00  0.00     0.057 C 
HETATM    7  C15 UNL     1      -6.439   7.039  14.125  1.00  0.00     0.154 C 
HETATM    8  O4  UNL     1      -7.367   7.746  14.511  1.00  0.00    -0.293 OA
HETATM    9  C16 UNL     1      -6.551   6.068  12.949  1.00  0.00     0.071 C 
HETATM   10  C17 UNL     1      -8.026   5.727  12.665  1.00  0.00     0.045 C 
HETATM   11  C18 UNL     1      -8.626   4.694  13.627  1.00  0.00     0.119 C 
HETATM   12  C19 UNL     1      -7.718   4.322  14.793  1.00  0.00     0.032 C 
HETATM   13  C20 UNL     1      -6.282   3.971  14.379  1.00  0.00     0.013 C 
HETATM   14  C21 UNL     1      -5.692   4.804  13.188  1.00  0.00    -0.026 C 
HETATM   15  C22 UNL     1      -5.715   3.899  11.930  1.00  0.00     0.016 C 
HETATM   16  C23 UNL     1      -4.204   5.202  13.520  1.00  0.00     0.026 C 
HETATM   17  C24 UNL     1      -3.276   5.469  12.307  1.00  0.00     0.011 C 
HETATM   18  C25 UNL     1      -1.828   5.837  12.717  1.00  0.00     0.014 C 
HETATM   19  C26 UNL     1      -1.776   7.006  13.729  1.00  0.00    -0.002 C 
HETATM   20  C27 UNL     1      -2.255   8.291  13.007  1.00  0.00     0.019 C 
ENDROOT
BRANCH   1  21
HETATM   21  C8  UNL     1       0.871   7.827  13.763  1.00  0.00     0.094 C 
HETATM   22  C28 UNL     1       1.171   9.299  14.192  1.00  0.00     0.045 C 
HETATM   23  C29 UNL     1       2.635   9.725  14.425  1.00  0.00    -0.014 C 
HETATM   24  C30 UNL     1       3.057  10.912  13.560  1.00  0.00     0.010 C 
HETATM   25  C31 UNL     1       3.620   8.569  14.329  1.00  0.00     0.030 C 
HETATM   26  C32 UNL     1       2.977   7.338  14.923  1.00  0.00     0.169 C 
HETATM   27  O6  UNL     1       1.927   6.894  14.083  1.00  0.00    -0.377 OA
BRANCH  21  28
HETATM   28  C7  UNL     1       0.694   7.658  12.254  1.00  0.00     0.189 A 
HETATM   29  C6  UNL     1       1.825   7.800  11.249  1.00  0.00     0.188 A 
HETATM   30  O2  UNL     1       0.838   8.829  11.444  1.00  0.00    -0.369 OA
BRANCH  29  31
HETATM   31  C4  UNL     1       1.827   7.161   9.871  1.00  0.00     0.086 C 
HETATM   32  C5  UNL     1       0.649   7.749   9.074  1.00  0.00     0.049 C 
BRANCH  31  33
HETATM   33  C2  UNL     1       3.184   7.431   9.142  1.00  0.00     0.014 C 
HETATM   34  C1  UNL     1       4.295   7.894  10.095  1.00  0.00     0.012 C 
HETATM   35  C3  UNL     1       3.064   8.465   8.012  1.00  0.00     0.012 C 
ENDBRANCH  31  33
BRANCH  31  36
HETATM   36  O1  UNL     1       1.586   5.753   9.949  1.00  0.00    -0.387 OA
HETATM   37  H11 UNL     1       2.319   5.345  10.435  1.00  0.00     0.210 HD
ENDBRANCH  31  36
ENDBRANCH  29  31
ENDBRANCH  21  28
ENDBRANCH   1  21
BRANCH   4  38
HETATM   38  O3  UNL     1      -2.250   5.401  15.548  1.00  0.00    -0.384 OA
HETATM   39  H19 UNL     1      -2.819   5.240  16.320  1.00  0.00     0.211 HD
ENDBRANCH   4  38
BRANCH  11  40
HETATM   40  O5  UNL     1      -8.935   3.512  12.887  1.00  0.00    -0.396 OA
HETATM   41  H25 UNL     1      -9.451   2.929  13.471  1.00  0.00     0.210 HD
ENDBRANCH  11  40
TORSDOF 7
ENDMDL
MODEL 5
REMARK minimizedAffinity -8.24210453
REMARK CNNscore 0.392652869
REMARK CNNaffinity 6.07259226
REMARK  7 active torsions:
REMARK  status: ('A' for Active; 'I' for Inactive)
REMARK    1  A    between atoms: C2_2  and  C4_4 
REMARK    2  A    between atoms: C4_4  and  O1_6 
REMARK    3  A    between atoms: C4_4  and  C6_7 
REMARK    4  A    between atoms: C7_9  and  C8_10 
REMARK    5  A    between atoms: C8_10  and  C9_11 
REMARK    6  A    between atoms: C12_14  and  O3_15 
REMARK    7  A    between atoms: C18_22  and  O5_23 
ROOT
HETATM    1  C9  UNL     1      -5.615 -10.034   4.348  1.00  0.00     0.034 C 
HETATM    2  C10 UNL     1      -7.147 -10.091   4.053  1.00  0.00     0.012 C 
HETATM    3  C11 UNL     1      -7.869 -10.122   5.415  1.00  0.00     0.044 C 
HETATM    4  C12 UNL     1      -6.789  -9.704   6.414  1.00  0.00     0.089 C 
HETATM    5  C13 UNL     1      -6.914  -9.952   7.897  1.00  0.00    -0.037 C 
HETATM    6  C14 UNL     1      -7.897 -10.682   8.444  1.00  0.00     0.057 C 
HETATM    7  C15 UNL     1      -7.849 -11.090   9.865  1.00  0.00     0.154 C 
HETATM    8  O4  UNL     1      -8.817 -11.689  10.327  1.00  0.00    -0.293 OA
HETATM    9  C16 UNL     1      -6.573 -10.808  10.660  1.00  0.00     0.071 C 
HETATM   10  C17 UNL     1      -6.845 -10.899  12.173  1.00  0.00     0.045 C 
HETATM   11  C18 UNL     1      -7.532  -9.661  12.761  1.00  0.00     0.119 C 
HETATM   12  C19 UNL     1      -7.982  -8.641  11.722  1.00  0.00     0.032 C 
HETATM   13  C20 UNL     1      -6.900  -8.277  10.696  1.00  0.00     0.013 C 
HETATM   14  C21 UNL     1      -5.955  -9.449  10.255  1.00  0.00    -0.026 C 
HETATM   15  C22 UNL     1      -4.596  -9.247  10.974  1.00  0.00     0.016 C 
HETATM   16  C23 UNL     1      -5.738  -9.382   8.696  1.00  0.00     0.026 C 
HETATM   17  C24 UNL     1      -4.428 -10.013   8.157  1.00  0.00     0.011 C 
HETATM   18  C25 UNL     1      -4.282  -9.892   6.619  1.00  0.00     0.014 C 
HETATM   19  C26 UNL     1      -5.517 -10.432   5.860  1.00  0.00    -0.002 C 
HETATM   20  C27 UNL     1      -5.579 -11.967   6.069  1.00  0.00     0.019 C 
ENDROOT
BRANCH   1  21
HETATM   21  C8  UNL     1      -4.707 -10.669   3.221  1.00  0.00     0.094 C 
HETATM   22  C28 UNL     1      -3.178 -10.444   3.448  1.00  0.00     0.045 C 
HETATM   23  C29 UNL     1      -2.199 -11.595   3.139  1.00  0.00    -0.014 C 
HETATM   24  C30 UNL     1      -1.123 -11.209   2.126  1.00  0.00     0.010 C 
HETATM   25  C31 UNL     1      -2.898 -12.894   2.764  1.00  0.00     0.030 C 
HETATM   26  C32 UNL     1      -4.147 -13.027   3.602  1.00  0.00     0.169 C 
HETATM   27  O6  UNL     1      -5.099 -12.060   3.201  1.00  0.00    -0.377 OA
BRANCH  21  28
HETATM   28  C7  UNL     1      -5.206 -10.141   1.877  1.00  0.00     0.189 A 
HETATM   29  C6  UNL     1      -5.582 -11.031   0.704  1.00  0.00     0.188 A 
HETATM   30  O2  UNL     1      -4.341 -10.303   0.748  1.00  0.00    -0.369 OA
BRANCH  29  31
HETATM   31  C4  UNL     1      -6.531 -10.621  -0.409  1.00  0.00     0.086 C 
HETATM   32  C5  UNL     1      -7.470  -9.534   0.146  1.00  0.00     0.049 C 
BRANCH  31  33
HETATM   33  C2  UNL     1      -5.733 -10.092  -1.645  1.00  0.00     0.014 C 
HETATM   34  C1  UNL     1      -6.592  -9.248  -2.597  1.00  0.00     0.012 C 
HETATM   35  C3  UNL     1      -5.078 -11.215  -2.463  1.00  0.00     0.012 C 
ENDBRANCH  31  33
BRANCH  31  36
HETATM   36  O1  UNL     1      -7.376 -11.707  -0.800  1.00  0.00    -0.387 OA
HETATM   37  H11 UNL     1      -6.818 -12.409  -1.169  1.00  0.00     0.210 HD
ENDBRANCH  31  36
ENDBRANCH  29  31
ENDBRANCH  21  28
ENDBRANCH   1  21
BRANCH   4  38
HETATM   38  O3  UNL     1      -6.660  -8.279   6.268  1.00  0.00    -0.384 OA
HETATM   39  H19 UNL     1      -7.487  -7.881   6.588  1.00  0.00     0.211 HD
ENDBRANCH   4  38
BRANCH  11  40
HETATM   40  O5  UNL     1      -6.629  -9.029  13.668  1.00  0.00    -0.396 OA
HETATM   41  H25 UNL     1      -7.127  -8.343  14.145  1.00  0.00     0.210 HD
ENDBRANCH  11  40
TORSDOF 7
ENDMDL
MODEL 6
REMARK minimizedAffinity -10.3292437
REMARK CNNscore 0.378820032
REMARK CNNaffinity 6.96030855
REMARK  7 active torsions:
REMARK  status: ('A' for Active; 'I' for Inactive)
REMARK    1  A    between atoms: C2_2  and  C4_4 
REMARK    2  A    between atoms: C4_4  and  O1_6 
REMARK    3  A    between atoms: C4_4  and  C6_7 
REMARK    4  A    between atoms: C7_9  and  C8_10 
REMARK    5  A    between atoms: C8_10  and  C9_11 
REMARK    6  A    between atoms: C12_14  and  O3_15 
REMARK    7  A    between atoms: C18_22  and  O5_23 
ROOT
HETATM    1  C9  UNL     1      -0.903   6.044  13.176  1.00  0.00     0.034 C 
HETATM    2  C10 UNL     1      -0.275   6.772  14.406  1.00  0.00     0.012 C 
HETATM    3  C11 UNL     1      -1.442   7.348  15.235  1.00  0.00     0.044 C 
HETATM    4  C12 UNL     1      -2.675   6.627  14.685  1.00  0.00     0.089 C 
HETATM    5  C13 UNL     1      -4.078   7.129  14.917  1.00  0.00    -0.037 C 
HETATM    6  C14 UNL     1      -4.357   8.310  15.487  1.00  0.00     0.057 C 
HETATM    7  C15 UNL     1      -5.730   8.859  15.481  1.00  0.00     0.154 C 
HETATM    8  O4  UNL     1      -5.937   9.907  16.090  1.00  0.00    -0.293 OA
HETATM    9  C16 UNL     1      -6.801   8.134  14.664  1.00  0.00     0.071 C 
HETATM   10  C17 UNL     1      -8.209   8.573  15.104  1.00  0.00     0.045 C 
HETATM   11  C18 UNL     1      -8.695   7.912  16.400  1.00  0.00     0.119 C 
HETATM   12  C19 UNL     1      -7.637   7.080  17.114  1.00  0.00     0.032 C 
HETATM   13  C20 UNL     1      -6.894   6.096  16.199  1.00  0.00     0.013 C 
HETATM   14  C21 UNL     1      -6.613   6.600  14.740  1.00  0.00    -0.026 C 
HETATM   15  C22 UNL     1      -7.623   5.893  13.800  1.00  0.00     0.016 C 
HETATM   16  C23 UNL     1      -5.145   6.201  14.327  1.00  0.00     0.026 C 
HETATM   17  C24 UNL     1      -4.876   6.048  12.808  1.00  0.00     0.011 C 
HETATM   18  C25 UNL     1      -3.417   5.639  12.487  1.00  0.00     0.014 C 
HETATM   19  C26 UNL     1      -2.378   6.574  13.148  1.00  0.00    -0.002 C 
HETATM   20  C27 UNL     1      -2.488   7.968  12.479  1.00  0.00     0.019 C 
ENDROOT
BRANCH   1  21
HETATM   21  C8  UNL     1       0.027   5.995  11.899  1.00  0.00     0.094 C 
HETATM   22  C28 UNL     1       0.011   7.315  11.063  1.00  0.00     0.045 C 
HETATM   23  C29 UNL     1       1.334   7.836  10.465  1.00  0.00    -0.014 C 
HETATM   24  C30 UNL     1       1.276   8.012   8.949  1.00  0.00     0.010 C 
HETATM   25  C31 UNL     1       2.549   7.032  10.901  1.00  0.00     0.030 C 
HETATM   26  C32 UNL     1       2.360   6.616  12.341  1.00  0.00     0.169 C 
HETATM   27  O6  UNL     1       1.327   5.651  12.429  1.00  0.00    -0.377 OA
BRANCH  21  28
HETATM   28  C7  UNL     1      -0.365   4.758  11.092  1.00  0.00     0.189 A 
HETATM   29  C6  UNL     1      -0.903   3.479  11.711  1.00  0.00     0.188 A 
HETATM   30  O2  UNL     1       0.453   3.593  11.242  1.00  0.00    -0.369 OA
BRANCH  29  31
HETATM   31  C4  UNL     1      -1.760   2.467  10.970  1.00  0.00     0.086 C 
HETATM   32  C5  UNL     1      -0.974   1.145  10.898  1.00  0.00     0.049 C 
BRANCH  31  33
HETATM   33  C2  UNL     1      -3.127   2.265  11.701  1.00  0.00     0.014 C 
HETATM   34  C1  UNL     1      -3.504   0.786  11.870  1.00  0.00     0.012 C 
HETATM   35  C3  UNL     1      -4.295   2.976  11.000  1.00  0.00     0.012 C 
ENDBRANCH  31  33
BRANCH  31  36
HETATM   36  O1  UNL     1      -1.983   2.866   9.615  1.00  0.00    -0.387 OA
HETATM   37  H11 UNL     1      -2.490   3.693   9.620  1.00  0.00     0.210 HD
ENDBRANCH  31  36
ENDBRANCH  29  31
ENDBRANCH  21  28
ENDBRANCH   1  21
BRANCH   4  38
HETATM   38  O3  UNL     1      -2.634   5.307  15.254  1.00  0.00    -0.384 OA
HETATM   39  H19 UNL     1      -2.785   5.401  16.210  1.00  0.00     0.211 HD
ENDBRANCH   4  38
BRANCH  11  40
HETATM   40  O5  UNL     1      -9.811   7.076  16.093  1.00  0.00    -0.396 OA
HETATM   41  H25 UNL     1     -10.201   6.788  16.935  1.00  0.00     0.210 HD
ENDBRANCH  11  40
TORSDOF 7
ENDMDL
MODEL 7
REMARK minimizedAffinity -9.4883852
REMARK CNNscore 0.332657933
REMARK CNNaffinity 7.01713753
REMARK  7 active torsions:
REMARK  status: ('A' for Active; 'I' for Inactive)
REMARK    1  A    between atoms: C2_2  and  C4_4 
REMARK    2  A    between atoms: C4_4  and  O1_6 
REMARK    3  A    between atoms: C4_4  and  C6_7 
REMARK    4  A    between atoms: C7_9  and  C8_10 
REMARK    5  A    between atoms: C8_10  and  C9_11 
REMARK    6  A    between atoms: C12_14  and  O3_15 
REMARK    7  A    between atoms: C18_22  and  O5_23 
ROOT
HETATM    1  C9  UNL     1      -1.485   5.891  13.467  1.00  0.00     0.034 C 
HETATM    2  C10 UNL     1      -1.141   4.441  12.999  1.00  0.00     0.012 C 
HETATM    3  C11 UNL     1       0.269   4.490  12.375  1.00  0.00     0.044 C 
HETATM    4  C12 UNL     1       0.830   5.836  12.837  1.00  0.00     0.089 C 
HETATM    5  C13 UNL     1       2.017   6.491  12.176  1.00  0.00    -0.037 C 
HETATM    6  C14 UNL     1       2.582   6.032  11.050  1.00  0.00     0.057 C 
HETATM    7  C15 UNL     1       3.588   6.831  10.316  1.00  0.00     0.154 C 
HETATM    8  O4  UNL     1       4.128   6.322   9.337  1.00  0.00    -0.293 OA
HETATM    9  C16 UNL     1       3.849   8.267  10.771  1.00  0.00     0.071 C 
HETATM   10  C17 UNL     1       5.181   8.785  10.198  1.00  0.00     0.045 C 
HETATM   11  C18 UNL     1       6.422   8.281  10.943  1.00  0.00     0.119 C 
HETATM   12  C19 UNL     1       6.131   7.224  12.002  1.00  0.00     0.032 C 
HETATM   13  C20 UNL     1       4.986   7.594  12.955  1.00  0.00     0.013 C 
HETATM   14  C21 UNL     1       3.791   8.381  12.313  1.00  0.00    -0.026 C 
HETATM   15  C22 UNL     1       3.924   9.864  12.743  1.00  0.00     0.016 C 
HETATM   16  C23 UNL     1       2.432   7.797  12.859  1.00  0.00     0.026 C 
HETATM   17  C24 UNL     1       1.218   8.761  12.853  1.00  0.00     0.011 C 
HETATM   18  C25 UNL     1      -0.072   8.118  13.420  1.00  0.00     0.014 C 
HETATM   19  C26 UNL     1      -0.419   6.776  12.734  1.00  0.00    -0.002 C 
HETATM   20  C27 UNL     1      -0.813   7.073  11.264  1.00  0.00     0.019 C 
ENDROOT
BRANCH   1  21
HETATM   21  C8  UNL     1      -3.029   6.224  13.483  1.00  0.00     0.094 C 
HETATM   22  C28 UNL     1      -3.568   6.626  14.894  1.00  0.00     0.045 C 
HETATM   23  C29 UNL     1      -4.594   7.772  15.003  1.00  0.00    -0.014 C 
HETATM   24  C30 UNL     1      -5.890   7.350  15.693  1.00  0.00     0.010 C 
HETATM   25  C31 UNL     1      -4.853   8.475  13.679  1.00  0.00     0.030 C 
HETATM   26  C32 UNL     1      -3.554   8.552  12.912  1.00  0.00     0.169 C 
HETATM   27  O6  UNL     1      -3.173   7.258  12.483  1.00  0.00    -0.377 OA
BRANCH  21  28
HETATM   28  C7  UNL     1      -3.763   5.032  12.869  1.00  0.00     0.189 A 
HETATM   29  C6  UNL     1      -5.166   4.606  13.266  1.00  0.00     0.188 A 
HETATM   30  O2  UNL     1      -3.995   3.901  13.715  1.00  0.00    -0.369 OA
BRANCH  29  31
HETATM   31  C4  UNL     1      -6.100   3.806  12.374  1.00  0.00     0.086 C 
HETATM   32  C5  UNL     1      -7.153   4.772  11.803  1.00  0.00     0.049 C 
BRANCH  31  33
HETATM   33  C2  UNL     1      -5.300   3.110  11.226  1.00  0.00     0.014 C 
HETATM   34  C1  UNL     1      -4.818   1.700  11.598  1.00  0.00     0.012 C 
HETATM   35  C3  UNL     1      -4.081   3.922  10.763  1.00  0.00     0.012 C 
ENDBRANCH  31  33
BRANCH  31  36
HETATM   36  O1  UNL     1      -6.827   2.830  13.125  1.00  0.00    -0.387 OA
HETATM   37  H11 UNL     1      -6.195   2.193  13.491  1.00  0.00     0.210 HD
ENDBRANCH  31  36
ENDBRANCH  29  31
ENDBRANCH  21  28
ENDBRANCH   1  21
BRANCH   4  38
HETATM   38  O3  UNL     1       1.207   5.644  14.212  1.00  0.00    -0.384 OA
HETATM   39  H19 UNL     1       1.957   5.026  14.221  1.00  0.00     0.211 HD
ENDBRANCH   4  38
BRANCH  11  40
HETATM   40  O5  UNL     1       7.061   9.396  11.567  1.00  0.00    -0.396 OA
HETATM   41  H25 UNL     1       7.921   9.090  11.902  1.00  0.00     0.210 HD
ENDBRANCH  11  40
TORSDOF 7
ENDMDL
MODEL 8
REMARK minimizedAffinity -8.59938526
REMARK CNNscore 0.311541677
REMARK CNNaffinity 6.610497
REMARK  7 active torsions:
REMARK  status: ('A' for Active; 'I' for Inactive)
REMARK    1  A    between atoms: C2_2  and  C4_4 
REMARK    2  A    between atoms: C4_4  and  O1_6 
REMARK    3  A    between atoms: C4_4  and  C6_7 
REMARK    4  A    between atoms: C7_9  and  C8_10 
REMARK    5  A    between atoms: C8_10  and  C9_11 
REMARK    6  A    between atoms: C12_14  and  O3_15 
REMARK    7  A    between atoms: C18_22  and  O5_23 
ROOT
HETATM    1  C9  UNL     1       1.343   9.344  13.507  1.00  0.00     0.034 C 
HETATM    2  C10 UNL     1       1.336  10.521  14.533  1.00  0.00     0.012 C 
HETATM    3  C11 UNL     1       2.780  10.682  15.048  1.00  0.00     0.044 C 
HETATM    4  C12 UNL     1       3.618   9.878  14.051  1.00  0.00     0.089 C 
HETATM    5  C13 UNL     1       5.027   9.430  14.350  1.00  0.00    -0.037 C 
HETATM    6  C14 UNL     1       5.606   9.564  15.553  1.00  0.00     0.057 C 
HETATM    7  C15 UNL     1       6.894   8.905  15.861  1.00  0.00     0.154 C 
HETATM    8  O4  UNL     1       7.413   9.133  16.952  1.00  0.00    -0.293 OA
HETATM    9  C16 UNL     1       7.473   7.926  14.839  1.00  0.00     0.071 C 
HETATM   10  C17 UNL     1       8.968   7.677  15.113  1.00  0.00     0.045 C 
HETATM   11  C18 UNL     1       9.891   8.798  14.621  1.00  0.00     0.119 C 
HETATM   12  C19 UNL     1       9.159  10.033  14.111  1.00  0.00     0.032 C 
HETATM   13  C20 UNL     1       8.032   9.725  13.115  1.00  0.00     0.013 C 
HETATM   14  C21 UNL     1       7.215   8.414  13.394  1.00  0.00    -0.026 C 
HETATM   15  C22 UNL     1       7.691   7.344  12.378  1.00  0.00     0.016 C 
HETATM   16  C23 UNL     1       5.682   8.702  13.173  1.00  0.00     0.026 C 
HETATM   17  C24 UNL     1       4.800   7.481  12.801  1.00  0.00     0.011 C 
HETATM   18  C25 UNL     1       3.311   7.850  12.584  1.00  0.00     0.014 C 
HETATM   19  C26 UNL     1       2.712   8.630  13.778  1.00  0.00    -0.002 C 
HETATM   20  C27 UNL     1       2.645   7.673  14.995  1.00  0.00     0.019 C 
ENDROOT
BRANCH   1  21
HETATM   21  C8  UNL     1      -0.031   8.572  13.387  1.00  0.00     0.094 C 
HETATM   22  C28 UNL     1      -0.271   7.539  14.534  1.00  0.00     0.045 C 
HETATM   23  C29 UNL     1      -1.683   7.409  15.138  1.00  0.00    -0.014 C 
HETATM   24  C30 UNL     1      -2.242   5.990  15.053  1.00  0.00     0.010 C 
HETATM   25  C31 UNL     1      -2.664   8.443  14.605  1.00  0.00     0.030 C 
HETATM   26  C32 UNL     1      -1.927   9.747  14.408  1.00  0.00     0.169 C 
HETATM   27  O6  UNL     1      -1.018   9.626  13.330  1.00  0.00    -0.377 OA
BRANCH  21  28
HETATM   28  C7  UNL     1      -0.090   7.955  11.990  1.00  0.00     0.189 A 
HETATM   29  C6  UNL     1       0.646   8.517  10.785  1.00  0.00     0.188 A 
HETATM   30  O2  UNL     1      -0.769   8.700  10.974  1.00  0.00    -0.369 OA
BRANCH  29  31
HETATM   31  C4  UNL     1       1.033   7.700   9.565  1.00  0.00     0.086 C 
HETATM   32  C5  UNL     1       0.171   8.177   8.382  1.00  0.00     0.049 C 
BRANCH  31  33
HETATM   33  C2  UNL     1       2.555   7.870   9.250  1.00  0.00     0.014 C 
HETATM   34  C1  UNL     1       2.816   8.546   7.896  1.00  0.00     0.012 C 
HETATM   35  C3  UNL     1       3.327   6.542   9.275  1.00  0.00     0.012 C 
ENDBRANCH  31  33
BRANCH  31  36
HETATM   36  O1  UNL     1       0.723   6.315   9.744  1.00  0.00    -0.387 OA
HETATM   37  H11 UNL     1       1.260   5.975  10.476  1.00  0.00     0.210 HD
ENDBRANCH  31  36
ENDBRANCH  29  31
ENDBRANCH  21  28
ENDBRANCH   1  21
BRANCH   4  38
HETATM   38  O3  UNL     1       3.713  10.702  12.876  1.00  0.00    -0.384 OA
HETATM   39  H19 UNL     1       4.250  11.477  13.111  1.00  0.00     0.211 HD
ENDBRANCH   4  38
BRANCH  11  40
HETATM   40  O5  UNL     1      10.713   8.282  13.574  1.00  0.00    -0.396 OA
HETATM   41  H25 UNL     1      11.392   8.951  13.379  1.00  0.00     0.210 HD
ENDBRANCH  11  40
TORSDOF 7
ENDMDL
MODEL 9
REMARK minimizedAffinity -9.33482838
REMARK CNNscore 0.298473209
REMARK CNNaffinity 6.78348589
REMARK  7 active torsions:
REMARK  status: ('A' for Active; 'I' for Inactive)
REMARK    1  A    between atoms: C2_2  and  C4_4 
REMARK    2  A    between atoms: C4_4  and  O1_6 
REMARK    3  A    between atoms: C4_4  and  C6_7 
REMARK    4  A    between atoms: C7_9  and  C8_10 
REMARK    5  A    between atoms: C8_10  and  C9_11 
REMARK    6  A    between atoms: C12_14  and  O3_15 
REMARK    7  A    between atoms: C18_22  and  O5_23 
ROOT
HETATM    1  C9  UNL     1      -0.874   6.100  13.761  1.00  0.00     0.034 C 
HETATM    2  C10 UNL     1      -0.151   5.009  12.910  1.00  0.00     0.012 C 
HETATM    3  C11 UNL     1       1.239   5.568  12.545  1.00  0.00     0.044 C 
HETATM    4  C12 UNL     1       1.417   6.759  13.489  1.00  0.00     0.089 C 
HETATM    5  C13 UNL     1       2.444   7.838  13.251  1.00  0.00    -0.037 C 
HETATM    6  C14 UNL     1       3.177   7.926  12.132  1.00  0.00     0.057 C 
HETATM    7  C15 UNL     1       3.997   9.124  11.845  1.00  0.00     0.154 C 
HETATM    8  O4  UNL     1       4.709   9.111  10.844  1.00  0.00    -0.293 OA
HETATM    9  C16 UNL     1       3.863  10.335  12.769  1.00  0.00     0.071 C 
HETATM   10  C17 UNL     1       5.058  11.289  12.590  1.00  0.00     0.045 C 
HETATM   11  C18 UNL     1       6.336  10.835  13.307  1.00  0.00     0.119 C 
HETATM   12  C19 UNL     1       6.249   9.441  13.918  1.00  0.00     0.032 C 
HETATM   13  C20 UNL     1       4.989   9.207  14.764  1.00  0.00     0.013 C 
HETATM   14  C21 UNL     1       3.679   9.895  14.241  1.00  0.00    -0.026 C 
HETATM   15  C22 UNL     1       3.412  11.131  15.137  1.00  0.00     0.016 C 
HETATM   16  C23 UNL     1       2.477   8.884  14.369  1.00  0.00     0.026 C 
HETATM   17  C24 UNL     1       1.063   9.510  14.495  1.00  0.00     0.011 C 
HETATM   18  C25 UNL     1      -0.060   8.452  14.634  1.00  0.00     0.014 C 
HETATM   19  C26 UNL     1      -0.017   7.388  13.512  1.00  0.00    -0.002 C 
HETATM   20  C27 UNL     1      -0.377   8.083  12.174  1.00  0.00     0.019 C 
ENDROOT
BRANCH   1  21
HETATM   21  C8  UNL     1      -2.451   6.071  13.659  1.00  0.00     0.094 C 
HETATM   22  C28 UNL     1      -3.171   6.411  15.004  1.00  0.00     0.045 C 
HETATM   23  C29 UNL     1      -4.433   7.296  14.972  1.00  0.00    -0.014 C 
HETATM   24  C30 UNL     1      -5.650   6.626  15.607  1.00  0.00     0.010 C 
HETATM   25  C31 UNL     1      -4.743   7.852  13.590  1.00  0.00     0.030 C 
HETATM   26  C32 UNL     1      -3.441   8.185  12.902  1.00  0.00     0.169 C 
HETATM   27  O6  UNL     1      -2.747   6.992  12.586  1.00  0.00    -0.377 OA
BRANCH  21  28
HETATM   28  C7  UNL     1      -2.849   4.713  13.083  1.00  0.00     0.189 A 
HETATM   29  C6  UNL     1      -3.876   4.532  11.978  1.00  0.00     0.188 A 
HETATM   30  O2  UNL     1      -4.176   4.250  13.357  1.00  0.00    -0.369 OA
BRANCH  29  31
HETATM   31  C4  UNL     1      -3.926   3.331  11.049  1.00  0.00     0.086 C 
HETATM   32  C5  UNL     1      -3.336   2.125  11.801  1.00  0.00     0.049 C 
BRANCH  31  33
HETATM   33  C2  UNL     1      -5.396   3.044  10.600  1.00  0.00     0.014 C 
HETATM   34  C1  UNL     1      -5.900   1.664  11.044  1.00  0.00     0.012 C 
HETATM   35  C3  UNL     1      -5.595   3.158   9.081  1.00  0.00     0.012 C 
ENDBRANCH  31  33
BRANCH  31  36
HETATM   36  O1  UNL     1      -3.094   3.524   9.901  1.00  0.00    -0.387 OA
HETATM   37  H11 UNL     1      -3.444   4.271   9.393  1.00  0.00     0.210 HD
ENDBRANCH  31  36
ENDBRANCH  29  31
ENDBRANCH  21  28
ENDBRANCH   1  21
BRANCH   4  38
HETATM   38  O3  UNL     1       1.740   6.189  14.770  1.00  0.00    -0.384 OA
HETATM   39  H19 UNL     1       2.618   5.780  14.689  1.00  0.00     0.211 HD
ENDBRANCH   4  38
BRANCH  11  40
HETATM   40  O5  UNL     1       6.635  11.774  14.340  1.00  0.00    -0.396 OA
HETATM   41  H25 UNL     1       7.521  11.561  14.681  1.00  0.00     0.210 HD
ENDBRANCH  11  40
TORSDOF 7
ENDMDL
