MODEL 1
REMARK minimizedAffinity -9.88994884
REMARK  7 active torsions:
REMARK  status: ('A' for Active; 'I' for Inactive)
REMARK    1  A    between atoms: C4_4  and  C5_5 
REMARK    2  A    between atoms: C5_5  and  C6_6 
REMARK    3  A    between atoms: C6_6  and  C7_7 
REMARK    4  A    between atoms: C7_7  and  C9_9 
REMARK    5  A    between atoms: C27_27  and  O1_28 
REMARK    6  A    between atoms: C28_29  and  O2_30 
REMARK    7  A    between atoms: C29_31  and  O3_32 
ROOT
HETATM    1  C9  UNL     1      -0.446  52.632 -21.349  1.00  0.00    -0.002 C 
HETATM    2  C10 UNL     1      -0.098  52.516 -22.864  1.00  0.00     0.007 C 
HETATM    3  C11 UNL     1      -1.009  51.438 -23.472  1.00  0.00     0.015 C 
HETATM    4  C12 UNL     1      -2.125  51.239 -22.435  1.00  0.00    -0.013 C 
HETATM    5  C13 UNL     1      -3.165  52.381 -22.663  1.00  0.00     0.021 C 
HETATM    6  C14 UNL     1      -2.944  49.951 -22.463  1.00  0.00    -0.068 C 
HETATM    7  C15 UNL     1      -3.521  49.487 -21.324  1.00  0.00    -0.065 C 
HETATM    8  C16 UNL     1      -3.257  50.172 -19.974  1.00  0.00     0.036 C 
HETATM    9  C17 UNL     1      -2.309  51.392 -19.953  1.00  0.00     0.015 C 
HETATM   10  C18 UNL     1      -1.293  51.343 -21.100  1.00  0.00    -0.029 C 
HETATM   11  C19 UNL     1      -0.336  50.131 -20.877  1.00  0.00     0.016 C 
HETATM   12  C20 UNL     1      -4.446  48.236 -21.300  1.00  0.00     0.012 C 
HETATM   13  C21 UNL     1      -3.656  47.097 -20.601  1.00  0.00     0.023 C 
HETATM   14  C22 UNL     1      -4.824  47.725 -22.760  1.00  0.00     0.007 C 
HETATM   15  C23 UNL     1      -3.627  47.866 -23.707  1.00  0.00     0.010 C 
HETATM   16  C24 UNL     1      -3.121  49.294 -23.806  1.00  0.00     0.036 C 
HETATM   17  C25 UNL     1      -6.186  48.284 -23.306  1.00  0.00     0.018 C 
HETATM   18  C26 UNL     1      -6.331  48.249 -24.831  1.00  0.00     0.013 C 
HETATM   19  C27 UNL     1      -6.522  49.659 -22.713  1.00  0.00     0.153 C 
HETATM   20  C28 UNL     1      -6.673  49.588 -21.180  1.00  0.00     0.177 C 
HETATM   21  C29 UNL     1      -5.805  48.467 -20.553  1.00  0.00     0.162 C 
ENDROOT
BRANCH   1  22
HETATM   22  C7  UNL     1       0.824  52.926 -20.488  1.00  0.00    -0.014 C 
HETATM   23  C8  UNL     1       1.711  53.964 -21.199  1.00  0.00     0.010 C 
BRANCH  22  24
HETATM   24  C6  UNL     1       0.471  53.409 -19.062  1.00  0.00     0.008 C 
BRANCH  24  25
HETATM   25  C5  UNL     1       0.803  52.408 -17.947  1.00  0.00     0.028 C 
BRANCH  25  26
HETATM   26  C4  UNL     1       2.209  52.610 -17.446  1.00  0.00    -0.025 C 
HETATM   27  C2  UNL     1       2.726  52.244 -16.255  1.00  0.00    -0.091 C 
HETATM   28  C1  UNL     1       1.983  51.513 -15.171  1.00  0.00     0.042 C 
HETATM   29  C3  UNL     1       4.163  52.545 -15.921  1.00  0.00     0.042 C 
ENDBRANCH  25  26
ENDBRANCH  24  25
ENDBRANCH  22  24
ENDBRANCH   1  22
BRANCH  21  30
HETATM   30  O3  UNL     1      -5.706  48.632 -19.137  1.00  0.00    -0.392 OA
HETATM   31  H48 UNL     1      -5.281  47.847 -18.759  1.00  0.00     0.210 HD
ENDBRANCH  21  30
BRANCH  20  32
HETATM   32  O2  UNL     1      -6.413  50.887 -20.636  1.00  0.00    -0.390 OA
HETATM   33  H46 UNL     1      -6.910  51.520 -21.183  1.00  0.00     0.210 HD
ENDBRANCH  20  32
BRANCH  19  34
HETATM   34  O1  UNL     1      -7.735  50.192 -23.261  1.00  0.00    -0.393 OA
HETATM   35  H44 UNL     1      -8.442  49.537 -23.128  1.00  0.00     0.210 HD
ENDBRANCH  19  34
TORSDOF 7
ENDMDL
MODEL 2
REMARK minimizedAffinity -9.46201897
REMARK  7 active torsions:
REMARK  status: ('A' for Active; 'I' for Inactive)
REMARK    1  A    between atoms: C4_4  and  C5_5 
REMARK    2  A    between atoms: C5_5  and  C6_6 
REMARK    3  A    between atoms: C6_6  and  C7_7 
REMARK    4  A    between atoms: C7_7  and  C9_9 
REMARK    5  A    between atoms: C27_27  and  O1_28 
REMARK    6  A    between atoms: C28_29  and  O2_30 
REMARK    7  A    between atoms: C29_31  and  O3_32 
ROOT
HETATM    1  C9  UNL     1      -0.639  52.353 -20.389  1.00  0.00    -0.002 C 
HETATM    2  C10 UNL     1       0.867  52.675 -20.630  1.00  0.00     0.007 C 
HETATM    3  C11 UNL     1       1.185  52.355 -22.099  1.00  0.00     0.015 C 
HETATM    4  C12 UNL     1      -0.187  52.251 -22.781  1.00  0.00    -0.013 C 
HETATM    5  C13 UNL     1      -0.649  53.708 -23.099  1.00  0.00     0.021 C 
HETATM    6  C14 UNL     1      -0.303  51.505 -24.108  1.00  0.00    -0.068 C 
HETATM    7  C15 UNL     1      -1.479  50.925 -24.464  1.00  0.00    -0.065 C 
HETATM    8  C16 UNL     1      -2.667  50.899 -23.490  1.00  0.00     0.036 C 
HETATM    9  C17 UNL     1      -2.478  51.539 -22.096  1.00  0.00     0.015 C 
HETATM   10  C18 UNL     1      -1.010  51.515 -21.655  1.00  0.00    -0.029 C 
HETATM   11  C19 UNL     1      -0.569  50.034 -21.441  1.00  0.00     0.016 C 
HETATM   12  C20 UNL     1      -1.693  50.233 -25.840  1.00  0.00     0.012 C 
HETATM   13  C21 UNL     1      -1.757  48.704 -25.579  1.00  0.00     0.023 C 
HETATM   14  C22 UNL     1      -0.489  50.491 -26.850  1.00  0.00     0.007 C 
HETATM   15  C23 UNL     1       0.851  50.482 -26.105  1.00  0.00     0.010 C 
HETATM   16  C24 UNL     1       0.913  51.517 -24.996  1.00  0.00     0.036 C 
HETATM   17  C25 UNL     1      -0.712  51.705 -27.822  1.00  0.00     0.018 C 
HETATM   18  C26 UNL     1       0.570  52.295 -28.420  1.00  0.00     0.013 C 
HETATM   19  C27 UNL     1      -1.622  52.775 -27.206  1.00  0.00     0.153 C 
HETATM   20  C28 UNL     1      -3.024  52.211 -26.898  1.00  0.00     0.177 C 
HETATM   21  C29 UNL     1      -2.994  50.694 -26.585  1.00  0.00     0.162 C 
ENDROOT
BRANCH   1  22
HETATM   22  C7  UNL     1      -0.883  51.777 -18.957  1.00  0.00    -0.014 C 
HETATM   23  C8  UNL     1      -1.860  50.589 -19.029  1.00  0.00     0.010 C 
BRANCH  22  24
HETATM   24  C6  UNL     1       0.430  51.350 -18.261  1.00  0.00     0.008 C 
BRANCH  24  25
HETATM   25  C5  UNL     1       1.058  52.426 -17.364  1.00  0.00     0.028 C 
BRANCH  25  26
HETATM   26  C4  UNL     1       1.593  51.820 -16.094  1.00  0.00    -0.025 C 
HETATM   27  C2  UNL     1       2.827  51.953 -15.567  1.00  0.00    -0.091 C 
HETATM   28  C1  UNL     1       3.938  52.783 -16.149  1.00  0.00     0.042 C 
HETATM   29  C3  UNL     1       3.189  51.255 -14.282  1.00  0.00     0.042 C 
ENDBRANCH  25  26
ENDBRANCH  24  25
ENDBRANCH  22  24
ENDBRANCH   1  22
BRANCH  21  30
HETATM   30  O3  UNL     1      -4.223  50.271 -25.990  1.00  0.00    -0.392 OA
HETATM   31  H48 UNL     1      -4.229  49.303 -25.938  1.00  0.00     0.210 HD
ENDBRANCH  21  30
BRANCH  20  32
HETATM   32  O2  UNL     1      -3.613  52.999 -25.856  1.00  0.00    -0.390 OA
HETATM   33  H46 UNL     1      -3.464  53.931 -26.097  1.00  0.00     0.210 HD
ENDBRANCH  20  32
BRANCH  19  34
HETATM   34  O1  UNL     1      -1.773  53.908 -28.072  1.00  0.00    -0.393 OA
HETATM   35  H44 UNL     1      -2.090  53.590 -28.936  1.00  0.00     0.210 HD
ENDBRANCH  19  34
TORSDOF 7
ENDMDL
MODEL 3
REMARK minimizedAffinity -9.34962082
REMARK  7 active torsions:
REMARK  status: ('A' for Active; 'I' for Inactive)
REMARK    1  A    between atoms: C4_4  and  C5_5 
REMARK    2  A    between atoms: C5_5  and  C6_6 
REMARK    3  A    between atoms: C6_6  and  C7_7 
REMARK    4  A    between atoms: C7_7  and  C9_9 
REMARK    5  A    between atoms: C27_27  and  O1_28 
REMARK    6  A    between atoms: C28_29  and  O2_30 
REMARK    7  A    between atoms: C29_31  and  O3_32 
ROOT
HETATM    1  C9  UNL     1      -0.898  49.710 -18.713  1.00  0.00    -0.002 C 
HETATM    2  C10 UNL     1      -1.792  48.466 -18.424  1.00  0.00     0.007 C 
HETATM    3  C11 UNL     1      -2.827  48.360 -19.555  1.00  0.00     0.015 C 
HETATM    4  C12 UNL     1      -2.280  49.264 -20.670  1.00  0.00    -0.013 C 
HETATM    5  C13 UNL     1      -1.208  48.434 -21.444  1.00  0.00     0.021 C 
HETATM    6  C14 UNL     1      -3.234  49.774 -21.747  1.00  0.00    -0.068 C 
HETATM    7  C15 UNL     1      -2.972  50.942 -22.391  1.00  0.00    -0.065 C 
HETATM    8  C16 UNL     1      -1.790  51.827 -21.963  1.00  0.00     0.036 C 
HETATM    9  C17 UNL     1      -0.922  51.354 -20.775  1.00  0.00     0.015 C 
HETATM   10  C18 UNL     1      -1.714  50.461 -19.813  1.00  0.00    -0.029 C 
HETATM   11  C19 UNL     1      -2.832  51.313 -19.135  1.00  0.00     0.016 C 
HETATM   12  C20 UNL     1      -3.848  51.471 -23.563  1.00  0.00     0.012 C 
HETATM   13  C21 UNL     1      -4.642  52.691 -23.025  1.00  0.00     0.023 C 
HETATM   14  C22 UNL     1      -4.911  50.398 -24.067  1.00  0.00     0.007 C 
HETATM   15  C23 UNL     1      -5.479  49.606 -22.883  1.00  0.00     0.010 C 
HETATM   16  C24 UNL     1      -4.405  48.891 -22.084  1.00  0.00     0.036 C 
HETATM   17  C25 UNL     1      -4.426  49.534 -25.285  1.00  0.00     0.018 C 
HETATM   18  C26 UNL     1      -5.159  48.199 -25.460  1.00  0.00     0.013 C 
HETATM   19  C27 UNL     1      -2.901  49.376 -25.308  1.00  0.00     0.153 C 
HETATM   20  C28 UNL     1      -2.196  50.741 -25.445  1.00  0.00     0.177 C 
HETATM   21  C29 UNL     1      -3.024  51.897 -24.828  1.00  0.00     0.162 C 
ENDROOT
BRANCH   1  22
HETATM   22  C7  UNL     1      -0.483  50.440 -17.395  1.00  0.00    -0.014 C 
HETATM   23  C8  UNL     1       0.260  49.462 -16.466  1.00  0.00     0.010 C 
BRANCH  22  24
HETATM   24  C6  UNL     1       0.385  51.691 -17.662  1.00  0.00     0.008 C 
BRANCH  24  25
HETATM   25  C5  UNL     1       1.009  52.316 -16.407  1.00  0.00     0.028 C 
BRANCH  25  26
HETATM   26  C4  UNL     1       2.489  52.523 -16.590  1.00  0.00    -0.025 C 
HETATM   27  C2  UNL     1       3.491  52.093 -15.796  1.00  0.00    -0.091 C 
HETATM   28  C1  UNL     1       3.322  51.272 -14.548  1.00  0.00     0.042 C 
HETATM   29  C3  UNL     1       4.925  52.410 -16.134  1.00  0.00     0.042 C 
ENDBRANCH  25  26
ENDBRANCH  24  25
ENDBRANCH  22  24
ENDBRANCH   1  22
BRANCH  21  30
HETATM   30  O3  UNL     1      -2.224  53.070 -24.671  1.00  0.00    -0.392 OA
HETATM   31  H48 UNL     1      -2.798  53.809 -24.419  1.00  0.00     0.210 HD
ENDBRANCH  21  30
BRANCH  20  32
HETATM   32  O2  UNL     1      -0.875  50.629 -24.902  1.00  0.00    -0.390 OA
HETATM   33  H46 UNL     1      -0.498  49.806 -25.261  1.00  0.00     0.210 HD
ENDBRANCH  20  32
BRANCH  19  34
HETATM   34  O1  UNL     1      -2.468  48.536 -26.387  1.00  0.00    -0.393 OA
HETATM   35  H44 UNL     1      -2.826  48.899 -27.216  1.00  0.00     0.210 HD
ENDBRANCH  19  34
TORSDOF 7
ENDMDL
MODEL 4
REMARK minimizedAffinity -8.80347633
REMARK  7 active torsions:
REMARK  status: ('A' for Active; 'I' for Inactive)
REMARK    1  A    between atoms: C4_4  and  C5_5 
REMARK    2  A    between atoms: C5_5  and  C6_6 
REMARK    3  A    between atoms: C6_6  and  C7_7 
REMARK    4  A    between atoms: C7_7  and  C9_9 
REMARK    5  A    between atoms: C27_27  and  O1_28 
REMARK    6  A    between atoms: C28_29  and  O2_30 
REMARK    7  A    between atoms: C29_31  and  O3_32 
ROOT
HETATM    1  C9  UNL     1       0.222  51.914 -23.358  1.00  0.00    -0.002 C 
HETATM    2  C10 UNL     1       0.607  52.755 -22.104  1.00  0.00     0.007 C 
HETATM    3  C11 UNL     1      -0.346  52.359 -20.965  1.00  0.00     0.015 C 
HETATM    4  C12 UNL     1      -0.981  51.039 -21.429  1.00  0.00    -0.013 C 
HETATM    5  C13 UNL     1       0.038  49.903 -21.099  1.00  0.00     0.021 C 
HETATM    6  C14 UNL     1      -2.294  50.584 -20.796  1.00  0.00    -0.068 C 
HETATM    7  C15 UNL     1      -3.145  49.786 -21.492  1.00  0.00    -0.065 C 
HETATM    8  C16 UNL     1      -2.866  49.434 -22.962  1.00  0.00     0.036 C 
HETATM    9  C17 UNL     1      -1.599  50.025 -23.622  1.00  0.00     0.015 C 
HETATM   10  C18 UNL     1      -1.178  51.343 -22.963  1.00  0.00    -0.029 C 
HETATM   11  C19 UNL     1      -2.272  52.420 -23.241  1.00  0.00     0.016 C 
HETATM   12  C20 UNL     1      -4.451  49.209 -20.875  1.00  0.00     0.012 C 
HETATM   13  C21 UNL     1      -5.639  49.961 -21.534  1.00  0.00     0.023 C 
HETATM   14  C22 UNL     1      -4.547  49.453 -19.304  1.00  0.00     0.007 C 
HETATM   15  C23 UNL     1      -3.982  50.831 -18.938  1.00  0.00     0.010 C 
HETATM   16  C24 UNL     1      -2.538  51.008 -19.372  1.00  0.00     0.036 C 
HETATM   17  C25 UNL     1      -4.025  48.256 -18.433  1.00  0.00     0.018 C 
HETATM   18  C26 UNL     1      -3.621  48.630 -17.002  1.00  0.00     0.013 C 
HETATM   19  C27 UNL     1      -2.942  47.447 -19.158  1.00  0.00     0.153 C 
HETATM   20  C28 UNL     1      -3.485  46.822 -20.460  1.00  0.00     0.177 C 
HETATM   21  C29 UNL     1      -4.624  47.665 -21.088  1.00  0.00     0.162 C 
ENDROOT
BRANCH   1  22
HETATM   22  C7  UNL     1       0.402  52.733 -24.677  1.00  0.00    -0.014 C 
HETATM   23  C8  UNL     1       0.749  54.196 -24.342  1.00  0.00     0.010 C 
BRANCH  22  24
HETATM   24  C6  UNL     1       1.478  52.125 -25.606  1.00  0.00     0.008 C 
BRANCH  24  25
HETATM   25  C5  UNL     1       0.957  51.053 -26.572  1.00  0.00     0.028 C 
BRANCH  25  26
HETATM   26  C4  UNL     1      -0.541  51.126 -26.700  1.00  0.00    -0.025 C 
HETATM   27  C2  UNL     1      -1.276  52.070 -27.321  1.00  0.00    -0.091 C 
HETATM   28  C1  UNL     1      -0.723  53.259 -28.057  1.00  0.00     0.042 C 
HETATM   29  C3  UNL     1      -2.780  51.983 -27.335  1.00  0.00     0.042 C 
ENDBRANCH  25  26
ENDBRANCH  24  25
ENDBRANCH  22  24
ENDBRANCH   1  22
BRANCH  21  30
HETATM   30  O3  UNL     1      -4.877  47.257 -22.434  1.00  0.00    -0.392 OA
HETATM   31  H48 UNL     1      -5.681  47.699 -22.749  1.00  0.00     0.210 HD
ENDBRANCH  21  30
BRANCH  20  32
HETATM   32  O2  UNL     1      -2.385  46.593 -21.348  1.00  0.00    -0.390 OA
HETATM   33  H46 UNL     1      -1.685  46.173 -20.818  1.00  0.00     0.210 HD
ENDBRANCH  20  32
BRANCH  19  34
HETATM   34  O1  UNL     1      -2.425  46.392 -18.335  1.00  0.00    -0.393 OA
HETATM   35  H44 UNL     1      -3.173  45.846 -18.036  1.00  0.00     0.210 HD
ENDBRANCH  19  34
TORSDOF 7
ENDMDL
MODEL 5
REMARK minimizedAffinity -8.7701931
REMARK  7 active torsions:
REMARK  status: ('A' for Active; 'I' for Inactive)
REMARK    1  A    between atoms: C4_4  and  C5_5 
REMARK    2  A    between atoms: C5_5  and  C6_6 
REMARK    3  A    between atoms: C6_6  and  C7_7 
REMARK    4  A    between atoms: C7_7  and  C9_9 
REMARK    5  A    between atoms: C27_27  and  O1_28 
REMARK    6  A    between atoms: C28_29  and  O2_30 
REMARK    7  A    between atoms: C29_31  and  O3_32 
ROOT
HETATM    1  C9  UNL     1      -2.342  51.134 -23.571  1.00  0.00    -0.002 C 
HETATM    2  C10 UNL     1      -3.293  52.334 -23.280  1.00  0.00     0.007 C 
HETATM    3  C11 UNL     1      -4.490  51.798 -22.479  1.00  0.00     0.015 C 
HETATM    4  C12 UNL     1      -4.035  50.422 -21.970  1.00  0.00    -0.013 C 
HETATM    5  C13 UNL     1      -3.171  50.672 -20.694  1.00  0.00     0.021 C 
HETATM    6  C14 UNL     1      -5.087  49.404 -21.538  1.00  0.00    -0.068 C 
HETATM    7  C15 UNL     1      -4.818  48.074 -21.608  1.00  0.00    -0.065 C 
HETATM    8  C16 UNL     1      -3.510  47.570 -22.238  1.00  0.00     0.036 C 
HETATM    9  C17 UNL     1      -2.522  48.619 -22.796  1.00  0.00     0.015 C 
HETATM   10  C18 UNL     1      -3.240  49.902 -23.229  1.00  0.00    -0.029 C 
HETATM   11  C19 UNL     1      -4.161  49.581 -24.447  1.00  0.00     0.016 C 
HETATM   12  C20 UNL     1      -5.806  46.988 -21.096  1.00  0.00     0.012 C 
HETATM   13  C21 UNL     1      -6.396  46.280 -22.345  1.00  0.00     0.023 C 
HETATM   14  C22 UNL     1      -7.027  47.605 -20.280  1.00  0.00     0.007 C 
HETATM   15  C23 UNL     1      -7.483  48.926 -20.911  1.00  0.00     0.010 C 
HETATM   16  C24 UNL     1      -6.372  49.958 -20.982  1.00  0.00     0.036 C 
HETATM   17  C25 UNL     1      -6.811  47.639 -18.725  1.00  0.00     0.018 C 
HETATM   18  C26 UNL     1      -7.681  48.655 -17.977  1.00  0.00     0.013 C 
HETATM   19  C27 UNL     1      -5.327  47.747 -18.353  1.00  0.00     0.153 C 
HETATM   20  C28 UNL     1      -4.528  46.532 -18.868  1.00  0.00     0.177 C 
HETATM   21  C29 UNL     1      -5.145  45.923 -20.153  1.00  0.00     0.162 C 
ENDROOT
BRANCH   1  22
HETATM   22  C7  UNL     1      -1.670  51.260 -24.976  1.00  0.00    -0.014 C 
HETATM   23  C8  UNL     1      -2.258  52.465 -25.733  1.00  0.00     0.010 C 
BRANCH  22  24
HETATM   24  C6  UNL     1      -0.131  51.383 -24.886  1.00  0.00     0.008 C 
BRANCH  24  25
HETATM   25  C5  UNL     1       0.367  52.557 -24.033  1.00  0.00     0.028 C 
BRANCH  25  26
HETATM   26  C4  UNL     1       0.271  52.235 -22.565  1.00  0.00    -0.025 C 
HETATM   27  C2  UNL     1       0.723  52.964 -21.525  1.00  0.00    -0.091 C 
HETATM   28  C1  UNL     1       1.408  54.298 -21.628  1.00  0.00     0.042 C 
HETATM   29  C3  UNL     1       0.547  52.470 -20.112  1.00  0.00     0.042 C 
ENDBRANCH  25  26
ENDBRANCH  24  25
ENDBRANCH  22  24
ENDBRANCH   1  22
BRANCH  21  30
HETATM   30  O3  UNL     1      -4.226  45.031 -20.786  1.00  0.00    -0.392 OA
HETATM   31  H48 UNL     1      -4.686  44.562 -21.499  1.00  0.00     0.210 HD
ENDBRANCH  21  30
BRANCH  20  32
HETATM   32  O2  UNL     1      -3.157  46.919 -19.019  1.00  0.00    -0.390 OA
HETATM   33  H46 UNL     1      -2.915  47.400 -18.207  1.00  0.00     0.210 HD
ENDBRANCH  20  32
BRANCH  19  34
HETATM   34  O1  UNL     1      -5.139  47.840 -16.934  1.00  0.00    -0.393 OA
HETATM   35  H44 UNL     1      -5.582  47.078 -16.519  1.00  0.00     0.210 HD
ENDBRANCH  19  34
TORSDOF 7
ENDMDL
MODEL 6
REMARK minimizedAffinity -8.75911236
REMARK  7 active torsions:
REMARK  status: ('A' for Active; 'I' for Inactive)
REMARK    1  A    between atoms: C4_4  and  C5_5 
REMARK    2  A    between atoms: C5_5  and  C6_6 
REMARK    3  A    between atoms: C6_6  and  C7_7 
REMARK    4  A    between atoms: C7_7  and  C9_9 
REMARK    5  A    between atoms: C27_27  and  O1_28 
REMARK    6  A    between atoms: C28_29  and  O2_30 
REMARK    7  A    between atoms: C29_31  and  O3_32 
ROOT
HETATM    1  C9  UNL     1      -1.860  51.982 -21.947  1.00  0.00    -0.002 C 
HETATM    2  C10 UNL     1      -2.833  52.316 -23.118  1.00  0.00     0.007 C 
HETATM    3  C11 UNL     1      -3.929  51.239 -23.137  1.00  0.00     0.015 C 
HETATM    4  C12 UNL     1      -3.823  50.550 -21.768  1.00  0.00    -0.013 C 
HETATM    5  C13 UNL     1      -4.590  51.448 -20.747  1.00  0.00     0.021 C 
HETATM    6  C14 UNL     1      -4.420  49.156 -21.590  1.00  0.00    -0.068 C 
HETATM    7  C15 UNL     1      -3.912  48.312 -20.654  1.00  0.00    -0.065 C 
HETATM    8  C16 UNL     1      -2.658  48.693 -19.851  1.00  0.00     0.036 C 
HETATM    9  C17 UNL     1      -1.990  50.054 -20.151  1.00  0.00     0.015 C 
HETATM   10  C18 UNL     1      -2.257  50.513 -21.589  1.00  0.00    -0.029 C 
HETATM   11  C19 UNL     1      -1.549  49.532 -22.574  1.00  0.00     0.016 C 
HETATM   12  C20 UNL     1      -4.531  46.917 -20.355  1.00  0.00     0.012 C 
HETATM   13  C21 UNL     1      -3.552  45.852 -20.916  1.00  0.00     0.023 C 
HETATM   14  C22 UNL     1      -5.933  46.700 -21.078  1.00  0.00     0.007 C 
HETATM   15  C23 UNL     1      -5.922  47.332 -22.475  1.00  0.00     0.010 C 
HETATM   16  C24 UNL     1      -5.612  48.818 -22.445  1.00  0.00     0.036 C 
HETATM   17  C25 UNL     1      -7.179  47.053 -20.189  1.00  0.00     0.018 C 
HETATM   18  C26 UNL     1      -8.462  47.355 -20.970  1.00  0.00     0.013 C 
HETATM   19  C27 UNL     1      -6.855  48.131 -19.147  1.00  0.00     0.153 C 
HETATM   20  C28 UNL     1      -5.755  47.661 -18.174  1.00  0.00     0.177 C 
HETATM   21  C29 UNL     1      -4.781  46.648 -18.830  1.00  0.00     0.162 C 
ENDROOT
BRANCH   1  22
HETATM   22  C7  UNL     1      -0.382  52.338 -22.307  1.00  0.00    -0.014 C 
HETATM   23  C8  UNL     1       0.575  51.709 -21.277  1.00  0.00     0.010 C 
BRANCH  22  24
HETATM   24  C6  UNL     1       0.001  51.892 -23.737  1.00  0.00     0.008 C 
BRANCH  24  25
HETATM   25  C5  UNL     1       0.611  52.997 -24.611  1.00  0.00     0.028 C 
BRANCH  25  26
HETATM   26  C4  UNL     1       0.408  52.700 -26.073  1.00  0.00    -0.025 C 
HETATM   27  C2  UNL     1       1.216  52.005 -26.898  1.00  0.00    -0.091 C 
HETATM   28  C1  UNL     1       2.508  51.346 -26.500  1.00  0.00     0.042 C 
HETATM   29  C3  UNL     1       0.852  51.820 -28.348  1.00  0.00     0.042 C 
ENDBRANCH  25  26
ENDBRANCH  24  25
ENDBRANCH  22  24
ENDBRANCH   1  22
BRANCH  21  30
HETATM   30  O3  UNL     1      -3.605  46.485 -18.035  1.00  0.00    -0.392 OA
HETATM   31  H48 UNL     1      -3.085  45.749 -18.393  1.00  0.00     0.210 HD
ENDBRANCH  21  30
BRANCH  20  32
HETATM   32  O2  UNL     1      -5.102  48.815 -17.633  1.00  0.00    -0.390 OA
HETATM   33  H46 UNL     1      -5.807  49.432 -17.368  1.00  0.00     0.210 HD
ENDBRANCH  20  32
BRANCH  19  34
HETATM   34  O1  UNL     1      -8.011  48.493 -18.379  1.00  0.00    -0.393 OA
HETATM   35  H44 UNL     1      -8.379  47.682 -17.986  1.00  0.00     0.210 HD
ENDBRANCH  19  34
TORSDOF 7
ENDMDL
MODEL 7
REMARK minimizedAffinity -8.73609829
REMARK  7 active torsions:
REMARK  status: ('A' for Active; 'I' for Inactive)
REMARK    1  A    between atoms: C4_4  and  C5_5 
REMARK    2  A    between atoms: C5_5  and  C6_6 
REMARK    3  A    between atoms: C6_6  and  C7_7 
REMARK    4  A    between atoms: C7_7  and  C9_9 
REMARK    5  A    between atoms: C27_27  and  O1_28 
REMARK    6  A    between atoms: C28_29  and  O2_30 
REMARK    7  A    between atoms: C29_31  and  O3_32 
ROOT
HETATM    1  C9  UNL     1      -1.293  51.169 -18.372  1.00  0.00    -0.002 C 
HETATM    2  C10 UNL     1      -0.015  50.484 -18.945  1.00  0.00     0.007 C 
HETATM    3  C11 UNL     1      -0.405  49.791 -20.261  1.00  0.00     0.015 C 
HETATM    4  C12 UNL     1      -1.760  50.410 -20.640  1.00  0.00    -0.013 C 
HETATM    5  C13 UNL     1      -1.458  51.774 -21.336  1.00  0.00     0.021 C 
HETATM    6  C14 UNL     1      -2.669  49.665 -21.614  1.00  0.00    -0.068 C 
HETATM    7  C15 UNL     1      -4.015  49.848 -21.565  1.00  0.00    -0.065 C 
HETATM    8  C16 UNL     1      -4.651  50.702 -20.457  1.00  0.00     0.036 C 
HETATM    9  C17 UNL     1      -3.717  51.331 -19.398  1.00  0.00     0.015 C 
HETATM   10  C18 UNL     1      -2.432  50.515 -19.218  1.00  0.00    -0.029 C 
HETATM   11  C19 UNL     1      -2.796  49.126 -18.607  1.00  0.00     0.016 C 
HETATM   12  C20 UNL     1      -4.990  49.197 -22.587  1.00  0.00     0.012 C 
HETATM   13  C21 UNL     1      -5.762  48.080 -21.834  1.00  0.00     0.023 C 
HETATM   14  C22 UNL     1      -4.231  48.510 -23.807  1.00  0.00     0.007 C 
HETATM   15  C23 UNL     1      -2.942  47.833 -23.326  1.00  0.00     0.010 C 
HETATM   16  C24 UNL     1      -1.991  48.798 -22.641  1.00  0.00     0.036 C 
HETATM   17  C25 UNL     1      -4.080  49.429 -25.071  1.00  0.00     0.018 C 
HETATM   18  C26 UNL     1      -2.952  49.026 -26.028  1.00  0.00     0.013 C 
HETATM   19  C27 UNL     1      -4.034  50.916 -24.700  1.00  0.00     0.153 C 
HETATM   20  C28 UNL     1      -5.336  51.361 -24.001  1.00  0.00     0.177 C 
HETATM   21  C29 UNL     1      -6.011  50.205 -23.220  1.00  0.00     0.162 C 
ENDROOT
BRANCH   1  22
HETATM   22  C7  UNL     1      -1.327  51.107 -16.811  1.00  0.00    -0.014 C 
HETATM   23  C8  UNL     1      -2.741  50.726 -16.333  1.00  0.00     0.010 C 
BRANCH  22  24
HETATM   24  C6  UNL     1      -0.283  50.123 -16.236  1.00  0.00     0.008 C 
BRANCH  24  25
HETATM   25  C5  UNL     1       0.623  50.716 -15.148  1.00  0.00     0.028 C 
BRANCH  25  26
HETATM   26  C4  UNL     1       1.637  51.655 -15.746  1.00  0.00    -0.025 C 
HETATM   27  C2  UNL     1       2.942  51.779 -15.428  1.00  0.00    -0.091 C 
HETATM   28  C1  UNL     1       3.669  50.956 -14.401  1.00  0.00     0.042 C 
HETATM   29  C3  UNL     1       3.807  52.792 -16.131  1.00  0.00     0.042 C 
ENDBRANCH  25  26
ENDBRANCH  24  25
ENDBRANCH  22  24
ENDBRANCH   1  22
BRANCH  21  30
HETATM   30  O3  UNL     1      -7.009  50.707 -22.329  1.00  0.00    -0.392 OA
HETATM   31  H48 UNL     1      -7.507  49.959 -21.964  1.00  0.00     0.210 HD
ENDBRANCH  21  30
BRANCH  20  32
HETATM   32  O2  UNL     1      -5.050  52.508 -23.193  1.00  0.00    -0.390 OA
HETATM   33  H46 UNL     1      -4.519  53.110 -23.745  1.00  0.00     0.210 HD
ENDBRANCH  20  32
BRANCH  19  34
HETATM   34  O1  UNL     1      -3.835  51.747 -25.851  1.00  0.00    -0.393 OA
HETATM   35  H44 UNL     1      -4.530  51.537 -26.500  1.00  0.00     0.210 HD
ENDBRANCH  19  34
TORSDOF 7
ENDMDL
MODEL 8
REMARK minimizedAffinity -8.72223949
REMARK  7 active torsions:
REMARK  status: ('A' for Active; 'I' for Inactive)
REMARK    1  A    between atoms: C4_4  and  C5_5 
REMARK    2  A    between atoms: C5_5  and  C6_6 
REMARK    3  A    between atoms: C6_6  and  C7_7 
REMARK    4  A    between atoms: C7_7  and  C9_9 
REMARK    5  A    between atoms: C27_27  and  O1_28 
REMARK    6  A    between atoms: C28_29  and  O2_30 
REMARK    7  A    between atoms: C29_31  and  O3_32 
ROOT
HETATM    1  C9  UNL     1      -2.164  50.882 -23.359  1.00  0.00    -0.002 C 
HETATM    2  C10 UNL     1      -3.047  52.133 -23.066  1.00  0.00     0.007 C 
HETATM    3  C11 UNL     1      -4.293  51.657 -22.302  1.00  0.00     0.015 C 
HETATM    4  C12 UNL     1      -3.934  50.247 -21.810  1.00  0.00    -0.013 C 
HETATM    5  C13 UNL     1      -3.087  50.421 -20.510  1.00  0.00     0.021 C 
HETATM    6  C14 UNL     1      -5.057  49.288 -21.421  1.00  0.00    -0.068 C 
HETATM    7  C15 UNL     1      -4.867  47.946 -21.511  1.00  0.00    -0.065 C 
HETATM    8  C16 UNL     1      -3.578  47.374 -22.121  1.00  0.00     0.036 C 
HETATM    9  C17 UNL     1      -2.515  48.370 -22.637  1.00  0.00     0.015 C 
HETATM   10  C18 UNL     1      -3.143  49.702 -23.061  1.00  0.00    -0.029 C 
HETATM   11  C19 UNL     1      -4.054  49.460 -24.305  1.00  0.00     0.016 C 
HETATM   12  C20 UNL     1      -5.932  46.913 -21.042  1.00  0.00     0.012 C 
HETATM   13  C21 UNL     1      -6.534  46.266 -22.318  1.00  0.00     0.023 C 
HETATM   14  C22 UNL     1      -7.131  47.589 -20.242  1.00  0.00     0.007 C 
HETATM   15  C23 UNL     1      -7.491  48.947 -20.857  1.00  0.00     0.010 C 
HETATM   16  C24 UNL     1      -6.318  49.910 -20.884  1.00  0.00     0.036 C 
HETATM   17  C25 UNL     1      -6.950  47.582 -18.682  1.00  0.00     0.018 C 
HETATM   18  C26 UNL     1      -7.774  48.636 -17.934  1.00  0.00     0.013 C 
HETATM   19  C27 UNL     1      -5.471  47.592 -18.275  1.00  0.00     0.153 C 
HETATM   20  C28 UNL     1      -4.736  46.340 -18.796  1.00  0.00     0.177 C 
HETATM   21  C29 UNL     1      -5.359  45.793 -20.106  1.00  0.00     0.162 C 
ENDROOT
BRANCH   1  22
HETATM   22  C7  UNL     1      -1.453  50.992 -24.746  1.00  0.00    -0.014 C 
HETATM   23  C8  UNL     1      -1.921  49.850 -25.667  1.00  0.00     0.010 C 
BRANCH  22  24
HETATM   24  C6  UNL     1      -1.692  52.360 -25.425  1.00  0.00     0.008 C 
BRANCH  24  25
HETATM   25  C5  UNL     1      -0.481  53.302 -25.411  1.00  0.00     0.028 C 
BRANCH  25  26
HETATM   26  C4  UNL     1       0.804  52.528 -25.538  1.00  0.00    -0.025 C 
HETATM   27  C2  UNL     1       1.354  52.010 -26.655  1.00  0.00    -0.091 C 
HETATM   28  C1  UNL     1       0.787  52.134 -28.042  1.00  0.00     0.042 C 
HETATM   29  C3  UNL     1       2.651  51.246 -26.586  1.00  0.00     0.042 C 
ENDBRANCH  25  26
ENDBRANCH  24  25
ENDBRANCH  22  24
ENDBRANCH   1  22
BRANCH  21  30
HETATM   30  O3  UNL     1      -4.481  44.858 -20.735  1.00  0.00    -0.392 OA
HETATM   31  H48 UNL     1      -4.952  44.430 -21.467  1.00  0.00     0.210 HD
ENDBRANCH  21  30
BRANCH  20  32
HETATM   32  O2  UNL     1      -3.341  46.645 -18.908  1.00  0.00    -0.390 OA
HETATM   33  H46 UNL     1      -3.089  47.095 -18.083  1.00  0.00     0.210 HD
ENDBRANCH  20  32
BRANCH  19  34
HETATM   34  O1  UNL     1      -5.311  47.647 -16.851  1.00  0.00    -0.393 OA
HETATM   35  H44 UNL     1      -5.809  46.907 -16.461  1.00  0.00     0.210 HD
ENDBRANCH  19  34
TORSDOF 7
ENDMDL
MODEL 9
REMARK minimizedAffinity -8.71176815
REMARK  7 active torsions:
REMARK  status: ('A' for Active; 'I' for Inactive)
REMARK    1  A    between atoms: C4_4  and  C5_5 
REMARK    2  A    between atoms: C5_5  and  C6_6 
REMARK    3  A    between atoms: C6_6  and  C7_7 
REMARK    4  A    between atoms: C7_7  and  C9_9 
REMARK    5  A    between atoms: C27_27  and  O1_28 
REMARK    6  A    between atoms: C28_29  and  O2_30 
REMARK    7  A    between atoms: C29_31  and  O3_32 
ROOT
HETATM    1  C9  UNL     1      -4.901  49.437 -25.287  1.00  0.00    -0.002 C 
HETATM    2  C10 UNL     1      -4.926  49.634 -23.741  1.00  0.00     0.007 C 
HETATM    3  C11 UNL     1      -3.618  50.330 -23.336  1.00  0.00     0.015 C 
HETATM    4  C12 UNL     1      -3.050  50.889 -24.650  1.00  0.00    -0.013 C 
HETATM    5  C13 UNL     1      -3.792  52.234 -24.930  1.00  0.00     0.021 C 
HETATM    6  C14 UNL     1      -1.566  51.235 -24.730  1.00  0.00    -0.068 C 
HETATM    7  C15 UNL     1      -0.922  51.200 -25.926  1.00  0.00    -0.065 C 
HETATM    8  C16 UNL     1      -1.637  50.693 -27.189  1.00  0.00     0.036 C 
HETATM    9  C17 UNL     1      -3.100  50.215 -27.051  1.00  0.00     0.015 C 
HETATM   10  C18 UNL     1      -3.402  49.709 -25.636  1.00  0.00    -0.029 C 
HETATM   11  C19 UNL     1      -2.568  48.418 -25.370  1.00  0.00     0.016 C 
HETATM   12  C20 UNL     1       0.563  51.632 -26.095  1.00  0.00     0.012 C 
HETATM   13  C21 UNL     1       1.390  50.342 -26.340  1.00  0.00     0.023 C 
HETATM   14  C22 UNL     1       1.150  52.332 -24.791  1.00  0.00     0.007 C 
HETATM   15  C23 UNL     1       0.611  51.652 -23.526  1.00  0.00     0.010 C 
HETATM   16  C24 UNL     1      -0.905  51.671 -23.450  1.00  0.00     0.036 C 
HETATM   17  C25 UNL     1       1.060  53.900 -24.805  1.00  0.00     0.018 C 
HETATM   18  C26 UNL     1       1.119  54.560 -23.422  1.00  0.00     0.013 C 
HETATM   19  C27 UNL     1      -0.120  54.401 -25.647  1.00  0.00     0.153 C 
HETATM   20  C28 UNL     1       0.017  53.968 -27.121  1.00  0.00     0.177 C 
HETATM   21  C29 UNL     1       0.800  52.639 -27.274  1.00  0.00     0.162 C 
ENDROOT
BRANCH   1  22
HETATM   22  C7  UNL     1      -5.583  48.096 -25.709  1.00  0.00    -0.014 C 
HETATM   23  C8  UNL     1      -6.930  47.942 -24.979  1.00  0.00     0.010 C 
BRANCH  22  24
HETATM   24  C6  UNL     1      -5.785  47.993 -27.238  1.00  0.00     0.008 C 
BRANCH  24  25
HETATM   25  C5  UNL     1      -7.140  47.411 -27.666  1.00  0.00     0.028 C 
BRANCH  25  26
HETATM   26  C4  UNL     1      -6.971  46.433 -28.798  1.00  0.00    -0.025 C 
HETATM   27  C2  UNL     1      -7.289  45.123 -28.816  1.00  0.00    -0.091 C 
HETATM   28  C1  UNL     1      -7.922  44.365 -27.683  1.00  0.00     0.042 C 
HETATM   29  C3  UNL     1      -7.033  44.291 -30.046  1.00  0.00     0.042 C 
ENDBRANCH  25  26
ENDBRANCH  24  25
ENDBRANCH  22  24
ENDBRANCH   1  22
BRANCH  21  30
HETATM   30  O3  UNL     1       0.631  52.097 -28.586  1.00  0.00    -0.392 OA
HETATM   31  H48 UNL     1       1.239  51.350 -28.697  1.00  0.00     0.210 HD
ENDBRANCH  21  30
BRANCH  20  32
HETATM   32  O2  UNL     1      -1.288  53.936 -27.710  1.00  0.00    -0.390 OA
HETATM   33  H46 UNL     1      -1.731  54.761 -27.445  1.00  0.00     0.210 HD
ENDBRANCH  20  32
BRANCH  19  34
HETATM   34  O1  UNL     1      -0.235  55.830 -25.606  1.00  0.00    -0.393 OA
HETATM   35  H44 UNL     1       0.618  56.210 -25.881  1.00  0.00     0.210 HD
ENDBRANCH  19  34
TORSDOF 7
ENDMDL
