MODEL 1
REMARK minimizedAffinity -8.71272945
REMARK  6 active torsions:
REMARK  status: ('A' for Active; 'I' for Inactive)
REMARK    1  A    between atoms: C2_2  and  C3_3 
REMARK    2  A    between atoms: C2_2  and  C9_10 
REMARK    3  A    between atoms: C3_3  and  C4_4 
REMARK    4  A    between atoms: C4_4  and  C5_5 
REMARK    5  A    between atoms: C17_18  and  C18_19 
REMARK    6  A    between atoms: C18_19  and  O2_22 
ROOT
HETATM    1  C9  UNL     1      -1.074  51.633 -22.592  1.00  0.00    -0.002 C 
HETATM    2  C10 UNL     1      -2.386  52.211 -23.213  1.00  0.00     0.006 C 
HETATM    3  C11 UNL     1      -3.540  51.266 -22.802  1.00  0.00     0.011 C 
HETATM    4  C12 UNL     1      -2.833  49.996 -22.296  1.00  0.00    -0.032 C 
HETATM    5  C13 UNL     1      -2.428  49.201 -23.585  1.00  0.00     0.016 C 
HETATM    6  C14 UNL     1      -3.655  49.102 -21.319  1.00  0.00     0.003 C 
HETATM    7  C15 UNL     1      -5.001  48.590 -21.859  1.00  0.00     0.009 C 
HETATM    8  C16 UNL     1      -5.540  47.373 -21.101  1.00  0.00     0.042 C 
HETATM    9  C17 UNL     1      -5.199  47.252 -19.580  1.00  0.00     0.095 C 
HETATM   10  O3  UNL     1      -5.510  45.865 -19.316  1.00  0.00    -0.377 OA
HETATM   11  C21 UNL     1      -5.154  45.303 -18.063  1.00  0.00     0.169 C 
HETATM   12  C22 UNL     1      -3.831  45.784 -17.498  1.00  0.00     0.027 C 
HETATM   13  C23 UNL     1      -2.947  46.370 -18.577  1.00  0.00     0.010 C 
HETATM   14  C24 UNL     1      -3.651  47.508 -19.355  1.00  0.00     0.032 C 
HETATM   15  C25 UNL     1      -2.819  47.957 -20.644  1.00  0.00    -0.033 C 
HETATM   16  C26 UNL     1      -2.574  46.761 -21.612  1.00  0.00     0.016 C 
HETATM   17  C27 UNL     1      -1.413  48.480 -20.164  1.00  0.00     0.011 C 
HETATM   18  C28 UNL     1      -0.684  49.479 -21.087  1.00  0.00     0.011 C 
HETATM   19  C29 UNL     1      -1.607  50.632 -21.520  1.00  0.00    -0.032 C 
HETATM   20  C30 UNL     1      -1.998  51.427 -20.237  1.00  0.00     0.016 C 
ENDROOT
BRANCH   1  21
HETATM   21  C2  UNL     1       0.017  52.711 -22.298  1.00  0.00    -0.014 C 
HETATM   22  C1  UNL     1       1.027  52.377 -21.194  1.00  0.00     0.010 C 
BRANCH  21  23
HETATM   23  C3  UNL     1       0.726  53.154 -23.600  1.00  0.00     0.007 C 
BRANCH  23  24
HETATM   24  C4  UNL     1      -0.204  53.472 -24.778  1.00  0.00     0.035 C 
BRANCH  24  25
HETATM   25  C5  UNL     1       0.425  53.264 -26.120  1.00  0.00     0.156 A 
HETATM   26  O1  UNL     1       1.579  52.403 -26.083  1.00  0.00    -0.370 OA
HETATM   27  C6  UNL     1       0.469  51.926 -26.851  1.00  0.00     0.080 A 
HETATM   28  C7  UNL     1      -0.172  50.697 -26.286  1.00  0.00     0.048 C 
HETATM   29  C8  UNL     1       0.707  51.933 -28.329  1.00  0.00     0.048 C 
ENDBRANCH  24  25
ENDBRANCH  23  24
ENDBRANCH  21  23
ENDBRANCH   1  21
BRANCH   9  30
HETATM   30  C18 UNL     1      -6.170  48.228 -18.737  1.00  0.00     0.082 C 
HETATM   31  C19 UNL     1      -6.699  49.405 -19.587  1.00  0.00     0.049 C 
HETATM   32  C20 UNL     1      -7.404  47.575 -18.092  1.00  0.00     0.049 C 
BRANCH  30  33
HETATM   33  O2  UNL     1      -5.463  48.785 -17.614  1.00  0.00    -0.388 OA
HETATM   34  H35 UNL     1      -5.026  49.604 -17.905  1.00  0.00     0.210 HD
ENDBRANCH  30  33
ENDBRANCH   9  30
TORSDOF 6
ENDMDL
MODEL 2
REMARK minimizedAffinity -8.60255814
REMARK  6 active torsions:
REMARK  status: ('A' for Active; 'I' for Inactive)
REMARK    1  A    between atoms: C2_2  and  C3_3 
REMARK    2  A    between atoms: C2_2  and  C9_10 
REMARK    3  A    between atoms: C3_3  and  C4_4 
REMARK    4  A    between atoms: C4_4  and  C5_5 
REMARK    5  A    between atoms: C17_18  and  C18_19 
REMARK    6  A    between atoms: C18_19  and  O2_22 
ROOT
HETATM    1  C9  UNL     1      -4.015  49.397 -26.605  1.00  0.00    -0.002 C 
HETATM    2  C10 UNL     1      -2.561  49.734 -27.066  1.00  0.00     0.006 C 
HETATM    3  C11 UNL     1      -1.825  50.338 -25.846  1.00  0.00     0.011 C 
HETATM    4  C12 UNL     1      -2.949  50.682 -24.853  1.00  0.00    -0.032 C 
HETATM    5  C13 UNL     1      -3.554  52.036 -25.359  1.00  0.00     0.016 C 
HETATM    6  C14 UNL     1      -2.528  50.779 -23.355  1.00  0.00     0.003 C 
HETATM    7  C15 UNL     1      -1.424  51.802 -23.039  1.00  0.00     0.009 C 
HETATM    8  C16 UNL     1      -1.372  52.208 -21.563  1.00  0.00     0.042 C 
HETATM    9  C17 UNL     1      -1.793  51.144 -20.499  1.00  0.00     0.095 C 
HETATM   10  O3  UNL     1      -1.995  51.962 -19.324  1.00  0.00    -0.377 OA
HETATM   11  C21 UNL     1      -2.573  51.380 -18.166  1.00  0.00     0.169 C 
HETATM   12  C22 UNL     1      -3.667  50.365 -18.439  1.00  0.00     0.027 C 
HETATM   13  C23 UNL     1      -4.248  50.534 -19.825  1.00  0.00     0.010 C 
HETATM   14  C24 UNL     1      -3.163  50.470 -20.926  1.00  0.00     0.032 C 
HETATM   15  C25 UNL     1      -3.736  50.891 -22.358  1.00  0.00    -0.033 C 
HETATM   16  C26 UNL     1      -4.344  52.326 -22.332  1.00  0.00     0.016 C 
HETATM   17  C27 UNL     1      -4.889  49.889 -22.739  1.00  0.00     0.011 C 
HETATM   18  C28 UNL     1      -5.188  49.704 -24.242  1.00  0.00     0.011 C 
HETATM   19  C29 UNL     1      -3.906  49.435 -25.049  1.00  0.00    -0.032 C 
HETATM   20  C30 UNL     1      -3.313  48.082 -24.551  1.00  0.00     0.016 C 
ENDROOT
BRANCH   1  21
HETATM   21  C2  UNL     1      -4.674  48.221 -27.395  1.00  0.00    -0.014 C 
HETATM   22  C1  UNL     1      -6.036  47.736 -26.887  1.00  0.00     0.010 C 
BRANCH  21  23
HETATM   23  C3  UNL     1      -4.710  48.521 -28.912  1.00  0.00     0.007 C 
BRANCH  23  24
HETATM   24  C4  UNL     1      -5.799  47.783 -29.701  1.00  0.00     0.035 C 
BRANCH  24  25
HETATM   25  C5  UNL     1      -5.892  48.195 -31.137  1.00  0.00     0.156 A 
HETATM   26  O1  UNL     1      -4.642  48.660 -31.680  1.00  0.00    -0.370 OA
HETATM   27  C6  UNL     1      -5.184  47.481 -32.284  1.00  0.00     0.080 A 
HETATM   28  C7  UNL     1      -4.357  46.254 -32.059  1.00  0.00     0.048 C 
HETATM   29  C8  UNL     1      -5.696  47.693 -33.675  1.00  0.00     0.048 C 
ENDBRANCH  24  25
ENDBRANCH  23  24
ENDBRANCH  21  23
ENDBRANCH   1  21
BRANCH   9  30
HETATM   30  C18 UNL     1      -0.577  50.106 -20.273  1.00  0.00     0.082 C 
HETATM   31  C19 UNL     1      -0.195  49.968 -18.782  1.00  0.00     0.049 C 
HETATM   32  C20 UNL     1      -0.791  48.676 -20.796  1.00  0.00     0.049 C 
BRANCH  30  33
HETATM   33  O2  UNL     1       0.593  50.549 -20.983  1.00  0.00    -0.388 OA
HETATM   34  H35 UNL     1       1.098  51.142 -20.400  1.00  0.00     0.210 HD
ENDBRANCH  30  33
ENDBRANCH   9  30
TORSDOF 6
ENDMDL
MODEL 3
REMARK minimizedAffinity -8.53000736
REMARK  6 active torsions:
REMARK  status: ('A' for Active; 'I' for Inactive)
REMARK    1  A    between atoms: C2_2  and  C3_3 
REMARK    2  A    between atoms: C2_2  and  C9_10 
REMARK    3  A    between atoms: C3_3  and  C4_4 
REMARK    4  A    between atoms: C4_4  and  C5_5 
REMARK    5  A    between atoms: C17_18  and  C18_19 
REMARK    6  A    between atoms: C18_19  and  O2_22 
ROOT
HETATM    1  C9  UNL     1      -1.308  50.433 -22.128  1.00  0.00    -0.002 C 
HETATM    2  C10 UNL     1      -1.715  50.021 -23.579  1.00  0.00     0.006 C 
HETATM    3  C11 UNL     1      -2.945  49.090 -23.461  1.00  0.00     0.011 C 
HETATM    4  C12 UNL     1      -2.980  48.688 -21.977  1.00  0.00    -0.032 C 
HETATM    5  C13 UNL     1      -1.908  47.555 -21.825  1.00  0.00     0.016 C 
HETATM    6  C14 UNL     1      -4.364  48.229 -21.427  1.00  0.00     0.003 C 
HETATM    7  C15 UNL     1      -5.005  47.034 -22.152  1.00  0.00     0.009 C 
HETATM    8  C16 UNL     1      -6.084  46.326 -21.327  1.00  0.00     0.042 C 
HETATM    9  C17 UNL     1      -6.922  47.188 -20.330  1.00  0.00     0.095 C 
HETATM   10  O3  UNL     1      -7.520  46.174 -19.490  1.00  0.00    -0.377 OA
HETATM   11  C21 UNL     1      -8.223  46.568 -18.323  1.00  0.00     0.169 C 
HETATM   12  C22 UNL     1      -7.620  47.746 -17.579  1.00  0.00     0.027 C 
HETATM   13  C23 UNL     1      -6.164  47.943 -17.940  1.00  0.00     0.010 C 
HETATM   14  C24 UNL     1      -5.956  48.101 -19.465  1.00  0.00     0.032 C 
HETATM   15  C25 UNL     1      -4.409  48.062 -19.866  1.00  0.00    -0.033 C 
HETATM   16  C26 UNL     1      -3.729  46.740 -19.398  1.00  0.00     0.016 C 
HETATM   17  C27 UNL     1      -3.683  49.256 -19.140  1.00  0.00     0.011 C 
HETATM   18  C28 UNL     1      -2.387  49.786 -19.788  1.00  0.00     0.011 C 
HETATM   19  C29 UNL     1      -2.571  50.057 -21.292  1.00  0.00    -0.032 C 
HETATM   20  C30 UNL     1      -3.629  51.193 -21.438  1.00  0.00     0.016 C 
ENDROOT
BRANCH   1  21
HETATM   21  C2  UNL     1      -0.596  51.819 -22.038  1.00  0.00    -0.014 C 
HETATM   22  C1  UNL     1       0.832  51.819 -21.480  1.00  0.00     0.010 C 
BRANCH  21  23
HETATM   23  C3  UNL     1      -0.676  52.574 -23.387  1.00  0.00     0.007 C 
BRANCH  23  24
HETATM   24  C4  UNL     1       0.539  52.402 -24.308  1.00  0.00     0.035 C 
BRANCH  24  25
HETATM   25  C5  UNL     1       0.205  52.439 -25.766  1.00  0.00     0.156 A 
HETATM   26  O1  UNL     1       0.988  53.392 -26.508  1.00  0.00    -0.370 OA
HETATM   27  C6  UNL     1       1.160  52.020 -26.878  1.00  0.00     0.080 A 
HETATM   28  C7  UNL     1       2.527  51.484 -26.585  1.00  0.00     0.048 C 
HETATM   29  C8  UNL     1       0.584  51.677 -28.217  1.00  0.00     0.048 C 
ENDBRANCH  24  25
ENDBRANCH  23  24
ENDBRANCH  21  23
ENDBRANCH   1  21
BRANCH   9  30
HETATM   30  C18 UNL     1      -8.056  47.997 -21.147  1.00  0.00     0.082 C 
HETATM   31  C19 UNL     1      -7.633  49.452 -21.450  1.00  0.00     0.049 C 
HETATM   32  C20 UNL     1      -8.498  47.389 -22.488  1.00  0.00     0.049 C 
BRANCH  30  33
HETATM   33  O2  UNL     1      -9.276  48.048 -20.386  1.00  0.00    -0.388 OA
HETATM   34  H35 UNL     1      -9.244  48.833 -19.812  1.00  0.00     0.210 HD
ENDBRANCH  30  33
ENDBRANCH   9  30
TORSDOF 6
ENDMDL
MODEL 4
REMARK minimizedAffinity -8.4522171
REMARK  6 active torsions:
REMARK  status: ('A' for Active; 'I' for Inactive)
REMARK    1  A    between atoms: C2_2  and  C3_3 
REMARK    2  A    between atoms: C2_2  and  C9_10 
REMARK    3  A    between atoms: C3_3  and  C4_4 
REMARK    4  A    between atoms: C4_4  and  C5_5 
REMARK    5  A    between atoms: C17_18  and  C18_19 
REMARK    6  A    between atoms: C18_19  and  O2_22 
ROOT
HETATM    1  C9  UNL     1      -4.438  47.777 -20.979  1.00  0.00    -0.002 C 
HETATM    2  C10 UNL     1      -5.379  47.332 -22.143  1.00  0.00     0.006 C 
HETATM    3  C11 UNL     1      -5.095  48.268 -23.343  1.00  0.00     0.011 C 
HETATM    4  C12 UNL     1      -4.302  49.438 -22.735  1.00  0.00    -0.032 C 
HETATM    5  C13 UNL     1      -5.371  50.364 -22.060  1.00  0.00     0.016 C 
HETATM    6  C14 UNL     1      -3.407  50.241 -23.727  1.00  0.00     0.003 C 
HETATM    7  C15 UNL     1      -4.140  50.870 -24.924  1.00  0.00     0.009 C 
HETATM    8  C16 UNL     1      -3.360  52.008 -25.589  1.00  0.00     0.042 C 
HETATM    9  C17 UNL     1      -1.799  51.932 -25.567  1.00  0.00     0.095 C 
HETATM   10  O3  UNL     1      -1.431  53.290 -25.904  1.00  0.00    -0.377 OA
HETATM   11  C21 UNL     1      -0.071  53.682 -25.805  1.00  0.00     0.169 C 
HETATM   12  C22 UNL     1       0.685  53.082 -24.634  1.00  0.00     0.027 C 
HETATM   13  C23 UNL     1      -0.257  52.594 -23.556  1.00  0.00     0.010 C 
HETATM   14  C24 UNL     1      -1.298  51.587 -24.102  1.00  0.00     0.032 C 
HETATM   15  C25 UNL     1      -2.438  51.262 -23.029  1.00  0.00    -0.033 C 
HETATM   16  C26 UNL     1      -3.178  52.554 -22.571  1.00  0.00     0.016 C 
HETATM   17  C27 UNL     1      -1.752  50.627 -21.762  1.00  0.00     0.011 C 
HETATM   18  C28 UNL     1      -2.627  49.717 -20.874  1.00  0.00     0.011 C 
HETATM   19  C29 UNL     1      -3.379  48.663 -21.706  1.00  0.00    -0.032 C 
HETATM   20  C30 UNL     1      -2.313  47.737 -22.366  1.00  0.00     0.016 C 
ENDROOT
BRANCH   1  21
HETATM   21  C2  UNL     1      -4.066  46.627 -19.990  1.00  0.00    -0.014 C 
HETATM   22  C1  UNL     1      -4.128  45.200 -20.546  1.00  0.00     0.010 C 
BRANCH  21  23
HETATM   23  C3  UNL     1      -2.712  46.906 -19.296  1.00  0.00     0.007 C 
BRANCH  23  24
HETATM   24  C4  UNL     1      -2.807  47.512 -17.890  1.00  0.00     0.035 C 
BRANCH  24  25
HETATM   25  C5  UNL     1      -1.752  48.532 -17.596  1.00  0.00     0.156 A 
HETATM   26  O1  UNL     1      -2.158  49.509 -16.620  1.00  0.00    -0.370 OA
HETATM   27  C6  UNL     1      -1.051  48.680 -16.250  1.00  0.00     0.080 A 
HETATM   28  C7  UNL     1      -1.342  47.763 -15.103  1.00  0.00     0.048 C 
HETATM   29  C8  UNL     1       0.260  49.403 -16.208  1.00  0.00     0.048 C 
ENDBRANCH  24  25
ENDBRANCH  23  24
ENDBRANCH  21  23
ENDBRANCH   1  21
BRANCH   9  30
HETATM   30  C18 UNL     1      -1.300  50.903 -26.706  1.00  0.00     0.082 C 
HETATM   31  C19 UNL     1       0.216  50.615 -26.611  1.00  0.00     0.049 C 
HETATM   32  C20 UNL     1      -1.997  49.533 -26.744  1.00  0.00     0.049 C 
BRANCH  30  33
HETATM   33  O2  UNL     1      -1.559  51.445 -28.014  1.00  0.00    -0.388 OA
HETATM   34  H35 UNL     1      -0.792  51.983 -28.278  1.00  0.00     0.210 HD
ENDBRANCH  30  33
ENDBRANCH   9  30
TORSDOF 6
ENDMDL
MODEL 5
REMARK minimizedAffinity -8.44773102
REMARK  6 active torsions:
REMARK  status: ('A' for Active; 'I' for Inactive)
REMARK    1  A    between atoms: C2_2  and  C3_3 
REMARK    2  A    between atoms: C2_2  and  C9_10 
REMARK    3  A    between atoms: C3_3  and  C4_4 
REMARK    4  A    between atoms: C4_4  and  C5_5 
REMARK    5  A    between atoms: C17_18  and  C18_19 
REMARK    6  A    between atoms: C18_19  and  O2_22 
ROOT
HETATM    1  C9  UNL     1      -2.705  50.178 -19.129  1.00  0.00    -0.002 C 
HETATM    2  C10 UNL     1      -4.176  49.665 -19.230  1.00  0.00     0.006 C 
HETATM    3  C11 UNL     1      -4.606  49.800 -20.710  1.00  0.00     0.011 C 
HETATM    4  C12 UNL     1      -3.543  50.720 -21.334  1.00  0.00    -0.032 C 
HETATM    5  C13 UNL     1      -3.950  52.175 -20.917  1.00  0.00     0.016 C 
HETATM    6  C14 UNL     1      -3.367  50.607 -22.879  1.00  0.00     0.003 C 
HETATM    7  C15 UNL     1      -4.630  50.876 -23.714  1.00  0.00     0.009 C 
HETATM    8  C16 UNL     1      -4.333  51.222 -25.176  1.00  0.00     0.042 C 
HETATM    9  C17 UNL     1      -3.071  50.579 -25.836  1.00  0.00     0.095 C 
HETATM   10  O3  UNL     1      -2.898  51.402 -27.012  1.00  0.00    -0.377 OA
HETATM   11  C21 UNL     1      -1.725  51.252 -27.796  1.00  0.00     0.169 C 
HETATM   12  C22 UNL     1      -0.458  50.985 -27.006  1.00  0.00     0.027 C 
HETATM   13  C23 UNL     1      -0.603  51.412 -25.562  1.00  0.00     0.010 C 
HETATM   14  C24 UNL     1      -1.820  50.746 -24.876  1.00  0.00     0.032 C 
HETATM   15  C25 UNL     1      -2.117  51.377 -23.438  1.00  0.00    -0.033 C 
HETATM   16  C26 UNL     1      -2.368  52.913 -23.528  1.00  0.00     0.016 C 
HETATM   17  C27 UNL     1      -0.851  51.152 -22.530  1.00  0.00     0.011 C 
HETATM   18  C28 UNL     1      -1.078  51.125 -21.004  1.00  0.00     0.011 C 
HETATM   19  C29 UNL     1      -2.235  50.186 -20.617  1.00  0.00    -0.032 C 
HETATM   20  C30 UNL     1      -1.821  48.739 -21.023  1.00  0.00     0.016 C 
ENDROOT
BRANCH   1  21
HETATM   21  C2  UNL     1      -1.884  49.529 -17.969  1.00  0.00    -0.014 C 
HETATM   22  C1  UNL     1      -1.988  48.007 -17.828  1.00  0.00     0.010 C 
BRANCH  21  23
HETATM   23  C3  UNL     1      -0.409  49.995 -18.004  1.00  0.00     0.007 C 
BRANCH  23  24
HETATM   24  C4  UNL     1       0.118  50.602 -16.697  1.00  0.00     0.035 C 
BRANCH  24  25
HETATM   25  C5  UNL     1       1.155  51.663 -16.897  1.00  0.00     0.156 A 
HETATM   26  O1  UNL     1       1.055  52.744 -15.951  1.00  0.00    -0.370 OA
HETATM   27  C6  UNL     1       2.264  51.980 -15.899  1.00  0.00     0.080 A 
HETATM   28  C7  UNL     1       2.431  51.202 -14.631  1.00  0.00     0.048 C 
HETATM   29  C8  UNL     1       3.470  52.719 -16.389  1.00  0.00     0.048 C 
ENDBRANCH  24  25
ENDBRANCH  23  24
ENDBRANCH  21  23
ENDBRANCH   1  21
BRANCH   9  30
HETATM   30  C18 UNL     1      -3.403  49.054 -26.247  1.00  0.00     0.082 C 
HETATM   31  C19 UNL     1      -4.376  48.378 -25.255  1.00  0.00     0.049 C 
HETATM   32  C20 UNL     1      -3.998  48.837 -27.649  1.00  0.00     0.049 C 
BRANCH  30  33
HETATM   33  O2  UNL     1      -2.196  48.272 -26.274  1.00  0.00    -0.388 OA
HETATM   34  H35 UNL     1      -2.045  47.913 -25.382  1.00  0.00     0.210 HD
ENDBRANCH  30  33
ENDBRANCH   9  30
TORSDOF 6
ENDMDL
MODEL 6
REMARK minimizedAffinity -8.43510056
REMARK  6 active torsions:
REMARK  status: ('A' for Active; 'I' for Inactive)
REMARK    1  A    between atoms: C2_2  and  C3_3 
REMARK    2  A    between atoms: C2_2  and  C9_10 
REMARK    3  A    between atoms: C3_3  and  C4_4 
REMARK    4  A    between atoms: C4_4  and  C5_5 
REMARK    5  A    between atoms: C17_18  and  C18_19 
REMARK    6  A    between atoms: C18_19  and  O2_22 
ROOT
HETATM    1  C9  UNL     1      -3.736  50.757 -25.594  1.00  0.00    -0.002 C 
HETATM    2  C10 UNL     1      -3.207  52.170 -25.192  1.00  0.00     0.006 C 
HETATM    3  C11 UNL     1      -3.068  52.184 -23.651  1.00  0.00     0.011 C 
HETATM    4  C12 UNL     1      -3.863  50.952 -23.184  1.00  0.00    -0.032 C 
HETATM    5  C13 UNL     1      -5.367  51.390 -23.212  1.00  0.00     0.016 C 
HETATM    6  C14 UNL     1      -3.470  50.377 -21.790  1.00  0.00     0.003 C 
HETATM    7  C15 UNL     1      -3.578  51.359 -20.611  1.00  0.00     0.009 C 
HETATM    8  C16 UNL     1      -3.652  50.668 -19.246  1.00  0.00     0.042 C 
HETATM    9  C17 UNL     1      -2.904  49.306 -19.076  1.00  0.00     0.095 C 
HETATM   10  O3  UNL     1      -3.500  48.790 -17.864  1.00  0.00    -0.377 OA
HETATM   11  C21 UNL     1      -3.213  47.459 -17.465  1.00  0.00     0.169 C 
HETATM   12  C22 UNL     1      -3.100  46.460 -18.602  1.00  0.00     0.027 C 
HETATM   13  C23 UNL     1      -3.783  46.965 -19.854  1.00  0.00     0.010 C 
HETATM   14  C24 UNL     1      -3.248  48.350 -20.293  1.00  0.00     0.032 C 
HETATM   15  C25 UNL     1      -4.131  48.990 -21.462  1.00  0.00    -0.033 C 
HETATM   16  C26 UNL     1      -5.623  49.138 -21.037  1.00  0.00     0.016 C 
HETATM   17  C27 UNL     1      -4.079  48.023 -22.703  1.00  0.00     0.011 C 
HETATM   18  C28 UNL     1      -4.331  48.649 -24.091  1.00  0.00     0.011 C 
HETATM   19  C29 UNL     1      -3.474  49.908 -24.311  1.00  0.00    -0.032 C 
HETATM   20  C30 UNL     1      -1.979  49.468 -24.294  1.00  0.00     0.016 C 
ENDROOT
BRANCH   1  21
HETATM   21  C2  UNL     1      -3.313  50.305 -27.028  1.00  0.00    -0.014 C 
HETATM   22  C1  UNL     1      -2.016  50.908 -27.579  1.00  0.00     0.010 C 
BRANCH  21  23
HETATM   23  C3  UNL     1      -3.316  48.763 -27.148  1.00  0.00     0.007 C 
BRANCH  23  24
HETATM   24  C4  UNL     1      -4.649  48.142 -27.588  1.00  0.00     0.035 C 
BRANCH  24  25
HETATM   25  C5  UNL     1      -5.083  48.548 -28.961  1.00  0.00     0.156 A 
HETATM   26  O1  UNL     1      -4.631  47.650 -29.992  1.00  0.00    -0.370 OA
HETATM   27  C6  UNL     1      -6.049  47.748 -29.829  1.00  0.00     0.080 A 
HETATM   28  C7  UNL     1      -6.688  46.485 -29.341  1.00  0.00     0.048 C 
HETATM   29  C8  UNL     1      -6.742  48.452 -30.954  1.00  0.00     0.048 C 
ENDBRANCH  24  25
ENDBRANCH  23  24
ENDBRANCH  21  23
ENDBRANCH   1  21
BRANCH   9  30
HETATM   30  C18 UNL     1      -1.328  49.586 -18.867  1.00  0.00     0.082 C 
HETATM   31  C19 UNL     1      -0.515  49.350 -20.160  1.00  0.00     0.049 C 
HETATM   32  C20 UNL     1      -0.942  50.988 -18.366  1.00  0.00     0.049 C 
BRANCH  30  33
HETATM   33  O2  UNL     1      -0.798  48.713 -17.854  1.00  0.00    -0.388 OA
HETATM   34  H35 UNL     1      -0.512  47.887 -18.282  1.00  0.00     0.210 HD
ENDBRANCH  30  33
ENDBRANCH   9  30
TORSDOF 6
ENDMDL
MODEL 7
REMARK minimizedAffinity -8.31084156
REMARK  6 active torsions:
REMARK  status: ('A' for Active; 'I' for Inactive)
REMARK    1  A    between atoms: C2_2  and  C3_3 
REMARK    2  A    between atoms: C2_2  and  C9_10 
REMARK    3  A    between atoms: C3_3  and  C4_4 
REMARK    4  A    between atoms: C4_4  and  C5_5 
REMARK    5  A    between atoms: C17_18  and  C18_19 
REMARK    6  A    between atoms: C18_19  and  O2_22 
ROOT
HETATM    1  C9  UNL     1      -3.450  50.968 -25.244  1.00  0.00    -0.002 C 
HETATM    2  C10 UNL     1      -3.120  52.393 -24.697  1.00  0.00     0.006 C 
HETATM    3  C11 UNL     1      -3.140  52.304 -23.152  1.00  0.00     0.011 C 
HETATM    4  C12 UNL     1      -3.839  50.966 -22.855  1.00  0.00    -0.032 C 
HETATM    5  C13 UNL     1      -5.372  51.250 -23.017  1.00  0.00     0.016 C 
HETATM    6  C14 UNL     1      -3.529  50.330 -21.466  1.00  0.00     0.003 C 
HETATM    7  C15 UNL     1      -3.860  51.203 -20.244  1.00  0.00     0.009 C 
HETATM    8  C16 UNL     1      -3.996  50.408 -18.943  1.00  0.00     0.042 C 
HETATM    9  C17 UNL     1      -3.126  49.119 -18.782  1.00  0.00     0.095 C 
HETATM   10  O3  UNL     1      -3.781  48.455 -17.677  1.00  0.00    -0.377 OA
HETATM   11  C21 UNL     1      -3.393  47.133 -17.337  1.00  0.00     0.169 C 
HETATM   12  C22 UNL     1      -3.059  46.240 -18.517  1.00  0.00     0.027 C 
HETATM   13  C23 UNL     1      -3.663  46.767 -19.800  1.00  0.00     0.010 C 
HETATM   14  C24 UNL     1      -3.240  48.228 -20.089  1.00  0.00     0.032 C 
HETATM   15  C25 UNL     1      -4.065  48.863 -21.302  1.00  0.00    -0.033 C 
HETATM   16  C26 UNL     1      -5.599  48.826 -21.032  1.00  0.00     0.016 C 
HETATM   17  C27 UNL     1      -3.784  48.002 -22.590  1.00  0.00     0.011 C 
HETATM   18  C28 UNL     1      -3.961  48.703 -23.954  1.00  0.00     0.011 C 
HETATM   19  C29 UNL     1      -3.228  50.056 -23.998  1.00  0.00    -0.032 C 
HETATM   20  C30 UNL     1      -1.703  49.768 -23.848  1.00  0.00     0.016 C 
ENDROOT
BRANCH   1  21
HETATM   21  C2  UNL     1      -2.839  50.671 -26.650  1.00  0.00    -0.014 C 
HETATM   22  C1  UNL     1      -3.496  49.545 -27.457  1.00  0.00     0.010 C 
BRANCH  21  23
HETATM   23  C3  UNL     1      -2.712  51.967 -27.486  1.00  0.00     0.007 C 
BRANCH  23  24
HETATM   24  C4  UNL     1      -1.523  52.867 -27.124  1.00  0.00     0.035 C 
BRANCH  24  25
HETATM   25  C5  UNL     1      -0.192  52.198 -27.261  1.00  0.00     0.156 A 
HETATM   26  O1  UNL     1       0.913  53.122 -27.278  1.00  0.00    -0.370 OA
HETATM   27  C6  UNL     1       0.887  52.202 -26.182  1.00  0.00     0.080 A 
HETATM   28  C7  UNL     1       0.671  52.854 -24.852  1.00  0.00     0.048 C 
HETATM   29  C8  UNL     1       1.956  51.155 -26.244  1.00  0.00     0.048 C 
ENDBRANCH  24  25
ENDBRANCH  23  24
ENDBRANCH  21  23
ENDBRANCH   1  21
BRANCH   9  30
HETATM   30  C18 UNL     1      -1.618  49.540 -18.386  1.00  0.00     0.082 C 
HETATM   31  C19 UNL     1      -0.705  49.680 -19.625  1.00  0.00     0.049 C 
HETATM   32  C20 UNL     1      -1.459  50.843 -17.585  1.00  0.00     0.049 C 
BRANCH  30  33
HETATM   33  O2  UNL     1      -1.035  48.547 -17.525  1.00  0.00    -0.388 OA
HETATM   34  H35 UNL     1      -0.613  47.870 -18.083  1.00  0.00     0.210 HD
ENDBRANCH  30  33
ENDBRANCH   9  30
TORSDOF 6
ENDMDL
MODEL 8
REMARK minimizedAffinity -8.29043579
REMARK  6 active torsions:
REMARK  status: ('A' for Active; 'I' for Inactive)
REMARK    1  A    between atoms: C2_2  and  C3_3 
REMARK    2  A    between atoms: C2_2  and  C9_10 
REMARK    3  A    between atoms: C3_3  and  C4_4 
REMARK    4  A    between atoms: C4_4  and  C5_5 
REMARK    5  A    between atoms: C17_18  and  C18_19 
REMARK    6  A    between atoms: C18_19  and  O2_22 
ROOT
HETATM    1  C9  UNL     1      -4.690  47.729 -21.101  1.00  0.00    -0.002 C 
HETATM    2  C10 UNL     1      -5.564  47.300 -22.322  1.00  0.00     0.006 C 
HETATM    3  C11 UNL     1      -5.212  48.250 -23.492  1.00  0.00     0.011 C 
HETATM    4  C12 UNL     1      -4.453  49.411 -22.826  1.00  0.00    -0.032 C 
HETATM    5  C13 UNL     1      -5.559  50.330 -22.203  1.00  0.00     0.016 C 
HETATM    6  C14 UNL     1      -3.503  50.225 -23.756  1.00  0.00     0.003 C 
HETATM    7  C15 UNL     1      -4.166  50.869 -24.985  1.00  0.00     0.009 C 
HETATM    8  C16 UNL     1      -3.349  52.014 -25.591  1.00  0.00     0.042 C 
HETATM    9  C17 UNL     1      -1.792  51.935 -25.481  1.00  0.00     0.095 C 
HETATM   10  O3  UNL     1      -1.404  53.296 -25.781  1.00  0.00    -0.377 OA
HETATM   11  C21 UNL     1      -0.052  53.686 -25.600  1.00  0.00     0.169 C 
HETATM   12  C22 UNL     1       0.636  53.071 -24.396  1.00  0.00     0.027 C 
HETATM   13  C23 UNL     1      -0.366  52.571 -23.379  1.00  0.00     0.010 C 
HETATM   14  C24 UNL     1      -1.376  51.573 -23.995  1.00  0.00     0.032 C 
HETATM   15  C25 UNL     1      -2.574  51.236 -22.993  1.00  0.00    -0.033 C 
HETATM   16  C26 UNL     1      -3.339  52.524 -22.562  1.00  0.00     0.016 C 
HETATM   17  C27 UNL     1      -1.962  50.586 -21.696  1.00  0.00     0.011 C 
HETATM   18  C28 UNL     1      -2.886  49.666 -20.870  1.00  0.00     0.011 C 
HETATM   19  C29 UNL     1      -3.591  48.623 -21.756  1.00  0.00    -0.032 C 
HETATM   20  C30 UNL     1      -2.489  47.704 -22.365  1.00  0.00     0.016 C 
ENDROOT
BRANCH   1  21
HETATM   21  C2  UNL     1      -4.376  46.568 -20.105  1.00  0.00    -0.014 C 
HETATM   22  C1  UNL     1      -3.010  46.613 -19.412  1.00  0.00     0.010 C 
BRANCH  21  23
HETATM   23  C3  UNL     1      -5.523  46.386 -19.083  1.00  0.00     0.007 C 
BRANCH  23  24
HETATM   24  C4  UNL     1      -5.994  47.672 -18.390  1.00  0.00     0.035 C 
BRANCH  24  25
HETATM   25  C5  UNL     1      -7.423  47.633 -17.947  1.00  0.00     0.156 A 
HETATM   26  O1  UNL     1      -8.026  48.937 -17.850  1.00  0.00    -0.370 OA
HETATM   27  C6  UNL     1      -8.604  48.053 -18.816  1.00  0.00     0.080 A 
HETATM   28  C7  UNL     1      -8.422  48.505 -20.231  1.00  0.00     0.048 C 
HETATM   29  C8  UNL     1      -9.969  47.559 -18.446  1.00  0.00     0.048 C 
ENDBRANCH  24  25
ENDBRANCH  23  24
ENDBRANCH  21  23
ENDBRANCH   1  21
BRANCH   9  30
HETATM   30  C18 UNL     1      -1.229  50.919 -26.603  1.00  0.00     0.082 C 
HETATM   31  C19 UNL     1       0.268  50.596 -26.401  1.00  0.00     0.049 C 
HETATM   32  C20 UNL     1      -1.949  49.566 -26.723  1.00  0.00     0.049 C 
BRANCH  30  33
HETATM   33  O2  UNL     1      -1.377  51.493 -27.914  1.00  0.00    -0.388 OA
HETATM   34  H35 UNL     1      -0.582  52.019 -28.107  1.00  0.00     0.210 HD
ENDBRANCH  30  33
ENDBRANCH   9  30
TORSDOF 6
ENDMDL
MODEL 9
REMARK minimizedAffinity -8.24841022
REMARK  6 active torsions:
REMARK  status: ('A' for Active; 'I' for Inactive)
REMARK    1  A    between atoms: C2_2  and  C3_3 
REMARK    2  A    between atoms: C2_2  and  C9_10 
REMARK    3  A    between atoms: C3_3  and  C4_4 
REMARK    4  A    between atoms: C4_4  and  C5_5 
REMARK    5  A    between atoms: C17_18  and  C18_19 
REMARK    6  A    between atoms: C18_19  and  O2_22 
ROOT
HETATM    1  C9  UNL     1      -3.078  51.718 -25.553  1.00  0.00    -0.002 C 
HETATM    2  C10 UNL     1      -2.462  52.824 -24.638  1.00  0.00     0.006 C 
HETATM    3  C11 UNL     1      -2.670  52.372 -23.173  1.00  0.00     0.011 C 
HETATM    4  C12 UNL     1      -3.711  51.243 -23.265  1.00  0.00    -0.032 C 
HETATM    5  C13 UNL     1      -5.096  51.962 -23.408  1.00  0.00     0.016 C 
HETATM    6  C14 UNL     1      -3.723  50.229 -22.081  1.00  0.00     0.003 C 
HETATM    7  C15 UNL     1      -3.954  50.836 -20.687  1.00  0.00     0.009 C 
HETATM    8  C16 UNL     1      -4.426  49.817 -19.646  1.00  0.00     0.042 C 
HETATM    9  C17 UNL     1      -3.931  48.342 -19.795  1.00  0.00     0.095 C 
HETATM   10  O3  UNL     1      -4.847  47.632 -18.930  1.00  0.00    -0.377 OA
HETATM   11  C21 UNL     1      -4.844  46.213 -18.934  1.00  0.00     0.169 C 
HETATM   12  C22 UNL     1      -4.619  45.577 -20.293  1.00  0.00     0.027 C 
HETATM   13  C23 UNL     1      -4.928  46.543 -21.415  1.00  0.00     0.010 C 
HETATM   14  C24 UNL     1      -4.123  47.859 -21.293  1.00  0.00     0.032 C 
HETATM   15  C25 UNL     1      -4.625  48.968 -22.329  1.00  0.00    -0.033 C 
HETATM   16  C26 UNL     1      -6.140  49.284 -22.140  1.00  0.00     0.016 C 
HETATM   17  C27 UNL     1      -4.433  48.402 -23.786  1.00  0.00     0.011 C 
HETATM   18  C28 UNL     1      -4.279  49.434 -24.924  1.00  0.00     0.011 C 
HETATM   19  C29 UNL     1      -3.229  50.506 -24.582  1.00  0.00    -0.032 C 
HETATM   20  C30 UNL     1      -1.851  49.789 -24.452  1.00  0.00     0.016 C 
ENDROOT
BRANCH   1  21
HETATM   21  C2  UNL     1      -2.413  51.617 -26.962  1.00  0.00    -0.014 C 
HETATM   22  C1  UNL     1      -3.198  50.855 -28.035  1.00  0.00     0.010 C 
BRANCH  21  23
HETATM   23  C3  UNL     1      -1.967  53.009 -27.468  1.00  0.00     0.007 C 
BRANCH  23  24
HETATM   24  C4  UNL     1      -0.450  53.232 -27.527  1.00  0.00     0.035 C 
BRANCH  24  25
HETATM   25  C5  UNL     1       0.335  52.280 -26.680  1.00  0.00     0.156 A 
HETATM   26  O1  UNL     1       0.434  50.960 -27.245  1.00  0.00    -0.370 OA
HETATM   27  C6  UNL     1       1.669  51.665 -27.089  1.00  0.00     0.080 A 
HETATM   28  C7  UNL     1       2.334  52.011 -28.385  1.00  0.00     0.048 C 
HETATM   29  C8  UNL     1       2.553  51.109 -26.015  1.00  0.00     0.048 C 
ENDBRANCH  24  25
ENDBRANCH  23  24
ENDBRANCH  21  23
ENDBRANCH   1  21
BRANCH   9  30
HETATM   30  C18 UNL     1      -2.418  48.229 -19.243  1.00  0.00     0.082 C 
HETATM   31  C19 UNL     1      -1.403  47.936 -20.371  1.00  0.00     0.049 C 
HETATM   32  C20 UNL     1      -1.874  49.450 -18.482  1.00  0.00     0.049 C 
BRANCH  30  33
HETATM   33  O2  UNL     1      -2.318  47.165 -18.280  1.00  0.00    -0.388 OA
HETATM   34  H35 UNL     1      -2.119  46.340 -18.757  1.00  0.00     0.210 HD
ENDBRANCH  30  33
ENDBRANCH   9  30
TORSDOF 6
ENDMDL
