MODEL 1
REMARK minimizedAffinity -7.52665472
REMARK CNNscore 0.849318624
REMARK CNNaffinity 7.27609873
REMARK  7 active torsions:
REMARK  status: ('A' for Active; 'I' for Inactive)
REMARK    1  A    between atoms: C2_2  and  C30_33 
REMARK    2  A    between atoms: C3_3  and  C4_4 
REMARK    3  A    between atoms: C4_4  and  C5_5 
REMARK    4  A    between atoms: C5_5  and  C6_6 
REMARK    5  A    between atoms: C6_6  and  C8_8 
REMARK    6  A    between atoms: C10_10  and  O1_11 
REMARK    7  A    between atoms: C30_33  and  O5_35 
ROOT
HETATM    1  C8  UNL     1      -1.876  52.211 -10.929  1.00  0.00     0.001 C 
HETATM    2  C9  UNL     1      -1.119  52.425 -12.265  1.00  0.00     0.038 C 
HETATM    3  C10 UNL     1       0.162  53.222 -11.920  1.00  0.00     0.131 C 
HETATM    4  C11 UNL     1       0.301  53.105 -10.376  1.00  0.00     0.014 C 
HETATM    5  C12 UNL     1       0.978  51.735 -10.046  1.00  0.00     0.023 C 
HETATM    6  C13 UNL     1       1.112  54.134  -9.591  1.00  0.00    -0.058 C 
HETATM    7  C14 UNL     1       0.848  54.386  -8.281  1.00  0.00    -0.000 C 
HETATM    8  C15 UNL     1      -0.364  53.716  -7.634  1.00  0.00     0.157 C 
HETATM    9  O2  UNL     1      -0.577  53.821  -6.427  1.00  0.00    -0.293 OA
HETATM   10  C16 UNL     1      -1.332  52.895  -8.479  1.00  0.00     0.094 C 
HETATM   11  C17 UNL     1      -1.205  53.232  -9.963  1.00  0.00    -0.019 C 
HETATM   12  C18 UNL     1      -1.795  54.660 -10.177  1.00  0.00     0.017 C 
HETATM   13  C19 UNL     1       1.710  55.334  -7.409  1.00  0.00    -0.008 C 
HETATM   14  C20 UNL     1       0.865  56.613  -7.193  1.00  0.00     0.021 C 
HETATM   15  C21 UNL     1       2.041  54.706  -6.016  1.00  0.00     0.022 C 
HETATM   16  C22 UNL     1       3.358  55.141  -5.378  1.00  0.00     0.080 C 
HETATM   17  C23 UNL     1       3.803  56.499  -5.860  1.00  0.00     0.135 C 
HETATM   18  O3  UNL     1       4.051  57.403  -5.063  1.00  0.00    -0.297 OA
HETATM   19  C24 UNL     1       4.012  56.651  -7.370  1.00  0.00     0.018 C 
HETATM   20  C25 UNL     1       3.798  58.119  -7.782  1.00  0.00     0.023 C 
HETATM   21  C26 UNL     1       5.493  56.309  -7.643  1.00  0.00     0.023 C 
HETATM   22  C27 UNL     1       3.087  55.628  -8.117  1.00  0.00     0.014 C 
HETATM   23  C28 UNL     1       2.889  55.958  -9.600  1.00  0.00     0.011 C 
HETATM   24  C29 UNL     1       2.255  54.782 -10.333  1.00  0.00     0.036 C 
ENDROOT
BRANCH   1  25
HETATM   25  C6  UNL     1      -3.431  52.164 -10.996  1.00  0.00    -0.013 C 
HETATM   26  C7  UNL     1      -4.059  52.946 -12.156  1.00  0.00     0.010 C 
BRANCH  25  27
HETATM   27  C5  UNL     1      -3.895  50.683 -11.046  1.00  0.00     0.008 C 
BRANCH  27  28
HETATM   28  C4  UNL     1      -5.008  50.345 -10.049  1.00  0.00     0.028 C 
BRANCH  28  29
HETATM   29  C3  UNL     1      -6.273  49.950 -10.760  1.00  0.00    -0.013 C 
HETATM   30  C2  UNL     1      -7.368  49.348 -10.252  1.00  0.00     0.008 C 
HETATM   31  C1  UNL     1      -8.518  48.935 -11.126  1.00  0.00     0.055 C 
BRANCH  30  32
HETATM   32  C30 UNL     1      -7.562  49.010  -8.822  1.00  0.00     0.171 C 
HETATM   33  O4  UNL     1      -7.180  47.987  -8.284  1.00  0.00    -0.646 OA
BRANCH  32  34
HETATM   34  O5  UNL     1      -8.303  49.908  -8.154  1.00  0.00    -0.773 OA
HETATM   35  H44 UNL     1      -8.371  49.521  -7.257  1.00  0.00     0.167 HD
ENDBRANCH  32  34
ENDBRANCH  30  32
ENDBRANCH  28  29
ENDBRANCH  27  28
ENDBRANCH  25  27
ENDBRANCH   1  25
BRANCH   3  36
HETATM   36  O1  UNL     1       1.281  52.708 -12.626  1.00  0.00    -0.394 OA
HETATM   37  H17 UNL     1       1.073  52.750 -13.576  1.00  0.00     0.210 HD
ENDBRANCH   3  36
TORSDOF 7
ENDMDL
MODEL 2
REMARK minimizedAffinity -7.54056168
REMARK CNNscore 0.76419121
REMARK CNNaffinity 6.63382959
REMARK  7 active torsions:
REMARK  status: ('A' for Active; 'I' for Inactive)
REMARK    1  A    between atoms: C2_2  and  C30_33 
REMARK    2  A    between atoms: C3_3  and  C4_4 
REMARK    3  A    between atoms: C4_4  and  C5_5 
REMARK    4  A    between atoms: C5_5  and  C6_6 
REMARK    5  A    between atoms: C6_6  and  C8_8 
REMARK    6  A    between atoms: C10_10  and  O1_11 
REMARK    7  A    between atoms: C30_33  and  O5_35 
ROOT
HETATM    1  C8  UNL     1       4.681  56.882  -7.287  1.00  0.00     0.001 C 
HETATM    2  C9  UNL     1       5.690  55.867  -7.883  1.00  0.00     0.038 C 
HETATM    3  C10 UNL     1       4.853  54.817  -8.653  1.00  0.00     0.131 C 
HETATM    4  C11 UNL     1       3.447  55.463  -8.806  1.00  0.00     0.014 C 
HETATM    5  C12 UNL     1       3.482  56.437 -10.028  1.00  0.00     0.023 C 
HETATM    6  C13 UNL     1       2.215  54.590  -9.044  1.00  0.00    -0.058 C 
HETATM    7  C14 UNL     1       0.976  55.008  -8.672  1.00  0.00    -0.000 C 
HETATM    8  C15 UNL     1       0.844  56.314  -7.891  1.00  0.00     0.157 C 
HETATM    9  O2  UNL     1      -0.260  56.790  -7.633  1.00  0.00    -0.293 OA
HETATM   10  C16 UNL     1       2.089  57.057  -7.418  1.00  0.00     0.094 C 
HETATM   11  C17 UNL     1       3.313  56.145  -7.401  1.00  0.00    -0.019 C 
HETATM   12  C18 UNL     1       3.134  55.133  -6.228  1.00  0.00     0.017 C 
HETATM   13  C19 UNL     1      -0.318  54.215  -8.992  1.00  0.00    -0.008 C 
HETATM   14  C20 UNL     1      -0.792  53.600  -7.653  1.00  0.00     0.021 C 
HETATM   15  C21 UNL     1      -1.447  55.140  -9.551  1.00  0.00     0.022 C 
HETATM   16  C22 UNL     1      -2.436  54.488 -10.513  1.00  0.00     0.080 C 
HETATM   17  C23 UNL     1      -2.544  53.000 -10.296  1.00  0.00     0.135 C 
HETATM   18  O3  UNL     1      -3.635  52.468 -10.091  1.00  0.00    -0.297 OA
HETATM   19  C24 UNL     1      -1.249  52.195 -10.437  1.00  0.00     0.018 C 
HETATM   20  C25 UNL     1      -1.332  50.916  -9.582  1.00  0.00     0.023 C 
HETATM   21  C26 UNL     1      -1.166  51.755 -11.915  1.00  0.00     0.023 C 
HETATM   22  C27 UNL     1      -0.033  53.124 -10.094  1.00  0.00     0.014 C 
HETATM   23  C28 UNL     1       1.256  52.352  -9.791  1.00  0.00     0.011 C 
HETATM   24  C29 UNL     1       2.455  53.293  -9.776  1.00  0.00     0.036 C 
ENDROOT
BRANCH   1  25
HETATM   25  C6  UNL     1       5.058  57.538  -5.926  1.00  0.00    -0.013 C 
HETATM   26  C7  UNL     1       4.621  56.758  -4.680  1.00  0.00     0.010 C 
BRANCH  25  27
HETATM   27  C5  UNL     1       6.591  57.781  -5.885  1.00  0.00     0.008 C 
BRANCH  27  28
HETATM   28  C4  UNL     1       7.080  58.456  -4.599  1.00  0.00     0.028 C 
BRANCH  28  29
HETATM   29  C3  UNL     1       7.932  59.657  -4.907  1.00  0.00    -0.013 C 
HETATM   30  C2  UNL     1       9.274  59.726  -5.028  1.00  0.00     0.008 C 
HETATM   31  C1  UNL     1       9.980  61.034  -5.247  1.00  0.00     0.055 C 
BRANCH  30  32
HETATM   32  C30 UNL     1      10.191  58.566  -4.943  1.00  0.00     0.171 C 
HETATM   33  O4  UNL     1       9.850  57.397  -4.970  1.00  0.00    -0.646 OA
BRANCH  32  34
HETATM   34  O5  UNL     1      11.472  58.908  -4.730  1.00  0.00    -0.773 OA
HETATM   35  H44 UNL     1      11.926  58.044  -4.656  1.00  0.00     0.167 HD
ENDBRANCH  32  34
ENDBRANCH  30  32
ENDBRANCH  28  29
ENDBRANCH  27  28
ENDBRANCH  25  27
ENDBRANCH   1  25
BRANCH   3  36
HETATM   36  O1  UNL     1       5.463  54.497  -9.894  1.00  0.00    -0.394 OA
HETATM   37  H17 UNL     1       6.361  54.176  -9.706  1.00  0.00     0.210 HD
ENDBRANCH   3  36
TORSDOF 7
ENDMDL
MODEL 3
REMARK minimizedAffinity -7.66014051
REMARK CNNscore 0.705679834
REMARK CNNaffinity 6.24109411
REMARK  7 active torsions:
REMARK  status: ('A' for Active; 'I' for Inactive)
REMARK    1  A    between atoms: C2_2  and  C30_33 
REMARK    2  A    between atoms: C3_3  and  C4_4 
REMARK    3  A    between atoms: C4_4  and  C5_5 
REMARK    4  A    between atoms: C5_5  and  C6_6 
REMARK    5  A    between atoms: C6_6  and  C8_8 
REMARK    6  A    between atoms: C10_10  and  O1_11 
REMARK    7  A    between atoms: C30_33  and  O5_35 
ROOT
HETATM    1  C8  UNL     1     -13.447  45.417 -26.882  1.00  0.00     0.001 C 
HETATM    2  C9  UNL     1     -13.484  46.866 -26.332  1.00  0.00     0.038 C 
HETATM    3  C10 UNL     1     -12.234  47.582 -26.899  1.00  0.00     0.131 C 
HETATM    4  C11 UNL     1     -11.736  46.663 -28.050  1.00  0.00     0.014 C 
HETATM    5  C12 UNL     1     -12.581  46.973 -29.328  1.00  0.00     0.023 C 
HETATM    6  C13 UNL     1     -10.284  46.731 -28.523  1.00  0.00    -0.058 C 
HETATM    7  C14 UNL     1      -9.685  45.660 -29.107  1.00  0.00    -0.000 C 
HETATM    8  C15 UNL     1     -10.445  44.336 -29.169  1.00  0.00     0.157 C 
HETATM    9  O2  UNL     1      -9.993  43.373 -29.787  1.00  0.00    -0.293 OA
HETATM   10  C16 UNL     1     -11.789  44.186 -28.464  1.00  0.00     0.094 C 
HETATM   11  C17 UNL     1     -11.985  45.260 -27.397  1.00  0.00    -0.019 C 
HETATM   12  C18 UNL     1     -11.018  44.938 -26.217  1.00  0.00     0.017 C 
HETATM   13  C19 UNL     1      -8.256  45.710 -29.706  1.00  0.00    -0.008 C 
HETATM   14  C20 UNL     1      -7.350  44.914 -28.735  1.00  0.00     0.021 C 
HETATM   15  C21 UNL     1      -8.191  45.043 -31.118  1.00  0.00     0.022 C 
HETATM   16  C22 UNL     1      -7.139  45.598 -32.076  1.00  0.00     0.080 C 
HETATM   17  C23 UNL     1      -5.980  46.228 -31.346  1.00  0.00     0.135 C 
HETATM   18  O3  UNL     1      -4.824  45.870 -31.566  1.00  0.00    -0.297 OA
HETATM   19  C24 UNL     1      -6.318  47.384 -30.400  1.00  0.00     0.018 C 
HETATM   20  C25 UNL     1      -5.260  47.472 -29.284  1.00  0.00     0.023 C 
HETATM   21  C26 UNL     1      -6.214  48.678 -31.235  1.00  0.00     0.023 C 
HETATM   22  C27 UNL     1      -7.789  47.205 -29.884  1.00  0.00     0.014 C 
HETATM   23  C28 UNL     1      -8.100  48.036 -28.634  1.00  0.00     0.011 C 
HETATM   24  C29 UNL     1      -9.601  48.068 -28.370  1.00  0.00     0.036 C 
ENDROOT
BRANCH   1  25
HETATM   25  C6  UNL     1     -14.036  44.299 -25.972  1.00  0.00    -0.013 C 
HETATM   26  C7  UNL     1     -13.000  43.420 -25.261  1.00  0.00     0.010 C 
BRANCH  25  27
HETATM   27  C5  UNL     1     -14.987  44.942 -24.927  1.00  0.00     0.008 C 
BRANCH  27  28
HETATM   28  C4  UNL     1     -16.475  44.792 -25.263  1.00  0.00     0.028 C 
BRANCH  28  29
HETATM   29  C3  UNL     1     -17.322  44.856 -24.021  1.00  0.00    -0.013 C 
HETATM   30  C2  UNL     1     -18.418  45.607 -23.791  1.00  0.00     0.008 C 
HETATM   31  C1  UNL     1     -19.096  45.622 -22.451  1.00  0.00     0.055 C 
BRANCH  30  32
HETATM   32  C30 UNL     1     -19.057  46.498 -24.787  1.00  0.00     0.171 C 
HETATM   33  O4  UNL     1     -18.990  47.715 -24.788  1.00  0.00    -0.646 OA
BRANCH  32  34
HETATM   34  O5  UNL     1     -19.829  45.847 -25.672  1.00  0.00    -0.773 OA
HETATM   35  H44 UNL     1     -20.203  46.570 -26.217  1.00  0.00     0.167 HD
ENDBRANCH  32  34
ENDBRANCH  30  32
ENDBRANCH  28  29
ENDBRANCH  27  28
ENDBRANCH  25  27
ENDBRANCH   1  25
BRANCH   3  36
HETATM   36  O1  UNL     1     -12.557  48.896 -27.328  1.00  0.00    -0.394 OA
HETATM   37  H17 UNL     1     -12.930  49.370 -26.565  1.00  0.00     0.210 HD
ENDBRANCH   3  36
TORSDOF 7
ENDMDL
MODEL 4
REMARK minimizedAffinity -7.85914421
REMARK CNNscore 0.580793977
REMARK CNNaffinity 7.13961411
REMARK  7 active torsions:
REMARK  status: ('A' for Active; 'I' for Inactive)
REMARK    1  A    between atoms: C2_2  and  C30_33 
REMARK    2  A    between atoms: C3_3  and  C4_4 
REMARK    3  A    between atoms: C4_4  and  C5_5 
REMARK    4  A    between atoms: C5_5  and  C6_6 
REMARK    5  A    between atoms: C6_6  and  C8_8 
REMARK    6  A    between atoms: C10_10  and  O1_11 
REMARK    7  A    between atoms: C30_33  and  O5_35 
ROOT
HETATM    1  C8  UNL     1      -3.656  48.611 -21.955  1.00  0.00     0.001 C 
HETATM    2  C9  UNL     1      -3.983  47.101 -21.828  1.00  0.00     0.038 C 
HETATM    3  C10 UNL     1      -3.881  46.756 -20.322  1.00  0.00     0.131 C 
HETATM    4  C11 UNL     1      -3.886  48.132 -19.597  1.00  0.00     0.014 C 
HETATM    5  C12 UNL     1      -5.367  48.612 -19.462  1.00  0.00     0.023 C 
HETATM    6  C13 UNL     1      -3.307  48.268 -18.190  1.00  0.00    -0.058 C 
HETATM    7  C14 UNL     1      -2.819  49.455 -17.742  1.00  0.00    -0.000 C 
HETATM    8  C15 UNL     1      -2.738  50.630 -18.716  1.00  0.00     0.157 C 
HETATM    9  O2  UNL     1      -2.413  51.752 -18.331  1.00  0.00    -0.293 OA
HETATM   10  C16 UNL     1      -3.066  50.430 -20.192  1.00  0.00     0.094 C 
HETATM   11  C17 UNL     1      -2.995  48.957 -20.587  1.00  0.00    -0.019 C 
HETATM   12  C18 UNL     1      -1.494  48.536 -20.580  1.00  0.00     0.017 C 
HETATM   13  C19 UNL     1      -2.326  49.677 -16.289  1.00  0.00    -0.008 C 
HETATM   14  C20 UNL     1      -0.782  49.769 -16.365  1.00  0.00     0.021 C 
HETATM   15  C21 UNL     1      -2.882  51.004 -15.680  1.00  0.00     0.022 C 
HETATM   16  C22 UNL     1      -3.080  51.018 -14.166  1.00  0.00     0.080 C 
HETATM   17  C23 UNL     1      -2.174  50.039 -13.464  1.00  0.00     0.135 C 
HETATM   18  O3  UNL     1      -1.426  50.406 -12.558  1.00  0.00    -0.297 OA
HETATM   19  C24 UNL     1      -2.306  48.570 -13.879  1.00  0.00     0.018 C 
HETATM   20  C25 UNL     1      -0.973  47.837 -13.636  1.00  0.00     0.023 C 
HETATM   21  C26 UNL     1      -3.355  47.942 -12.936  1.00  0.00     0.023 C 
HETATM   22  C27 UNL     1      -2.820  48.504 -15.359  1.00  0.00     0.014 C 
HETATM   23  C28 UNL     1      -2.596  47.140 -16.020  1.00  0.00     0.011 C 
HETATM   24  C29 UNL     1      -3.383  47.036 -17.321  1.00  0.00     0.036 C 
ENDROOT
BRANCH   1  25
HETATM   25  C6  UNL     1      -2.943  49.073 -23.261  1.00  0.00    -0.013 C 
HETATM   26  C7  UNL     1      -3.558  48.546 -24.563  1.00  0.00     0.010 C 
BRANCH  25  27
HETATM   27  C5  UNL     1      -2.893  50.625 -23.293  1.00  0.00     0.008 C 
BRANCH  27  28
HETATM   28  C4  UNL     1      -1.566  51.194 -23.806  1.00  0.00     0.028 C 
BRANCH  28  29
HETATM   29  C3  UNL     1      -0.782  51.832 -22.693  1.00  0.00    -0.013 C 
HETATM   30  C2  UNL     1       0.250  52.696 -22.781  1.00  0.00     0.008 C 
HETATM   31  C1  UNL     1       0.989  53.169 -21.562  1.00  0.00     0.055 C 
BRANCH  30  32
HETATM   32  C30 UNL     1       0.782  53.253 -24.047  1.00  0.00     0.171 C 
HETATM   33  O4  UNL     1       0.928  54.438 -24.287  1.00  0.00    -0.646 OA
BRANCH  32  34
HETATM   34  O5  UNL     1       1.011  52.323 -24.988  1.00  0.00    -0.773 OA
HETATM   35  H44 UNL     1       1.309  52.851 -25.758  1.00  0.00     0.167 HD
ENDBRANCH  32  34
ENDBRANCH  30  32
ENDBRANCH  28  29
ENDBRANCH  27  28
ENDBRANCH  25  27
ENDBRANCH   1  25
BRANCH   3  36
HETATM   36  O1  UNL     1      -4.949  45.908 -19.926  1.00  0.00    -0.394 OA
HETATM   37  H17 UNL     1      -4.913  45.112 -20.483  1.00  0.00     0.210 HD
ENDBRANCH   3  36
TORSDOF 7
ENDMDL
MODEL 5
REMARK minimizedAffinity -8.2029829
REMARK CNNscore 0.469378322
REMARK CNNaffinity 6.42022514
REMARK  7 active torsions:
REMARK  status: ('A' for Active; 'I' for Inactive)
REMARK    1  A    between atoms: C2_2  and  C30_33 
REMARK    2  A    between atoms: C3_3  and  C4_4 
REMARK    3  A    between atoms: C4_4  and  C5_5 
REMARK    4  A    between atoms: C5_5  and  C6_6 
REMARK    5  A    between atoms: C6_6  and  C8_8 
REMARK    6  A    between atoms: C10_10  and  O1_11 
REMARK    7  A    between atoms: C30_33  and  O5_35 
ROOT
HETATM    1  C8  UNL     1      -7.306  47.375 -19.743  1.00  0.00     0.001 C 
HETATM    2  C9  UNL     1      -7.676  46.401 -20.892  1.00  0.00     0.038 C 
HETATM    3  C10 UNL     1      -6.821  46.820 -22.113  1.00  0.00     0.131 C 
HETATM    4  C11 UNL     1      -5.721  47.750 -21.529  1.00  0.00     0.014 C 
HETATM    5  C12 UNL     1      -4.579  46.855 -20.944  1.00  0.00     0.023 C 
HETATM    6  C13 UNL     1      -5.000  48.756 -22.425  1.00  0.00    -0.058 C 
HETATM    7  C14 UNL     1      -4.455  49.890 -21.911  1.00  0.00    -0.000 C 
HETATM    8  C15 UNL     1      -4.684  50.212 -20.435  1.00  0.00     0.157 C 
HETATM    9  O2  UNL     1      -4.118  51.163 -19.898  1.00  0.00    -0.293 OA
HETATM   10  C16 UNL     1      -5.623  49.352 -19.596  1.00  0.00     0.094 C 
HETATM   11  C17 UNL     1      -6.570  48.537 -20.473  1.00  0.00    -0.019 C 
HETATM   12  C18 UNL     1      -7.597  49.526 -21.107  1.00  0.00     0.017 C 
HETATM   13  C19 UNL     1      -3.617  50.886 -22.754  1.00  0.00    -0.008 C 
HETATM   14  C20 UNL     1      -4.506  52.137 -22.958  1.00  0.00     0.021 C 
HETATM   15  C21 UNL     1      -2.305  51.313 -22.019  1.00  0.00     0.022 C 
HETATM   16  C22 UNL     1      -1.121  51.674 -22.913  1.00  0.00     0.080 C 
HETATM   17  C23 UNL     1      -1.560  52.145 -24.276  1.00  0.00     0.135 C 
HETATM   18  O3  UNL     1      -1.189  53.231 -24.721  1.00  0.00    -0.297 OA
HETATM   19  C24 UNL     1      -2.404  51.165 -25.096  1.00  0.00     0.018 C 
HETATM   20  C25 UNL     1      -3.302  51.942 -26.077  1.00  0.00     0.023 C 
HETATM   21  C26 UNL     1      -1.413  50.334 -25.940  1.00  0.00     0.023 C 
HETATM   22  C27 UNL     1      -3.183  50.221 -24.115  1.00  0.00     0.014 C 
HETATM   23  C28 UNL     1      -4.358  49.493 -24.776  1.00  0.00     0.011 C 
HETATM   24  C29 UNL     1      -4.871  48.373 -23.879  1.00  0.00     0.036 C 
ENDROOT
BRANCH   1  25
HETATM   25  C6  UNL     1      -8.432  47.731 -18.728  1.00  0.00    -0.013 C 
HETATM   26  C7  UNL     1      -8.456  49.193 -18.265  1.00  0.00     0.010 C 
BRANCH  25  27
HETATM   27  C5  UNL     1      -9.808  47.349 -19.337  1.00  0.00     0.008 C 
BRANCH  27  28
HETATM   28  C4  UNL     1     -10.979  48.177 -18.800  1.00  0.00     0.028 C 
BRANCH  28  29
HETATM   29  C3  UNL     1     -12.227  47.940 -19.606  1.00  0.00    -0.013 C 
HETATM   30  C2  UNL     1     -13.503  47.865 -19.175  1.00  0.00     0.008 C 
HETATM   31  C1  UNL     1     -14.631  47.527 -20.107  1.00  0.00     0.055 C 
BRANCH  30  32
HETATM   32  C30 UNL     1     -13.937  48.078 -17.774  1.00  0.00     0.171 C 
HETATM   33  O4  UNL     1     -14.850  48.804 -17.424  1.00  0.00    -0.646 OA
BRANCH  32  34
HETATM   34  O5  UNL     1     -13.158  47.461 -16.871  1.00  0.00    -0.773 OA
HETATM   35  H44 UNL     1     -13.547  47.735 -16.015  1.00  0.00     0.167 HD
ENDBRANCH  32  34
ENDBRANCH  30  32
ENDBRANCH  28  29
ENDBRANCH  27  28
ENDBRANCH  25  27
ENDBRANCH   1  25
BRANCH   3  36
HETATM   36  O1  UNL     1      -6.299  45.679 -22.777  1.00  0.00    -0.394 OA
HETATM   37  H17 UNL     1      -7.052  45.121 -23.037  1.00  0.00     0.210 HD
ENDBRANCH   3  36
TORSDOF 7
ENDMDL
MODEL 6
REMARK minimizedAffinity -9.30372047
REMARK CNNscore 0.385286242
REMARK CNNaffinity 6.93514776
REMARK  7 active torsions:
REMARK  status: ('A' for Active; 'I' for Inactive)
REMARK    1  A    between atoms: C2_2  and  C30_33 
REMARK    2  A    between atoms: C3_3  and  C4_4 
REMARK    3  A    between atoms: C4_4  and  C5_5 
REMARK    4  A    between atoms: C5_5  and  C6_6 
REMARK    5  A    between atoms: C6_6  and  C8_8 
REMARK    6  A    between atoms: C10_10  and  O1_11 
REMARK    7  A    between atoms: C30_33  and  O5_35 
ROOT
HETATM    1  C8  UNL     1      -1.644  48.693 -18.376  1.00  0.00     0.001 C 
HETATM    2  C9  UNL     1      -2.669  47.618 -18.822  1.00  0.00     0.038 C 
HETATM    3  C10 UNL     1      -2.895  47.832 -20.338  1.00  0.00     0.131 C 
HETATM    4  C11 UNL     1      -1.724  48.748 -20.791  1.00  0.00     0.014 C 
HETATM    5  C12 UNL     1      -0.464  47.854 -21.031  1.00  0.00     0.023 C 
HETATM    6  C13 UNL     1      -1.845  49.591 -22.060  1.00  0.00    -0.058 C 
HETATM    7  C14 UNL     1      -1.132  50.739 -22.211  1.00  0.00    -0.000 C 
HETATM    8  C15 UNL     1      -0.300  51.247 -21.035  1.00  0.00     0.157 C 
HETATM    9  O2  UNL     1       0.450  52.214 -21.160  1.00  0.00    -0.293 OA
HETATM   10  C16 UNL     1      -0.381  50.556 -19.678  1.00  0.00     0.094 C 
HETATM   11  C17 UNL     1      -1.646  49.709 -19.556  1.00  0.00    -0.019 C 
HETATM   12  C18 UNL     1      -2.858  50.683 -19.442  1.00  0.00     0.017 C 
HETATM   13  C19 UNL     1      -1.131  51.570 -23.520  1.00  0.00    -0.008 C 
HETATM   14  C20 UNL     1      -1.958  52.845 -23.225  1.00  0.00     0.021 C 
HETATM   15  C21 UNL     1       0.314  51.992 -23.942  1.00  0.00     0.022 C 
HETATM   16  C22 UNL     1       0.553  52.165 -25.440  1.00  0.00     0.080 C 
HETATM   17  C23 UNL     1      -0.715  52.500 -26.184  1.00  0.00     0.135 C 
HETATM   18  O3  UNL     1      -0.784  53.499 -26.899  1.00  0.00    -0.297 OA
HETATM   19  C24 UNL     1      -1.859  51.489 -26.069  1.00  0.00     0.018 C 
HETATM   20  C25 UNL     1      -3.210  52.204 -26.264  1.00  0.00     0.023 C 
HETATM   21  C26 UNL     1      -1.689  50.500 -27.242  1.00  0.00     0.023 C 
HETATM   22  C27 UNL     1      -1.725  50.721 -24.708  1.00  0.00     0.014 C 
HETATM   23  C28 UNL     1      -3.011  50.001 -24.286  1.00  0.00     0.011 C 
HETATM   24  C29 UNL     1      -2.734  49.032 -23.143  1.00  0.00     0.036 C 
ENDROOT
BRANCH   1  25
HETATM   25  C6  UNL     1      -1.781  49.241 -16.924  1.00  0.00    -0.013 C 
HETATM   26  C7  UNL     1      -2.710  48.437 -16.006  1.00  0.00     0.010 C 
BRANCH  25  27
HETATM   27  C5  UNL     1      -0.370  49.347 -16.284  1.00  0.00     0.008 C 
BRANCH  27  28
HETATM   28  C4  UNL     1      -0.100  50.686 -15.591  1.00  0.00     0.028 C 
BRANCH  28  29
HETATM   29  C3  UNL     1       1.023  51.428 -16.262  1.00  0.00    -0.013 C 
HETATM   30  C2  UNL     1       2.226  51.766 -15.755  1.00  0.00     0.008 C 
HETATM   31  C1  UNL     1       3.206  52.597 -16.535  1.00  0.00     0.055 C 
BRANCH  30  32
HETATM   32  C30 UNL     1       2.711  51.394 -14.405  1.00  0.00     0.171 C 
HETATM   33  O4  UNL     1       2.968  50.261 -14.039  1.00  0.00    -0.646 OA
BRANCH  32  34
HETATM   34  O5  UNL     1       2.759  52.425 -13.548  1.00  0.00    -0.773 OA
HETATM   35  H44 UNL     1       3.049  52.008 -12.711  1.00  0.00     0.167 HD
ENDBRANCH  32  34
ENDBRANCH  30  32
ENDBRANCH  28  29
ENDBRANCH  27  28
ENDBRANCH  25  27
ENDBRANCH   1  25
BRANCH   3  36
HETATM   36  O1  UNL     1      -2.933  46.588 -21.022  1.00  0.00    -0.394 OA
HETATM   37  H17 UNL     1      -3.642  46.055 -20.623  1.00  0.00     0.210 HD
ENDBRANCH   3  36
TORSDOF 7
ENDMDL
MODEL 7
REMARK minimizedAffinity -7.7636013
REMARK CNNscore 0.374692887
REMARK CNNaffinity 6.57770681
REMARK  7 active torsions:
REMARK  status: ('A' for Active; 'I' for Inactive)
REMARK    1  A    between atoms: C2_2  and  C30_33 
REMARK    2  A    between atoms: C3_3  and  C4_4 
REMARK    3  A    between atoms: C4_4  and  C5_5 
REMARK    4  A    between atoms: C5_5  and  C6_6 
REMARK    5  A    between atoms: C6_6  and  C8_8 
REMARK    6  A    between atoms: C10_10  and  O1_11 
REMARK    7  A    between atoms: C30_33  and  O5_35 
ROOT
HETATM    1  C8  UNL     1      -2.697  49.366 -21.594  1.00  0.00     0.001 C 
HETATM    2  C9  UNL     1      -2.615  48.999 -23.099  1.00  0.00     0.038 C 
HETATM    3  C10 UNL     1      -3.995  48.409 -23.481  1.00  0.00     0.131 C 
HETATM    4  C11 UNL     1      -4.937  48.809 -22.311  1.00  0.00     0.014 C 
HETATM    5  C12 UNL     1      -5.419  50.278 -22.547  1.00  0.00     0.023 C 
HETATM    6  C13 UNL     1      -6.219  48.022 -22.045  1.00  0.00    -0.058 C 
HETATM    7  C14 UNL     1      -6.772  47.977 -20.803  1.00  0.00    -0.000 C 
HETATM    8  C15 UNL     1      -6.019  48.623 -19.641  1.00  0.00     0.157 C 
HETATM    9  O2  UNL     1      -6.530  48.710 -18.525  1.00  0.00    -0.293 OA
HETATM   10  C16 UNL     1      -4.614  49.180 -19.847  1.00  0.00     0.094 C 
HETATM   11  C17 UNL     1      -3.962  48.603 -21.102  1.00  0.00    -0.019 C 
HETATM   12  C18 UNL     1      -3.626  47.107 -20.815  1.00  0.00     0.017 C 
HETATM   13  C19 UNL     1      -8.128  47.290 -20.503  1.00  0.00    -0.008 C 
HETATM   14  C20 UNL     1      -7.794  45.989 -19.733  1.00  0.00     0.021 C 
HETATM   15  C21 UNL     1      -9.050  48.183 -19.610  1.00  0.00     0.022 C 
HETATM   16  C22 UNL     1     -10.554  48.003 -19.805  1.00  0.00     0.080 C 
HETATM   17  C23 UNL     1     -10.899  46.635 -20.335  1.00  0.00     0.135 C 
HETATM   18  O3  UNL     1     -11.707  45.914 -19.749  1.00  0.00    -0.297 OA
HETATM   19  C24 UNL     1     -10.266  46.242 -21.673  1.00  0.00     0.018 C 
HETATM   20  C25 UNL     1     -10.133  44.710 -21.760  1.00  0.00     0.023 C 
HETATM   21  C26 UNL     1     -11.258  46.681 -22.772  1.00  0.00     0.023 C 
HETATM   22  C27 UNL     1      -8.913  47.019 -21.842  1.00  0.00     0.014 C 
HETATM   23  C28 UNL     1      -7.995  46.415 -22.911  1.00  0.00     0.011 C 
HETATM   24  C29 UNL     1      -6.859  47.374 -23.248  1.00  0.00     0.036 C 
ENDROOT
BRANCH   1  25
HETATM   25  C6  UNL     1      -1.385  49.241 -20.764  1.00  0.00    -0.013 C 
HETATM   26  C7  UNL     1      -0.629  47.916 -20.930  1.00  0.00     0.010 C 
BRANCH  25  27
HETATM   27  C5  UNL     1      -0.447  50.429 -21.110  1.00  0.00     0.008 C 
BRANCH  27  28
HETATM   28  C4  UNL     1      -1.187  51.715 -21.494  1.00  0.00     0.028 C 
BRANCH  28  29
HETATM   29  C3  UNL     1      -0.634  52.301 -22.764  1.00  0.00    -0.013 C 
HETATM   30  C2  UNL     1       0.399  53.155 -22.914  1.00  0.00     0.008 C 
HETATM   31  C1  UNL     1       0.766  53.721 -24.256  1.00  0.00     0.055 C 
BRANCH  30  32
HETATM   32  C30 UNL     1       1.261  53.642 -21.811  1.00  0.00     0.171 C 
HETATM   33  O4  UNL     1       1.490  53.038 -20.779  1.00  0.00    -0.646 OA
BRANCH  32  34
HETATM   34  O5  UNL     1       1.714  54.892 -21.997  1.00  0.00    -0.773 OA
HETATM   35  H44 UNL     1       2.217  55.072 -21.176  1.00  0.00     0.167 HD
ENDBRANCH  32  34
ENDBRANCH  30  32
ENDBRANCH  28  29
ENDBRANCH  27  28
ENDBRANCH  25  27
ENDBRANCH   1  25
BRANCH   3  36
HETATM   36  O1  UNL     1      -4.422  48.903 -24.741  1.00  0.00    -0.394 OA
HETATM   37  H17 UNL     1      -3.738  48.674 -25.394  1.00  0.00     0.210 HD
ENDBRANCH   3  36
TORSDOF 7
ENDMDL
MODEL 8
REMARK minimizedAffinity -8.71547222
REMARK CNNscore 0.347740442
REMARK CNNaffinity 6.55412245
REMARK  7 active torsions:
REMARK  status: ('A' for Active; 'I' for Inactive)
REMARK    1  A    between atoms: C2_2  and  C30_33 
REMARK    2  A    between atoms: C3_3  and  C4_4 
REMARK    3  A    between atoms: C4_4  and  C5_5 
REMARK    4  A    between atoms: C5_5  and  C6_6 
REMARK    5  A    between atoms: C6_6  and  C8_8 
REMARK    6  A    between atoms: C10_10  and  O1_11 
REMARK    7  A    between atoms: C30_33  and  O5_35 
ROOT
HETATM    1  C8  UNL     1      -2.582  48.436 -18.482  1.00  0.00     0.001 C 
HETATM    2  C9  UNL     1      -3.256  47.221 -19.172  1.00  0.00     0.038 C 
HETATM    3  C10 UNL     1      -3.162  47.476 -20.696  1.00  0.00     0.131 C 
HETATM    4  C11 UNL     1      -2.112  48.612 -20.847  1.00  0.00     0.014 C 
HETATM    5  C12 UNL     1      -0.686  47.974 -20.792  1.00  0.00     0.023 C 
HETATM    6  C13 UNL     1      -2.094  49.490 -22.097  1.00  0.00    -0.058 C 
HETATM    7  C14 UNL     1      -1.594  50.754 -22.061  1.00  0.00    -0.000 C 
HETATM    8  C15 UNL     1      -1.166  51.336 -20.715  1.00  0.00     0.157 C 
HETATM    9  O2  UNL     1      -0.603  52.428 -20.646  1.00  0.00    -0.293 OA
HETATM   10  C16 UNL     1      -1.427  50.566 -19.425  1.00  0.00     0.094 C 
HETATM   11  C17 UNL     1      -2.503  49.500 -19.616  1.00  0.00    -0.019 C 
HETATM   12  C18 UNL     1      -3.870  50.232 -19.781  1.00  0.00     0.017 C 
HETATM   13  C19 UNL     1      -1.448  51.644 -23.322  1.00  0.00    -0.008 C 
HETATM   14  C20 UNL     1      -2.546  52.731 -23.215  1.00  0.00     0.021 C 
HETATM   15  C21 UNL     1      -0.051  52.342 -23.384  1.00  0.00     0.022 C 
HETATM   16  C22 UNL     1       0.490  52.640 -24.781  1.00  0.00     0.080 C 
HETATM   17  C23 UNL     1      -0.612  52.783 -25.799  1.00  0.00     0.135 C 
HETATM   18  O3  UNL     1      -0.700  53.792 -26.498  1.00  0.00    -0.297 OA
HETATM   19  C24 UNL     1      -1.541  51.578 -25.972  1.00  0.00     0.018 C 
HETATM   20  C25 UNL     1      -2.919  52.048 -26.472  1.00  0.00     0.023 C 
HETATM   21  C26 UNL     1      -0.922  50.704 -27.084  1.00  0.00     0.023 C 
HETATM   22  C27 UNL     1      -1.582  50.771 -24.627  1.00  0.00     0.014 C 
HETATM   23  C28 UNL     1      -2.771  49.809 -24.531  1.00  0.00     0.011 C 
HETATM   24  C29 UNL     1      -2.588  48.842 -23.367  1.00  0.00     0.036 C 
ENDROOT
BRANCH   1  25
HETATM   25  C6  UNL     1      -3.151  48.867 -17.098  1.00  0.00    -0.013 C 
HETATM   26  C7  UNL     1      -3.566  47.716 -16.173  1.00  0.00     0.010 C 
BRANCH  25  27
HETATM   27  C5  UNL     1      -2.112  49.771 -16.380  1.00  0.00     0.008 C 
BRANCH  27  28
HETATM   28  C4  UNL     1      -2.733  50.791 -15.419  1.00  0.00     0.028 C 
BRANCH  28  29
HETATM   29  C3  UNL     1      -1.730  51.256 -14.398  1.00  0.00    -0.013 C 
HETATM   30  C2  UNL     1      -1.954  51.895 -13.232  1.00  0.00     0.008 C 
HETATM   31  C1  UNL     1      -0.825  52.375 -12.366  1.00  0.00     0.055 C 
BRANCH  30  32
HETATM   32  C30 UNL     1      -3.295  52.211 -12.685  1.00  0.00     0.171 C 
HETATM   33  O4  UNL     1      -3.947  53.204 -12.953  1.00  0.00    -0.646 OA
BRANCH  32  34
HETATM   34  O5  UNL     1      -3.717  51.335 -11.760  1.00  0.00    -0.773 OA
HETATM   35  H44 UNL     1      -4.578  51.706 -11.475  1.00  0.00     0.167 HD
ENDBRANCH  32  34
ENDBRANCH  30  32
ENDBRANCH  28  29
ENDBRANCH  27  28
ENDBRANCH  25  27
ENDBRANCH   1  25
BRANCH   3  36
HETATM   36  O1  UNL     1      -2.807  46.286 -21.385  1.00  0.00    -0.394 OA
HETATM   37  H17 UNL     1      -3.475  45.613 -21.171  1.00  0.00     0.210 HD
ENDBRANCH   3  36
TORSDOF 7
ENDMDL
MODEL 9
REMARK minimizedAffinity -8.37108612
REMARK CNNscore 0.339889318
REMARK CNNaffinity 5.57996178
REMARK  7 active torsions:
REMARK  status: ('A' for Active; 'I' for Inactive)
REMARK    1  A    between atoms: C2_2  and  C30_33 
REMARK    2  A    between atoms: C3_3  and  C4_4 
REMARK    3  A    between atoms: C4_4  and  C5_5 
REMARK    4  A    between atoms: C5_5  and  C6_6 
REMARK    5  A    between atoms: C6_6  and  C8_8 
REMARK    6  A    between atoms: C10_10  and  O1_11 
REMARK    7  A    between atoms: C30_33  and  O5_35 
ROOT
HETATM    1  C8  UNL     1       6.298  67.258 -36.554  1.00  0.00     0.001 C 
HETATM    2  C9  UNL     1       7.094  66.969 -37.854  1.00  0.00     0.038 C 
HETATM    3  C10 UNL     1       6.128  67.254 -39.030  1.00  0.00     0.131 C 
HETATM    4  C11 UNL     1       4.957  68.058 -38.400  1.00  0.00     0.014 C 
HETATM    5  C12 UNL     1       5.388  69.557 -38.296  1.00  0.00     0.023 C 
HETATM    6  C13 UNL     1       3.589  68.097 -39.079  1.00  0.00    -0.058 C 
HETATM    7  C14 UNL     1       2.454  68.313 -38.363  1.00  0.00    -0.000 C 
HETATM    8  C15 UNL     1       2.550  68.389 -36.840  1.00  0.00     0.157 C 
HETATM    9  O2  UNL     1       1.574  68.696 -36.157  1.00  0.00    -0.293 OA
HETATM   10  C16 UNL     1       3.869  68.087 -36.135  1.00  0.00     0.094 C 
HETATM   11  C17 UNL     1       4.817  67.299 -37.036  1.00  0.00    -0.019 C 
HETATM   12  C18 UNL     1       4.245  65.855 -37.178  1.00  0.00     0.017 C 
HETATM   13  C19 UNL     1       1.057  68.475 -39.015  1.00  0.00    -0.008 C 
HETATM   14  C20 UNL     1       0.278  67.175 -38.700  1.00  0.00     0.021 C 
HETATM   15  C21 UNL     1       0.273  69.690 -38.421  1.00  0.00     0.022 C 
HETATM   16  C22 UNL     1      -0.715  70.377 -39.361  1.00  0.00     0.080 C 
HETATM   17  C23 UNL     1      -1.215  69.449 -40.439  1.00  0.00     0.135 C 
HETATM   18  O3  UNL     1      -2.420  69.269 -40.611  1.00  0.00    -0.297 OA
HETATM   19  C24 UNL     1      -0.151  68.828 -41.350  1.00  0.00     0.018 C 
HETATM   20  C25 UNL     1      -0.656  67.482 -41.901  1.00  0.00     0.023 C 
HETATM   21  C26 UNL     1       0.009  69.785 -42.550  1.00  0.00     0.023 C 
HETATM   22  C27 UNL     1       1.202  68.737 -40.562  1.00  0.00     0.014 C 
HETATM   23  C28 UNL     1       2.211  67.772 -41.196  1.00  0.00     0.011 C 
HETATM   24  C29 UNL     1       3.593  67.959 -40.582  1.00  0.00     0.036 C 
ENDROOT
BRANCH   1  25
HETATM   25  C6  UNL     1       6.648  66.397 -35.305  1.00  0.00    -0.013 C 
HETATM   26  C7  UNL     1       5.509  66.216 -34.294  1.00  0.00     0.010 C 
BRANCH  25  27
HETATM   27  C5  UNL     1       7.163  65.008 -35.771  1.00  0.00     0.008 C 
BRANCH  27  28
HETATM   28  C4  UNL     1       7.753  64.152 -34.645  1.00  0.00     0.028 C 
BRANCH  28  29
HETATM   29  C3  UNL     1       7.388  62.703 -34.815  1.00  0.00    -0.013 C 
HETATM   30  C2  UNL     1       8.009  61.616 -34.313  1.00  0.00     0.008 C 
HETATM   31  C1  UNL     1       7.564  60.224 -34.660  1.00  0.00     0.055 C 
BRANCH  30  32
HETATM   32  C30 UNL     1       9.179  61.655 -33.405  1.00  0.00     0.171 C 
HETATM   33  O4  UNL     1      10.329  61.863 -33.749  1.00  0.00    -0.646 OA
BRANCH  32  34
HETATM   34  O5  UNL     1       8.884  61.337 -32.135  1.00  0.00    -0.773 OA
HETATM   35  H44 UNL     1       9.755  61.365 -31.688  1.00  0.00     0.167 HD
ENDBRANCH  32  34
ENDBRANCH  30  32
ENDBRANCH  28  29
ENDBRANCH  27  28
ENDBRANCH  25  27
ENDBRANCH   1  25
BRANCH   3  36
HETATM   36  O1  UNL     1       6.794  67.953 -40.071  1.00  0.00    -0.394 OA
HETATM   37  H17 UNL     1       7.554  67.412 -40.349  1.00  0.00     0.210 HD
ENDBRANCH   3  36
TORSDOF 7
ENDMDL
