MODEL 1
REMARK minimizedAffinity -7.11188078
REMARK CNNscore 0.415232509
REMARK CNNaffinity 7.14996719
REMARK  16 active torsions:
REMARK  status: ('A' for Active; 'I' for Inactive)
REMARK    1  A    between atoms: C2_2  and  C3_3 
REMARK    2  A    between atoms: C4_4  and  C6_6 
REMARK    3  A    between atoms: C6_6  and  C7_7 
REMARK    4  A    between atoms: C7_7  and  C9_9 
REMARK    5  A    between atoms: C9_9  and  C10_10 
REMARK    6  A    between atoms: C9_9  and  O3_30 
REMARK    7  A    between atoms: C10_10  and  C11_11 
REMARK    8  A    between atoms: C23_23  and  C25_25 
REMARK    9  A    between atoms: C25_25  and  C26_27 
REMARK   10  A    between atoms: C26_27  and  C27_28 
REMARK   11  A    between atoms: O3_30  and  C28_31 
REMARK   12  A    between atoms: C29_33  and  C30_34 
REMARK   13  A    between atoms: C30_34  and  O5_35 
REMARK   14  A    between atoms: C31_36  and  O6_37 
REMARK   15  A    between atoms: C32_38  and  O7_39 
REMARK   16  A    between atoms: C33_40  and  O8_41 
ROOT
HETATM    1  C9  UNL     1       0.347  52.639 -11.460  1.00  0.00     0.129 C 
ENDROOT
BRANCH   1   2
HETATM    2  C7  UNL     1      -0.258  51.811 -10.295  1.00  0.00     0.014 C 
HETATM    3  C8  UNL     1       0.645  51.780  -9.056  1.00  0.00     0.012 C 
BRANCH   2   4
HETATM    4  C6  UNL     1      -1.697  52.239  -9.953  1.00  0.00     0.040 C 
BRANCH   4   5
HETATM    5  C4  UNL     1      -2.741  51.895 -10.997  1.00  0.00    -0.087 C 
HETATM    6  C3  UNL     1      -2.477  50.969 -11.943  1.00  0.00    -0.025 C 
HETATM    7  C5  UNL     1      -4.074  52.576 -10.835  1.00  0.00     0.043 C 
BRANCH   6   8
HETATM    8  C2  UNL     1      -3.397  50.472 -13.024  1.00  0.00     0.023 C 
HETATM    9  C1  UNL     1      -3.053  51.107 -14.364  1.00  0.00     0.009 C 
ENDBRANCH   6   8
ENDBRANCH   4   5
ENDBRANCH   2   4
ENDBRANCH   1   2
BRANCH   1  10
HETATM   10  C10 UNL     1       1.141  53.928 -11.135  1.00  0.00     0.042 C 
BRANCH  10  11
HETATM   11  C11 UNL     1       1.163  54.468  -9.670  1.00  0.00     0.032 C 
HETATM   12  C12 UNL     1       0.014  55.379  -9.258  1.00  0.00    -0.082 C 
HETATM   13  C13 UNL     1      -1.166  55.653 -10.146  1.00  0.00     0.043 C 
HETATM   14  C14 UNL     1       0.043  55.908  -8.024  1.00  0.00    -0.019 C 
HETATM   15  C15 UNL     1       1.233  55.783  -7.111  1.00  0.00     0.014 C 
HETATM   16  C16 UNL     1       1.098  56.839  -5.987  1.00  0.00     0.013 C 
HETATM   17  C22 UNL     1       2.539  55.961  -7.922  1.00  0.00     0.013 C 
HETATM   18  C17 UNL     1       2.403  57.212  -5.277  1.00  0.00    -0.018 C 
HETATM   19  C18 UNL     1       2.842  58.630  -5.638  1.00  0.00     0.010 C 
HETATM   20  C19 UNL     1       3.506  56.186  -5.519  1.00  0.00     0.009 C 
HETATM   21  C20 UNL     1       3.800  55.859  -6.996  1.00  0.00    -0.012 C 
HETATM   22  C21 UNL     1       4.986  56.679  -7.523  1.00  0.00     0.010 C 
HETATM   23  C23 UNL     1       2.577  55.102  -9.273  1.00  0.00     0.029 C 
HETATM   24  C24 UNL     1       3.034  56.068 -10.401  1.00  0.00     0.025 C 
BRANCH  23  25
HETATM   25  C25 UNL     1       3.604  53.939  -9.179  1.00  0.00     0.142 C 
HETATM   26  O1  UNL     1       3.453  53.006  -8.383  1.00  0.00    -0.297 OA
BRANCH  25  27
HETATM   27  C26 UNL     1       4.828  53.965 -10.067  1.00  0.00     0.148 C 
BRANCH  27  28
HETATM   28  C27 UNL     1       6.076  53.548  -9.348  1.00  0.00     0.238 C 
HETATM   29  O2  UNL     1       7.080  54.258  -9.309  1.00  0.00    -0.306 OA
ENDBRANCH  27  28
ENDBRANCH  25  27
ENDBRANCH  23  25
ENDBRANCH  10  11
ENDBRANCH   1  10
BRANCH   1  30
HETATM   30  O3  UNL     1       1.287  51.758 -12.121  1.00  0.00    -0.353 OA
BRANCH  30  31
HETATM   31  C28 UNL     1       1.358  51.991 -13.536  1.00  0.00     0.292 C 
HETATM   32  O4  UNL     1       0.459  51.107 -14.199  1.00  0.00    -0.348 OA
HETATM   33  C29 UNL     1       0.473  51.205 -15.641  1.00  0.00     0.179 C 
HETATM   34  C31 UNL     1       1.668  51.985 -16.218  1.00  0.00     0.180 C 
HETATM   35  C32 UNL     1       2.971  51.629 -15.491  1.00  0.00     0.183 C 
HETATM   36  C33 UNL     1       2.816  51.698 -13.964  1.00  0.00     0.204 C 
BRANCH  33  37
HETATM   37  C30 UNL     1       0.457  49.759 -16.165  1.00  0.00     0.198 C 
BRANCH  37  38
HETATM   38  O5  UNL     1       0.066  49.737 -17.538  1.00  0.00    -0.398 OA
HETATM   39  H48 UNL     1      -0.679  50.366 -17.617  1.00  0.00     0.209 HD
ENDBRANCH  37  38
ENDBRANCH  33  37
BRANCH  34  40
HETATM   40  O6  UNL     1       1.445  53.402 -16.082  1.00  0.00    -0.390 OA
HETATM   41  H50 UNL     1       2.310  53.806 -16.313  1.00  0.00     0.210 HD
ENDBRANCH  34  40
BRANCH  35  42
HETATM   42  O7  UNL     1       3.985  52.558 -15.923  1.00  0.00    -0.390 OA
HETATM   43  H52 UNL     1       4.847  52.138 -15.724  1.00  0.00     0.210 HD
ENDBRANCH  35  42
BRANCH  36  44
HETATM   44  O8  UNL     1       3.225  50.414 -13.439  1.00  0.00    -0.388 OA
HETATM   45  H54 UNL     1       2.772  50.329 -12.574  1.00  0.00     0.210 HD
ENDBRANCH  36  44
ENDBRANCH  30  31
ENDBRANCH   1  30
TORSDOF 16
ENDMDL
MODEL 2
REMARK minimizedAffinity -7.91661787
REMARK CNNscore 0.381302267
REMARK CNNaffinity 6.95244837
REMARK  16 active torsions:
REMARK  status: ('A' for Active; 'I' for Inactive)
REMARK    1  A    between atoms: C2_2  and  C3_3 
REMARK    2  A    between atoms: C4_4  and  C6_6 
REMARK    3  A    between atoms: C6_6  and  C7_7 
REMARK    4  A    between atoms: C7_7  and  C9_9 
REMARK    5  A    between atoms: C9_9  and  C10_10 
REMARK    6  A    between atoms: C9_9  and  O3_30 
REMARK    7  A    between atoms: C10_10  and  C11_11 
REMARK    8  A    between atoms: C23_23  and  C25_25 
REMARK    9  A    between atoms: C25_25  and  C26_27 
REMARK   10  A    between atoms: C26_27  and  C27_28 
REMARK   11  A    between atoms: O3_30  and  C28_31 
REMARK   12  A    between atoms: C29_33  and  C30_34 
REMARK   13  A    between atoms: C30_34  and  O5_35 
REMARK   14  A    between atoms: C31_36  and  O6_37 
REMARK   15  A    between atoms: C32_38  and  O7_39 
REMARK   16  A    between atoms: C33_40  and  O8_41 
ROOT
HETATM    1  C9  UNL     1       0.888  52.211 -11.293  1.00  0.00     0.129 C 
ENDROOT
BRANCH   1   2
HETATM    2  C7  UNL     1       2.103  51.336 -11.703  1.00  0.00     0.014 C 
HETATM    3  C8  UNL     1       2.754  50.626 -10.509  1.00  0.00     0.012 C 
BRANCH   2   4
HETATM    4  C6  UNL     1       1.767  50.360 -12.845  1.00  0.00     0.040 C 
BRANCH   4   5
HETATM    5  C4  UNL     1       1.923  50.922 -14.245  1.00  0.00    -0.087 C 
HETATM    6  C3  UNL     1       2.873  51.844 -14.504  1.00  0.00    -0.025 C 
HETATM    7  C5  UNL     1       1.027  50.318 -15.293  1.00  0.00     0.043 C 
BRANCH   6   8
HETATM    8  C2  UNL     1       3.200  52.478 -15.829  1.00  0.00     0.023 C 
HETATM    9  C1  UNL     1       4.653  52.223 -16.209  1.00  0.00     0.009 C 
ENDBRANCH   6   8
ENDBRANCH   4   5
ENDBRANCH   2   4
ENDBRANCH   1   2
BRANCH   1  10
HETATM   10  C10 UNL     1       1.086  53.737 -11.113  1.00  0.00     0.042 C 
BRANCH  10  11
HETATM   11  C11 UNL     1       1.136  54.341  -9.674  1.00  0.00     0.032 C 
HETATM   12  C12 UNL     1       0.005  55.284  -9.287  1.00  0.00    -0.082 C 
HETATM   13  C13 UNL     1      -1.184  55.534 -10.169  1.00  0.00     0.043 C 
HETATM   14  C14 UNL     1       0.058  55.867  -8.078  1.00  0.00    -0.019 C 
HETATM   15  C15 UNL     1       1.260  55.766  -7.177  1.00  0.00     0.014 C 
HETATM   16  C16 UNL     1       1.154  56.872  -6.100  1.00  0.00     0.013 C 
HETATM   17  C22 UNL     1       2.556  55.891  -8.013  1.00  0.00     0.013 C 
HETATM   18  C17 UNL     1       2.474  57.259  -5.425  1.00  0.00    -0.018 C 
HETATM   19  C18 UNL     1       2.925  58.654  -5.854  1.00  0.00     0.010 C 
HETATM   20  C19 UNL     1       3.560  56.209  -5.636  1.00  0.00     0.009 C 
HETATM   21  C20 UNL     1       3.828  55.813  -7.101  1.00  0.00    -0.012 C 
HETATM   22  C21 UNL     1       5.017  56.593  -7.680  1.00  0.00     0.010 C 
HETATM   23  C23 UNL     1       2.563  54.972  -9.326  1.00  0.00     0.029 C 
HETATM   24  C24 UNL     1       3.017  55.882 -10.501  1.00  0.00     0.025 C 
BRANCH  23  25
HETATM   25  C25 UNL     1       3.577  53.802  -9.194  1.00  0.00     0.142 C 
HETATM   26  O1  UNL     1       3.424  52.905  -8.357  1.00  0.00    -0.297 OA
BRANCH  25  27
HETATM   27  C26 UNL     1       4.790  53.774 -10.097  1.00  0.00     0.148 C 
BRANCH  27  28
HETATM   28  C27 UNL     1       6.034  53.337  -9.384  1.00  0.00     0.238 C 
HETATM   29  O2  UNL     1       7.032  54.052  -9.306  1.00  0.00    -0.306 OA
ENDBRANCH  27  28
ENDBRANCH  25  27
ENDBRANCH  23  25
ENDBRANCH  10  11
ENDBRANCH   1  10
BRANCH   1  30
HETATM   30  O3  UNL     1      -0.079  52.068 -12.362  1.00  0.00    -0.353 OA
BRANCH  30  31
HETATM   31  C28 UNL     1      -1.380  52.549 -11.995  1.00  0.00     0.292 C 
HETATM   32  O4  UNL     1      -1.860  51.795 -10.886  1.00  0.00    -0.348 OA
HETATM   33  C29 UNL     1      -3.191  52.148 -10.449  1.00  0.00     0.179 C 
HETATM   34  C31 UNL     1      -3.980  53.021 -11.441  1.00  0.00     0.180 C 
HETATM   35  C32 UNL     1      -3.781  52.545 -12.886  1.00  0.00     0.183 C 
HETATM   36  C33 UNL     1      -2.296  52.340 -13.226  1.00  0.00     0.204 C 
BRANCH  33  37
HETATM   37  C30 UNL     1      -3.920  50.818 -10.190  1.00  0.00     0.198 C 
BRANCH  37  38
HETATM   38  O5  UNL     1      -5.310  50.953 -10.486  1.00  0.00    -0.398 OA
HETATM   39  H48 UNL     1      -5.582  51.817 -10.119  1.00  0.00     0.209 HD
ENDBRANCH  37  38
ENDBRANCH  33  37
BRANCH  34  40
HETATM   40  O6  UNL     1      -3.542  54.391 -11.351  1.00  0.00    -0.390 OA
HETATM   41  H50 UNL     1      -3.966  54.831 -12.119  1.00  0.00     0.210 HD
ENDBRANCH  34  40
BRANCH  35  42
HETATM   42  O7  UNL     1      -4.351  53.538 -13.761  1.00  0.00    -0.390 OA
HETATM   43  H52 UNL     1      -4.513  53.092 -14.617  1.00  0.00     0.210 HD
ENDBRANCH  35  42
BRANCH  36  44
HETATM   44  O8  UNL     1      -2.156  50.985 -13.708  1.00  0.00    -0.388 OA
HETATM   45  H54 UNL     1      -1.218  50.746 -13.548  1.00  0.00     0.210 HD
ENDBRANCH  36  44
ENDBRANCH  30  31
ENDBRANCH   1  30
TORSDOF 16
ENDMDL
MODEL 3
REMARK minimizedAffinity -7.35374308
REMARK CNNscore 0.371957064
REMARK CNNaffinity 6.9582324
REMARK  16 active torsions:
REMARK  status: ('A' for Active; 'I' for Inactive)
REMARK    1  A    between atoms: C2_2  and  C3_3 
REMARK    2  A    between atoms: C4_4  and  C6_6 
REMARK    3  A    between atoms: C6_6  and  C7_7 
REMARK    4  A    between atoms: C7_7  and  C9_9 
REMARK    5  A    between atoms: C9_9  and  C10_10 
REMARK    6  A    between atoms: C9_9  and  O3_30 
REMARK    7  A    between atoms: C10_10  and  C11_11 
REMARK    8  A    between atoms: C23_23  and  C25_25 
REMARK    9  A    between atoms: C25_25  and  C26_27 
REMARK   10  A    between atoms: C26_27  and  C27_28 
REMARK   11  A    between atoms: O3_30  and  C28_31 
REMARK   12  A    between atoms: C29_33  and  C30_34 
REMARK   13  A    between atoms: C30_34  and  O5_35 
REMARK   14  A    between atoms: C31_36  and  O6_37 
REMARK   15  A    between atoms: C32_38  and  O7_39 
REMARK   16  A    between atoms: C33_40  and  O8_41 
ROOT
HETATM    1  C9  UNL     1      -1.868  50.062 -16.077  1.00  0.00     0.129 C 
ENDROOT
BRANCH   1   2
HETATM    2  C7  UNL     1      -0.342  50.058 -15.794  1.00  0.00     0.014 C 
HETATM    3  C8  UNL     1       0.330  48.732 -16.173  1.00  0.00     0.012 C 
BRANCH   2   4
HETATM    4  C6  UNL     1       0.377  51.270 -16.415  1.00  0.00     0.040 C 
BRANCH   4   5
HETATM    5  C4  UNL     1       1.691  51.649 -15.762  1.00  0.00    -0.087 C 
HETATM    6  C3  UNL     1       2.051  51.092 -14.586  1.00  0.00    -0.025 C 
HETATM    7  C5  UNL     1       2.566  52.586 -16.552  1.00  0.00     0.043 C 
BRANCH   6   8
HETATM    8  C2  UNL     1       3.325  51.312 -13.818  1.00  0.00     0.023 C 
HETATM    9  C1  UNL     1       4.068  49.999 -13.612  1.00  0.00     0.009 C 
ENDBRANCH   6   8
ENDBRANCH   4   5
ENDBRANCH   2   4
ENDBRANCH   1   2
BRANCH   1  10
HETATM   10  C10 UNL     1      -2.437  49.101 -17.150  1.00  0.00     0.042 C 
BRANCH  10  11
HETATM   11  C11 UNL     1      -3.380  49.662 -18.261  1.00  0.00     0.032 C 
HETATM   12  C12 UNL     1      -4.645  48.866 -18.551  1.00  0.00    -0.082 C 
HETATM   13  C13 UNL     1      -5.064  47.676 -17.736  1.00  0.00     0.043 C 
HETATM   14  C14 UNL     1      -5.441  49.291 -19.546  1.00  0.00    -0.019 C 
HETATM   15  C15 UNL     1      -5.049  50.400 -20.486  1.00  0.00     0.014 C 
HETATM   16  C16 UNL     1      -5.972  50.336 -21.726  1.00  0.00     0.013 C 
HETATM   17  C22 UNL     1      -3.555  50.264 -20.866  1.00  0.00     0.013 C 
HETATM   18  C17 UNL     1      -5.430  51.021 -22.985  1.00  0.00    -0.018 C 
HETATM   19  C18 UNL     1      -5.046  49.996 -24.050  1.00  0.00     0.010 C 
HETATM   20  C19 UNL     1      -4.290  51.984 -22.671  1.00  0.00     0.009 C 
HETATM   21  C20 UNL     1      -3.119  51.391 -21.864  1.00  0.00    -0.012 C 
HETATM   22  C21 UNL     1      -1.973  50.951 -22.785  1.00  0.00     0.010 C 
HETATM   23  C23 UNL     1      -2.594  50.014 -19.608  1.00  0.00     0.029 C 
HETATM   24  C24 UNL     1      -1.671  48.822 -19.985  1.00  0.00     0.025 C 
BRANCH  23  25
HETATM   25  C25 UNL     1      -1.700  51.253 -19.322  1.00  0.00     0.142 C 
HETATM   26  O1  UNL     1      -2.150  52.258 -18.761  1.00  0.00    -0.297 OA
BRANCH  25  27
HETATM   27  C26 UNL     1      -0.254  51.234 -19.763  1.00  0.00     0.148 C 
BRANCH  27  28
HETATM   28  C27 UNL     1       0.294  52.606 -20.019  1.00  0.00     0.238 C 
HETATM   29  O2  UNL     1       0.352  53.090 -21.148  1.00  0.00    -0.306 OA
ENDBRANCH  27  28
ENDBRANCH  25  27
ENDBRANCH  23  25
ENDBRANCH  10  11
ENDBRANCH   1  10
BRANCH   1  30
HETATM   30  O3  UNL     1      -2.500  49.675 -14.833  1.00  0.00    -0.353 OA
BRANCH  30  31
HETATM   31  C28 UNL     1      -2.694  50.786 -13.945  1.00  0.00     0.292 C 
HETATM   32  O4  UNL     1      -1.425  51.337 -13.604  1.00  0.00    -0.348 OA
HETATM   33  C29 UNL     1      -1.478  52.437 -12.668  1.00  0.00     0.179 C 
HETATM   34  C31 UNL     1      -2.831  52.604 -11.953  1.00  0.00     0.180 C 
HETATM   35  C32 UNL     1      -3.412  51.249 -11.531  1.00  0.00     0.183 C 
HETATM   36  C33 UNL     1      -3.398  50.232 -12.683  1.00  0.00     0.204 C 
BRANCH  33  37
HETATM   37  C30 UNL     1      -0.350  52.186 -11.653  1.00  0.00     0.198 C 
BRANCH  37  38
HETATM   38  O5  UNL     1      -0.013  50.798 -11.623  1.00  0.00    -0.398 OA
HETATM   39  H48 UNL     1      -0.863  50.314 -11.642  1.00  0.00     0.209 HD
ENDBRANCH  37  38
ENDBRANCH  33  37
BRANCH  34  40
HETATM   40  O6  UNL     1      -3.776  53.249 -12.830  1.00  0.00    -0.390 OA
HETATM   41  H50 UNL     1      -4.636  53.162 -12.365  1.00  0.00     0.210 HD
ENDBRANCH  34  40
BRANCH  35  42
HETATM   42  O7  UNL     1      -4.766  51.468 -11.088  1.00  0.00    -0.390 OA
HETATM   43  H52 UNL     1      -5.003  50.697 -10.533  1.00  0.00     0.210 HD
ENDBRANCH  35  42
BRANCH  36  44
HETATM   44  O8  UNL     1      -2.689  49.065 -12.208  1.00  0.00    -0.388 OA
HETATM   45  H54 UNL     1      -2.351  48.618 -13.013  1.00  0.00     0.210 HD
ENDBRANCH  36  44
ENDBRANCH  30  31
ENDBRANCH   1  30
TORSDOF 16
ENDMDL
MODEL 4
REMARK minimizedAffinity -9.69146919
REMARK CNNscore 0.32308051
REMARK CNNaffinity 6.8268981
REMARK  16 active torsions:
REMARK  status: ('A' for Active; 'I' for Inactive)
REMARK    1  A    between atoms: C2_2  and  C3_3 
REMARK    2  A    between atoms: C4_4  and  C6_6 
REMARK    3  A    between atoms: C6_6  and  C7_7 
REMARK    4  A    between atoms: C7_7  and  C9_9 
REMARK    5  A    between atoms: C9_9  and  C10_10 
REMARK    6  A    between atoms: C9_9  and  O3_30 
REMARK    7  A    between atoms: C10_10  and  C11_11 
REMARK    8  A    between atoms: C23_23  and  C25_25 
REMARK    9  A    between atoms: C25_25  and  C26_27 
REMARK   10  A    between atoms: C26_27  and  C27_28 
REMARK   11  A    between atoms: O3_30  and  C28_31 
REMARK   12  A    between atoms: C29_33  and  C30_34 
REMARK   13  A    between atoms: C30_34  and  O5_35 
REMARK   14  A    between atoms: C31_36  and  O6_37 
REMARK   15  A    between atoms: C32_38  and  O7_39 
REMARK   16  A    between atoms: C33_40  and  O8_41 
ROOT
HETATM    1  C9  UNL     1      -0.474  51.704 -22.826  1.00  0.00     0.129 C 
ENDROOT
BRANCH   1   2
HETATM    2  C7  UNL     1       0.424  51.914 -21.578  1.00  0.00     0.014 C 
HETATM    3  C8  UNL     1       1.145  53.268 -21.584  1.00  0.00     0.012 C 
BRANCH   2   4
HETATM    4  C6  UNL     1      -0.331  51.666 -20.259  1.00  0.00     0.040 C 
BRANCH   4   5
HETATM    5  C4  UNL     1       0.163  52.466 -19.069  1.00  0.00    -0.087 C 
HETATM    6  C3  UNL     1       0.749  51.842 -18.027  1.00  0.00    -0.025 C 
HETATM    7  C5  UNL     1       0.034  53.961 -19.192  1.00  0.00     0.043 C 
BRANCH   6   8
HETATM    8  C2  UNL     1       1.333  52.471 -16.791  1.00  0.00     0.023 C 
HETATM    9  C1  UNL     1       2.829  52.703 -16.956  1.00  0.00     0.009 C 
ENDBRANCH   6   8
ENDBRANCH   4   5
ENDBRANCH   2   4
ENDBRANCH   1   2
BRANCH   1  10
HETATM   10  C10 UNL     1      -2.009  51.853 -22.681  1.00  0.00     0.042 C 
BRANCH  10  11
HETATM   11  C11 UNL     1      -2.939  50.672 -23.104  1.00  0.00     0.032 C 
HETATM   12  C12 UNL     1      -3.780  50.877 -24.356  1.00  0.00    -0.082 C 
HETATM   13  C13 UNL     1      -3.645  52.084 -25.240  1.00  0.00     0.043 C 
HETATM   14  C14 UNL     1      -4.636  49.902 -24.705  1.00  0.00    -0.019 C 
HETATM   15  C15 UNL     1      -4.921  48.714 -23.825  1.00  0.00     0.014 C 
HETATM   16  C16 UNL     1      -6.226  48.044 -24.319  1.00  0.00     0.013 C 
HETATM   17  C22 UNL     1      -5.022  49.166 -22.349  1.00  0.00     0.013 C 
HETATM   18  C17 UNL     1      -6.943  47.164 -23.290  1.00  0.00    -0.018 C 
HETATM   19  C18 UNL     1      -8.243  47.812 -22.820  1.00  0.00     0.010 C 
HETATM   20  C19 UNL     1      -6.034  46.781 -22.126  1.00  0.00     0.009 C 
HETATM   21  C20 UNL     1      -5.342  47.955 -21.406  1.00  0.00    -0.012 C 
HETATM   22  C21 UNL     1      -6.119  48.375 -20.151  1.00  0.00     0.010 C 
HETATM   23  C23 UNL     1      -3.828  50.130 -21.890  1.00  0.00     0.029 C 
HETATM   24  C24 UNL     1      -4.485  51.337 -21.163  1.00  0.00     0.025 C 
BRANCH  23  25
HETATM   25  C25 UNL     1      -2.875  49.418 -20.890  1.00  0.00     0.142 C 
HETATM   26  O1  UNL     1      -1.919  48.738 -21.280  1.00  0.00    -0.297 OA
BRANCH  25  27
HETATM   27  C26 UNL     1      -3.140  49.541 -19.406  1.00  0.00     0.148 C 
BRANCH  27  28
HETATM   28  C27 UNL     1      -3.212  50.966 -18.945  1.00  0.00     0.238 C 
HETATM   29  O2  UNL     1      -2.949  51.297 -17.790  1.00  0.00    -0.306 OA
ENDBRANCH  27  28
ENDBRANCH  25  27
ENDBRANCH  23  25
ENDBRANCH  10  11
ENDBRANCH   1  10
BRANCH   1  30
HETATM   30  O3  UNL     1      -0.072  52.720 -23.776  1.00  0.00    -0.353 OA
BRANCH  30  31
HETATM   31  C28 UNL     1      -0.247  52.301 -25.137  1.00  0.00     0.292 C 
HETATM   32  O4  UNL     1       0.975  51.748 -25.615  1.00  0.00    -0.348 OA
HETATM   33  C29 UNL     1       0.947  51.333 -26.999  1.00  0.00     0.179 C 
HETATM   34  C31 UNL     1      -0.259  51.855 -27.800  1.00  0.00     0.180 C 
HETATM   35  C32 UNL     1      -0.560  53.322 -27.465  1.00  0.00     0.183 C 
HETATM   36  C33 UNL     1      -0.621  53.565 -25.948  1.00  0.00     0.204 C 
BRANCH  33  37
HETATM   37  C30 UNL     1       2.268  51.822 -27.617  1.00  0.00     0.198 C 
BRANCH  37  38
HETATM   38  O5  UNL     1       3.375  51.358 -26.843  1.00  0.00    -0.398 OA
HETATM   39  H48 UNL     1       3.120  51.479 -25.907  1.00  0.00     0.209 HD
ENDBRANCH  37  38
ENDBRANCH  33  37
BRANCH  34  40
HETATM   40  O6  UNL     1      -1.430  51.072 -27.497  1.00  0.00    -0.390 OA
HETATM   41  H50 UNL     1      -2.168  51.571 -27.910  1.00  0.00     0.210 HD
ENDBRANCH  34  40
BRANCH  35  42
HETATM   42  O7  UNL     1      -1.824  53.662 -28.067  1.00  0.00    -0.390 OA
HETATM   43  H52 UNL     1      -1.846  54.638 -28.131  1.00  0.00     0.210 HD
ENDBRANCH  35  42
BRANCH  36  44
HETATM   44  O8  UNL     1       0.317  54.625 -25.652  1.00  0.00    -0.388 OA
HETATM   45  H54 UNL     1       0.557  54.505 -24.709  1.00  0.00     0.210 HD
ENDBRANCH  36  44
ENDBRANCH  30  31
ENDBRANCH   1  30
TORSDOF 16
ENDMDL
MODEL 5
REMARK minimizedAffinity -7.04358959
REMARK CNNscore 0.269681722
REMARK CNNaffinity 6.57699728
REMARK  16 active torsions:
REMARK  status: ('A' for Active; 'I' for Inactive)
REMARK    1  A    between atoms: C2_2  and  C3_3 
REMARK    2  A    between atoms: C4_4  and  C6_6 
REMARK    3  A    between atoms: C6_6  and  C7_7 
REMARK    4  A    between atoms: C7_7  and  C9_9 
REMARK    5  A    between atoms: C9_9  and  C10_10 
REMARK    6  A    between atoms: C9_9  and  O3_30 
REMARK    7  A    between atoms: C10_10  and  C11_11 
REMARK    8  A    between atoms: C23_23  and  C25_25 
REMARK    9  A    between atoms: C25_25  and  C26_27 
REMARK   10  A    between atoms: C26_27  and  C27_28 
REMARK   11  A    between atoms: O3_30  and  C28_31 
REMARK   12  A    between atoms: C29_33  and  C30_34 
REMARK   13  A    between atoms: C30_34  and  O5_35 
REMARK   14  A    between atoms: C31_36  and  O6_37 
REMARK   15  A    between atoms: C32_38  and  O7_39 
REMARK   16  A    between atoms: C33_40  and  O8_41 
ROOT
HETATM    1  C9  UNL     1      -6.861  47.452 -23.091  1.00  0.00     0.129 C 
ENDROOT
BRANCH   1   2
HETATM    2  C7  UNL     1      -7.645  46.734 -21.960  1.00  0.00     0.014 C 
HETATM    3  C8  UNL     1      -8.938  47.464 -21.575  1.00  0.00     0.012 C 
BRANCH   2   4
HETATM    4  C6  UNL     1      -7.890  45.245 -22.266  1.00  0.00     0.040 C 
BRANCH   4   5
HETATM    5  C4  UNL     1      -6.877  44.286 -21.671  1.00  0.00    -0.087 C 
HETATM    6  C3  UNL     1      -6.289  44.567 -20.489  1.00  0.00    -0.025 C 
HETATM    7  C5  UNL     1      -6.666  43.006 -22.434  1.00  0.00     0.043 C 
BRANCH   6   8
HETATM    8  C2  UNL     1      -5.302  43.721 -19.732  1.00  0.00     0.023 C 
HETATM    9  C1  UNL     1      -4.014  44.492 -19.473  1.00  0.00     0.009 C 
ENDBRANCH   6   8
ENDBRANCH   4   5
ENDBRANCH   2   4
ENDBRANCH   1   2
BRANCH   1  10
HETATM   10  C10 UNL     1      -5.314  47.376 -23.100  1.00  0.00     0.042 C 
BRANCH  10  11
HETATM   11  C11 UNL     1      -4.480  48.691 -22.990  1.00  0.00     0.032 C 
HETATM   12  C12 UNL     1      -3.713  49.122 -24.233  1.00  0.00    -0.082 C 
HETATM   13  C13 UNL     1      -3.841  48.418 -25.553  1.00  0.00     0.043 C 
HETATM   14  C14 UNL     1      -2.937  50.215 -24.146  1.00  0.00    -0.019 C 
HETATM   15  C15 UNL     1      -2.659  50.915 -22.843  1.00  0.00     0.014 C 
HETATM   16  C16 UNL     1      -1.428  51.833 -23.035  1.00  0.00     0.013 C 
HETATM   17  C22 UNL     1      -2.436  49.871 -21.722  1.00  0.00     0.013 C 
HETATM   18  C17 UNL     1      -0.693  52.226 -21.750  1.00  0.00    -0.018 C 
HETATM   19  C18 UNL     1       0.669  51.541 -21.661  1.00  0.00     0.010 C 
HETATM   20  C19 UNL     1      -1.542  51.988 -20.505  1.00  0.00     0.009 C 
HETATM   21  C20 UNL     1      -2.121  50.568 -20.353  1.00  0.00    -0.012 C 
HETATM   22  C21 UNL     1      -1.240  49.702 -19.441  1.00  0.00     0.010 C 
HETATM   23  C23 UNL     1      -3.543  48.714 -21.694  1.00  0.00     0.029 C 
HETATM   24  C24 UNL     1      -2.775  47.367 -21.599  1.00  0.00     0.025 C 
BRANCH  23  25
HETATM   25  C25 UNL     1      -4.465  48.840 -20.449  1.00  0.00     0.142 C 
HETATM   26  O1  UNL     1      -4.599  47.908 -19.648  1.00  0.00    -0.297 OA
BRANCH  25  27
HETATM   27  C26 UNL     1      -5.233  50.124 -20.228  1.00  0.00     0.148 C 
BRANCH  27  28
HETATM   28  C27 UNL     1      -6.717  49.938 -20.330  1.00  0.00     0.238 C 
HETATM   29  O2  UNL     1      -7.409  49.636 -19.359  1.00  0.00    -0.306 OA
ENDBRANCH  27  28
ENDBRANCH  25  27
ENDBRANCH  23  25
ENDBRANCH  10  11
ENDBRANCH   1  10
BRANCH   1  30
HETATM   30  O3  UNL     1      -7.289  46.826 -24.325  1.00  0.00    -0.353 OA
BRANCH  30  31
HETATM   31  C28 UNL     1      -8.158  47.668 -25.097  1.00  0.00     0.292 C 
HETATM   32  O4  UNL     1      -9.510  47.293 -24.850  1.00  0.00    -0.348 OA
HETATM   33  C29 UNL     1     -10.489  48.035 -25.612  1.00  0.00     0.179 C 
HETATM   34  C31 UNL     1      -9.907  48.850 -26.780  1.00  0.00     0.180 C 
HETATM   35  C32 UNL     1      -8.833  48.057 -27.536  1.00  0.00     0.183 C 
HETATM   36  C33 UNL     1      -7.797  47.439 -26.584  1.00  0.00     0.204 C 
BRANCH  33  37
HETATM   37  C30 UNL     1     -11.506  46.999 -26.120  1.00  0.00     0.198 C 
BRANCH  37  38
HETATM   38  O5  UNL     1     -12.801  47.592 -26.226  1.00  0.00    -0.398 OA
HETATM   39  H48 UNL     1     -12.916  48.136 -25.423  1.00  0.00     0.209 HD
ENDBRANCH  37  38
ENDBRANCH  33  37
BRANCH  34  40
HETATM   40  O6  UNL     1      -9.309  50.065 -26.286  1.00  0.00    -0.390 OA
HETATM   41  H50 UNL     1      -8.825  50.428 -27.059  1.00  0.00     0.210 HD
ENDBRANCH  34  40
BRANCH  35  42
HETATM   42  O7  UNL     1      -8.181  48.958 -28.452  1.00  0.00    -0.390 OA
HETATM   43  H52 UNL     1      -7.753  48.399 -29.132  1.00  0.00     0.210 HD
ENDBRANCH  35  42
BRANCH  36  44
HETATM   44  O8  UNL     1      -7.762  46.020 -26.859  1.00  0.00    -0.388 OA
HETATM   45  H54 UNL     1      -7.429  45.602 -26.037  1.00  0.00     0.210 HD
ENDBRANCH  36  44
ENDBRANCH  30  31
ENDBRANCH   1  30
TORSDOF 16
ENDMDL
MODEL 6
REMARK minimizedAffinity -7.25823498
REMARK CNNscore 0.261668116
REMARK CNNaffinity 6.20055246
REMARK  16 active torsions:
REMARK  status: ('A' for Active; 'I' for Inactive)
REMARK    1  A    between atoms: C2_2  and  C3_3 
REMARK    2  A    between atoms: C4_4  and  C6_6 
REMARK    3  A    between atoms: C6_6  and  C7_7 
REMARK    4  A    between atoms: C7_7  and  C9_9 
REMARK    5  A    between atoms: C9_9  and  C10_10 
REMARK    6  A    between atoms: C9_9  and  O3_30 
REMARK    7  A    between atoms: C10_10  and  C11_11 
REMARK    8  A    between atoms: C23_23  and  C25_25 
REMARK    9  A    between atoms: C25_25  and  C26_27 
REMARK   10  A    between atoms: C26_27  and  C27_28 
REMARK   11  A    between atoms: O3_30  and  C28_31 
REMARK   12  A    between atoms: C29_33  and  C30_34 
REMARK   13  A    between atoms: C30_34  and  O5_35 
REMARK   14  A    between atoms: C31_36  and  O6_37 
REMARK   15  A    between atoms: C32_38  and  O7_39 
REMARK   16  A    between atoms: C33_40  and  O8_41 
ROOT
HETATM    1  C9  UNL     1      -1.692  49.639 -16.929  1.00  0.00     0.129 C 
ENDROOT
BRANCH   1   2
HETATM    2  C7  UNL     1      -1.188  50.740 -15.958  1.00  0.00     0.014 C 
HETATM    3  C8  UNL     1      -2.258  51.181 -14.951  1.00  0.00     0.012 C 
BRANCH   2   4
HETATM    4  C6  UNL     1       0.134  50.356 -15.266  1.00  0.00     0.040 C 
BRANCH   4   5
HETATM    5  C4  UNL     1       1.317  51.247 -15.593  1.00  0.00    -0.087 C 
HETATM    6  C3  UNL     1       2.414  51.232 -14.808  1.00  0.00    -0.025 C 
HETATM    7  C5  UNL     1       1.203  52.042 -16.866  1.00  0.00     0.043 C 
BRANCH   6   8
HETATM    8  C2  UNL     1       3.689  52.008 -14.998  1.00  0.00     0.023 C 
HETATM    9  C1  UNL     1       3.813  52.505 -16.432  1.00  0.00     0.009 C 
ENDBRANCH   6   8
ENDBRANCH   4   5
ENDBRANCH   2   4
ENDBRANCH   1   2
BRANCH   1  10
HETATM   10  C10 UNL     1      -1.224  49.665 -18.405  1.00  0.00     0.042 C 
BRANCH  10  11
HETATM   11  C11 UNL     1      -2.059  50.454 -19.462  1.00  0.00     0.032 C 
HETATM   12  C12 UNL     1      -3.529  50.080 -19.591  1.00  0.00    -0.082 C 
HETATM   13  C13 UNL     1      -4.205  49.105 -18.670  1.00  0.00     0.043 C 
HETATM   14  C14 UNL     1      -4.255  50.698 -20.537  1.00  0.00    -0.019 C 
HETATM   15  C15 UNL     1      -3.642  51.600 -21.575  1.00  0.00     0.014 C 
HETATM   16  C16 UNL     1      -4.662  51.785 -22.724  1.00  0.00     0.013 C 
HETATM   17  C22 UNL     1      -2.307  50.995 -22.074  1.00  0.00     0.013 C 
HETATM   18  C17 UNL     1      -4.068  52.227 -24.065  1.00  0.00    -0.018 C 
HETATM   19  C18 UNL     1      -4.126  51.099 -25.093  1.00  0.00     0.010 C 
HETATM   20  C19 UNL     1      -2.662  52.799 -23.913  1.00  0.00     0.009 C 
HETATM   21  C20 UNL     1      -1.652  51.899 -23.175  1.00  0.00    -0.012 C 
HETATM   22  C21 UNL     1      -0.796  51.095 -24.164  1.00  0.00     0.010 C 
HETATM   23  C23 UNL     1      -1.345  50.501 -20.893  1.00  0.00     0.029 C 
HETATM   24  C24 UNL     1      -0.873  49.070 -21.273  1.00  0.00     0.025 C 
BRANCH  23  25
HETATM   25  C25 UNL     1      -0.091  51.411 -20.763  1.00  0.00     0.142 C 
HETATM   26  O1  UNL     1       1.008  51.062 -21.208  1.00  0.00    -0.297 OA
BRANCH  25  27
HETATM   27  C26 UNL     1      -0.217  52.741 -20.055  1.00  0.00     0.148 C 
BRANCH  27  28
HETATM   28  C27 UNL     1       0.580  53.827 -20.713  1.00  0.00     0.238 C 
HETATM   29  O2  UNL     1       1.645  54.232 -20.252  1.00  0.00    -0.306 OA
ENDBRANCH  27  28
ENDBRANCH  25  27
ENDBRANCH  23  25
ENDBRANCH  10  11
ENDBRANCH   1  10
BRANCH   1  30
HETATM   30  O3  UNL     1      -1.207  48.386 -16.388  1.00  0.00    -0.353 OA
BRANCH  30  31
HETATM   31  C28 UNL     1      -2.149  47.770 -15.497  1.00  0.00     0.292 C 
HETATM   32  O4  UNL     1      -1.476  46.785 -14.718  1.00  0.00    -0.348 OA
HETATM   33  C29 UNL     1      -2.329  46.050 -13.811  1.00  0.00     0.179 C 
HETATM   34  C31 UNL     1      -3.836  46.214 -14.075  1.00  0.00     0.180 C 
HETATM   35  C32 UNL     1      -4.149  46.173 -15.577  1.00  0.00     0.183 C 
HETATM   36  C33 UNL     1      -3.234  47.109 -16.382  1.00  0.00     0.204 C 
BRANCH  33  37
HETATM   37  C30 UNL     1      -1.909  44.576 -13.933  1.00  0.00     0.198 C 
BRANCH  37  38
HETATM   38  O5  UNL     1      -1.232  44.358 -15.172  1.00  0.00    -0.398 OA
HETATM   39  H48 UNL     1      -1.739  44.849 -15.847  1.00  0.00     0.209 HD
ENDBRANCH  37  38
ENDBRANCH  33  37
BRANCH  34  40
HETATM   40  O6  UNL     1      -4.296  47.476 -13.552  1.00  0.00    -0.390 OA
HETATM   41  H50 UNL     1      -5.206  47.568 -13.908  1.00  0.00     0.210 HD
ENDBRANCH  34  40
BRANCH  35  42
HETATM   42  O7  UNL     1      -5.525  46.563 -15.752  1.00  0.00    -0.390 OA
HETATM   43  H52 UNL     1      -5.798  46.226 -16.630  1.00  0.00     0.210 HD
ENDBRANCH  35  42
BRANCH  36  44
HETATM   44  O8  UNL     1      -2.602  46.307 -17.404  1.00  0.00    -0.388 OA
HETATM   45  H54 UNL     1      -1.775  46.781 -17.635  1.00  0.00     0.210 HD
ENDBRANCH  36  44
ENDBRANCH  30  31
ENDBRANCH   1  30
TORSDOF 16
ENDMDL
MODEL 7
REMARK minimizedAffinity -8.57866001
REMARK CNNscore 0.25575754
REMARK CNNaffinity 6.85165739
REMARK  16 active torsions:
REMARK  status: ('A' for Active; 'I' for Inactive)
REMARK    1  A    between atoms: C2_2  and  C3_3 
REMARK    2  A    between atoms: C4_4  and  C6_6 
REMARK    3  A    between atoms: C6_6  and  C7_7 
REMARK    4  A    between atoms: C7_7  and  C9_9 
REMARK    5  A    between atoms: C9_9  and  C10_10 
REMARK    6  A    between atoms: C9_9  and  O3_30 
REMARK    7  A    between atoms: C10_10  and  C11_11 
REMARK    8  A    between atoms: C23_23  and  C25_25 
REMARK    9  A    between atoms: C25_25  and  C26_27 
REMARK   10  A    between atoms: C26_27  and  C27_28 
REMARK   11  A    between atoms: O3_30  and  C28_31 
REMARK   12  A    between atoms: C29_33  and  C30_34 
REMARK   13  A    between atoms: C30_34  and  O5_35 
REMARK   14  A    between atoms: C31_36  and  O6_37 
REMARK   15  A    between atoms: C32_38  and  O7_39 
REMARK   16  A    between atoms: C33_40  and  O8_41 
ROOT
HETATM    1  C9  UNL     1      -2.880  50.335 -23.880  1.00  0.00     0.129 C 
ENDROOT
BRANCH   1   2
HETATM    2  C7  UNL     1      -3.635  49.475 -24.928  1.00  0.00     0.014 C 
HETATM    3  C8  UNL     1      -2.702  48.563 -25.734  1.00  0.00     0.012 C 
BRANCH   2   4
HETATM    4  C6  UNL     1      -4.814  48.697 -24.313  1.00  0.00     0.040 C 
BRANCH   4   5
HETATM    5  C4  UNL     1      -5.825  48.160 -25.308  1.00  0.00    -0.087 C 
HETATM    6  C3  UNL     1      -7.073  47.845 -24.904  1.00  0.00    -0.025 C 
HETATM    7  C5  UNL     1      -5.364  48.104 -26.740  1.00  0.00     0.043 C 
BRANCH   6   8
HETATM    8  C2  UNL     1      -8.213  47.344 -25.750  1.00  0.00     0.023 C 
HETATM    9  C1  UNL     1      -8.152  45.829 -25.899  1.00  0.00     0.009 C 
ENDBRANCH   6   8
ENDBRANCH   4   5
ENDBRANCH   2   4
ENDBRANCH   1   2
BRANCH   1  10
HETATM   10  C10 UNL     1      -1.428  49.954 -23.499  1.00  0.00     0.042 C 
BRANCH  10  11
HETATM   11  C11 UNL     1      -1.090  49.605 -22.015  1.00  0.00     0.032 C 
HETATM   12  C12 UNL     1      -1.918  48.506 -21.364  1.00  0.00    -0.082 C 
HETATM   13  C13 UNL     1      -2.922  47.685 -22.122  1.00  0.00     0.043 C 
HETATM   14  C14 UNL     1      -1.691  48.230 -20.070  1.00  0.00    -0.019 C 
HETATM   15  C15 UNL     1      -0.791  49.070 -19.203  1.00  0.00     0.014 C 
HETATM   16  C16 UNL     1      -1.091  48.737 -17.722  1.00  0.00     0.013 C 
HETATM   17  C22 UNL     1      -1.010  50.570 -19.517  1.00  0.00     0.013 C 
HETATM   18  C17 UNL     1      -0.670  49.806 -16.709  1.00  0.00    -0.018 C 
HETATM   19  C18 UNL     1      -1.887  50.501 -16.102  1.00  0.00     0.010 C 
HETATM   20  C19 UNL     1       0.328  50.798 -17.299  1.00  0.00     0.009 C 
HETATM   21  C20 UNL     1      -0.104  51.476 -18.614  1.00  0.00    -0.012 C 
HETATM   22  C21 UNL     1      -0.725  52.855 -18.352  1.00  0.00     0.010 C 
HETATM   23  C23 UNL     1      -1.015  50.903 -21.083  1.00  0.00     0.029 C 
HETATM   24  C24 UNL     1      -2.265  51.789 -21.345  1.00  0.00     0.025 C 
BRANCH  23  25
HETATM   25  C25 UNL     1       0.249  51.707 -21.497  1.00  0.00     0.142 C 
HETATM   26  O1  UNL     1       1.324  51.144 -21.735  1.00  0.00    -0.297 OA
BRANCH  25  27
HETATM   27  C26 UNL     1       0.166  53.214 -21.587  1.00  0.00     0.148 C 
BRANCH  27  28
HETATM   28  C27 UNL     1       1.432  53.893 -21.156  1.00  0.00     0.238 C 
HETATM   29  O2  UNL     1       1.934  54.814 -21.797  1.00  0.00    -0.306 OA
ENDBRANCH  27  28
ENDBRANCH  25  27
ENDBRANCH  23  25
ENDBRANCH  10  11
ENDBRANCH   1  10
BRANCH   1  30
HETATM   30  O3  UNL     1      -2.797  51.664 -24.450  1.00  0.00    -0.353 OA
BRANCH  30  31
HETATM   31  C28 UNL     1      -1.538  51.910 -25.093  1.00  0.00     0.292 C 
HETATM   32  O4  UNL     1      -0.956  53.089 -24.543  1.00  0.00    -0.348 OA
HETATM   33  C29 UNL     1       0.299  53.478 -25.145  1.00  0.00     0.179 C 
HETATM   34  C31 UNL     1       0.619  52.767 -26.472  1.00  0.00     0.180 C 
HETATM   35  C32 UNL     1      -0.624  52.659 -27.364  1.00  0.00     0.183 C 
HETATM   36  C33 UNL     1      -1.837  52.108 -26.598  1.00  0.00     0.204 C 
BRANCH  33  37
HETATM   37  C30 UNL     1       0.220  55.001 -25.345  1.00  0.00     0.198 C 
BRANCH  37  38
HETATM   38  O5  UNL     1       1.135  55.660 -24.469  1.00  0.00    -0.398 OA
HETATM   39  H48 UNL     1       1.056  55.207 -23.606  1.00  0.00     0.209 HD
ENDBRANCH  37  38
ENDBRANCH  33  37
BRANCH  34  40
HETATM   40  O6  UNL     1       1.108  51.435 -26.214  1.00  0.00    -0.390 OA
HETATM   41  H50 UNL     1       1.123  51.008 -27.097  1.00  0.00     0.210 HD
ENDBRANCH  34  40
BRANCH  35  42
HETATM   42  O7  UNL     1      -0.303  51.788 -28.466  1.00  0.00    -0.390 OA
HETATM   43  H52 UNL     1      -0.953  51.984 -29.171  1.00  0.00     0.210 HD
ENDBRANCH  35  42
BRANCH  36  44
HETATM   44  O8  UNL     1      -2.908  53.066 -26.757  1.00  0.00    -0.388 OA
HETATM   45  H54 UNL     1      -3.502  52.923 -25.989  1.00  0.00     0.210 HD
ENDBRANCH  36  44
ENDBRANCH  30  31
ENDBRANCH   1  30
TORSDOF 16
ENDMDL
MODEL 8
REMARK minimizedAffinity -7.74540854
REMARK CNNscore 0.253908634
REMARK CNNaffinity 6.4983182
REMARK  16 active torsions:
REMARK  status: ('A' for Active; 'I' for Inactive)
REMARK    1  A    between atoms: C2_2  and  C3_3 
REMARK    2  A    between atoms: C4_4  and  C6_6 
REMARK    3  A    between atoms: C6_6  and  C7_7 
REMARK    4  A    between atoms: C7_7  and  C9_9 
REMARK    5  A    between atoms: C9_9  and  C10_10 
REMARK    6  A    between atoms: C9_9  and  O3_30 
REMARK    7  A    between atoms: C10_10  and  C11_11 
REMARK    8  A    between atoms: C23_23  and  C25_25 
REMARK    9  A    between atoms: C25_25  and  C26_27 
REMARK   10  A    between atoms: C26_27  and  C27_28 
REMARK   11  A    between atoms: O3_30  and  C28_31 
REMARK   12  A    between atoms: C29_33  and  C30_34 
REMARK   13  A    between atoms: C30_34  and  O5_35 
REMARK   14  A    between atoms: C31_36  and  O6_37 
REMARK   15  A    between atoms: C32_38  and  O7_39 
REMARK   16  A    between atoms: C33_40  and  O8_41 
ROOT
HETATM    1  C9  UNL     1      -4.052  48.612 -23.966  1.00  0.00     0.129 C 
ENDROOT
BRANCH   1   2
HETATM    2  C7  UNL     1      -2.806  48.831 -24.865  1.00  0.00     0.014 C 
HETATM    3  C8  UNL     1      -3.078  48.525 -26.344  1.00  0.00     0.012 C 
BRANCH   2   4
HETATM    4  C6  UNL     1      -2.174  50.221 -24.669  1.00  0.00     0.040 C 
BRANCH   4   5
HETATM    5  C4  UNL     1      -1.846  50.970 -25.946  1.00  0.00    -0.087 C 
HETATM    6  C3  UNL     1      -0.632  50.838 -26.518  1.00  0.00    -0.025 C 
HETATM    7  C5  UNL     1      -2.977  51.764 -26.544  1.00  0.00     0.043 C 
BRANCH   6   8
HETATM    8  C2  UNL     1      -0.146  51.464 -27.797  1.00  0.00     0.023 C 
HETATM    9  C1  UNL     1       1.330  51.823 -27.699  1.00  0.00     0.009 C 
ENDBRANCH   6   8
ENDBRANCH   4   5
ENDBRANCH   2   4
ENDBRANCH   1   2
BRANCH   1  10
HETATM   10  C10 UNL     1      -4.180  49.417 -22.649  1.00  0.00     0.042 C 
BRANCH  10  11
HETATM   11  C11 UNL     1      -3.592  48.829 -21.328  1.00  0.00     0.032 C 
HETATM   12  C12 UNL     1      -4.535  48.000 -20.467  1.00  0.00    -0.082 C 
HETATM   13  C13 UNL     1      -5.924  47.631 -20.904  1.00  0.00     0.043 C 
HETATM   14  C14 UNL     1      -4.072  47.536 -19.295  1.00  0.00    -0.019 C 
HETATM   15  C15 UNL     1      -2.740  47.946 -18.724  1.00  0.00     0.014 C 
HETATM   16  C16 UNL     1      -2.721  47.581 -17.221  1.00  0.00     0.013 C 
HETATM   17  C22 UNL     1      -2.511  49.459 -18.959  1.00  0.00     0.013 C 
HETATM   18  C17 UNL     1      -1.702  48.347 -16.372  1.00  0.00    -0.018 C 
HETATM   19  C18 UNL     1      -2.396  49.336 -15.436  1.00  0.00     0.010 C 
HETATM   20  C19 UNL     1      -0.627  49.014 -17.223  1.00  0.00     0.009 C 
HETATM   21  C20 UNL     1      -1.141  49.924 -18.355  1.00  0.00    -0.012 C 
HETATM   22  C21 UNL     1      -1.159  51.397 -17.922  1.00  0.00     0.010 C 
HETATM   23  C23 UNL     1      -2.828  49.931 -20.456  1.00  0.00     0.029 C 
HETATM   24  C24 UNL     1      -3.722  51.198 -20.342  1.00  0.00     0.025 C 
BRANCH  23  25
HETATM   25  C25 UNL     1      -1.529  50.317 -21.217  1.00  0.00     0.142 C 
HETATM   26  O1  UNL     1      -0.697  49.465 -21.547  1.00  0.00    -0.297 OA
BRANCH  25  27
HETATM   27  C26 UNL     1      -1.268  51.772 -21.538  1.00  0.00     0.148 C 
BRANCH  27  28
HETATM   28  C27 UNL     1       0.092  52.002 -22.124  1.00  0.00     0.238 C 
HETATM   29  O2  UNL     1       0.951  52.669 -21.549  1.00  0.00    -0.306 OA
ENDBRANCH  27  28
ENDBRANCH  25  27
ENDBRANCH  23  25
ENDBRANCH  10  11
ENDBRANCH   1  10
BRANCH   1  30
HETATM   30  O3  UNL     1      -5.192  48.997 -24.771  1.00  0.00    -0.353 OA
BRANCH  30  31
HETATM   31  C28 UNL     1      -6.228  48.005 -24.770  1.00  0.00     0.292 C 
HETATM   32  O4  UNL     1      -6.615  47.734 -26.113  1.00  0.00    -0.348 OA
HETATM   33  C29 UNL     1      -7.696  46.783 -26.248  1.00  0.00     0.179 C 
HETATM   34  C31 UNL     1      -8.454  46.486 -24.942  1.00  0.00     0.180 C 
HETATM   35  C32 UNL     1      -8.697  47.767 -24.133  1.00  0.00     0.183 C 
HETATM   36  C33 UNL     1      -7.415  48.601 -23.975  1.00  0.00     0.204 C 
BRANCH  33  37
HETATM   37  C30 UNL     1      -8.643  47.363 -27.312  1.00  0.00     0.198 C 
BRANCH  37  38
HETATM   38  O5  UNL     1      -8.561  48.789 -27.319  1.00  0.00    -0.398 OA
HETATM   39  H48 UNL     1      -8.543  49.063 -26.381  1.00  0.00     0.209 HD
ENDBRANCH  37  38
ENDBRANCH  33  37
BRANCH  34  40
HETATM   40  O6  UNL     1      -7.695  45.572 -24.126  1.00  0.00    -0.390 OA
HETATM   41  H50 UNL     1      -8.161  45.575 -23.262  1.00  0.00     0.210 HD
ENDBRANCH  34  40
BRANCH  35  42
HETATM   42  O7  UNL     1      -9.194  47.382 -22.836  1.00  0.00    -0.390 OA
HETATM   43  H52 UNL     1      -9.642  48.171 -22.468  1.00  0.00     0.210 HD
ENDBRANCH  35  42
BRANCH  36  44
HETATM   44  O8  UNL     1      -7.710  49.927 -24.469  1.00  0.00    -0.388 OA
HETATM   45  H54 UNL     1      -6.844  50.308 -24.728  1.00  0.00     0.210 HD
ENDBRANCH  36  44
ENDBRANCH  30  31
ENDBRANCH   1  30
TORSDOF 16
ENDMDL
MODEL 9
REMARK minimizedAffinity -8.63414574
REMARK CNNscore 0.251902342
REMARK CNNaffinity 6.69242239
REMARK  16 active torsions:
REMARK  status: ('A' for Active; 'I' for Inactive)
REMARK    1  A    between atoms: C2_2  and  C3_3 
REMARK    2  A    between atoms: C4_4  and  C6_6 
REMARK    3  A    between atoms: C6_6  and  C7_7 
REMARK    4  A    between atoms: C7_7  and  C9_9 
REMARK    5  A    between atoms: C9_9  and  C10_10 
REMARK    6  A    between atoms: C9_9  and  O3_30 
REMARK    7  A    between atoms: C10_10  and  C11_11 
REMARK    8  A    between atoms: C23_23  and  C25_25 
REMARK    9  A    between atoms: C25_25  and  C26_27 
REMARK   10  A    between atoms: C26_27  and  C27_28 
REMARK   11  A    between atoms: O3_30  and  C28_31 
REMARK   12  A    between atoms: C29_33  and  C30_34 
REMARK   13  A    between atoms: C30_34  and  O5_35 
REMARK   14  A    between atoms: C31_36  and  O6_37 
REMARK   15  A    between atoms: C32_38  and  O7_39 
REMARK   16  A    between atoms: C33_40  and  O8_41 
ROOT
HETATM    1  C9  UNL     1      -1.051  50.581 -22.322  1.00  0.00     0.129 C 
ENDROOT
BRANCH   1   2
HETATM    2  C7  UNL     1      -0.676  50.897 -23.794  1.00  0.00     0.014 C 
HETATM    3  C8  UNL     1      -1.819  50.606 -24.775  1.00  0.00     0.012 C 
BRANCH   2   4
HETATM    4  C6  UNL     1      -0.112  52.319 -23.968  1.00  0.00     0.040 C 
BRANCH   4   5
HETATM    5  C4  UNL     1       0.545  52.596 -25.306  1.00  0.00    -0.087 C 
HETATM    6  C3  UNL     1       1.448  51.730 -25.812  1.00  0.00    -0.025 C 
HETATM    7  C5  UNL     1       0.052  53.819 -26.034  1.00  0.00     0.043 C 
BRANCH   6   8
HETATM    8  C2  UNL     1       2.165  51.817 -27.132  1.00  0.00     0.023 C 
HETATM    9  C1  UNL     1       1.201  51.583 -28.288  1.00  0.00     0.009 C 
ENDBRANCH   6   8
ENDBRANCH   4   5
ENDBRANCH   2   4
ENDBRANCH   1   2
BRANCH   1  10
HETATM   10  C10 UNL     1      -1.659  51.703 -21.443  1.00  0.00     0.042 C 
BRANCH  10  11
HETATM   11  C11 UNL     1      -0.935  52.124 -20.125  1.00  0.00     0.032 C 
HETATM   12  C12 UNL     1       0.394  52.851 -20.276  1.00  0.00    -0.082 C 
HETATM   13  C13 UNL     1       0.942  53.279 -21.607  1.00  0.00     0.043 C 
HETATM   14  C14 UNL     1       1.067  53.168 -19.158  1.00  0.00    -0.019 C 
HETATM   15  C15 UNL     1       0.655  52.683 -17.793  1.00  0.00     0.014 C 
HETATM   16  C16 UNL     1       1.852  52.866 -16.829  1.00  0.00     0.013 C 
HETATM   17  C22 UNL     1       0.195  51.208 -17.876  1.00  0.00     0.013 C 
HETATM   18  C17 UNL     1       1.820  51.996 -15.569  1.00  0.00    -0.018 C 
HETATM   19  C18 UNL     1       2.890  50.907 -15.621  1.00  0.00     0.010 C 
HETATM   20  C19 UNL     1       0.430  51.428 -15.296  1.00  0.00     0.009 C 
HETATM   21  C20 UNL     1      -0.219  50.663 -16.466  1.00  0.00    -0.012 C 
HETATM   22  C21 UNL     1      -0.002  49.150 -16.331  1.00  0.00     0.010 C 
HETATM   23  C23 UNL     1      -0.823  50.920 -19.078  1.00  0.00     0.029 C 
HETATM   24  C24 UNL     1      -0.296  49.656 -19.813  1.00  0.00     0.025 C 
BRANCH  23  25
HETATM   25  C25 UNL     1      -2.254  50.619 -18.552  1.00  0.00     0.142 C 
HETATM   26  O1  UNL     1      -3.011  51.525 -18.186  1.00  0.00    -0.297 OA
BRANCH  25  27
HETATM   27  C26 UNL     1      -2.718  49.182 -18.463  1.00  0.00     0.148 C 
BRANCH  27  28
HETATM   28  C27 UNL     1      -3.649  48.943 -17.312  1.00  0.00     0.238 C 
HETATM   29  O2  UNL     1      -3.745  47.847 -16.763  1.00  0.00    -0.306 OA
ENDBRANCH  27  28
ENDBRANCH  25  27
ENDBRANCH  23  25
ENDBRANCH  10  11
ENDBRANCH   1  10
BRANCH   1  30
HETATM   30  O3  UNL     1      -2.061  49.546 -22.386  1.00  0.00    -0.353 OA
BRANCH  30  31
HETATM   31  C28 UNL     1      -3.393  50.079 -22.444  1.00  0.00     0.292 C 
HETATM   32  O4  UNL     1      -3.961  50.056 -21.138  1.00  0.00    -0.348 OA
HETATM   33  C29 UNL     1      -5.328  50.521 -21.069  1.00  0.00     0.179 C 
HETATM   34  C31 UNL     1      -6.034  50.639 -22.431  1.00  0.00     0.180 C 
HETATM   35  C32 UNL     1      -5.707  49.444 -23.336  1.00  0.00     0.183 C 
HETATM   36  C33 UNL     1      -4.197  49.164 -23.399  1.00  0.00     0.204 C 
BRANCH  33  37
HETATM   37  C30 UNL     1      -6.067  49.531 -20.153  1.00  0.00     0.198 C 
BRANCH  37  38
HETATM   38  O5  UNL     1      -7.364  50.035 -19.828  1.00  0.00    -0.398 OA
HETATM   39  H48 UNL     1      -7.244  50.986 -19.638  1.00  0.00     0.209 HD
ENDBRANCH  37  38
ENDBRANCH  33  37
BRANCH  34  40
HETATM   40  O6  UNL     1      -5.613  51.844 -23.103  1.00  0.00    -0.390 OA
HETATM   41  H50 UNL     1      -5.973  51.751 -24.012  1.00  0.00     0.210 HD
ENDBRANCH  34  40
BRANCH  35  42
HETATM   42  O7  UNL     1      -6.206  49.740 -24.655  1.00  0.00    -0.390 OA
HETATM   43  H52 UNL     1      -6.291  48.881 -25.117  1.00  0.00     0.210 HD
ENDBRANCH  35  42
BRANCH  36  44
HETATM   44  O8  UNL     1      -4.007  47.783 -23.020  1.00  0.00    -0.388 OA
HETATM   45  H54 UNL     1      -3.085  47.727 -22.689  1.00  0.00     0.210 HD
ENDBRANCH  36  44
ENDBRANCH  30  31
ENDBRANCH   1  30
TORSDOF 16
ENDMDL
