MODEL 1
REMARK minimizedAffinity -11.0680828
REMARK  7 active torsions:
REMARK  status: ('A' for Active; 'I' for Inactive)
REMARK    1  A    between atoms: C4_4  and  C5_5 
REMARK    2  A    between atoms: C5_5  and  C6_6 
REMARK    3  A    between atoms: C6_6  and  C7_7 
REMARK    4  A    between atoms: C7_7  and  C9_9 
REMARK    5  A    between atoms: C18_18  and  O1_19 
REMARK    6  A    between atoms: O1_19  and  C19_20 
REMARK    7  A    between atoms: C19_20  and  C20_22 
ROOT
HETATM    1  C9  UNL     1      -6.331   6.602  13.914  1.00  0.00    -0.002 C 
HETATM    2  C10 UNL     1      -6.346   8.131  14.187  1.00  0.00     0.006 C 
HETATM    3  C11 UNL     1      -4.924   8.656  13.959  1.00  0.00     0.010 C 
HETATM    4  C12 UNL     1      -4.185   7.476  13.337  1.00  0.00     0.023 C 
HETATM    5  C13 UNL     1      -2.677   7.451  13.286  1.00  0.00    -0.070 C 
HETATM    6  C14 UNL     1      -1.907   8.515  13.560  1.00  0.00     0.004 C 
HETATM    7  C15 UNL     1      -0.497   8.532  13.273  1.00  0.00     0.004 C 
HETATM    8  C16 UNL     1       0.190   7.425  12.947  1.00  0.00    -0.069 C 
HETATM    9  C17 UNL     1       1.678   7.490  12.685  1.00  0.00     0.067 C 
HETATM   10  C18 UNL     1       2.094   6.700  11.442  1.00  0.00     0.136 C 
HETATM   11  C26 UNL     1       1.575   5.263  11.527  1.00  0.00     0.034 C 
HETATM   12  C27 UNL     1       0.055   5.241  11.673  1.00  0.00     0.017 C 
HETATM   13  C28 UNL     1      -0.487   6.049  12.889  1.00  0.00    -0.013 C 
HETATM   14  C29 UNL     1      -0.100   5.323  14.202  1.00  0.00     0.021 C 
HETATM   15  C30 UNL     1      -2.072   6.166  12.719  1.00  0.00     0.027 C 
HETATM   16  C31 UNL     1      -2.824   4.890  13.188  1.00  0.00     0.011 C 
HETATM   17  C32 UNL     1      -4.355   5.018  13.217  1.00  0.00     0.011 C 
HETATM   18  C33 UNL     1      -4.812   6.243  14.036  1.00  0.00    -0.033 C 
HETATM   19  C34 UNL     1      -4.382   6.117  15.518  1.00  0.00     0.016 C 
ENDROOT
BRANCH  10  20
HETATM   20  O1  UNL     1       3.535   6.688  11.395  1.00  0.00    -0.312 OA
BRANCH  20  21
HETATM   21  C19 UNL     1       4.086   6.189  10.259  1.00  0.00     0.293 C 
HETATM   22  O2  UNL     1       5.019   5.405  10.199  1.00  0.00    -0.259 OA
BRANCH  21  23
HETATM   23  C20 UNL     1       3.389   6.728   9.059  1.00  0.00     0.039 A 
HETATM   24  C21 UNL     1       2.876   5.812   8.127  1.00  0.00     0.017 A 
HETATM   25  C22 UNL     1       2.213   6.266   6.986  1.00  0.00     0.001 A 
HETATM   26  C23 UNL     1       2.059   7.634   6.766  1.00  0.00     0.000 A 
HETATM   27  C24 UNL     1       2.569   8.552   7.686  1.00  0.00     0.001 A 
HETATM   28  C25 UNL     1       3.232   8.102   8.831  1.00  0.00     0.017 A 
ENDBRANCH  21  23
ENDBRANCH  20  21
ENDBRANCH  10  20
BRANCH   1  29
HETATM   29  C7  UNL     1      -7.377   5.830  14.774  1.00  0.00    -0.014 C 
HETATM   30  C8  UNL     1      -7.136   6.017  16.279  1.00  0.00     0.010 C 
BRANCH  29  31
HETATM   31  C6  UNL     1      -7.370   4.299  14.491  1.00  0.00     0.008 C 
BRANCH  31  32
HETATM   32  C5  UNL     1      -7.912   3.896  13.113  1.00  0.00     0.028 C 
BRANCH  32  33
HETATM   33  C4  UNL     1      -7.332   2.577  12.675  1.00  0.00    -0.025 C 
HETATM   34  C2  UNL     1      -6.409   2.350  11.719  1.00  0.00    -0.091 C 
HETATM   35  C1  UNL     1      -5.931   0.950  11.435  1.00  0.00     0.042 C 
HETATM   36  C3  UNL     1      -5.774   3.403  10.853  1.00  0.00     0.042 C 
ENDBRANCH  32  33
ENDBRANCH  31  32
ENDBRANCH  29  31
ENDBRANCH   1  29
TORSDOF 7
ENDMDL
MODEL 2
REMARK minimizedAffinity -10.2125854
REMARK  7 active torsions:
REMARK  status: ('A' for Active; 'I' for Inactive)
REMARK    1  A    between atoms: C4_4  and  C5_5 
REMARK    2  A    between atoms: C5_5  and  C6_6 
REMARK    3  A    between atoms: C6_6  and  C7_7 
REMARK    4  A    between atoms: C7_7  and  C9_9 
REMARK    5  A    between atoms: C18_18  and  O1_19 
REMARK    6  A    between atoms: O1_19  and  C19_20 
REMARK    7  A    between atoms: C19_20  and  C20_22 
ROOT
HETATM    1  C9  UNL     1       1.274   6.609  11.665  1.00  0.00    -0.002 C 
HETATM    2  C10 UNL     1       1.348   5.142  11.160  1.00  0.00     0.006 C 
HETATM    3  C11 UNL     1      -0.031   4.508  11.375  1.00  0.00     0.010 C 
HETATM    4  C12 UNL     1      -0.922   5.679  11.773  1.00  0.00     0.023 C 
HETATM    5  C13 UNL     1      -2.267   5.442  12.416  1.00  0.00    -0.070 C 
HETATM    6  C14 UNL     1      -2.859   4.239  12.475  1.00  0.00     0.004 C 
HETATM    7  C15 UNL     1      -4.232   4.083  12.874  1.00  0.00     0.004 C 
HETATM    8  C16 UNL     1      -4.940   5.073  13.443  1.00  0.00    -0.069 C 
HETATM    9  C17 UNL     1      -6.372   4.848  13.874  1.00  0.00     0.067 C 
HETATM   10  C18 UNL     1      -7.297   6.000  13.472  1.00  0.00     0.136 C 
HETATM   11  C26 UNL     1      -6.735   7.332  13.971  1.00  0.00     0.034 C 
HETATM   12  C27 UNL     1      -5.333   7.574  13.418  1.00  0.00     0.017 C 
HETATM   13  C28 UNL     1      -4.311   6.442  13.735  1.00  0.00    -0.013 C 
HETATM   14  C29 UNL     1      -3.987   6.452  15.249  1.00  0.00     0.021 C 
HETATM   15  C30 UNL     1      -3.010   6.707  12.845  1.00  0.00     0.027 C 
HETATM   16  C31 UNL     1      -2.067   7.778  13.461  1.00  0.00     0.011 C 
HETATM   17  C32 UNL     1      -0.719   7.938  12.743  1.00  0.00     0.011 C 
HETATM   18  C33 UNL     1       0.019   6.590  12.600  1.00  0.00    -0.033 C 
HETATM   19  C34 UNL     1       0.360   5.990  13.987  1.00  0.00     0.016 C 
ENDROOT
BRANCH  10  20
HETATM   20  O1  UNL     1      -8.582   5.761  14.082  1.00  0.00    -0.312 OA
BRANCH  20  21
HETATM   21  C19 UNL     1      -8.964   6.657  15.027  1.00  0.00     0.293 C 
HETATM   22  O2  UNL     1      -8.591   6.677  16.189  1.00  0.00    -0.259 OA
BRANCH  21  23
HETATM   23  C20 UNL     1      -9.918   7.646  14.455  1.00  0.00     0.039 A 
HETATM   24  C21 UNL     1     -10.792   7.212  13.446  1.00  0.00     0.017 A 
HETATM   25  C22 UNL     1     -11.707   8.099  12.876  1.00  0.00     0.001 A 
HETATM   26  C23 UNL     1     -11.753   9.425  13.307  1.00  0.00     0.000 A 
HETATM   27  C24 UNL     1     -10.886   9.865  14.308  1.00  0.00     0.001 A 
HETATM   28  C25 UNL     1      -9.970   8.980  14.882  1.00  0.00     0.017 A 
ENDBRANCH  21  23
ENDBRANCH  20  21
ENDBRANCH  10  20
BRANCH   1  29
HETATM   29  C7  UNL     1       2.639   7.121  12.217  1.00  0.00    -0.014 C 
HETATM   30  C8  UNL     1       2.571   8.595  12.645  1.00  0.00     0.010 C 
BRANCH  29  31
HETATM   31  C6  UNL     1       3.791   6.994  11.177  1.00  0.00     0.008 C 
BRANCH  31  32
HETATM   32  C5  UNL     1       3.776   8.051  10.066  1.00  0.00     0.028 C 
BRANCH  32  33
HETATM   33  C4  UNL     1       3.343   7.446   8.757  1.00  0.00    -0.025 C 
HETATM   34  C2  UNL     1       2.159   7.584   8.128  1.00  0.00    -0.091 C 
HETATM   35  C1  UNL     1       1.915   6.913   6.801  1.00  0.00     0.042 C 
HETATM   36  C3  UNL     1       0.986   8.375   8.640  1.00  0.00     0.042 C 
ENDBRANCH  32  33
ENDBRANCH  31  32
ENDBRANCH  29  31
ENDBRANCH   1  29
TORSDOF 7
ENDMDL
MODEL 3
REMARK minimizedAffinity -9.97689819
REMARK  7 active torsions:
REMARK  status: ('A' for Active; 'I' for Inactive)
REMARK    1  A    between atoms: C4_4  and  C5_5 
REMARK    2  A    between atoms: C5_5  and  C6_6 
REMARK    3  A    between atoms: C6_6  and  C7_7 
REMARK    4  A    between atoms: C7_7  and  C9_9 
REMARK    5  A    between atoms: C18_18  and  O1_19 
REMARK    6  A    between atoms: O1_19  and  C19_20 
REMARK    7  A    between atoms: C19_20  and  C20_22 
ROOT
HETATM    1  C9  UNL     1      -6.133   6.539  13.861  1.00  0.00    -0.002 C 
HETATM    2  C10 UNL     1      -6.165   8.083  14.021  1.00  0.00     0.006 C 
HETATM    3  C11 UNL     1      -4.771   8.614  13.667  1.00  0.00     0.010 C 
HETATM    4  C12 UNL     1      -4.047   7.405  13.089  1.00  0.00     0.023 C 
HETATM    5  C13 UNL     1      -2.544   7.402  12.945  1.00  0.00    -0.070 C 
HETATM    6  C14 UNL     1      -1.782   8.497  13.091  1.00  0.00     0.004 C 
HETATM    7  C15 UNL     1      -0.394   8.517  12.716  1.00  0.00     0.004 C 
HETATM    8  C16 UNL     1       0.297   7.400  12.430  1.00  0.00    -0.069 C 
HETATM    9  C17 UNL     1       1.764   7.472  12.072  1.00  0.00     0.067 C 
HETATM   10  C18 UNL     1       2.121   6.599  10.866  1.00  0.00     0.136 C 
HETATM   11  C26 UNL     1       1.639   5.164  11.088  1.00  0.00     0.034 C 
HETATM   12  C27 UNL     1       0.132   5.126  11.331  1.00  0.00     0.017 C 
HETATM   13  C28 UNL     1      -0.352   6.012  12.516  1.00  0.00    -0.013 C 
HETATM   14  C29 UNL     1       0.131   5.394  13.851  1.00  0.00     0.021 C 
HETATM   15  C30 UNL     1      -1.946   6.089  12.437  1.00  0.00     0.027 C 
HETATM   16  C31 UNL     1      -2.640   4.838  13.044  1.00  0.00     0.011 C 
HETATM   17  C32 UNL     1      -4.169   4.942  13.160  1.00  0.00     0.011 C 
HETATM   18  C33 UNL     1      -4.602   6.217  13.914  1.00  0.00    -0.033 C 
HETATM   19  C34 UNL     1      -4.080   6.208  15.371  1.00  0.00     0.016 C 
ENDROOT
BRANCH  10  20
HETATM   20  O1  UNL     1       3.556   6.608  10.729  1.00  0.00    -0.312 OA
BRANCH  20  21
HETATM   21  C19 UNL     1       4.083   7.683  10.089  1.00  0.00     0.293 C 
HETATM   22  O2  UNL     1       3.708   8.136   9.020  1.00  0.00    -0.259 OA
BRANCH  21  23
HETATM   23  C20 UNL     1       5.205   8.263  10.878  1.00  0.00     0.039 A 
HETATM   24  C21 UNL     1       5.696   7.526  11.967  1.00  0.00     0.017 A 
HETATM   25  C22 UNL     1       6.747   8.025  12.739  1.00  0.00     0.001 A 
HETATM   26  C23 UNL     1       7.312   9.262  12.430  1.00  0.00     0.000 A 
HETATM   27  C24 UNL     1       6.828  10.002  11.351  1.00  0.00     0.001 A 
HETATM   28  C25 UNL     1       5.777   9.506  10.575  1.00  0.00     0.017 A 
ENDBRANCH  21  23
ENDBRANCH  20  21
ENDBRANCH  10  20
BRANCH   1  29
HETATM   29  C7  UNL     1      -7.107   5.814  14.840  1.00  0.00    -0.014 C 
HETATM   30  C8  UNL     1      -6.629   5.898  16.296  1.00  0.00     0.010 C 
BRANCH  29  31
HETATM   31  C6  UNL     1      -7.286   4.306  14.497  1.00  0.00     0.008 C 
BRANCH  31  32
HETATM   32  C5  UNL     1      -7.647   4.015  13.034  1.00  0.00     0.028 C 
BRANCH  32  33
HETATM   33  C4  UNL     1      -7.139   2.661  12.617  1.00  0.00    -0.025 C 
HETATM   34  C2  UNL     1      -6.279   2.367  11.622  1.00  0.00    -0.091 C 
HETATM   35  C1  UNL     1      -5.866   0.940  11.365  1.00  0.00     0.042 C 
HETATM   36  C3  UNL     1      -5.656   3.363  10.682  1.00  0.00     0.042 C 
ENDBRANCH  32  33
ENDBRANCH  31  32
ENDBRANCH  29  31
ENDBRANCH   1  29
TORSDOF 7
ENDMDL
MODEL 4
REMARK minimizedAffinity -9.94994068
REMARK  7 active torsions:
REMARK  status: ('A' for Active; 'I' for Inactive)
REMARK    1  A    between atoms: C4_4  and  C5_5 
REMARK    2  A    between atoms: C5_5  and  C6_6 
REMARK    3  A    between atoms: C6_6  and  C7_7 
REMARK    4  A    between atoms: C7_7  and  C9_9 
REMARK    5  A    between atoms: C18_18  and  O1_19 
REMARK    6  A    between atoms: O1_19  and  C19_20 
REMARK    7  A    between atoms: C19_20  and  C20_22 
ROOT
HETATM    1  C9  UNL     1      -7.115   4.961  14.560  1.00  0.00    -0.002 C 
HETATM    2  C10 UNL     1      -7.458   3.959  13.426  1.00  0.00     0.006 C 
HETATM    3  C11 UNL     1      -6.192   3.760  12.584  1.00  0.00     0.010 C 
HETATM    4  C12 UNL     1      -5.099   4.459  13.384  1.00  0.00     0.023 C 
HETATM    5  C13 UNL     1      -3.777   4.807  12.743  1.00  0.00    -0.070 C 
HETATM    6  C14 UNL     1      -3.389   4.345  11.545  1.00  0.00     0.004 C 
HETATM    7  C15 UNL     1      -2.039   4.495  11.069  1.00  0.00     0.004 C 
HETATM    8  C16 UNL     1      -1.146   5.305  11.662  1.00  0.00    -0.069 C 
HETATM    9  C17 UNL     1       0.251   5.452  11.104  1.00  0.00     0.067 C 
HETATM   10  C18 UNL     1       1.329   5.403  12.190  1.00  0.00     0.136 C 
HETATM   11  C26 UNL     1       1.024   6.424  13.288  1.00  0.00     0.034 C 
HETATM   12  C27 UNL     1      -0.349   6.167  13.905  1.00  0.00     0.017 C 
HETATM   13  C28 UNL     1      -1.523   6.156  12.882  1.00  0.00    -0.013 C 
HETATM   14  C29 UNL     1      -1.754   7.593  12.349  1.00  0.00     0.021 C 
HETATM   15  C30 UNL     1      -2.812   5.587  13.637  1.00  0.00     0.027 C 
HETATM   16  C31 UNL     1      -3.528   6.663  14.500  1.00  0.00     0.011 C 
HETATM   17  C32 UNL     1      -4.871   6.218  15.099  1.00  0.00     0.011 C 
HETATM   18  C33 UNL     1      -5.828   5.670  14.019  1.00  0.00    -0.033 C 
HETATM   19  C34 UNL     1      -6.183   6.763  12.981  1.00  0.00     0.016 C 
ENDROOT
BRANCH  10  20
HETATM   20  O1  UNL     1       2.589   5.726  11.570  1.00  0.00    -0.312 OA
BRANCH  20  21
HETATM   21  C19 UNL     1       2.737   5.323  10.282  1.00  0.00     0.293 C 
HETATM   22  O2  UNL     1       2.788   4.167   9.894  1.00  0.00    -0.259 OA
BRANCH  21  23
HETATM   23  C20 UNL     1       2.825   6.498   9.372  1.00  0.00     0.039 A 
HETATM   24  C21 UNL     1       2.149   6.434   8.144  1.00  0.00     0.017 A 
HETATM   25  C22 UNL     1       2.199   7.509   7.256  1.00  0.00     0.001 A 
HETATM   26  C23 UNL     1       2.926   8.653   7.586  1.00  0.00     0.000 A 
HETATM   27  C24 UNL     1       3.603   8.724   8.804  1.00  0.00     0.001 A 
HETATM   28  C25 UNL     1       3.554   7.650   9.697  1.00  0.00     0.017 A 
ENDBRANCH  21  23
ENDBRANCH  20  21
ENDBRANCH  10  20
BRANCH   1  29
HETATM   29  C7  UNL     1      -8.342   5.820  14.994  1.00  0.00    -0.014 C 
HETATM   30  C8  UNL     1      -9.251   6.166  13.806  1.00  0.00     0.010 C 
BRANCH  29  31
HETATM   31  C6  UNL     1      -7.926   7.161  15.666  1.00  0.00     0.008 C 
BRANCH  31  32
HETATM   32  C5  UNL     1      -8.724   8.388  15.204  1.00  0.00     0.028 C 
BRANCH  32  33
HETATM   33  C4  UNL     1      -9.690   8.830  16.271  1.00  0.00    -0.025 C 
HETATM   34  C2  UNL     1     -10.285  10.032  16.407  1.00  0.00    -0.091 C 
HETATM   35  C1  UNL     1     -11.249  10.284  17.538  1.00  0.00     0.042 C 
HETATM   36  C3  UNL     1     -10.073  11.218  15.507  1.00  0.00     0.042 C 
ENDBRANCH  32  33
ENDBRANCH  31  32
ENDBRANCH  29  31
ENDBRANCH   1  29
TORSDOF 7
ENDMDL
MODEL 5
REMARK minimizedAffinity -9.89587021
REMARK  7 active torsions:
REMARK  status: ('A' for Active; 'I' for Inactive)
REMARK    1  A    between atoms: C4_4  and  C5_5 
REMARK    2  A    between atoms: C5_5  and  C6_6 
REMARK    3  A    between atoms: C6_6  and  C7_7 
REMARK    4  A    between atoms: C7_7  and  C9_9 
REMARK    5  A    between atoms: C18_18  and  O1_19 
REMARK    6  A    between atoms: O1_19  and  C19_20 
REMARK    7  A    between atoms: C19_20  and  C20_22 
ROOT
HETATM    1  C9  UNL     1      -6.295   6.970  13.869  1.00  0.00    -0.002 C 
HETATM    2  C10 UNL     1      -6.142   8.462  14.269  1.00  0.00     0.006 C 
HETATM    3  C11 UNL     1      -4.671   8.846  14.071  1.00  0.00     0.010 C 
HETATM    4  C12 UNL     1      -4.068   7.650  13.345  1.00  0.00     0.023 C 
HETATM    5  C13 UNL     1      -2.571   7.464  13.276  1.00  0.00    -0.070 C 
HETATM    6  C14 UNL     1      -1.689   8.412  13.630  1.00  0.00     0.004 C 
HETATM    7  C15 UNL     1      -0.286   8.299  13.330  1.00  0.00     0.004 C 
HETATM    8  C16 UNL     1       0.276   7.155  12.906  1.00  0.00    -0.069 C 
HETATM    9  C17 UNL     1       1.761   7.079  12.635  1.00  0.00     0.067 C 
HETATM   10  C18 UNL     1       2.087   6.356  11.326  1.00  0.00     0.136 C 
HETATM   11  C26 UNL     1       1.413   4.983  11.296  1.00  0.00     0.034 C 
HETATM   12  C27 UNL     1      -0.100   5.114  11.456  1.00  0.00     0.017 C 
HETATM   13  C28 UNL     1      -0.549   5.871  12.741  1.00  0.00    -0.013 C 
HETATM   14  C29 UNL     1      -0.241   4.999  13.984  1.00  0.00     0.021 C 
HETATM   15  C30 UNL     1      -2.111   6.174  12.597  1.00  0.00     0.027 C 
HETATM   16  C31 UNL     1      -2.998   4.952  12.966  1.00  0.00     0.011 C 
HETATM   17  C32 UNL     1      -4.505   5.244  13.021  1.00  0.00     0.011 C 
HETATM   18  C33 UNL     1      -4.825   6.438  13.945  1.00  0.00    -0.033 C 
HETATM   19  C34 UNL     1      -4.409   6.141  15.407  1.00  0.00     0.016 C 
ENDROOT
BRANCH  10  20
HETATM   20  O1  UNL     1       3.518   6.191  11.263  1.00  0.00    -0.312 OA
BRANCH  20  21
HETATM   21  C19 UNL     1       4.162   6.952  10.342  1.00  0.00     0.293 C 
HETATM   22  O2  UNL     1       5.206   7.559  10.516  1.00  0.00    -0.259 OA
BRANCH  21  23
HETATM   23  C20 UNL     1       3.418   6.952   9.052  1.00  0.00     0.039 A 
HETATM   24  C21 UNL     1       2.949   8.180   8.560  1.00  0.00     0.017 A 
HETATM   25  C22 UNL     1       2.247   8.235   7.355  1.00  0.00     0.001 A 
HETATM   26  C23 UNL     1       2.007   7.065   6.635  1.00  0.00     0.000 A 
HETATM   27  C24 UNL     1       2.467   5.839   7.118  1.00  0.00     0.001 A 
HETATM   28  C25 UNL     1       3.172   5.780   8.323  1.00  0.00     0.017 A 
ENDBRANCH  21  23
ENDBRANCH  20  21
ENDBRANCH  10  20
BRANCH   1  29
HETATM   29  C7  UNL     1      -7.418   6.246  14.673  1.00  0.00    -0.014 C 
HETATM   30  C8  UNL     1      -8.683   6.030  13.829  1.00  0.00     0.010 C 
BRANCH  29  31
HETATM   31  C6  UNL     1      -7.842   7.031  15.949  1.00  0.00     0.008 C 
BRANCH  31  32
HETATM   32  C5  UNL     1      -9.294   7.525  15.950  1.00  0.00     0.028 C 
BRANCH  32  33
HETATM   33  C4  UNL     1      -9.354   9.014  15.736  1.00  0.00    -0.025 C 
HETATM   34  C2  UNL     1     -10.171   9.704  14.917  1.00  0.00    -0.091 C 
HETATM   35  C1  UNL     1     -10.098  11.208  14.853  1.00  0.00     0.042 C 
HETATM   36  C3  UNL     1     -11.203   9.102  14.003  1.00  0.00     0.042 C 
ENDBRANCH  32  33
ENDBRANCH  31  32
ENDBRANCH  29  31
ENDBRANCH   1  29
TORSDOF 7
ENDMDL
MODEL 6
REMARK minimizedAffinity -9.85104084
REMARK  7 active torsions:
REMARK  status: ('A' for Active; 'I' for Inactive)
REMARK    1  A    between atoms: C4_4  and  C5_5 
REMARK    2  A    between atoms: C5_5  and  C6_6 
REMARK    3  A    between atoms: C6_6  and  C7_7 
REMARK    4  A    between atoms: C7_7  and  C9_9 
REMARK    5  A    between atoms: C18_18  and  O1_19 
REMARK    6  A    between atoms: O1_19  and  C19_20 
REMARK    7  A    between atoms: C19_20  and  C20_22 
ROOT
HETATM    1  C9  UNL     1      -6.449   5.856  14.892  1.00  0.00    -0.002 C 
HETATM    2  C10 UNL     1      -6.876   4.692  13.957  1.00  0.00     0.006 C 
HETATM    3  C11 UNL     1      -5.670   4.334  13.082  1.00  0.00     0.010 C 
HETATM    4  C12 UNL     1      -4.519   5.128  13.690  1.00  0.00     0.023 C 
HETATM    5  C13 UNL     1      -3.238   5.340  12.921  1.00  0.00    -0.070 C 
HETATM    6  C14 UNL     1      -2.933   4.683  11.791  1.00  0.00     0.004 C 
HETATM    7  C15 UNL     1      -1.615   4.726  11.215  1.00  0.00     0.004 C 
HETATM    8  C16 UNL     1      -0.677   5.601  11.613  1.00  0.00    -0.069 C 
HETATM    9  C17 UNL     1       0.683   5.626  10.954  1.00  0.00     0.067 C 
HETATM   10  C18 UNL     1       1.828   5.729  11.965  1.00  0.00     0.136 C 
HETATM   11  C26 UNL     1       1.606   6.919  12.899  1.00  0.00     0.034 C 
HETATM   12  C27 UNL     1       0.273   6.795  13.633  1.00  0.00     0.017 C 
HETATM   13  C28 UNL     1      -0.965   6.645  12.700  1.00  0.00    -0.013 C 
HETATM   14  C29 UNL     1      -1.213   7.982  11.958  1.00  0.00     0.021 C 
HETATM   15  C30 UNL     1      -2.208   6.232  13.615  1.00  0.00     0.027 C 
HETATM   16  C31 UNL     1      -2.855   7.448  14.336  1.00  0.00     0.011 C 
HETATM   17  C32 UNL     1      -4.161   7.134  15.081  1.00  0.00     0.011 C 
HETATM   18  C33 UNL     1      -5.192   6.441  14.165  1.00  0.00    -0.033 C 
HETATM   19  C34 UNL     1      -5.601   7.360  12.988  1.00  0.00     0.016 C 
ENDROOT
BRANCH  10  20
HETATM   20  O1  UNL     1       3.050   5.921  11.223  1.00  0.00    -0.312 OA
BRANCH  20  21
HETATM   21  C19 UNL     1       3.168   7.108  10.574  1.00  0.00     0.293 C 
HETATM   22  O2  UNL     1       3.563   8.155  11.061  1.00  0.00    -0.259 OA
BRANCH  21  23
HETATM   23  C20 UNL     1       2.751   6.970   9.152  1.00  0.00     0.039 A 
HETATM   24  C21 UNL     1       2.003   8.010   8.580  1.00  0.00     0.017 A 
HETATM   25  C22 UNL     1       1.587   7.930   7.250  1.00  0.00     0.001 A 
HETATM   26  C23 UNL     1       1.913   6.811   6.484  1.00  0.00     0.000 A 
HETATM   27  C24 UNL     1       2.654   5.770   7.046  1.00  0.00     0.001 A 
HETATM   28  C25 UNL     1       3.074   5.848   8.377  1.00  0.00     0.017 A 
ENDBRANCH  21  23
ENDBRANCH  20  21
ENDBRANCH  10  20
BRANCH   1  29
HETATM   29  C7  UNL     1      -7.637   6.799  15.256  1.00  0.00    -0.014 C 
HETATM   30  C8  UNL     1      -7.923   6.810  16.764  1.00  0.00     0.010 C 
BRANCH  29  31
HETATM   31  C6  UNL     1      -8.959   6.401  14.536  1.00  0.00     0.008 C 
BRANCH  31  32
HETATM   32  C5  UNL     1      -9.985   7.533  14.400  1.00  0.00     0.028 C 
BRANCH  32  33
HETATM   33  C4  UNL     1     -11.330   6.991  13.994  1.00  0.00    -0.025 C 
HETATM   34  C2  UNL     1     -12.302   7.612  13.298  1.00  0.00    -0.091 C 
HETATM   35  C1  UNL     1     -13.584   6.893  12.965  1.00  0.00     0.042 C 
HETATM   36  C3  UNL     1     -12.244   9.028  12.792  1.00  0.00     0.042 C 
ENDBRANCH  32  33
ENDBRANCH  31  32
ENDBRANCH  29  31
ENDBRANCH   1  29
TORSDOF 7
ENDMDL
MODEL 7
REMARK minimizedAffinity -9.69050884
REMARK  7 active torsions:
REMARK  status: ('A' for Active; 'I' for Inactive)
REMARK    1  A    between atoms: C4_4  and  C5_5 
REMARK    2  A    between atoms: C5_5  and  C6_6 
REMARK    3  A    between atoms: C6_6  and  C7_7 
REMARK    4  A    between atoms: C7_7  and  C9_9 
REMARK    5  A    between atoms: C18_18  and  O1_19 
REMARK    6  A    between atoms: O1_19  and  C19_20 
REMARK    7  A    between atoms: C19_20  and  C20_22 
ROOT
HETATM    1  C9  UNL     1      -5.345   6.423  14.530  1.00  0.00    -0.002 C 
HETATM    2  C10 UNL     1      -4.325   5.400  13.959  1.00  0.00     0.006 C 
HETATM    3  C11 UNL     1      -2.927   5.842  14.404  1.00  0.00     0.010 C 
HETATM    4  C12 UNL     1      -3.190   6.958  15.408  1.00  0.00     0.023 C 
HETATM    5  C13 UNL     1      -2.086   7.903  15.817  1.00  0.00    -0.070 C 
HETATM    6  C14 UNL     1      -0.792   7.704  15.524  1.00  0.00     0.004 C 
HETATM    7  C15 UNL     1       0.256   8.484  16.126  1.00  0.00     0.004 C 
HETATM    8  C16 UNL     1       0.017   9.608  16.822  1.00  0.00    -0.069 C 
HETATM    9  C17 UNL     1       1.156  10.410  17.408  1.00  0.00     0.067 C 
HETATM   10  C18 UNL     1       0.886  10.855  18.848  1.00  0.00     0.136 C 
HETATM   11  C26 UNL     1      -0.454  11.588  18.935  1.00  0.00     0.034 C 
HETATM   12  C27 UNL     1      -1.594  10.700  18.442  1.00  0.00     0.017 C 
HETATM   13  C28 UNL     1      -1.407  10.155  16.995  1.00  0.00    -0.013 C 
HETATM   14  C29 UNL     1      -1.545  11.322  15.985  1.00  0.00     0.021 C 
HETATM   15  C30 UNL     1      -2.516   9.029  16.759  1.00  0.00     0.027 C 
HETATM   16  C31 UNL     1      -3.906   9.619  16.394  1.00  0.00     0.011 C 
HETATM   17  C32 UNL     1      -4.959   8.580  15.979  1.00  0.00     0.011 C 
HETATM   18  C33 UNL     1      -4.448   7.666  14.845  1.00  0.00    -0.033 C 
HETATM   19  C34 UNL     1      -4.148   8.482  13.563  1.00  0.00     0.016 C 
ENDROOT
BRANCH  10  20
HETATM   20  O1  UNL     1       1.949  11.749  19.235  1.00  0.00    -0.312 OA
BRANCH  20  21
HETATM   21  C19 UNL     1       3.163  11.176  19.431  1.00  0.00     0.293 C 
HETATM   22  O2  UNL     1       4.055  11.084  18.602  1.00  0.00    -0.259 OA
BRANCH  21  23
HETATM   23  C20 UNL     1       3.281  10.663  20.823  1.00  0.00     0.039 A 
HETATM   24  C21 UNL     1       2.475   9.577  21.197  1.00  0.00     0.017 A 
HETATM   25  C22 UNL     1       2.548   9.059  22.491  1.00  0.00     0.001 A 
HETATM   26  C23 UNL     1       3.423   9.622  23.420  1.00  0.00     0.000 A 
HETATM   27  C24 UNL     1       4.226  10.704  23.057  1.00  0.00     0.001 A 
HETATM   28  C25 UNL     1       4.157  11.225  21.762  1.00  0.00     0.017 A 
ENDBRANCH  21  23
ENDBRANCH  20  21
ENDBRANCH  10  20
BRANCH   1  29
HETATM   29  C7  UNL     1      -6.601   6.589  13.622  1.00  0.00    -0.014 C 
HETATM   30  C8  UNL     1      -7.865   6.897  14.437  1.00  0.00     0.010 C 
BRANCH  29  31
HETATM   31  C6  UNL     1      -6.896   5.318  12.771  1.00  0.00     0.008 C 
BRANCH  31  32
HETATM   32  C5  UNL     1      -7.509   4.148  13.552  1.00  0.00     0.028 C 
BRANCH  32  33
HETATM   33  C4  UNL     1      -7.296   2.848  12.823  1.00  0.00    -0.025 C 
HETATM   34  C2  UNL     1      -6.319   2.536  11.948  1.00  0.00    -0.091 C 
HETATM   35  C1  UNL     1      -6.256   1.163  11.331  1.00  0.00     0.042 C 
HETATM   36  C3  UNL     1      -5.228   3.465  11.490  1.00  0.00     0.042 C 
ENDBRANCH  32  33
ENDBRANCH  31  32
ENDBRANCH  29  31
ENDBRANCH   1  29
TORSDOF 7
ENDMDL
MODEL 8
REMARK minimizedAffinity -9.58166027
REMARK  7 active torsions:
REMARK  status: ('A' for Active; 'I' for Inactive)
REMARK    1  A    between atoms: C4_4  and  C5_5 
REMARK    2  A    between atoms: C5_5  and  C6_6 
REMARK    3  A    between atoms: C6_6  and  C7_7 
REMARK    4  A    between atoms: C7_7  and  C9_9 
REMARK    5  A    between atoms: C18_18  and  O1_19 
REMARK    6  A    between atoms: O1_19  and  C19_20 
REMARK    7  A    between atoms: C19_20  and  C20_22 
ROOT
HETATM    1  C9  UNL     1      -6.200   6.739  14.807  1.00  0.00    -0.002 C 
HETATM    2  C10 UNL     1      -6.318   8.284  14.904  1.00  0.00     0.006 C 
HETATM    3  C11 UNL     1      -5.079   8.887  14.232  1.00  0.00     0.010 C 
HETATM    4  C12 UNL     1      -4.402   7.697  13.561  1.00  0.00     0.023 C 
HETATM    5  C13 UNL     1      -2.970   7.787  13.094  1.00  0.00    -0.070 C 
HETATM    6  C14 UNL     1      -2.283   8.938  13.023  1.00  0.00     0.004 C 
HETATM    7  C15 UNL     1      -1.013   9.029  12.353  1.00  0.00     0.004 C 
HETATM    8  C16 UNL     1      -0.314   7.947  11.971  1.00  0.00    -0.069 C 
HETATM    9  C17 UNL     1       1.031   8.096  11.299  1.00  0.00     0.067 C 
HETATM   10  C18 UNL     1       1.189   7.179  10.082  1.00  0.00     0.136 C 
HETATM   11  C26 UNL     1       0.880   5.731  10.465  1.00  0.00     0.034 C 
HETATM   12  C27 UNL     1      -0.532   5.606  11.032  1.00  0.00     0.017 C 
HETATM   13  C28 UNL     1      -0.819   6.526  12.256  1.00  0.00    -0.013 C 
HETATM   14  C29 UNL     1      -0.014   6.020  13.479  1.00  0.00     0.021 C 
HETATM   15  C30 UNL     1      -2.394   6.490  12.524  1.00  0.00     0.027 C 
HETATM   16  C31 UNL     1      -2.841   5.233  13.320  1.00  0.00     0.011 C 
HETATM   17  C32 UNL     1      -4.312   5.240  13.762  1.00  0.00     0.011 C 
HETATM   18  C33 UNL     1      -4.673   6.524  14.538  1.00  0.00    -0.033 C 
HETATM   19  C34 UNL     1      -3.851   6.637  15.845  1.00  0.00     0.016 C 
ENDROOT
BRANCH  10  20
HETATM   20  O1  UNL     1       2.556   7.278   9.636  1.00  0.00    -0.312 OA
BRANCH  20  21
HETATM   21  C19 UNL     1       3.373   6.257  10.001  1.00  0.00     0.293 C 
HETATM   22  O2  UNL     1       3.889   6.108  11.097  1.00  0.00    -0.259 OA
BRANCH  21  23
HETATM   23  C20 UNL     1       3.565   5.311   8.868  1.00  0.00     0.039 A 
HETATM   24  C21 UNL     1       4.350   4.168   9.088  1.00  0.00     0.017 A 
HETATM   25  C22 UNL     1       4.561   3.249   8.059  1.00  0.00     0.001 A 
HETATM   26  C23 UNL     1       3.992   3.466   6.804  1.00  0.00     0.000 A 
HETATM   27  C24 UNL     1       3.213   4.600   6.575  1.00  0.00     0.001 A 
HETATM   28  C25 UNL     1       2.998   5.522   7.604  1.00  0.00     0.017 A 
ENDBRANCH  21  23
ENDBRANCH  20  21
ENDBRANCH  10  20
BRANCH   1  29
HETATM   29  C7  UNL     1      -6.881   6.009  16.004  1.00  0.00    -0.014 C 
HETATM   30  C8  UNL     1      -7.406   4.621  15.610  1.00  0.00     0.010 C 
BRANCH  29  31
HETATM   31  C6  UNL     1      -8.083   6.810  16.587  1.00  0.00     0.008 C 
BRANCH  31  32
HETATM   32  C5  UNL     1      -9.156   7.199  15.561  1.00  0.00     0.028 C 
BRANCH  32  33
HETATM   33  C4  UNL     1      -8.882   6.554  14.229  1.00  0.00    -0.025 C 
HETATM   34  C2  UNL     1      -9.686   6.502  13.148  1.00  0.00    -0.091 C 
HETATM   35  C1  UNL     1      -9.225   5.824  11.884  1.00  0.00     0.042 C 
HETATM   36  C3  UNL     1     -11.074   7.075  13.066  1.00  0.00     0.042 C 
ENDBRANCH  32  33
ENDBRANCH  31  32
ENDBRANCH  29  31
ENDBRANCH   1  29
TORSDOF 7
ENDMDL
MODEL 9
REMARK minimizedAffinity -9.50593281
REMARK  7 active torsions:
REMARK  status: ('A' for Active; 'I' for Inactive)
REMARK    1  A    between atoms: C4_4  and  C5_5 
REMARK    2  A    between atoms: C5_5  and  C6_6 
REMARK    3  A    between atoms: C6_6  and  C7_7 
REMARK    4  A    between atoms: C7_7  and  C9_9 
REMARK    5  A    between atoms: C18_18  and  O1_19 
REMARK    6  A    between atoms: O1_19  and  C19_20 
REMARK    7  A    between atoms: C19_20  and  C20_22 
ROOT
HETATM    1  C9  UNL     1      -0.268   5.712  11.765  1.00  0.00    -0.002 C 
HETATM    2  C10 UNL     1      -0.633   4.335  11.148  1.00  0.00     0.006 C 
HETATM    3  C11 UNL     1      -2.106   4.058  11.468  1.00  0.00     0.010 C 
HETATM    4  C12 UNL     1      -2.615   5.373  12.047  1.00  0.00     0.023 C 
HETATM    5  C13 UNL     1      -3.912   5.426  12.818  1.00  0.00    -0.070 C 
HETATM    6  C14 UNL     1      -4.795   4.416  12.853  1.00  0.00     0.004 C 
HETATM    7  C15 UNL     1      -6.120   4.580  13.391  1.00  0.00     0.004 C 
HETATM    8  C16 UNL     1      -6.486   5.656  14.106  1.00  0.00    -0.069 C 
HETATM    9  C17 UNL     1      -7.882   5.766  14.676  1.00  0.00     0.067 C 
HETATM   10  C18 UNL     1      -8.499   7.151  14.465  1.00  0.00     0.136 C 
HETATM   11  C26 UNL     1      -7.561   8.236  14.996  1.00  0.00     0.034 C 
HETATM   12  C27 UNL     1      -6.199   8.164  14.309  1.00  0.00     0.017 C 
HETATM   13  C28 UNL     1      -5.491   6.781  14.426  1.00  0.00    -0.013 C 
HETATM   14  C29 UNL     1      -5.044   6.556  15.892  1.00  0.00     0.021 C 
HETATM   15  C30 UNL     1      -4.251   6.790  13.419  1.00  0.00     0.027 C 
HETATM   16  C31 UNL     1      -3.006   7.515  14.003  1.00  0.00     0.011 C 
HETATM   17  C32 UNL     1      -1.733   7.394  13.153  1.00  0.00     0.011 C 
HETATM   18  C33 UNL     1      -1.396   5.923  12.830  1.00  0.00    -0.033 C 
HETATM   19  C34 UNL     1      -1.106   5.120  14.122  1.00  0.00     0.016 C 
ENDROOT
BRANCH  10  20
HETATM   20  O1  UNL     1      -9.741   7.190  15.196  1.00  0.00    -0.312 OA
BRANCH  20  21
HETATM   21  C19 UNL     1     -10.513   8.289  14.993  1.00  0.00     0.293 C 
HETATM   22  O2  UNL     1     -10.161   9.449  15.137  1.00  0.00    -0.259 OA
BRANCH  21  23
HETATM   23  C20 UNL     1     -11.880   7.895  14.556  1.00  0.00     0.039 A 
HETATM   24  C21 UNL     1     -12.961   8.228  15.386  1.00  0.00     0.017 A 
HETATM   25  C22 UNL     1     -14.263   7.881  15.021  1.00  0.00     0.001 A 
HETATM   26  C23 UNL     1     -14.493   7.198  13.827  1.00  0.00     0.000 A 
HETATM   27  C24 UNL     1     -13.424   6.860  12.997  1.00  0.00     0.001 A 
HETATM   28  C25 UNL     1     -12.119   7.207  13.358  1.00  0.00     0.017 A 
ENDBRANCH  21  23
ENDBRANCH  20  21
ENDBRANCH  10  20
BRANCH   1  29
HETATM   29  C7  UNL     1       1.227   5.798  12.198  1.00  0.00    -0.014 C 
HETATM   30  C8  UNL     1       1.406   6.599  13.495  1.00  0.00     0.010 C 
BRANCH  29  31
HETATM   31  C6  UNL     1       2.125   6.465  11.115  1.00  0.00     0.008 C 
BRANCH  31  32
HETATM   32  C5  UNL     1       2.809   5.485  10.152  1.00  0.00     0.028 C 
BRANCH  32  33
HETATM   33  C4  UNL     1       2.740   5.991   8.735  1.00  0.00    -0.025 C 
HETATM   34  C2  UNL     1       1.969   6.981   8.242  1.00  0.00    -0.091 C 
HETATM   35  C1  UNL     1       2.055   7.364   6.787  1.00  0.00     0.042 C 
HETATM   36  C3  UNL     1       0.971   7.785   9.030  1.00  0.00     0.042 C 
ENDBRANCH  32  33
ENDBRANCH  31  32
ENDBRANCH  29  31
ENDBRANCH   1  29
TORSDOF 7
ENDMDL
