MODEL 1
REMARK minimizedAffinity -7.48479652
REMARK CNNscore 0.426008642
REMARK CNNaffinity 7.03305244
REMARK  9 active torsions:
REMARK  status: ('A' for Active; 'I' for Inactive)
REMARK    1  A    between atoms: C2_2  and  C30_36 
REMARK    2  A    between atoms: C3_3  and  C4_4 
REMARK    3  A    between atoms: C4_4  and  C5_5 
REMARK    4  A    between atoms: C4_4  and  N1_8 
REMARK       I    between atoms: N1_8  and  C9_10 
REMARK    5  A    between atoms: C9_10  and  C10_12 
REMARK    6  A    between atoms: C10_12  and  N2_13 
REMARK    7  A    between atoms: C10_12  and  C26_32 
REMARK       I    between atoms: N2_13  and  C11_14 
REMARK    8  A    between atoms: C11_14  and  C12_16 
REMARK    9  A    between atoms: C30_36  and  O4_38 
ROOT
HETATM    1  N2  UNL     1      -2.095  50.330 -17.253  1.00  0.00    -0.345 N 
HETATM    2  C11 UNL     1      -1.085  50.039 -18.165  1.00  0.00     0.253 C 
HETATM    3  O2  UNL     1      -0.087  49.404 -17.843  1.00  0.00    -0.271 OA
HETATM    4  H17 UNL     1      -2.722  51.078 -17.510  1.00  0.00     0.163 HD
ENDROOT
BRANCH   1   5
HETATM    5  C10 UNL     1      -1.876  50.091 -15.821  1.00  0.00     0.184 C 
BRANCH   5   6
HETATM    6  C9  UNL     1      -0.670  50.865 -15.187  1.00  0.00     0.243 C 
HETATM    7  N1  UNL     1      -0.517  51.023 -13.811  1.00  0.00    -0.346 N 
HETATM    8  C8  UNL     1      -1.483  50.600 -12.806  1.00  0.00     0.153 C 
HETATM    9  O1  UNL     1       0.089  51.442 -15.978  1.00  0.00    -0.271 OA
BRANCH   7  10
HETATM   10  C4  UNL     1       0.691  51.676 -13.252  1.00  0.00     0.113 C 
BRANCH  10  11
HETATM   11  C3  UNL     1       1.831  50.686 -13.164  1.00  0.00     0.012 C 
HETATM   12  C2  UNL     1       2.984  50.684 -13.868  1.00  0.00     0.010 C 
HETATM   13  C1  UNL     1       3.409  51.705 -14.880  1.00  0.00     0.055 C 
BRANCH  12  14
HETATM   14  C30 UNL     1       3.925  49.566 -13.591  1.00  0.00     0.171 C 
HETATM   15  O3  UNL     1       5.140  49.616 -13.561  1.00  0.00    -0.646 OA
BRANCH  14  16
HETATM   16  O4  UNL     1       3.283  48.410 -13.348  1.00  0.00    -0.773 OA
HETATM   17  H44 UNL     1       4.018  47.781 -13.187  1.00  0.00     0.167 HD
ENDBRANCH  14  16
ENDBRANCH  12  14
ENDBRANCH  10  11
BRANCH  10  18
HETATM   18  C5  UNL     1       0.493  52.560 -11.984  1.00  0.00     0.004 C 
HETATM   19  C6  UNL     1      -0.953  53.052 -11.863  1.00  0.00     0.012 C 
HETATM   20  C7  UNL     1       0.952  51.980 -10.648  1.00  0.00     0.012 C 
ENDBRANCH  10  18
ENDBRANCH   7  10
ENDBRANCH   5   6
BRANCH   5  21
HETATM   21  C26 UNL     1      -1.915  48.564 -15.436  1.00  0.00    -0.022 C 
HETATM   22  C27 UNL     1      -2.789  48.266 -14.208  1.00  0.00     0.017 C 
HETATM   23  C28 UNL     1      -2.443  47.714 -16.613  1.00  0.00     0.017 C 
HETATM   24  C29 UNL     1      -0.479  48.071 -15.137  1.00  0.00     0.017 C 
ENDBRANCH   5  21
ENDBRANCH   1   5
BRANCH   2  25
HETATM   25  C12 UNL     1      -1.336  50.634 -19.579  1.00  0.00     0.326 C 
HETATM   26  N3  UNL     1      -0.178  51.488 -20.019  1.00  0.00     0.104 N 
HETATM   27  C13 UNL     1       0.337  52.381 -18.983  1.00  0.00     0.311 C 
HETATM   28  C14 UNL     1      -0.541  52.283 -21.211  1.00  0.00     0.330 C 
HETATM   29  C15 UNL     1      -1.266  51.447 -22.205  1.00  0.00     0.046 A 
HETATM   30  C16 UNL     1      -1.824  50.198 -22.004  1.00  0.00    -0.011 A 
HETATM   31  N4  UNL     1      -1.496  51.822 -23.498  1.00  0.00    -0.357 N 
HETATM   32  C17 UNL     1      -2.388  49.784 -23.253  1.00  0.00    -0.000 A 
HETATM   33  C23 UNL     1      -1.700  49.507 -20.648  1.00  0.00     0.022 C 
HETATM   34  C18 UNL     1      -3.039  48.624 -23.722  1.00  0.00     0.014 A 
HETATM   35  C22 UNL     1      -2.185  50.831 -24.159  1.00  0.00     0.043 A 
HETATM   36  C19 UNL     1      -3.482  48.561 -25.049  1.00  0.00     0.001 A 
HETATM   37  C20 UNL     1      -3.281  49.629 -25.916  1.00  0.00     0.002 A 
HETATM   38  C21 UNL     1      -2.623  50.783 -25.488  1.00  0.00     0.030 A 
HETATM   39  C24 UNL     1      -3.032  48.855 -20.229  1.00  0.00     0.023 C 
HETATM   40  C25 UNL     1      -0.615  48.415 -20.767  1.00  0.00     0.023 C 
HETATM   41  H28 UNL     1      -1.191  52.687 -23.924  1.00  0.00     0.166 HD
ENDBRANCH   2  25
TORSDOF 9
ENDMDL
MODEL 2
REMARK minimizedAffinity -9.4871664
REMARK CNNscore 0.386051267
REMARK CNNaffinity 7.52290726
REMARK  9 active torsions:
REMARK  status: ('A' for Active; 'I' for Inactive)
REMARK    1  A    between atoms: C2_2  and  C30_36 
REMARK    2  A    between atoms: C3_3  and  C4_4 
REMARK    3  A    between atoms: C4_4  and  C5_5 
REMARK    4  A    between atoms: C4_4  and  N1_8 
REMARK       I    between atoms: N1_8  and  C9_10 
REMARK    5  A    between atoms: C9_10  and  C10_12 
REMARK    6  A    between atoms: C10_12  and  N2_13 
REMARK    7  A    between atoms: C10_12  and  C26_32 
REMARK       I    between atoms: N2_13  and  C11_14 
REMARK    8  A    between atoms: C11_14  and  C12_16 
REMARK    9  A    between atoms: C30_36  and  O4_38 
ROOT
HETATM    1  N2  UNL     1      -0.391  52.598 -24.372  1.00  0.00    -0.345 N 
HETATM    2  C11 UNL     1      -0.446  51.592 -23.413  1.00  0.00     0.253 C 
HETATM    3  O2  UNL     1      -1.046  50.541 -23.612  1.00  0.00    -0.271 OA
HETATM    4  H17 UNL     1      -0.136  53.516 -24.038  1.00  0.00     0.163 HD
ENDROOT
BRANCH   1   5
HETATM    5  C10 UNL     1      -1.253  52.523 -25.559  1.00  0.00     0.184 C 
BRANCH   5   6
HETATM    6  C9  UNL     1      -2.671  51.901 -25.320  1.00  0.00     0.243 C 
HETATM    7  N1  UNL     1      -2.911  50.530 -25.375  1.00  0.00    -0.346 N 
HETATM    8  C8  UNL     1      -1.931  49.523 -25.760  1.00  0.00     0.153 C 
HETATM    9  O1  UNL     1      -3.609  52.702 -25.195  1.00  0.00    -0.271 OA
BRANCH   7  10
HETATM   10  C4  UNL     1      -4.247  49.979 -25.043  1.00  0.00     0.113 C 
BRANCH  10  11
HETATM   11  C3  UNL     1      -4.540  50.161 -23.571  1.00  0.00     0.012 C 
HETATM   12  C2  UNL     1      -4.148  49.374 -22.545  1.00  0.00     0.010 C 
HETATM   13  C1  UNL     1      -3.290  48.149 -22.641  1.00  0.00     0.055 C 
BRANCH  12  14
HETATM   14  C30 UNL     1      -4.604  49.782 -21.189  1.00  0.00     0.171 C 
HETATM   15  O3  UNL     1      -4.319  49.260 -20.127  1.00  0.00    -0.646 OA
BRANCH  14  16
HETATM   16  O4  UNL     1      -5.407  50.859 -21.225  1.00  0.00    -0.773 OA
HETATM   17  H44 UNL     1      -5.621  51.006 -20.279  1.00  0.00     0.167 HD
ENDBRANCH  14  16
ENDBRANCH  12  14
ENDBRANCH  10  11
BRANCH  10  18
HETATM   18  C5  UNL     1      -4.589  48.567 -25.609  1.00  0.00     0.004 C 
HETATM   19  C6  UNL     1      -5.971  48.096 -25.146  1.00  0.00     0.012 C 
HETATM   20  C7  UNL     1      -4.457  48.368 -27.118  1.00  0.00     0.012 C 
ENDBRANCH  10  18
ENDBRANCH   7  10
ENDBRANCH   5   6
BRANCH   5  21
HETATM   21  C26 UNL     1      -0.517  51.942 -26.823  1.00  0.00    -0.022 C 
HETATM   22  C27 UNL     1      -1.466  51.281 -27.833  1.00  0.00     0.017 C 
HETATM   23  C28 UNL     1       0.265  53.051 -27.561  1.00  0.00     0.017 C 
HETATM   24  C29 UNL     1       0.522  50.885 -26.374  1.00  0.00     0.017 C 
ENDBRANCH   5  21
ENDBRANCH   1   5
BRANCH   2  25
HETATM   25  C12 UNL     1       0.272  51.962 -22.084  1.00  0.00     0.326 C 
HETATM   26  N3  UNL     1       0.530  53.442 -22.003  1.00  0.00     0.104 N 
HETATM   27  C13 UNL     1       1.037  54.031 -23.241  1.00  0.00     0.311 C 
HETATM   28  C14 UNL     1       1.465  53.747 -20.900  1.00  0.00     0.330 C 
HETATM   29  C15 UNL     1       1.102  52.990 -19.673  1.00  0.00     0.046 A 
HETATM   30  C16 UNL     1       0.232  51.919 -19.574  1.00  0.00    -0.011 A 
HETATM   31  N4  UNL     1       1.608  53.255 -18.432  1.00  0.00    -0.357 N 
HETATM   32  C17 UNL     1       0.186  51.544 -18.193  1.00  0.00    -0.000 A 
HETATM   33  C23 UNL     1      -0.509  51.411 -20.807  1.00  0.00     0.022 C 
HETATM   34  C18 UNL     1      -0.527  50.587 -17.440  1.00  0.00     0.014 A 
HETATM   35  C22 UNL     1       1.073  52.384 -17.511  1.00  0.00     0.043 A 
HETATM   36  C19 UNL     1      -0.313  50.486 -16.059  1.00  0.00     0.001 A 
HETATM   37  C20 UNL     1       0.592  51.324 -15.418  1.00  0.00     0.002 A 
HETATM   38  C21 UNL     1       1.299  52.293 -16.132  1.00  0.00     0.030 A 
HETATM   39  C24 UNL     1      -0.509  49.871 -20.866  1.00  0.00     0.023 C 
HETATM   40  C25 UNL     1      -1.967  51.916 -20.727  1.00  0.00     0.023 C 
HETATM   41  H28 UNL     1       2.262  53.993 -18.207  1.00  0.00     0.166 HD
ENDBRANCH   2  25
TORSDOF 9
ENDMDL
MODEL 3
REMARK minimizedAffinity -9.34819603
REMARK CNNscore 0.332516581
REMARK CNNaffinity 7.04246855
REMARK  9 active torsions:
REMARK  status: ('A' for Active; 'I' for Inactive)
REMARK    1  A    between atoms: C2_2  and  C30_36 
REMARK    2  A    between atoms: C3_3  and  C4_4 
REMARK    3  A    between atoms: C4_4  and  C5_5 
REMARK    4  A    between atoms: C4_4  and  N1_8 
REMARK       I    between atoms: N1_8  and  C9_10 
REMARK    5  A    between atoms: C9_10  and  C10_12 
REMARK    6  A    between atoms: C10_12  and  N2_13 
REMARK    7  A    between atoms: C10_12  and  C26_32 
REMARK       I    between atoms: N2_13  and  C11_14 
REMARK    8  A    between atoms: C11_14  and  C12_16 
REMARK    9  A    between atoms: C30_36  and  O4_38 
ROOT
HETATM    1  N2  UNL     1      -1.964  51.081 -24.004  1.00  0.00    -0.345 N 
HETATM    2  C11 UNL     1      -1.452  50.218 -23.040  1.00  0.00     0.253 C 
HETATM    3  O2  UNL     1      -1.727  49.023 -23.032  1.00  0.00    -0.271 OA
HETATM    4  H17 UNL     1      -1.929  52.065 -23.782  1.00  0.00     0.163 HD
ENDROOT
BRANCH   1   5
HETATM    5  C10 UNL     1      -3.039  50.625 -24.895  1.00  0.00     0.184 C 
BRANCH   5   6
HETATM    6  C9  UNL     1      -4.025  49.577 -24.276  1.00  0.00     0.243 C 
HETATM    7  N1  UNL     1      -5.156  49.945 -23.550  1.00  0.00    -0.346 N 
HETATM    8  C8  UNL     1      -5.509  51.310 -23.183  1.00  0.00     0.153 C 
HETATM    9  O1  UNL     1      -3.686  48.388 -24.358  1.00  0.00    -0.271 OA
BRANCH   7  10
HETATM   10  C4  UNL     1      -6.115  48.921 -23.069  1.00  0.00     0.113 C 
BRANCH  10  11
HETATM   11  C3  UNL     1      -7.445  49.076 -23.771  1.00  0.00     0.012 C 
HETATM   12  C2  UNL     1      -7.826  48.543 -24.952  1.00  0.00     0.010 C 
HETATM   13  C1  UNL     1      -7.011  47.633 -25.821  1.00  0.00     0.055 C 
BRANCH  12  14
HETATM   14  C30 UNL     1      -9.197  48.883 -25.419  1.00  0.00     0.171 C 
HETATM   15  O3  UNL     1     -10.210  48.225 -25.272  1.00  0.00    -0.646 OA
BRANCH  14  16
HETATM   16  O4  UNL     1      -9.237  50.067 -26.054  1.00  0.00    -0.773 OA
HETATM   17  H44 UNL     1     -10.184  50.153 -26.298  1.00  0.00     0.167 HD
ENDBRANCH  14  16
ENDBRANCH  12  14
ENDBRANCH  10  11
BRANCH  10  18
HETATM   18  C5  UNL     1      -6.208  48.711 -21.527  1.00  0.00     0.004 C 
HETATM   19  C6  UNL     1      -4.835  48.413 -20.917  1.00  0.00     0.012 C 
HETATM   20  C7  UNL     1      -6.906  49.800 -20.714  1.00  0.00     0.012 C 
ENDBRANCH  10  18
ENDBRANCH   7  10
ENDBRANCH   5   6
BRANCH   5  21
HETATM   21  C26 UNL     1      -2.527  50.235 -26.332  1.00  0.00    -0.022 C 
HETATM   22  C27 UNL     1      -3.147  51.083 -27.453  1.00  0.00     0.017 C 
HETATM   23  C28 UNL     1      -0.991  50.374 -26.425  1.00  0.00     0.017 C 
HETATM   24  C29 UNL     1      -2.860  48.750 -26.612  1.00  0.00     0.017 C 
ENDBRANCH   5  21
ENDBRANCH   1   5
BRANCH   2  25
HETATM   25  C12 UNL     1      -0.564  50.929 -21.981  1.00  0.00     0.326 C 
HETATM   26  N3  UNL     1      -0.454  52.402 -22.268  1.00  0.00     0.104 N 
HETATM   27  C13 UNL     1      -0.228  52.724 -23.675  1.00  0.00     0.311 C 
HETATM   28  C14 UNL     1       0.615  53.013 -21.451  1.00  0.00     0.330 C 
HETATM   29  C15 UNL     1       0.547  52.535 -20.045  1.00  0.00     0.046 A 
HETATM   30  C16 UNL     1      -0.175  51.461 -19.557  1.00  0.00    -0.011 A 
HETATM   31  N4  UNL     1       1.224  53.110 -19.007  1.00  0.00    -0.357 N 
HETATM   32  C17 UNL     1       0.051  51.409 -18.145  1.00  0.00    -0.000 A 
HETATM   33  C23 UNL     1      -1.056  50.636 -20.492  1.00  0.00     0.022 C 
HETATM   34  C18 UNL     1      -0.418  50.606 -17.084  1.00  0.00     0.014 A 
HETATM   35  C22 UNL     1       0.947  52.439 -17.837  1.00  0.00     0.043 A 
HETATM   36  C19 UNL     1       0.034  50.838 -15.780  1.00  0.00     0.001 A 
HETATM   37  C20 UNL     1       0.940  51.859 -15.514  1.00  0.00     0.002 A 
HETATM   38  C21 UNL     1       1.410  52.682 -16.538  1.00  0.00     0.030 A 
HETATM   39  C24 UNL     1      -0.902  49.127 -20.220  1.00  0.00     0.023 C 
HETATM   40  C25 UNL     1      -2.525  51.049 -20.249  1.00  0.00     0.023 C 
HETATM   41  H28 UNL     1       1.824  53.921 -19.071  1.00  0.00     0.166 HD
ENDBRANCH   2  25
TORSDOF 9
ENDMDL
MODEL 4
REMARK minimizedAffinity -7.37145662
REMARK CNNscore 0.284834385
REMARK CNNaffinity 6.74654531
REMARK  9 active torsions:
REMARK  status: ('A' for Active; 'I' for Inactive)
REMARK    1  A    between atoms: C2_2  and  C30_36 
REMARK    2  A    between atoms: C3_3  and  C4_4 
REMARK    3  A    between atoms: C4_4  and  C5_5 
REMARK    4  A    between atoms: C4_4  and  N1_8 
REMARK       I    between atoms: N1_8  and  C9_10 
REMARK    5  A    between atoms: C9_10  and  C10_12 
REMARK    6  A    between atoms: C10_12  and  N2_13 
REMARK    7  A    between atoms: C10_12  and  C26_32 
REMARK       I    between atoms: N2_13  and  C11_14 
REMARK    8  A    between atoms: C11_14  and  C12_16 
REMARK    9  A    between atoms: C30_36  and  O4_38 
ROOT
HETATM    1  N2  UNL     1       0.185  50.601 -18.372  1.00  0.00    -0.345 N 
HETATM    2  C11 UNL     1      -0.840  51.455 -18.766  1.00  0.00     0.253 C 
HETATM    3  O2  UNL     1      -1.604  51.965 -17.954  1.00  0.00    -0.271 OA
HETATM    4  H17 UNL     1       0.574  50.012 -19.094  1.00  0.00     0.163 HD
ENDROOT
BRANCH   1   5
HETATM    5  C10 UNL     1       0.227  50.099 -16.992  1.00  0.00     0.184 C 
BRANCH   5   6
HETATM    6  C9  UNL     1      -1.067  49.364 -16.505  1.00  0.00     0.243 C 
HETATM    7  N1  UNL     1      -1.039  48.325 -15.577  1.00  0.00    -0.346 N 
HETATM    8  C8  UNL     1       0.170  47.722 -15.032  1.00  0.00     0.153 C 
HETATM    9  O1  UNL     1      -2.122  49.672 -17.077  1.00  0.00    -0.271 OA
BRANCH   7  10
HETATM   10  C4  UNL     1      -2.297  47.727 -15.069  1.00  0.00     0.113 C 
BRANCH  10  11
HETATM   11  C3  UNL     1      -3.379  47.803 -16.122  1.00  0.00     0.012 C 
HETATM   12  C2  UNL     1      -4.004  46.780 -16.744  1.00  0.00     0.010 C 
HETATM   13  C1  UNL     1      -3.784  45.319 -16.493  1.00  0.00     0.055 C 
BRANCH  12  14
HETATM   14  C30 UNL     1      -5.021  47.150 -17.765  1.00  0.00     0.171 C 
HETATM   15  O3  UNL     1      -5.350  46.507 -18.744  1.00  0.00    -0.646 OA
BRANCH  14  16
HETATM   16  O4  UNL     1      -5.602  48.332 -17.498  1.00  0.00    -0.773 OA
HETATM   17  H44 UNL     1      -6.235  48.439 -18.240  1.00  0.00     0.167 HD
ENDBRANCH  14  16
ENDBRANCH  12  14
ENDBRANCH  10  11
BRANCH  10  18
HETATM   18  C5  UNL     1      -2.747  48.142 -13.636  1.00  0.00     0.004 C 
HETATM   19  C6  UNL     1      -2.982  49.653 -13.537  1.00  0.00     0.012 C 
HETATM   20  C7  UNL     1      -3.937  47.397 -13.033  1.00  0.00     0.012 C 
ENDBRANCH  10  18
ENDBRANCH   7  10
ENDBRANCH   5   6
BRANCH   5  21
HETATM   21  C26 UNL     1       0.773  51.161 -15.965  1.00  0.00    -0.022 C 
HETATM   22  C27 UNL     1       1.871  50.610 -15.042  1.00  0.00     0.017 C 
HETATM   23  C28 UNL     1       1.344  52.393 -16.700  1.00  0.00     0.017 C 
HETATM   24  C29 UNL     1      -0.391  51.668 -15.080  1.00  0.00     0.017 C 
ENDBRANCH   5  21
ENDBRANCH   1   5
BRANCH   2  25
HETATM   25  C12 UNL     1      -0.935  51.640 -20.307  1.00  0.00     0.326 C 
HETATM   26  N3  UNL     1       0.382  52.094 -20.878  1.00  0.00     0.104 N 
HETATM   27  C13 UNL     1       1.043  53.142 -20.103  1.00  0.00     0.311 C 
HETATM   28  C14 UNL     1       0.212  52.553 -22.273  1.00  0.00     0.330 C 
HETATM   29  C15 UNL     1      -0.644  51.611 -23.041  1.00  0.00     0.046 A 
HETATM   30  C16 UNL     1      -1.447  50.605 -22.536  1.00  0.00    -0.011 A 
HETATM   31  N4  UNL     1      -0.765  51.623 -24.401  1.00  0.00    -0.357 N 
HETATM   32  C17 UNL     1      -2.055  49.952 -23.656  1.00  0.00    -0.000 A 
HETATM   33  C23 UNL     1      -1.495  50.336 -21.035  1.00  0.00     0.022 C 
HETATM   34  C18 UNL     1      -2.917  48.848 -23.825  1.00  0.00     0.014 A 
HETATM   35  C22 UNL     1      -1.626  50.627 -24.804  1.00  0.00     0.043 A 
HETATM   36  C19 UNL     1      -3.335  48.478 -25.109  1.00  0.00     0.001 A 
HETATM   37  C20 UNL     1      -2.903  49.184 -26.226  1.00  0.00     0.002 A 
HETATM   38  C21 UNL     1      -2.036  50.270 -26.095  1.00  0.00     0.030 A 
HETATM   39  C24 UNL     1      -2.940  50.098 -20.555  1.00  0.00     0.023 C 
HETATM   40  C25 UNL     1      -0.650  49.075 -20.749  1.00  0.00     0.023 C 
HETATM   41  H28 UNL     1      -0.283  52.249 -25.031  1.00  0.00     0.166 HD
ENDBRANCH   2  25
TORSDOF 9
ENDMDL
MODEL 5
REMARK minimizedAffinity -9.14007664
REMARK CNNscore 0.284552544
REMARK CNNaffinity 7.31945562
REMARK  9 active torsions:
REMARK  status: ('A' for Active; 'I' for Inactive)
REMARK    1  A    between atoms: C2_2  and  C30_36 
REMARK    2  A    between atoms: C3_3  and  C4_4 
REMARK    3  A    between atoms: C4_4  and  C5_5 
REMARK    4  A    between atoms: C4_4  and  N1_8 
REMARK       I    between atoms: N1_8  and  C9_10 
REMARK    5  A    between atoms: C9_10  and  C10_12 
REMARK    6  A    between atoms: C10_12  and  N2_13 
REMARK    7  A    between atoms: C10_12  and  C26_32 
REMARK       I    between atoms: N2_13  and  C11_14 
REMARK    8  A    between atoms: C11_14  and  C12_16 
REMARK    9  A    between atoms: C30_36  and  O4_38 
ROOT
HETATM    1  N2  UNL     1      -0.623  52.482 -23.658  1.00  0.00    -0.345 N 
HETATM    2  C11 UNL     1      -0.543  51.402 -22.785  1.00  0.00     0.253 C 
HETATM    3  O2  UNL     1      -1.040  50.314 -23.056  1.00  0.00    -0.271 OA
HETATM    4  H17 UNL     1      -0.452  53.392 -23.256  1.00  0.00     0.163 HD
ENDROOT
BRANCH   1   5
HETATM    5  C10 UNL     1      -1.515  52.413 -24.824  1.00  0.00     0.184 C 
BRANCH   5   6
HETATM    6  C9  UNL     1      -2.523  51.214 -24.829  1.00  0.00     0.243 C 
HETATM    7  N1  UNL     1      -2.204  49.965 -25.356  1.00  0.00    -0.346 N 
HETATM    8  C8  UNL     1      -0.967  49.641 -26.054  1.00  0.00     0.153 C 
HETATM    9  O1  UNL     1      -3.675  51.464 -24.446  1.00  0.00    -0.271 OA
BRANCH   7  10
HETATM   10  C4  UNL     1      -3.153  48.831 -25.248  1.00  0.00     0.113 C 
BRANCH  10  11
HETATM   11  C3  UNL     1      -3.710  48.480 -26.610  1.00  0.00     0.012 C 
HETATM   12  C2  UNL     1      -3.857  49.291 -27.679  1.00  0.00     0.010 C 
HETATM   13  C1  UNL     1      -3.456  50.734 -27.763  1.00  0.00     0.055 C 
BRANCH  12  14
HETATM   14  C30 UNL     1      -4.460  48.681 -28.894  1.00  0.00     0.171 C 
HETATM   15  O3  UNL     1      -4.918  47.559 -29.005  1.00  0.00    -0.646 OA
BRANCH  14  16
HETATM   16  O4  UNL     1      -4.473  49.530 -29.936  1.00  0.00    -0.773 OA
HETATM   17  H44 UNL     1      -4.891  48.998 -30.647  1.00  0.00     0.167 HD
ENDBRANCH  14  16
ENDBRANCH  12  14
ENDBRANCH  10  11
BRANCH  10  18
HETATM   18  C5  UNL     1      -4.212  48.903 -24.106  1.00  0.00     0.004 C 
HETATM   19  C6  UNL     1      -5.569  48.357 -24.563  1.00  0.00     0.012 C 
HETATM   20  C7  UNL     1      -3.835  48.282 -22.763  1.00  0.00     0.012 C 
ENDBRANCH  10  18
ENDBRANCH   7  10
ENDBRANCH   5   6
BRANCH   5  21
HETATM   21  C26 UNL     1      -0.759  52.605 -26.192  1.00  0.00    -0.022 C 
HETATM   22  C27 UNL     1       0.217  51.466 -26.517  1.00  0.00     0.017 C 
HETATM   23  C28 UNL     1      -1.762  52.720 -27.362  1.00  0.00     0.017 C 
HETATM   24  C29 UNL     1       0.040  53.930 -26.158  1.00  0.00     0.017 C 
ENDBRANCH   5  21
ENDBRANCH   1   5
BRANCH   2  25
HETATM   25  C12 UNL     1       0.179  51.736 -21.450  1.00  0.00     0.326 C 
HETATM   26  N3  UNL     1       0.412  53.217 -21.318  1.00  0.00     0.104 N 
HETATM   27  C13 UNL     1       0.899  53.859 -22.537  1.00  0.00     0.311 C 
HETATM   28  C14 UNL     1       1.350  53.499 -20.211  1.00  0.00     0.330 C 
HETATM   29  C15 UNL     1       1.011  52.692 -19.010  1.00  0.00     0.046 A 
HETATM   30  C16 UNL     1       0.161  51.603 -18.942  1.00  0.00    -0.011 A 
HETATM   31  N4  UNL     1       1.522  52.921 -17.764  1.00  0.00    -0.357 N 
HETATM   32  C17 UNL     1       0.132  51.177 -17.576  1.00  0.00    -0.000 A 
HETATM   33  C23 UNL     1      -0.582  51.127 -20.188  1.00  0.00     0.022 C 
HETATM   34  C18 UNL     1      -0.558  50.182 -16.852  1.00  0.00     0.014 A 
HETATM   35  C22 UNL     1       1.010  52.008 -16.871  1.00  0.00     0.043 A 
HETATM   36  C19 UNL     1      -0.331  50.035 -15.478  1.00  0.00     0.001 A 
HETATM   37  C20 UNL     1       0.564  50.866 -14.814  1.00  0.00     0.002 A 
HETATM   38  C21 UNL     1       1.249  51.872 -15.498  1.00  0.00     0.030 A 
HETATM   39  C24 UNL     1      -0.555  49.590 -20.302  1.00  0.00     0.023 C 
HETATM   40  C25 UNL     1      -2.048  51.602 -20.079  1.00  0.00     0.023 C 
HETATM   41  H28 UNL     1       2.165  53.662 -17.517  1.00  0.00     0.166 HD
ENDBRANCH   2  25
TORSDOF 9
ENDMDL
MODEL 6
REMARK minimizedAffinity -9.07285976
REMARK CNNscore 0.261958003
REMARK CNNaffinity 7.09887838
REMARK  9 active torsions:
REMARK  status: ('A' for Active; 'I' for Inactive)
REMARK    1  A    between atoms: C2_2  and  C30_36 
REMARK    2  A    between atoms: C3_3  and  C4_4 
REMARK    3  A    between atoms: C4_4  and  C5_5 
REMARK    4  A    between atoms: C4_4  and  N1_8 
REMARK       I    between atoms: N1_8  and  C9_10 
REMARK    5  A    between atoms: C9_10  and  C10_12 
REMARK    6  A    between atoms: C10_12  and  N2_13 
REMARK    7  A    between atoms: C10_12  and  C26_32 
REMARK       I    between atoms: N2_13  and  C11_14 
REMARK    8  A    between atoms: C11_14  and  C12_16 
REMARK    9  A    between atoms: C30_36  and  O4_38 
ROOT
HETATM    1  N2  UNL     1      -1.816  51.601 -22.185  1.00  0.00    -0.345 N 
HETATM    2  C11 UNL     1      -0.962  50.664 -21.614  1.00  0.00     0.253 C 
HETATM    3  O2  UNL     1      -0.896  49.512 -22.030  1.00  0.00    -0.271 OA
HETATM    4  H17 UNL     1      -2.021  52.415 -21.624  1.00  0.00     0.163 HD
ENDROOT
BRANCH   1   5
HETATM    5  C10 UNL     1      -2.837  51.167 -23.148  1.00  0.00     0.184 C 
BRANCH   5   6
HETATM    6  C9  UNL     1      -2.802  51.892 -24.536  1.00  0.00     0.243 C 
HETATM    7  N1  UNL     1      -1.909  51.541 -25.546  1.00  0.00    -0.346 N 
HETATM    8  C8  UNL     1      -0.842  50.557 -25.417  1.00  0.00     0.153 C 
HETATM    9  O1  UNL     1      -3.534  52.885 -24.657  1.00  0.00    -0.271 OA
BRANCH   7  10
HETATM   10  C4  UNL     1      -1.978  52.186 -26.879  1.00  0.00     0.113 C 
BRANCH  10  11
HETATM   11  C3  UNL     1      -2.753  51.317 -27.844  1.00  0.00     0.012 C 
HETATM   12  C2  UNL     1      -3.269  50.089 -27.622  1.00  0.00     0.010 C 
HETATM   13  C1  UNL     1      -3.219  49.323 -26.334  1.00  0.00     0.055 C 
BRANCH  12  14
HETATM   14  C30 UNL     1      -3.969  49.449 -28.768  1.00  0.00     0.171 C 
HETATM   15  O3  UNL     1      -4.427  48.323 -28.816  1.00  0.00    -0.646 OA
BRANCH  14  16
HETATM   16  O4  UNL     1      -4.076  50.275 -29.823  1.00  0.00    -0.773 OA
HETATM   17  H44 UNL     1      -4.549  49.726 -30.485  1.00  0.00     0.167 HD
ENDBRANCH  14  16
ENDBRANCH  12  14
ENDBRANCH  10  11
BRANCH  10  18
HETATM   18  C5  UNL     1      -0.652  52.775 -27.448  1.00  0.00     0.004 C 
HETATM   19  C6  UNL     1       0.041  53.685 -26.429  1.00  0.00     0.012 C 
HETATM   20  C7  UNL     1       0.360  51.789 -28.028  1.00  0.00     0.012 C 
ENDBRANCH  10  18
ENDBRANCH   7  10
ENDBRANCH   5   6
BRANCH   5  21
HETATM   21  C26 UNL     1      -4.279  51.076 -22.522  1.00  0.00    -0.022 C 
HETATM   22  C27 UNL     1      -4.409  51.807 -21.177  1.00  0.00     0.017 C 
HETATM   23  C28 UNL     1      -5.335  51.663 -23.485  1.00  0.00     0.017 C 
HETATM   24  C29 UNL     1      -4.653  49.591 -22.301  1.00  0.00     0.017 C 
ENDBRANCH   5  21
ENDBRANCH   1   5
BRANCH   2  25
HETATM   25  C12 UNL     1      -0.165  51.211 -20.397  1.00  0.00     0.326 C 
HETATM   26  N3  UNL     1      -0.031  52.709 -20.468  1.00  0.00     0.104 N 
HETATM   27  C13 UNL     1       0.312  53.218 -21.794  1.00  0.00     0.311 C 
HETATM   28  C14 UNL     1       0.967  53.189 -19.489  1.00  0.00     0.330 C 
HETATM   29  C15 UNL     1       0.781  52.523 -18.173  1.00  0.00     0.046 A 
HETATM   30  C16 UNL     1       0.020  51.401 -17.900  1.00  0.00    -0.011 A 
HETATM   31  N4  UNL     1       1.369  52.941 -17.013  1.00  0.00    -0.357 N 
HETATM   32  C17 UNL     1       0.128  51.153 -16.494  1.00  0.00    -0.000 A 
HETATM   33  C23 UNL     1      -0.780  50.723 -19.009  1.00  0.00     0.022 C 
HETATM   34  C18 UNL     1      -0.429  50.217 -15.597  1.00  0.00     0.014 A 
HETATM   35  C22 UNL     1       0.995  52.120 -15.974  1.00  0.00     0.043 A 
HETATM   36  C19 UNL     1      -0.086  50.262 -14.240  1.00  0.00     0.001 A 
HETATM   37  C20 UNL     1       0.794  51.226 -13.762  1.00  0.00     0.002 A 
HETATM   38  C21 UNL     1       1.349  52.177 -14.620  1.00  0.00     0.030 A 
HETATM   39  C24 UNL     1      -0.650  49.189 -18.935  1.00  0.00     0.023 C 
HETATM   40  C25 UNL     1      -2.263  51.116 -18.834  1.00  0.00     0.023 C 
HETATM   41  H28 UNL     1       1.973  53.746 -16.916  1.00  0.00     0.166 HD
ENDBRANCH   2  25
TORSDOF 9
ENDMDL
MODEL 7
REMARK minimizedAffinity -8.45906925
REMARK CNNscore 0.257370591
REMARK CNNaffinity 6.45807648
REMARK  9 active torsions:
REMARK  status: ('A' for Active; 'I' for Inactive)
REMARK    1  A    between atoms: C2_2  and  C30_36 
REMARK    2  A    between atoms: C3_3  and  C4_4 
REMARK    3  A    between atoms: C4_4  and  C5_5 
REMARK    4  A    between atoms: C4_4  and  N1_8 
REMARK       I    between atoms: N1_8  and  C9_10 
REMARK    5  A    between atoms: C9_10  and  C10_12 
REMARK    6  A    between atoms: C10_12  and  N2_13 
REMARK    7  A    between atoms: C10_12  and  C26_32 
REMARK       I    between atoms: N2_13  and  C11_14 
REMARK    8  A    between atoms: C11_14  and  C12_16 
REMARK    9  A    between atoms: C30_36  and  O4_38 
ROOT
HETATM    1  N2  UNL     1      -1.878  52.105 -22.657  1.00  0.00    -0.345 N 
HETATM    2  C11 UNL     1      -1.053  51.073 -22.221  1.00  0.00     0.253 C 
HETATM    3  O2  UNL     1      -1.072  49.965 -22.746  1.00  0.00    -0.271 OA
HETATM    4  H17 UNL     1      -2.011  52.869 -22.012  1.00  0.00     0.163 HD
ENDROOT
BRANCH   1   5
HETATM    5  C10 UNL     1      -2.964  51.820 -23.605  1.00  0.00     0.184 C 
BRANCH   5   6
HETATM    6  C9  UNL     1      -4.204  51.078 -23.002  1.00  0.00     0.243 C 
HETATM    7  N1  UNL     1      -4.143  49.766 -22.536  1.00  0.00    -0.346 N 
HETATM    8  C8  UNL     1      -2.983  48.892 -22.643  1.00  0.00     0.153 C 
HETATM    9  O1  UNL     1      -5.288  51.676 -23.067  1.00  0.00    -0.271 OA
BRANCH   7  10
HETATM   10  C4  UNL     1      -5.316  49.138 -21.881  1.00  0.00     0.113 C 
BRANCH  10  11
HETATM   11  C3  UNL     1      -6.530  49.225 -22.779  1.00  0.00     0.012 C 
HETATM   12  C2  UNL     1      -7.253  48.208 -23.294  1.00  0.00     0.010 C 
HETATM   13  C1  UNL     1      -7.030  46.745 -23.052  1.00  0.00     0.055 C 
BRANCH  12  14
HETATM   14  C30 UNL     1      -8.392  48.586 -24.173  1.00  0.00     0.171 C 
HETATM   15  O3  UNL     1      -9.432  47.976 -24.336  1.00  0.00    -0.646 OA
BRANCH  14  16
HETATM   16  O4  UNL     1      -8.175  49.748 -24.814  1.00  0.00    -0.773 OA
HETATM   17  H44 UNL     1      -8.994  49.863 -25.342  1.00  0.00     0.167 HD
ENDBRANCH  14  16
ENDBRANCH  12  14
ENDBRANCH  10  11
BRANCH  10  18
HETATM   18  C5  UNL     1      -5.576  49.513 -20.390  1.00  0.00     0.004 C 
HETATM   19  C6  UNL     1      -7.039  49.903 -20.156  1.00  0.00     0.012 C 
HETATM   20  C7  UNL     1      -5.137  48.505 -19.329  1.00  0.00     0.012 C 
ENDBRANCH  10  18
ENDBRANCH   7  10
ENDBRANCH   5   6
BRANCH   5  21
HETATM   21  C26 UNL     1      -2.456  51.198 -24.959  1.00  0.00    -0.022 C 
HETATM   22  C27 UNL     1      -2.806  49.711 -25.118  1.00  0.00     0.017 C 
HETATM   23  C28 UNL     1      -3.046  51.957 -26.168  1.00  0.00     0.017 C 
HETATM   24  C29 UNL     1      -0.917  51.343 -25.048  1.00  0.00     0.017 C 
ENDBRANCH   5  21
ENDBRANCH   1   5
BRANCH   2  25
HETATM   25  C12 UNL     1      -0.174  51.457 -20.999  1.00  0.00     0.326 C 
HETATM   26  N3  UNL     1       0.211  52.911 -21.045  1.00  0.00     0.104 N 
HETATM   27  C13 UNL     1       0.634  53.377 -22.365  1.00  0.00     0.311 C 
HETATM   28  C14 UNL     1       1.277  53.199 -20.063  1.00  0.00     0.330 C 
HETATM   29  C15 UNL     1       0.983  52.552 -18.757  1.00  0.00     0.046 A 
HETATM   30  C16 UNL     1       0.044  51.570 -18.499  1.00  0.00    -0.011 A 
HETATM   31  N4  UNL     1       1.635  52.845 -17.593  1.00  0.00    -0.357 N 
HETATM   32  C17 UNL     1       0.111  51.283 -17.098  1.00  0.00    -0.000 A 
HETATM   33  C23 UNL     1      -0.861  51.056 -19.616  1.00  0.00     0.022 C 
HETATM   34  C18 UNL     1      -0.595  50.441 -16.214  1.00  0.00     0.014 A 
HETATM   35  C22 UNL     1       1.129  52.081 -16.566  1.00  0.00     0.043 A 
HETATM   36  C19 UNL     1      -0.248  50.404 -14.858  1.00  0.00     0.001 A 
HETATM   37  C20 UNL     1       0.784  51.197 -14.368  1.00  0.00     0.002 A 
HETATM   38  C21 UNL     1       1.490  52.054 -15.213  1.00  0.00     0.030 A 
HETATM   39  C24 UNL     1      -0.992  49.521 -19.568  1.00  0.00     0.023 C 
HETATM   40  C25 UNL     1      -2.256  51.691 -19.428  1.00  0.00     0.023 C 
HETATM   41  H28 UNL     1       2.367  53.535 -17.485  1.00  0.00     0.166 HD
ENDBRANCH   2  25
TORSDOF 9
ENDMDL
MODEL 8
REMARK minimizedAffinity -7.97769356
REMARK CNNscore 0.22066614
REMARK CNNaffinity 6.97899055
REMARK  9 active torsions:
REMARK  status: ('A' for Active; 'I' for Inactive)
REMARK    1  A    between atoms: C2_2  and  C30_36 
REMARK    2  A    between atoms: C3_3  and  C4_4 
REMARK    3  A    between atoms: C4_4  and  C5_5 
REMARK    4  A    between atoms: C4_4  and  N1_8 
REMARK       I    between atoms: N1_8  and  C9_10 
REMARK    5  A    between atoms: C9_10  and  C10_12 
REMARK    6  A    between atoms: C10_12  and  N2_13 
REMARK    7  A    between atoms: C10_12  and  C26_32 
REMARK       I    between atoms: N2_13  and  C11_14 
REMARK    8  A    between atoms: C11_14  and  C12_16 
REMARK    9  A    between atoms: C30_36  and  O4_38 
ROOT
HETATM    1  N2  UNL     1      -1.220  50.434 -18.843  1.00  0.00    -0.345 N 
HETATM    2  C11 UNL     1      -1.754  51.617 -19.346  1.00  0.00     0.253 C 
HETATM    3  O2  UNL     1      -2.694  52.185 -18.800  1.00  0.00    -0.271 OA
HETATM    4  H17 UNL     1      -0.662  49.891 -19.485  1.00  0.00     0.163 HD
ENDROOT
BRANCH   1   5
HETATM    5  C10 UNL     1      -1.927  49.710 -17.779  1.00  0.00     0.184 C 
BRANCH   5   6
HETATM    6  C9  UNL     1      -1.088  49.430 -16.486  1.00  0.00     0.243 C 
HETATM    7  N1  UNL     1      -1.467  49.894 -15.228  1.00  0.00    -0.346 N 
HETATM    8  C8  UNL     1      -2.602  50.768 -14.964  1.00  0.00     0.153 C 
HETATM    9  O1  UNL     1       0.007  48.873 -16.651  1.00  0.00    -0.271 OA
BRANCH   7  10
HETATM   10  C4  UNL     1      -0.696  49.520 -14.017  1.00  0.00     0.113 C 
BRANCH  10  11
HETATM   11  C3  UNL     1       0.677  50.152 -14.052  1.00  0.00     0.012 C 
HETATM   12  C2  UNL     1       1.021  51.407 -13.691  1.00  0.00     0.010 C 
HETATM   13  C1  UNL     1       0.106  52.453 -13.130  1.00  0.00     0.055 C 
BRANCH  12  14
HETATM   14  C30 UNL     1       2.454  51.771 -13.853  1.00  0.00     0.171 C 
HETATM   15  O3  UNL     1       3.195  51.460 -14.767  1.00  0.00    -0.646 OA
BRANCH  14  16
HETATM   16  O4  UNL     1       2.901  52.538 -12.844  1.00  0.00    -0.773 OA
HETATM   17  H44 UNL     1       3.839  52.694 -13.084  1.00  0.00     0.167 HD
ENDBRANCH  14  16
ENDBRANCH  12  14
ENDBRANCH  10  11
BRANCH  10  18
HETATM   18  C5  UNL     1      -0.715  48.017 -13.604  1.00  0.00     0.004 C 
HETATM   19  C6  UNL     1       0.701  47.439 -13.524  1.00  0.00     0.012 C 
HETATM   20  C7  UNL     1      -1.493  47.648 -12.342  1.00  0.00     0.012 C 
ENDBRANCH  10  18
ENDBRANCH   7  10
ENDBRANCH   5   6
BRANCH   5  21
HETATM   21  C26 UNL     1      -2.712  48.450 -18.304  1.00  0.00    -0.022 C 
HETATM   22  C27 UNL     1      -1.954  47.663 -19.383  1.00  0.00     0.017 C 
HETATM   23  C28 UNL     1      -3.032  47.480 -17.145  1.00  0.00     0.017 C 
HETATM   24  C29 UNL     1      -4.069  48.899 -18.898  1.00  0.00     0.017 C 
ENDBRANCH   5  21
ENDBRANCH   1   5
BRANCH   2  25
HETATM   25  C12 UNL     1      -1.079  52.090 -20.664  1.00  0.00     0.326 C 
HETATM   26  N3  UNL     1       0.404  52.270 -20.477  1.00  0.00     0.104 N 
HETATM   27  C13 UNL     1       0.775  52.948 -19.237  1.00  0.00     0.311 C 
HETATM   28  C14 UNL     1       0.988  52.997 -21.624  1.00  0.00     0.330 C 
HETATM   29  C15 UNL     1       0.461  52.469 -22.910  1.00  0.00     0.046 A 
HETATM   30  C16 UNL     1      -0.631  51.641 -23.093  1.00  0.00    -0.011 A 
HETATM   31  N4  UNL     1       1.001  52.753 -24.132  1.00  0.00    -0.357 N 
HETATM   32  C17 UNL     1      -0.731  51.383 -24.498  1.00  0.00    -0.000 A 
HETATM   33  C23 UNL     1      -1.424  51.133 -21.892  1.00  0.00     0.022 C 
HETATM   34  C18 UNL     1      -1.571  50.598 -25.315  1.00  0.00     0.014 A 
HETATM   35  C22 UNL     1       0.290  52.110 -25.120  1.00  0.00     0.043 A 
HETATM   36  C19 UNL     1      -1.384  50.586 -26.702  1.00  0.00     0.001 A 
HETATM   37  C20 UNL     1      -0.371  51.337 -27.288  1.00  0.00     0.002 A 
HETATM   38  C21 UNL     1       0.488  52.111 -26.506  1.00  0.00     0.030 A 
HETATM   39  C24 UNL     1      -2.942  51.208 -22.152  1.00  0.00     0.023 C 
HETATM   40  C25 UNL     1      -1.023  49.663 -21.643  1.00  0.00     0.023 C 
HETATM   41  H28 UNL     1       1.815  53.329 -24.298  1.00  0.00     0.166 HD
ENDBRANCH   2  25
TORSDOF 9
ENDMDL
MODEL 9
REMARK minimizedAffinity -7.68040323
REMARK CNNscore 0.218626201
REMARK CNNaffinity 7.04907417
REMARK  9 active torsions:
REMARK  status: ('A' for Active; 'I' for Inactive)
REMARK    1  A    between atoms: C2_2  and  C30_36 
REMARK    2  A    between atoms: C3_3  and  C4_4 
REMARK    3  A    between atoms: C4_4  and  C5_5 
REMARK    4  A    between atoms: C4_4  and  N1_8 
REMARK       I    between atoms: N1_8  and  C9_10 
REMARK    5  A    between atoms: C9_10  and  C10_12 
REMARK    6  A    between atoms: C10_12  and  N2_13 
REMARK    7  A    between atoms: C10_12  and  C26_32 
REMARK       I    between atoms: N2_13  and  C11_14 
REMARK    8  A    between atoms: C11_14  and  C12_16 
REMARK    9  A    between atoms: C30_36  and  O4_38 
ROOT
HETATM    1  N2  UNL     1      -0.270  50.974 -15.498  1.00  0.00    -0.345 N 
HETATM    2  C11 UNL     1      -1.094  50.834 -16.610  1.00  0.00     0.253 C 
HETATM    3  O2  UNL     1      -2.086  50.113 -16.593  1.00  0.00    -0.271 OA
HETATM    4  H17 UNL     1       0.653  51.341 -15.672  1.00  0.00     0.163 HD
ENDROOT
BRANCH   1   5
HETATM    5  C10 UNL     1      -0.436  50.073 -14.349  1.00  0.00     0.184 C 
BRANCH   5   6
HETATM    6  C9  UNL     1      -0.895  50.760 -13.018  1.00  0.00     0.243 C 
HETATM    7  N1  UNL     1      -2.230  51.043 -12.738  1.00  0.00    -0.346 N 
HETATM    8  C8  UNL     1      -3.340  50.847 -13.661  1.00  0.00     0.153 C 
HETATM    9  O1  UNL     1       0.006  51.155 -12.265  1.00  0.00    -0.271 OA
BRANCH   7  10
HETATM   10  C4  UNL     1      -2.628  51.602 -11.424  1.00  0.00     0.113 C 
BRANCH  10  11
HETATM   11  C3  UNL     1      -3.863  50.899 -10.905  1.00  0.00     0.012 C 
HETATM   12  C2  UNL     1      -3.982  50.151  -9.787  1.00  0.00     0.010 C 
HETATM   13  C1  UNL     1      -2.907  49.882  -8.778  1.00  0.00     0.055 C 
BRANCH  12  14
HETATM   14  C30 UNL     1      -5.321  49.554  -9.532  1.00  0.00     0.171 C 
HETATM   15  O3  UNL     1      -5.562  48.442  -9.099  1.00  0.00    -0.646 OA
BRANCH  14  16
HETATM   16  O4  UNL     1      -6.320  50.403  -9.826  1.00  0.00    -0.773 OA
HETATM   17  H44 UNL     1      -7.123  49.881  -9.611  1.00  0.00     0.167 HD
ENDBRANCH  14  16
ENDBRANCH  12  14
ENDBRANCH  10  11
BRANCH  10  18
HETATM   18  C5  UNL     1      -2.658  53.155 -11.296  1.00  0.00     0.004 C 
HETATM   19  C6  UNL     1      -3.975  53.644 -10.685  1.00  0.00     0.012 C 
HETATM   20  C7  UNL     1      -1.482  53.821 -10.583  1.00  0.00     0.012 C 
ENDBRANCH  10  18
ENDBRANCH   7  10
ENDBRANCH   5   6
BRANCH   5  21
HETATM   21  C26 UNL     1       0.771  49.081 -14.161  1.00  0.00    -0.022 C 
HETATM   22  C27 UNL     1       0.645  48.192 -12.916  1.00  0.00     0.017 C 
HETATM   23  C28 UNL     1       0.920  48.158 -15.391  1.00  0.00     0.017 C 
HETATM   24  C29 UNL     1       2.088  49.887 -14.046  1.00  0.00     0.017 C 
ENDBRANCH   5  21
ENDBRANCH   1   5
BRANCH   2  25
HETATM   25  C12 UNL     1      -0.599  51.629 -17.851  1.00  0.00     0.326 C 
HETATM   26  N3  UNL     1       0.863  51.966 -17.730  1.00  0.00     0.104 N 
HETATM   27  C13 UNL     1       1.260  52.447 -16.408  1.00  0.00     0.311 C 
HETATM   28  C14 UNL     1       1.253  52.963 -18.748  1.00  0.00     0.330 C 
HETATM   29  C15 UNL     1       0.679  52.618 -20.076  1.00  0.00     0.046 A 
HETATM   30  C16 UNL     1      -0.319  51.699 -20.346  1.00  0.00    -0.011 A 
HETATM   31  N4  UNL     1       1.071  53.191 -21.252  1.00  0.00    -0.357 N 
HETATM   32  C17 UNL     1      -0.512  51.695 -21.764  1.00  0.00    -0.000 A 
HETATM   33  C23 UNL     1      -0.937  50.878 -19.218  1.00  0.00     0.022 C 
HETATM   34  C18 UNL     1      -1.323  50.969 -22.662  1.00  0.00     0.014 A 
HETATM   35  C22 UNL     1       0.356  52.654 -22.298  1.00  0.00     0.043 A 
HETATM   36  C19 UNL     1      -1.260  51.239 -24.034  1.00  0.00     0.001 A 
HETATM   37  C20 UNL     1      -0.399  52.213 -24.527  1.00  0.00     0.002 A 
HETATM   38  C21 UNL     1       0.429  52.937 -23.667  1.00  0.00     0.030 A 
HETATM   39  C24 UNL     1      -2.469  50.797 -19.359  1.00  0.00     0.023 C 
HETATM   40  C25 UNL     1      -0.344  49.453 -19.286  1.00  0.00     0.023 C 
HETATM   41  H28 UNL     1       1.793  53.892 -21.355  1.00  0.00     0.166 HD
ENDBRANCH   2  25
TORSDOF 9
ENDMDL
