MODEL 1
REMARK minimizedAffinity -9.88824081
REMARK  5 active torsions:
REMARK  status: ('A' for Active; 'I' for Inactive)
REMARK    1  A    between atoms: C3_3  and  C4_4 
REMARK    2  A    between atoms: C4_4  and  O1_5 
REMARK    3  A    between atoms: C6_9  and  C7_10 
REMARK    4  A    between atoms: C20_24  and  O5_25 
REMARK    5  A    between atoms: C21_26  and  O6_27 
ROOT
HETATM    1  C7  UNL     1       6.576  66.488 -36.993  1.00  0.00     0.089 C 
HETATM    2  C8  UNL     1       7.627  66.855 -38.062  1.00  0.00     0.049 C 
HETATM    3  O4  UNL     1       5.225  66.427 -37.552  1.00  0.00    -0.365 OA
HETATM    4  C9  UNL     1       4.392  67.356 -36.774  1.00  0.00     0.074 C 
HETATM    5  C10 UNL     1       4.259  66.760 -35.351  1.00  0.00     0.040 C 
HETATM    6  C11 UNL     1       5.641  67.065 -34.736  1.00  0.00     0.011 C 
HETATM    7  C12 UNL     1       6.410  67.640 -35.953  1.00  0.00     0.034 C 
HETATM    8  C13 UNL     1       5.315  68.565 -36.590  1.00  0.00    -0.006 C 
HETATM    9  C14 UNL     1       4.824  69.676 -35.624  1.00  0.00     0.019 C 
HETATM   10  C15 UNL     1       5.556  69.244 -37.959  1.00  0.00     0.013 C 
HETATM   11  C16 UNL     1       4.236  69.585 -38.679  1.00  0.00     0.007 C 
HETATM   12  C17 UNL     1       3.357  68.324 -38.901  1.00  0.00     0.011 C 
HETATM   13  C18 UNL     1       3.078  67.653 -37.513  1.00  0.00     0.029 C 
HETATM   14  C19 UNL     1       2.216  66.388 -37.652  1.00  0.00     0.043 C 
HETATM   15  C20 UNL     1       0.918  66.640 -38.425  1.00  0.00     0.154 C 
HETATM   16  C21 UNL     1       1.205  67.261 -39.812  1.00  0.00     0.098 C 
HETATM   17  C22 UNL     1      -0.095  67.439 -40.624  1.00  0.00     0.042 C 
HETATM   18  C23 UNL     1       0.196  67.930 -42.044  1.00  0.00     0.010 C 
HETATM   19  C24 UNL     1       1.088  69.161 -42.073  1.00  0.00     0.079 C 
HETATM   20  C25 UNL     1       2.301  69.011 -41.168  1.00  0.00     0.138 C 
HETATM   21  O7  UNL     1       3.418  69.300 -41.596  1.00  0.00    -0.297 OA
HETATM   22  C26 UNL     1       2.027  68.596 -39.705  1.00  0.00     0.054 C 
HETATM   23  C27 UNL     1       1.250  69.772 -39.063  1.00  0.00     0.027 C 
ENDROOT
BRANCH   1  24
HETATM   24  C6  UNL     1       6.912  65.061 -36.447  1.00  0.00     0.170 C 
HETATM   25  O3  UNL     1       6.271  64.861 -35.174  1.00  0.00    -0.309 OA
HETATM   26  C5  UNL     1       6.536  63.729 -34.470  1.00  0.00     0.292 C 
HETATM   27  C3  UNL     1       7.703  62.909 -34.900  1.00  0.00     0.042 C 
HETATM   28  O2  UNL     1       5.850  63.404 -33.507  1.00  0.00    -0.260 OA
HETATM   29  C2  UNL     1       8.619  63.421 -35.749  1.00  0.00    -0.067 C 
HETATM   30  C1  UNL     1       9.886  62.732 -36.170  1.00  0.00     0.044 C 
HETATM   31  C28 UNL     1       8.417  64.798 -36.329  1.00  0.00     0.070 C 
BRANCH  27  32
HETATM   32  C4  UNL     1       7.755  61.542 -34.287  1.00  0.00     0.209 C 
BRANCH  32  33
HETATM   33  O1  UNL     1       8.238  61.632 -32.955  1.00  0.00    -0.396 OA
HETATM   34  H6  UNL     1       7.465  61.832 -32.393  1.00  0.00     0.209 HD
ENDBRANCH  32  33
ENDBRANCH  27  32
ENDBRANCH   1  24
BRANCH  15  35
HETATM   35  O5  UNL     1       0.035  67.453 -37.656  1.00  0.00    -0.392 OA
HETATM   36  H28 UNL     1      -0.147  66.983 -36.822  1.00  0.00     0.210 HD
ENDBRANCH  15  35
BRANCH  16  37
HETATM   37  O6  UNL     1       2.010  66.299 -40.535  1.00  0.00    -0.386 OA
HETATM   38  H29 UNL     1       1.495  65.480 -40.641  1.00  0.00     0.210 HD
ENDBRANCH  16  37
TORSDOF 5
ENDMDL
MODEL 2
REMARK minimizedAffinity -9.74628162
REMARK  5 active torsions:
REMARK  status: ('A' for Active; 'I' for Inactive)
REMARK    1  A    between atoms: C3_3  and  C4_4 
REMARK    2  A    between atoms: C4_4  and  O1_5 
REMARK    3  A    between atoms: C6_9  and  C7_10 
REMARK    4  A    between atoms: C20_24  and  O5_25 
REMARK    5  A    between atoms: C21_26  and  O6_27 
ROOT
HETATM    1  C7  UNL     1      -2.366  50.162 -25.474  1.00  0.00     0.089 C 
HETATM    2  C8  UNL     1      -2.750  48.717 -25.860  1.00  0.00     0.049 C 
HETATM    3  O4  UNL     1      -1.889  50.251 -24.094  1.00  0.00    -0.365 OA
HETATM    4  C9  UNL     1      -2.734  51.238 -23.407  1.00  0.00     0.074 C 
HETATM    5  C10 UNL     1      -2.411  52.620 -24.028  1.00  0.00     0.040 C 
HETATM    6  C11 UNL     1      -3.137  52.548 -25.386  1.00  0.00     0.011 C 
HETATM    7  C12 UNL     1      -3.627  51.077 -25.408  1.00  0.00     0.034 C 
HETATM    8  C13 UNL     1      -4.135  50.909 -23.933  1.00  0.00    -0.006 C 
HETATM    9  C14 UNL     1      -5.268  51.904 -23.566  1.00  0.00     0.019 C 
HETATM   10  C15 UNL     1      -4.573  49.523 -23.404  1.00  0.00     0.013 C 
HETATM   11  C16 UNL     1      -4.456  49.423 -21.870  1.00  0.00     0.007 C 
HETATM   12  C17 UNL     1      -3.008  49.703 -21.382  1.00  0.00     0.011 C 
HETATM   13  C18 UNL     1      -2.573  51.122 -21.883  1.00  0.00     0.029 C 
HETATM   14  C19 UNL     1      -1.141  51.469 -21.444  1.00  0.00     0.043 C 
HETATM   15  C20 UNL     1      -0.934  51.319 -19.934  1.00  0.00     0.154 C 
HETATM   16  C21 UNL     1      -1.325  49.901 -19.455  1.00  0.00     0.098 C 
HETATM   17  C22 UNL     1      -1.038  49.722 -17.949  1.00  0.00     0.042 C 
HETATM   18  C23 UNL     1      -1.299  48.284 -17.497  1.00  0.00     0.010 C 
HETATM   19  C24 UNL     1      -2.672  47.774 -17.906  1.00  0.00     0.079 C 
HETATM   20  C25 UNL     1      -2.983  48.073 -19.365  1.00  0.00     0.138 C 
HETATM   21  O7  UNL     1      -3.433  47.181 -20.085  1.00  0.00    -0.297 OA
HETATM   22  C26 UNL     1      -2.807  49.538 -19.826  1.00  0.00     0.054 C 
HETATM   23  C27 UNL     1      -3.874  50.360 -19.062  1.00  0.00     0.027 C 
ENDROOT
BRANCH   1  24
HETATM   24  C6  UNL     1      -1.187  50.616 -26.397  1.00  0.00     0.170 C 
HETATM   25  O3  UNL     1       0.063  50.486 -25.695  1.00  0.00    -0.309 OA
HETATM   26  C5  UNL     1       1.201  50.946 -26.277  1.00  0.00     0.292 C 
HETATM   27  C3  UNL     1       1.055  51.834 -27.465  1.00  0.00     0.042 C 
HETATM   28  O2  UNL     1       2.306  50.654 -25.832  1.00  0.00    -0.260 OA
HETATM   29  C2  UNL     1      -0.140  52.389 -27.757  1.00  0.00    -0.067 C 
HETATM   30  C1  UNL     1      -0.384  53.378 -28.861  1.00  0.00     0.044 C 
HETATM   31  C28 UNL     1      -1.350  52.045 -26.928  1.00  0.00     0.070 C 
BRANCH  27  32
HETATM   32  C4  UNL     1       2.326  52.051 -28.230  1.00  0.00     0.209 C 
BRANCH  32  33
HETATM   33  O1  UNL     1       3.436  51.655 -27.439  1.00  0.00    -0.396 OA
HETATM   34  H6  UNL     1       3.544  50.694 -27.574  1.00  0.00     0.209 HD
ENDBRANCH  32  33
ENDBRANCH  27  32
ENDBRANCH   1  24
BRANCH  15  35
HETATM   35  O5  UNL     1      -1.656  52.329 -19.234  1.00  0.00    -0.392 OA
HETATM   36  H28 UNL     1      -1.327  53.193 -19.542  1.00  0.00     0.210 HD
ENDBRANCH  15  35
BRANCH  16  37
HETATM   37  O6  UNL     1      -0.452  48.978 -20.149  1.00  0.00    -0.386 OA
HETATM   38  H29 UNL     1       0.468  49.169 -19.896  1.00  0.00     0.210 HD
ENDBRANCH  16  37
TORSDOF 5
ENDMDL
MODEL 3
REMARK minimizedAffinity -9.46563816
REMARK  5 active torsions:
REMARK  status: ('A' for Active; 'I' for Inactive)
REMARK    1  A    between atoms: C3_3  and  C4_4 
REMARK    2  A    between atoms: C4_4  and  O1_5 
REMARK    3  A    between atoms: C6_9  and  C7_10 
REMARK    4  A    between atoms: C20_24  and  O5_25 
REMARK    5  A    between atoms: C21_26  and  O6_27 
ROOT
HETATM    1  C7  UNL     1      -3.125  50.289 -23.537  1.00  0.00     0.089 C 
HETATM    2  C8  UNL     1      -2.737  49.213 -24.574  1.00  0.00     0.049 C 
HETATM    3  O4  UNL     1      -3.055  49.778 -22.168  1.00  0.00    -0.365 OA
HETATM    4  C9  UNL     1      -4.377  49.985 -21.560  1.00  0.00     0.074 C 
HETATM    5  C10 UNL     1      -4.569  51.514 -21.404  1.00  0.00     0.040 C 
HETATM    6  C11 UNL     1      -4.869  51.957 -22.850  1.00  0.00     0.011 C 
HETATM    7  C12 UNL     1      -4.641  50.643 -23.640  1.00  0.00     0.034 C 
HETATM    8  C13 UNL     1      -5.334  49.600 -22.694  1.00  0.00    -0.006 C 
HETATM    9  C14 UNL     1      -6.840  49.898 -22.465  1.00  0.00     0.019 C 
HETATM   10  C15 UNL     1      -5.220  48.084 -22.973  1.00  0.00     0.013 C 
HETATM   11  C16 UNL     1      -5.413  47.241 -21.697  1.00  0.00     0.007 C 
HETATM   12  C17 UNL     1      -4.385  47.618 -20.595  1.00  0.00     0.011 C 
HETATM   13  C18 UNL     1      -4.522  49.147 -20.280  1.00  0.00     0.029 C 
HETATM   14  C19 UNL     1      -3.528  49.600 -19.199  1.00  0.00     0.043 C 
HETATM   15  C20 UNL     1      -3.615  48.754 -17.926  1.00  0.00     0.154 C 
HETATM   16  C21 UNL     1      -3.434  47.251 -18.240  1.00  0.00     0.098 C 
HETATM   17  C22 UNL     1      -3.438  46.406 -16.948  1.00  0.00     0.042 C 
HETATM   18  C23 UNL     1      -3.130  44.936 -17.240  1.00  0.00     0.010 C 
HETATM   19  C24 UNL     1      -4.009  44.353 -18.336  1.00  0.00     0.079 C 
HETATM   20  C25 UNL     1      -4.089  45.262 -19.551  1.00  0.00     0.138 C 
HETATM   21  O7  UNL     1      -3.927  44.789 -20.676  1.00  0.00    -0.297 OA
HETATM   22  C26 UNL     1      -4.481  46.735 -19.291  1.00  0.00     0.054 C 
HETATM   23  C27 UNL     1      -5.941  46.707 -18.775  1.00  0.00     0.027 C 
ENDROOT
BRANCH   1  24
HETATM   24  C6  UNL     1      -2.097  51.463 -23.643  1.00  0.00     0.170 C 
HETATM   25  O3  UNL     1      -1.691  51.635 -25.014  1.00  0.00    -0.309 OA
HETATM   26  C5  UNL     1      -0.706  52.525 -25.306  1.00  0.00     0.292 C 
HETATM   27  C3  UNL     1       0.111  53.042 -24.173  1.00  0.00     0.042 C 
HETATM   28  O2  UNL     1      -0.488  52.876 -26.461  1.00  0.00    -0.260 OA
HETATM   29  C2  UNL     1       0.070  52.433 -22.969  1.00  0.00    -0.067 C 
HETATM   30  C1  UNL     1       0.923  52.797 -21.789  1.00  0.00     0.044 C 
HETATM   31  C28 UNL     1      -0.868  51.274 -22.747  1.00  0.00     0.070 C 
BRANCH  27  32
HETATM   32  C4  UNL     1       0.959  54.229 -24.518  1.00  0.00     0.209 C 
BRANCH  32  33
HETATM   33  O1  UNL     1       0.197  55.159 -25.273  1.00  0.00    -0.396 OA
HETATM   34  H6  UNL     1      -0.280  55.715 -24.628  1.00  0.00     0.209 HD
ENDBRANCH  32  33
ENDBRANCH  27  32
ENDBRANCH   1  24
BRANCH  15  35
HETATM   35  O5  UNL     1      -4.843  49.007 -17.248  1.00  0.00    -0.392 OA
HETATM   36  H28 UNL     1      -4.870  49.956 -17.033  1.00  0.00     0.210 HD
ENDBRANCH  15  35
BRANCH  16  37
HETATM   37  O6  UNL     1      -2.114  47.107 -18.817  1.00  0.00    -0.386 OA
HETATM   38  H29 UNL     1      -1.455  47.387 -18.158  1.00  0.00     0.210 HD
ENDBRANCH  16  37
TORSDOF 5
ENDMDL
MODEL 4
REMARK minimizedAffinity -9.32960129
REMARK  5 active torsions:
REMARK  status: ('A' for Active; 'I' for Inactive)
REMARK    1  A    between atoms: C3_3  and  C4_4 
REMARK    2  A    between atoms: C4_4  and  O1_5 
REMARK    3  A    between atoms: C6_9  and  C7_10 
REMARK    4  A    between atoms: C20_24  and  O5_25 
REMARK    5  A    between atoms: C21_26  and  O6_27 
ROOT
HETATM    1  C7  UNL     1      -2.608  49.815 -25.264  1.00  0.00     0.089 C 
HETATM    2  C8  UNL     1      -2.967  48.558 -26.087  1.00  0.00     0.049 C 
HETATM    3  O4  UNL     1      -2.501  49.520 -23.835  1.00  0.00    -0.365 OA
HETATM    4  C9  UNL     1      -3.433  50.416 -23.136  1.00  0.00     0.074 C 
HETATM    5  C10 UNL     1      -2.878  51.853 -23.288  1.00  0.00     0.040 C 
HETATM    6  C11 UNL     1      -3.231  52.191 -24.750  1.00  0.00     0.011 C 
HETATM    7  C12 UNL     1      -3.787  50.837 -25.264  1.00  0.00     0.034 C 
HETATM    8  C13 UNL     1      -4.668  50.393 -24.044  1.00  0.00    -0.006 C 
HETATM    9  C14 UNL     1      -5.795  51.406 -23.711  1.00  0.00     0.019 C 
HETATM   10  C15 UNL     1      -5.310  48.986 -24.007  1.00  0.00     0.013 C 
HETATM   11  C16 UNL     1      -5.600  48.518 -22.567  1.00  0.00     0.007 C 
HETATM   12  C17 UNL     1      -4.313  48.496 -21.697  1.00  0.00     0.011 C 
HETATM   13  C18 UNL     1      -3.678  49.928 -21.700  1.00  0.00     0.029 C 
HETATM   14  C19 UNL     1      -2.391  49.985 -20.862  1.00  0.00     0.043 C 
HETATM   15  C20 UNL     1      -2.591  49.462 -19.437  1.00  0.00     0.154 C 
HETATM   16  C21 UNL     1      -3.176  48.031 -19.443  1.00  0.00     0.098 C 
HETATM   17  C22 UNL     1      -3.300  47.471 -18.010  1.00  0.00     0.042 C 
HETATM   18  C23 UNL     1      -3.755  46.011 -18.018  1.00  0.00     0.010 C 
HETATM   19  C24 UNL     1      -5.004  45.783 -18.855  1.00  0.00     0.079 C 
HETATM   20  C25 UNL     1      -4.909  46.449 -20.218  1.00  0.00     0.138 C 
HETATM   21  O7  UNL     1      -5.210  45.813 -21.228  1.00  0.00    -0.297 OA
HETATM   22  C26 UNL     1      -4.532  47.949 -20.233  1.00  0.00     0.054 C 
HETATM   23  C27 UNL     1      -5.709  48.695 -19.557  1.00  0.00     0.027 C 
ENDROOT
BRANCH   1  24
HETATM   24  C6  UNL     1      -1.206  50.323 -25.736  1.00  0.00     0.170 C 
HETATM   25  O3  UNL     1      -0.616  51.148 -24.713  1.00  0.00    -0.309 OA
HETATM   26  C5  UNL     1       0.551  51.792 -24.975  1.00  0.00     0.292 C 
HETATM   27  C3  UNL     1       0.996  51.863 -26.395  1.00  0.00     0.042 C 
HETATM   28  O2  UNL     1       1.207  52.309 -24.076  1.00  0.00    -0.260 OA
HETATM   29  C2  UNL     1       0.136  51.566 -27.392  1.00  0.00    -0.067 C 
HETATM   30  C1  UNL     1       0.436  51.702 -28.857  1.00  0.00     0.044 C 
HETATM   31  C28 UNL     1      -1.254  51.083 -27.066  1.00  0.00     0.070 C 
BRANCH  27  32
HETATM   32  C4  UNL     1       2.416  52.308 -26.574  1.00  0.00     0.209 C 
BRANCH  32  33
HETATM   33  O1  UNL     1       3.237  51.185 -26.859  1.00  0.00    -0.396 OA
HETATM   34  H6  UNL     1       3.183  51.040 -27.823  1.00  0.00     0.209 HD
ENDBRANCH  32  33
ENDBRANCH  27  32
ENDBRANCH   1  24
BRANCH  15  35
HETATM   35  O5  UNL     1      -3.407  50.362 -18.691  1.00  0.00    -0.392 OA
HETATM   36  H28 UNL     1      -2.958  51.226 -18.680  1.00  0.00     0.210 HD
ENDBRANCH  15  35
BRANCH  16  37
HETATM   37  O6  UNL     1      -2.211  47.195 -20.125  1.00  0.00    -0.386 OA
HETATM   38  H29 UNL     1      -1.378  47.207 -19.623  1.00  0.00     0.210 HD
ENDBRANCH  16  37
TORSDOF 5
ENDMDL
MODEL 5
REMARK minimizedAffinity -9.152215
REMARK  5 active torsions:
REMARK  status: ('A' for Active; 'I' for Inactive)
REMARK    1  A    between atoms: C3_3  and  C4_4 
REMARK    2  A    between atoms: C4_4  and  O1_5 
REMARK    3  A    between atoms: C6_9  and  C7_10 
REMARK    4  A    between atoms: C20_24  and  O5_25 
REMARK    5  A    between atoms: C21_26  and  O6_27 
ROOT
HETATM    1  C7  UNL     1      -2.246  48.800 -21.003  1.00  0.00     0.089 C 
HETATM    2  C8  UNL     1      -0.951  47.991 -20.770  1.00  0.00     0.049 C 
HETATM    3  O4  UNL     1      -2.302  49.365 -22.351  1.00  0.00    -0.365 OA
HETATM    4  C9  UNL     1      -2.477  50.817 -22.206  1.00  0.00     0.074 C 
HETATM    5  C10 UNL     1      -3.893  51.045 -21.621  1.00  0.00     0.040 C 
HETATM    6  C11 UNL     1      -3.706  50.650 -20.142  1.00  0.00     0.011 C 
HETATM    7  C12 UNL     1      -2.256  50.099 -20.140  1.00  0.00     0.034 C 
HETATM    8  C13 UNL     1      -1.533  51.157 -21.047  1.00  0.00    -0.006 C 
HETATM    9  C14 UNL     1      -1.618  52.599 -20.481  1.00  0.00     0.019 C 
HETATM   10  C15 UNL     1      -0.068  50.941 -21.494  1.00  0.00     0.013 C 
HETATM   11  C16 UNL     1       0.260  51.701 -22.795  1.00  0.00     0.007 C 
HETATM   12  C17 UNL     1      -0.678  51.284 -23.960  1.00  0.00     0.011 C 
HETATM   13  C18 UNL     1      -2.163  51.535 -23.527  1.00  0.00     0.029 C 
HETATM   14  C19 UNL     1      -3.156  51.138 -24.630  1.00  0.00     0.043 C 
HETATM   15  C20 UNL     1      -2.843  51.803 -25.974  1.00  0.00     0.154 C 
HETATM   16  C21 UNL     1      -1.389  51.512 -26.416  1.00  0.00     0.098 C 
HETATM   17  C22 UNL     1      -1.098  52.111 -27.808  1.00  0.00     0.042 C 
HETATM   18  C23 UNL     1       0.293  51.716 -28.307  1.00  0.00     0.010 C 
HETATM   19  C24 UNL     1       1.390  52.005 -27.294  1.00  0.00     0.079 C 
HETATM   20  C25 UNL     1       1.027  51.515 -25.901  1.00  0.00     0.138 C 
HETATM   21  O7  UNL     1       1.846  50.864 -25.253  1.00  0.00    -0.297 OA
HETATM   22  C26 UNL     1      -0.340  51.970 -25.340  1.00  0.00     0.054 C 
HETATM   23  C27 UNL     1      -0.242  53.505 -25.160  1.00  0.00     0.027 C 
ENDROOT
BRANCH   1  24
HETATM   24  C6  UNL     1      -3.462  47.826 -20.862  1.00  0.00     0.170 C 
HETATM   25  O3  UNL     1      -3.010  46.545 -20.384  1.00  0.00    -0.309 OA
HETATM   26  C5  UNL     1      -3.894  45.516 -20.310  1.00  0.00     0.292 C 
HETATM   27  C3  UNL     1      -5.197  45.677 -21.014  1.00  0.00     0.042 C 
HETATM   28  O2  UNL     1      -3.623  44.487 -19.699  1.00  0.00    -0.260 OA
HETATM   29  C2  UNL     1      -5.363  46.663 -21.921  1.00  0.00    -0.067 C 
HETATM   30  C1  UNL     1      -6.589  46.858 -22.767  1.00  0.00     0.044 C 
HETATM   31  C28 UNL     1      -4.255  47.655 -22.162  1.00  0.00     0.070 C 
BRANCH  27  32
HETATM   32  C4  UNL     1      -6.228  44.653 -20.643  1.00  0.00     0.209 C 
BRANCH  32  33
HETATM   33  O1  UNL     1      -5.904  43.408 -21.243  1.00  0.00    -0.396 OA
HETATM   34  H6  UNL     1      -5.278  42.964 -20.640  1.00  0.00     0.209 HD
ENDBRANCH  32  33
ENDBRANCH  27  32
ENDBRANCH   1  24
BRANCH  15  35
HETATM   35  O5  UNL     1      -3.102  53.202 -25.905  1.00  0.00    -0.392 OA
HETATM   36  H28 UNL     1      -4.042  53.316 -25.676  1.00  0.00     0.210 HD
ENDBRANCH  15  35
BRANCH  16  37
HETATM   37  O6  UNL     1      -1.283  50.075 -26.559  1.00  0.00    -0.386 OA
HETATM   38  H29 UNL     1      -1.902  49.785 -27.252  1.00  0.00     0.210 HD
ENDBRANCH  16  37
TORSDOF 5
ENDMDL
MODEL 6
REMARK minimizedAffinity -9.04088593
REMARK  5 active torsions:
REMARK  status: ('A' for Active; 'I' for Inactive)
REMARK    1  A    between atoms: C3_3  and  C4_4 
REMARK    2  A    between atoms: C4_4  and  O1_5 
REMARK    3  A    between atoms: C6_9  and  C7_10 
REMARK    4  A    between atoms: C20_24  and  O5_25 
REMARK    5  A    between atoms: C21_26  and  O6_27 
ROOT
HETATM    1  C7  UNL     1      -2.763  51.492 -22.951  1.00  0.00     0.089 C 
HETATM    2  C8  UNL     1      -3.880  52.553 -23.056  1.00  0.00     0.049 C 
HETATM    3  O4  UNL     1      -3.296  50.163 -22.652  1.00  0.00    -0.365 OA
HETATM    4  C9  UNL     1      -2.632  49.695 -21.427  1.00  0.00     0.074 C 
HETATM    5  C10 UNL     1      -1.144  49.455 -21.783  1.00  0.00     0.040 C 
HETATM    6  C11 UNL     1      -0.587  50.891 -21.855  1.00  0.00     0.011 C 
HETATM    7  C12 UNL     1      -1.874  51.740 -21.694  1.00  0.00     0.034 C 
HETATM    8  C13 UNL     1      -2.611  50.954 -20.553  1.00  0.00    -0.006 C 
HETATM    9  C14 UNL     1      -1.785  50.876 -19.241  1.00  0.00     0.019 C 
HETATM   10  C15 UNL     1      -4.056  51.326 -20.147  1.00  0.00     0.013 C 
HETATM   11  C16 UNL     1      -4.799  50.142 -19.496  1.00  0.00     0.007 C 
HETATM   12  C17 UNL     1      -4.853  48.907 -20.438  1.00  0.00     0.011 C 
HETATM   13  C18 UNL     1      -3.389  48.503 -20.823  1.00  0.00     0.029 C 
HETATM   14  C19 UNL     1      -3.361  47.287 -21.763  1.00  0.00     0.043 C 
HETATM   15  C20 UNL     1      -4.146  46.094 -21.210  1.00  0.00     0.154 C 
HETATM   16  C21 UNL     1      -5.602  46.491 -20.874  1.00  0.00     0.098 C 
HETATM   17  C22 UNL     1      -6.418  45.271 -20.396  1.00  0.00     0.042 C 
HETATM   18  C23 UNL     1      -7.890  45.630 -20.187  1.00  0.00     0.010 C 
HETATM   19  C24 UNL     1      -8.082  46.856 -19.308  1.00  0.00     0.079 C 
HETATM   20  C25 UNL     1      -7.178  48.006 -19.723  1.00  0.00     0.138 C 
HETATM   21  O7  UNL     1      -7.649  49.136 -19.848  1.00  0.00    -0.297 OA
HETATM   22  C26 UNL     1      -5.671  47.688 -19.859  1.00  0.00     0.054 C 
HETATM   23  C27 UNL     1      -5.173  47.343 -18.434  1.00  0.00     0.027 C 
ENDROOT
BRANCH   1  24
HETATM   24  C6  UNL     1      -2.047  51.399 -24.339  1.00  0.00     0.170 C 
HETATM   25  O3  UNL     1      -1.108  52.482 -24.479  1.00  0.00    -0.309 OA
HETATM   26  C5  UNL     1      -0.470  52.654 -25.666  1.00  0.00     0.292 C 
HETATM   27  C3  UNL     1      -0.998  51.916 -26.846  1.00  0.00     0.042 C 
HETATM   28  O2  UNL     1       0.497  53.404 -25.765  1.00  0.00    -0.260 OA
HETATM   29  C2  UNL     1      -2.221  51.345 -26.800  1.00  0.00    -0.067 C 
HETATM   30  C1  UNL     1      -2.900  50.668 -27.956  1.00  0.00     0.044 C 
HETATM   31  C28 UNL     1      -3.020  51.385 -25.523  1.00  0.00     0.070 C 
BRANCH  27  32
HETATM   32  C4  UNL     1      -0.081  51.910 -28.031  1.00  0.00     0.209 C 
BRANCH  32  33
HETATM   33  O1  UNL     1      -0.188  53.144 -28.726  1.00  0.00    -0.396 OA
HETATM   34  H6  UNL     1       0.421  53.765 -28.284  1.00  0.00     0.209 HD
ENDBRANCH  32  33
ENDBRANCH  27  32
ENDBRANCH   1  24
BRANCH  15  35
HETATM   35  O5  UNL     1      -3.476  45.544 -20.079  1.00  0.00    -0.392 OA
HETATM   36  H28 UNL     1      -2.588  45.266 -20.369  1.00  0.00     0.210 HD
ENDBRANCH  15  35
BRANCH  16  37
HETATM   37  O6  UNL     1      -6.207  46.924 -22.116  1.00  0.00    -0.386 OA
HETATM   38  H29 UNL     1      -6.205  46.178 -22.740  1.00  0.00     0.210 HD
ENDBRANCH  16  37
TORSDOF 5
ENDMDL
MODEL 7
REMARK minimizedAffinity -8.95688343
REMARK  5 active torsions:
REMARK  status: ('A' for Active; 'I' for Inactive)
REMARK    1  A    between atoms: C3_3  and  C4_4 
REMARK    2  A    between atoms: C4_4  and  O1_5 
REMARK    3  A    between atoms: C6_9  and  C7_10 
REMARK    4  A    between atoms: C20_24  and  O5_25 
REMARK    5  A    between atoms: C21_26  and  O6_27 
ROOT
HETATM    1  C7  UNL     1      -2.729  49.802 -22.857  1.00  0.00     0.089 C 
HETATM    2  C8  UNL     1      -2.358  48.795 -23.967  1.00  0.00     0.049 C 
HETATM    3  O4  UNL     1      -3.172  49.130 -21.635  1.00  0.00    -0.365 OA
HETATM    4  C9  UNL     1      -4.512  49.644 -21.318  1.00  0.00     0.074 C 
HETATM    5  C10 UNL     1      -4.343  51.130 -20.915  1.00  0.00     0.040 C 
HETATM    6  C11 UNL     1      -4.110  51.816 -22.276  1.00  0.00     0.011 C 
HETATM    7  C12 UNL     1      -4.016  50.600 -23.234  1.00  0.00     0.034 C 
HETATM    8  C13 UNL     1      -5.185  49.702 -22.694  1.00  0.00    -0.006 C 
HETATM    9  C14 UNL     1      -6.568  50.403 -22.763  1.00  0.00     0.019 C 
HETATM   10  C15 UNL     1      -5.388  48.266 -23.231  1.00  0.00     0.013 C 
HETATM   11  C16 UNL     1      -6.133  47.369 -22.223  1.00  0.00     0.007 C 
HETATM   12  C17 UNL     1      -5.387  47.286 -20.862  1.00  0.00     0.011 C 
HETATM   13  C18 UNL     1      -5.212  48.736 -20.295  1.00  0.00     0.029 C 
HETATM   14  C19 UNL     1      -4.473  48.737 -18.948  1.00  0.00     0.043 C 
HETATM   15  C20 UNL     1      -5.120  47.806 -17.918  1.00  0.00     0.154 C 
HETATM   16  C21 UNL     1      -5.248  46.367 -18.470  1.00  0.00     0.098 C 
HETATM   17  C22 UNL     1      -5.823  45.410 -17.405  1.00  0.00     0.042 C 
HETATM   18  C23 UNL     1      -5.831  43.962 -17.900  1.00  0.00     0.010 C 
HETATM   19  C24 UNL     1      -6.492  43.805 -19.260  1.00  0.00     0.079 C 
HETATM   20  C25 UNL     1      -6.000  44.839 -20.260  1.00  0.00     0.138 C 
HETATM   21  O7  UNL     1      -5.661  44.481 -21.388  1.00  0.00    -0.297 OA
HETATM   22  C26 UNL     1      -6.060  46.318 -19.814  1.00  0.00     0.054 C 
HETATM   23  C27 UNL     1      -7.563  46.661 -19.663  1.00  0.00     0.027 C 
ENDROOT
BRANCH   1  24
HETATM   24  C6  UNL     1      -1.448  50.623 -22.492  1.00  0.00     0.170 C 
HETATM   25  O3  UNL     1      -1.447  50.928 -21.086  1.00  0.00    -0.309 OA
HETATM   26  C5  UNL     1      -0.480  51.743 -20.586  1.00  0.00     0.292 C 
HETATM   27  C3  UNL     1       0.335  52.521 -21.560  1.00  0.00     0.042 C 
HETATM   28  O2  UNL     1      -0.297  51.845 -19.377  1.00  0.00    -0.260 OA
HETATM   29  C2  UNL     1      -0.066  52.636 -22.844  1.00  0.00    -0.067 C 
HETATM   30  C1  UNL     1       0.614  53.477 -23.887  1.00  0.00     0.044 C 
HETATM   31  C28 UNL     1      -1.299  51.908 -23.314  1.00  0.00     0.070 C 
BRANCH  27  32
HETATM   32  C4  UNL     1       1.562  53.150 -20.972  1.00  0.00     0.209 C 
BRANCH  32  33
HETATM   33  O1  UNL     1       1.193  54.267 -20.177  1.00  0.00    -0.396 OA
HETATM   34  H6  UNL     1       0.974  53.917 -19.292  1.00  0.00     0.209 HD
ENDBRANCH  32  33
ENDBRANCH  27  32
ENDBRANCH   1  24
BRANCH  15  35
HETATM   35  O5  UNL     1      -6.381  48.327 -17.505  1.00  0.00    -0.392 OA
HETATM   36  H28 UNL     1      -6.223  49.208 -17.120  1.00  0.00     0.210 HD
ENDBRANCH  15  35
BRANCH  16  37
HETATM   37  O6  UNL     1      -3.902  45.910 -18.745  1.00  0.00    -0.386 OA
HETATM   38  H29 UNL     1      -3.401  45.899 -17.912  1.00  0.00     0.210 HD
ENDBRANCH  16  37
TORSDOF 5
ENDMDL
MODEL 8
REMARK minimizedAffinity -8.882967
REMARK  5 active torsions:
REMARK  status: ('A' for Active; 'I' for Inactive)
REMARK    1  A    between atoms: C3_3  and  C4_4 
REMARK    2  A    between atoms: C4_4  and  O1_5 
REMARK    3  A    between atoms: C6_9  and  C7_10 
REMARK    4  A    between atoms: C20_24  and  O5_25 
REMARK    5  A    between atoms: C21_26  and  O6_27 
ROOT
HETATM    1  C7  UNL     1      -3.350  50.379 -22.238  1.00  0.00     0.089 C 
HETATM    2  C8  UNL     1      -4.343  51.534 -21.986  1.00  0.00     0.049 C 
HETATM    3  O4  UNL     1      -3.946  49.074 -21.952  1.00  0.00    -0.365 OA
HETATM    4  C9  UNL     1      -3.087  48.413 -20.959  1.00  0.00     0.074 C 
HETATM    5  C10 UNL     1      -1.746  48.091 -21.664  1.00  0.00     0.040 C 
HETATM    6  C11 UNL     1      -1.066  49.474 -21.725  1.00  0.00     0.011 C 
HETATM    7  C12 UNL     1      -2.189  50.404 -21.196  1.00  0.00     0.034 C 
HETATM    8  C13 UNL     1      -2.742  49.555 -19.998  1.00  0.00    -0.006 C 
HETATM    9  C14 UNL     1      -1.666  49.256 -18.920  1.00  0.00     0.019 C 
HETATM   10  C15 UNL     1      -4.016  49.997 -19.241  1.00  0.00     0.013 C 
HETATM   11  C16 UNL     1      -4.724  48.812 -18.555  1.00  0.00     0.007 C 
HETATM   12  C17 UNL     1      -5.113  47.704 -19.572  1.00  0.00     0.011 C 
HETATM   13  C18 UNL     1      -3.820  47.225 -20.315  1.00  0.00     0.029 C 
HETATM   14  C19 UNL     1      -4.126  46.129 -21.348  1.00  0.00     0.043 C 
HETATM   15  C20 UNL     1      -4.896  44.950 -20.747  1.00  0.00     0.154 C 
HETATM   16  C21 UNL     1      -6.194  45.426 -20.054  1.00  0.00     0.098 C 
HETATM   17  C22 UNL     1      -7.013  44.232 -19.521  1.00  0.00     0.042 C 
HETATM   18  C23 UNL     1      -8.358  44.686 -18.951  1.00  0.00     0.010 C 
HETATM   19  C24 UNL     1      -8.223  45.813 -17.939  1.00  0.00     0.079 C 
HETATM   20  C25 UNL     1      -7.311  46.923 -18.437  1.00  0.00     0.138 C 
HETATM   21  O7  UNL     1      -7.674  48.096 -18.345  1.00  0.00    -0.297 OA
HETATM   22  C26 UNL     1      -5.913  46.499 -18.941  1.00  0.00     0.054 C 
HETATM   23  C27 UNL     1      -5.159  45.950 -17.704  1.00  0.00     0.027 C 
ENDROOT
BRANCH   1  24
HETATM   24  C6  UNL     1      -2.965  50.388 -23.754  1.00  0.00     0.170 C 
HETATM   25  O3  UNL     1      -3.208  51.692 -24.312  1.00  0.00    -0.309 OA
HETATM   26  C5  UNL     1      -3.055  51.878 -25.650  1.00  0.00     0.292 C 
HETATM   27  C3  UNL     1      -2.951  50.664 -26.506  1.00  0.00     0.042 C 
HETATM   28  O2  UNL     1      -3.021  53.004 -26.135  1.00  0.00    -0.260 OA
HETATM   29  C2  UNL     1      -3.290  49.453 -26.014  1.00  0.00    -0.067 C 
HETATM   30  C1  UNL     1      -3.326  48.179 -26.809  1.00  0.00     0.044 C 
HETATM   31  C28 UNL     1      -3.698  49.317 -24.570  1.00  0.00     0.070 C 
BRANCH  27  32
HETATM   32  C4  UNL     1      -2.484  50.934 -27.905  1.00  0.00     0.209 C 
BRANCH  32  33
HETATM   33  O1  UNL     1      -3.545  50.698 -28.818  1.00  0.00    -0.396 OA
HETATM   34  H6  UNL     1      -4.067  51.522 -28.856  1.00  0.00     0.209 HD
ENDBRANCH  32  33
ENDBRANCH  27  32
ENDBRANCH   1  24
BRANCH  15  35
HETATM   35  O5  UNL     1      -4.061  44.218 -19.854  1.00  0.00    -0.392 OA
HETATM   36  H28 UNL     1      -3.292  43.902 -20.363  1.00  0.00     0.210 HD
ENDBRANCH  15  35
BRANCH  16  37
HETATM   37  O6  UNL     1      -7.004  46.050 -21.079  1.00  0.00    -0.386 OA
HETATM   38  H29 UNL     1      -7.217  45.384 -21.756  1.00  0.00     0.210 HD
ENDBRANCH  16  37
TORSDOF 5
ENDMDL
MODEL 9
REMARK minimizedAffinity -8.77888298
REMARK  5 active torsions:
REMARK  status: ('A' for Active; 'I' for Inactive)
REMARK    1  A    between atoms: C3_3  and  C4_4 
REMARK    2  A    between atoms: C4_4  and  O1_5 
REMARK    3  A    between atoms: C6_9  and  C7_10 
REMARK    4  A    between atoms: C20_24  and  O5_25 
REMARK    5  A    between atoms: C21_26  and  O6_27 
ROOT
HETATM    1  C7  UNL     1       0.472  51.276 -16.713  1.00  0.00     0.089 C 
HETATM    2  C8  UNL     1       1.380  52.524 -16.744  1.00  0.00     0.049 C 
HETATM    3  O4  UNL     1      -0.619  51.417 -15.749  1.00  0.00    -0.365 OA
HETATM    4  C9  UNL     1      -0.529  50.279 -14.822  1.00  0.00     0.074 C 
HETATM    5  C10 UNL     1      -0.878  49.007 -15.633  1.00  0.00     0.040 C 
HETATM    6  C11 UNL     1       0.405  48.780 -16.458  1.00  0.00     0.011 C 
HETATM    7  C12 UNL     1       1.230  50.048 -16.119  1.00  0.00     0.034 C 
HETATM    8  C13 UNL     1       0.979  50.165 -14.574  1.00  0.00    -0.006 C 
HETATM    9  C14 UNL     1       1.462  48.918 -13.786  1.00  0.00     0.019 C 
HETATM   10  C15 UNL     1       1.469  51.403 -13.787  1.00  0.00     0.013 C 
HETATM   11  C16 UNL     1       0.653  51.634 -12.500  1.00  0.00     0.007 C 
HETATM   12  C17 UNL     1      -0.862  51.807 -12.800  1.00  0.00     0.011 C 
HETATM   13  C18 UNL     1      -1.372  50.537 -13.564  1.00  0.00     0.029 C 
HETATM   14  C19 UNL     1      -2.868  50.637 -13.903  1.00  0.00     0.043 C 
HETATM   15  C20 UNL     1      -3.733  50.940 -12.677  1.00  0.00     0.154 C 
HETATM   16  C21 UNL     1      -3.249  52.219 -11.954  1.00  0.00     0.098 C 
HETATM   17  C22 UNL     1      -4.171  52.572 -10.766  1.00  0.00     0.042 C 
HETATM   18  C23 UNL     1      -3.775  53.905 -10.129  1.00  0.00     0.010 C 
HETATM   19  C24 UNL     1      -2.297  53.978  -9.778  1.00  0.00     0.079 C 
HETATM   20  C25 UNL     1      -1.413  53.508 -10.921  1.00  0.00     0.138 C 
HETATM   21  O7  UNL     1      -0.442  54.187 -11.258  1.00  0.00    -0.297 OA
HETATM   22  C26 UNL     1      -1.740  52.125 -11.528  1.00  0.00     0.054 C 
HETATM   23  C27 UNL     1      -1.457  51.088 -10.413  1.00  0.00     0.027 C 
ENDROOT
BRANCH   1  24
HETATM   24  C6  UNL     1      -0.181  51.111 -18.125  1.00  0.00     0.170 C 
HETATM   25  O3  UNL     1       0.494  51.955 -19.077  1.00  0.00    -0.309 OA
HETATM   26  C5  UNL     1       0.002  52.053 -20.339  1.00  0.00     0.292 C 
HETATM   27  C3  UNL     1      -1.373  51.537 -20.584  1.00  0.00     0.042 C 
HETATM   28  O2  UNL     1       0.660  52.564 -21.240  1.00  0.00    -0.260 OA
HETATM   29  C2  UNL     1      -2.192  51.263 -19.546  1.00  0.00    -0.067 C 
HETATM   30  C1  UNL     1      -3.628  50.839 -19.670  1.00  0.00     0.044 C 
HETATM   31  C28 UNL     1      -1.686  51.402 -18.134  1.00  0.00     0.070 C 
BRANCH  27  32
HETATM   32  C4  UNL     1      -1.730  51.398 -22.033  1.00  0.00     0.209 C 
BRANCH  32  33
HETATM   33  O1  UNL     1      -1.381  50.100 -22.490  1.00  0.00    -0.396 OA
HETATM   34  H6  UNL     1      -2.133  49.517 -22.271  1.00  0.00     0.209 HD
ENDBRANCH  32  33
ENDBRANCH  27  32
ENDBRANCH   1  24
BRANCH  15  35
HETATM   35  O5  UNL     1      -3.757  49.816 -11.800  1.00  0.00    -0.392 OA
HETATM   36  H28 UNL     1      -4.119  49.062 -12.298  1.00  0.00     0.210 HD
ENDBRANCH  15  35
BRANCH  16  37
HETATM   37  O6  UNL     1      -3.378  53.303 -12.905  1.00  0.00    -0.386 OA
HETATM   38  H29 UNL     1      -4.316  53.395 -13.146  1.00  0.00     0.210 HD
ENDBRANCH  16  37
TORSDOF 5
ENDMDL
