MODEL 1
REMARK minimizedAffinity -8.4633913
REMARK CNNscore 0.746638298
REMARK CNNaffinity 6.65559196
REMARK  11 active torsions:
REMARK  status: ('A' for Active; 'I' for Inactive)
REMARK    1  A    between atoms: O1_2  and  C2_3 
REMARK    2  A    between atoms: C4_5  and  O2_6 
REMARK    3  A    between atoms: O2_6  and  C5_7 
REMARK    4  A    between atoms: C8_10  and  C9_11 
REMARK    5  A    between atoms: N1_12  and  C10_14 
REMARK    6  A    between atoms: C10_14  and  C11_15 
REMARK    7  A    between atoms: C11_15  and  O3_16 
REMARK    8  A    between atoms: C17_22  and  C18_23 
REMARK    9  A    between atoms: C24_31  and  O6_32 
REMARK   10  A    between atoms: C28_36  and  O7_37 
REMARK   11  A    between atoms: C32_42  and  O9_43 
ROOT
HETATM    1  C5  UNL     1      -7.766  47.244 -25.180  1.00  0.00     0.127 C 
HETATM    2  C6  UNL     1      -8.489  48.428 -25.833  1.00  0.00     0.033 C 
HETATM    3  C7  UNL     1      -9.958  48.130 -26.125  1.00  0.00     0.021 C 
HETATM    4  C8  UNL     1     -10.201  46.865 -27.024  1.00  0.00     0.026 C 
HETATM    5  C12 UNL     1     -11.598  46.255 -26.595  1.00  0.00     0.009 C 
HETATM    6  C13 UNL     1     -12.798  47.191 -26.881  1.00  0.00     0.007 C 
HETATM    7  C14 UNL     1     -14.134  46.609 -26.423  1.00  0.00     0.013 C 
HETATM    8  C15 UNL     1     -14.421  45.209 -27.013  1.00  0.00    -0.005 C 
HETATM    9  C16 UNL     1     -14.711  45.329 -28.525  1.00  0.00     0.019 C 
HETATM   10  C17 UNL     1     -15.588  44.486 -26.260  1.00  0.00     0.028 C 
HETATM   11  C22 UNL     1     -14.921  43.922 -24.983  1.00  0.00     0.013 C 
HETATM   12  C23 UNL     1     -13.407  43.914 -25.235  1.00  0.00     0.040 C 
HETATM   13  C24 UNL     1     -13.231  44.248 -26.727  1.00  0.00     0.070 C 
HETATM   14  C25 UNL     1     -11.849  44.825 -27.133  1.00  0.00     0.026 C 
HETATM   15  C26 UNL     1     -10.692  43.905 -26.718  1.00  0.00     0.011 C 
HETATM   16  C27 UNL     1      -9.382  44.412 -27.289  1.00  0.00     0.039 C 
HETATM   17  C28 UNL     1      -9.017  45.839 -26.867  1.00  0.00     0.073 C 
HETATM   18  C29 UNL     1      -8.462  45.893 -25.428  1.00  0.00     0.071 C 
ENDROOT
BRANCH   1  19
HETATM   19  O2  UNL     1      -7.654  47.503 -23.774  1.00  0.00    -0.356 OA
BRANCH  19  20
HETATM   20  C4  UNL     1      -6.301  47.568 -23.338  1.00  0.00     0.263 C 
HETATM   21  C3  UNL     1      -5.457  48.181 -24.459  1.00  0.00     0.095 C 
HETATM   22  C2  UNL     1      -4.107  48.569 -23.880  1.00  0.00     0.156 C 
HETATM   23  C32 UNL     1      -4.311  49.638 -22.770  1.00  0.00     0.175 C 
HETATM   24  C30 UNL     1      -5.746  49.593 -22.200  1.00  0.00     0.151 C 
HETATM   25  O8  UNL     1      -6.199  48.239 -22.082  1.00  0.00    -0.354 OA
HETATM   26  C31 UNL     1      -5.817  50.241 -20.822  1.00  0.00     0.042 C 
BRANCH  22  27
HETATM   27  O1  UNL     1      -3.229  49.121 -24.866  1.00  0.00    -0.388 OA
HETATM   28  C1  UNL     1      -3.316  48.515 -26.141  1.00  0.00     0.202 C 
ENDBRANCH  22  27
BRANCH  23  29
HETATM   29  O9  UNL     1      -4.047  50.954 -23.304  1.00  0.00    -0.390 OA
HETATM   30  H49 UNL     1      -3.403  50.783 -24.028  1.00  0.00     0.210 HD
ENDBRANCH  23  29
ENDBRANCH  19  20
ENDBRANCH   1  19
BRANCH  17  31
HETATM   31  O7  UNL     1      -7.913  46.226 -27.724  1.00  0.00    -0.389 OA
HETATM   32  H41 UNL     1      -7.237  45.510 -27.674  1.00  0.00     0.210 HD
ENDBRANCH  17  31
BRANCH   4  33
HETATM   33  C9  UNL     1     -10.176  47.363 -28.483  1.00  0.00     0.068 C 
HETATM   34  N1  UNL     1      -9.517  48.400 -28.881  1.00  0.00    -0.399 N 
ATOM     35  H1  UNL     1      -8.951  48.983 -28.265  1.00  0.00     0.158 HD
BRANCH  34  36
HETATM   36  C10 UNL     1      -9.678  48.648 -30.330  1.00  0.00     0.144 C 
BRANCH  36  37
HETATM   37  C11 UNL     1      -8.534  49.533 -30.834  1.00  0.00     0.183 C 
BRANCH  37  38
HETATM   38  O3  UNL     1      -8.895  50.913 -30.787  1.00  0.00    -0.399 OA
HETATM   39  H18 UNL     1      -9.834  50.935 -30.517  1.00  0.00     0.209 HD
ENDBRANCH  37  38
ENDBRANCH  36  37
ENDBRANCH  34  36
ENDBRANCH   4  33
BRANCH  13  40
HETATM   40  O6  UNL     1     -13.443  43.038 -27.476  1.00  0.00    -0.389 OA
HETATM   41  H35 UNL     1     -12.894  42.331 -27.089  1.00  0.00     0.210 HD
ENDBRANCH  13  40
BRANCH  10  42
HETATM   42  C18 UNL     1     -16.871  45.253 -26.034  1.00  0.00    -0.045 A 
HETATM   43  C19 UNL     1     -17.166  46.148 -25.088  1.00  0.00     0.087 A 
HETATM   44  C20 UNL     1     -18.577  46.503 -25.251  1.00  0.00     0.283 A 
HETATM   45  O4  UNL     1     -19.176  47.299 -24.551  1.00  0.00    -0.260 OA
HETATM   46  O5  UNL     1     -19.099  45.796 -26.292  1.00  0.00    -0.314 OA
HETATM   47  C21 UNL     1     -18.072  44.985 -26.866  1.00  0.00     0.213 A 
ENDBRANCH  10  42
TORSDOF 11
ENDMDL
MODEL 2
REMARK minimizedAffinity -8.76799107
REMARK CNNscore 0.665383577
REMARK CNNaffinity 7.3108387
REMARK  11 active torsions:
REMARK  status: ('A' for Active; 'I' for Inactive)
REMARK    1  A    between atoms: O1_2  and  C2_3 
REMARK    2  A    between atoms: C4_5  and  O2_6 
REMARK    3  A    between atoms: O2_6  and  C5_7 
REMARK    4  A    between atoms: C8_10  and  C9_11 
REMARK    5  A    between atoms: N1_12  and  C10_14 
REMARK    6  A    between atoms: C10_14  and  C11_15 
REMARK    7  A    between atoms: C11_15  and  O3_16 
REMARK    8  A    between atoms: C17_22  and  C18_23 
REMARK    9  A    between atoms: C24_31  and  O6_32 
REMARK   10  A    between atoms: C28_36  and  O7_37 
REMARK   11  A    between atoms: C32_42  and  O9_43 
ROOT
HETATM    1  C5  UNL     1      -7.806  47.969 -24.348  1.00  0.00     0.127 C 
HETATM    2  C6  UNL     1      -8.207  49.285 -23.670  1.00  0.00     0.033 C 
HETATM    3  C7  UNL     1      -7.076  49.884 -22.836  1.00  0.00     0.021 C 
HETATM    4  C8  UNL     1      -6.505  48.928 -21.728  1.00  0.00     0.026 C 
HETATM    5  C12 UNL     1      -4.978  49.301 -21.538  1.00  0.00     0.009 C 
HETATM    6  C13 UNL     1      -4.752  50.733 -20.993  1.00  0.00     0.007 C 
HETATM    7  C14 UNL     1      -3.275  51.095 -20.855  1.00  0.00     0.013 C 
HETATM    8  C15 UNL     1      -2.479  50.085 -19.995  1.00  0.00    -0.005 C 
HETATM    9  C16 UNL     1      -2.902  50.211 -18.516  1.00  0.00     0.019 C 
HETATM   10  C17 UNL     1      -0.933  50.263 -20.169  1.00  0.00     0.028 C 
HETATM   11  C22 UNL     1      -0.616  49.535 -21.497  1.00  0.00     0.013 C 
HETATM   12  C23 UNL     1      -1.806  48.614 -21.798  1.00  0.00     0.040 C 
HETATM   13  C24 UNL     1      -2.683  48.640 -20.534  1.00  0.00     0.070 C 
HETATM   14  C25 UNL     1      -4.172  48.250 -20.735  1.00  0.00     0.026 C 
HETATM   15  C26 UNL     1      -4.327  46.870 -21.386  1.00  0.00     0.011 C 
HETATM   16  C27 UNL     1      -5.785  46.452 -21.400  1.00  0.00     0.039 C 
HETATM   17  C28 UNL     1      -6.716  47.421 -22.134  1.00  0.00     0.073 C 
HETATM   18  C29 UNL     1      -6.614  47.272 -23.668  1.00  0.00     0.071 C 
ENDROOT
BRANCH   1  19
HETATM   19  O2  UNL     1      -7.512  48.242 -25.725  1.00  0.00    -0.356 OA
BRANCH  19  20
HETATM   20  C4  UNL     1      -6.233  47.759 -26.116  1.00  0.00     0.263 C 
HETATM   21  C3  UNL     1      -6.059  48.003 -27.618  1.00  0.00     0.095 C 
HETATM   22  C2  UNL     1      -4.591  47.815 -27.963  1.00  0.00     0.156 C 
HETATM   23  C32 UNL     1      -3.741  48.860 -27.187  1.00  0.00     0.175 C 
HETATM   24  C30 UNL     1      -4.488  49.379 -25.939  1.00  0.00     0.151 C 
HETATM   25  O8  UNL     1      -5.203  48.315 -25.300  1.00  0.00    -0.354 OA
HETATM   26  C31 UNL     1      -3.522  49.981 -24.925  1.00  0.00     0.042 C 
BRANCH  22  27
HETATM   27  O1  UNL     1      -4.333  47.989 -29.361  1.00  0.00    -0.388 OA
HETATM   28  C1  UNL     1      -5.484  47.967 -30.182  1.00  0.00     0.202 C 
ENDBRANCH  22  27
BRANCH  23  29
HETATM   29  O9  UNL     1      -3.422  49.971 -28.053  1.00  0.00    -0.390 OA
HETATM   30  H49 UNL     1      -3.424  49.569 -28.952  1.00  0.00     0.210 HD
ENDBRANCH  23  29
ENDBRANCH  19  20
ENDBRANCH   1  19
BRANCH  17  31
HETATM   31  O7  UNL     1      -8.061  47.002 -21.793  1.00  0.00    -0.389 OA
HETATM   32  H41 UNL     1      -8.121  46.034 -21.968  1.00  0.00     0.210 HD
ENDBRANCH  17  31
BRANCH   4  33
HETATM   33  C9  UNL     1      -7.355  49.177 -20.466  1.00  0.00     0.068 C 
HETATM   34  N1  UNL     1      -7.200  48.540 -19.353  1.00  0.00    -0.399 N 
ATOM     35  H1  UNL     1      -6.497  47.815 -19.207  1.00  0.00     0.158 HD
BRANCH  34  36
HETATM   36  C10 UNL     1      -8.156  48.979 -18.313  1.00  0.00     0.144 C 
BRANCH  36  37
HETATM   37  C11 UNL     1      -8.498  47.803 -17.394  1.00  0.00     0.183 C 
BRANCH  37  38
HETATM   38  O3  UNL     1      -9.577  48.133 -16.521  1.00  0.00    -0.399 OA
HETATM   39  H18 UNL     1      -9.772  49.077 -16.680  1.00  0.00     0.209 HD
ENDBRANCH  37  38
ENDBRANCH  36  37
ENDBRANCH  34  36
ENDBRANCH   4  33
BRANCH  13  40
HETATM   40  O6  UNL     1      -2.110  47.724 -19.584  1.00  0.00    -0.389 OA
HETATM   41  H35 UNL     1      -1.958  46.869 -20.027  1.00  0.00     0.210 HD
ENDBRANCH  13  40
BRANCH  10  42
HETATM   42  C18 UNL     1      -0.358  51.655 -20.041  1.00  0.00    -0.045 A 
HETATM   43  C19 UNL     1       0.375  52.351 -20.914  1.00  0.00     0.087 A 
HETATM   44  C20 UNL     1       0.768  53.597 -20.255  1.00  0.00     0.283 A 
HETATM   45  O4  UNL     1       1.445  54.468 -20.768  1.00  0.00    -0.260 OA
HETATM   46  O5  UNL     1       0.268  53.611 -18.988  1.00  0.00    -0.314 OA
HETATM   47  C21 UNL     1      -0.485  52.416 -18.771  1.00  0.00     0.213 A 
ENDBRANCH  10  42
TORSDOF 11
ENDMDL
MODEL 3
REMARK minimizedAffinity -8.21553421
REMARK CNNscore 0.54929024
REMARK CNNaffinity 6.19191599
REMARK  11 active torsions:
REMARK  status: ('A' for Active; 'I' for Inactive)
REMARK    1  A    between atoms: O1_2  and  C2_3 
REMARK    2  A    between atoms: C4_5  and  O2_6 
REMARK    3  A    between atoms: O2_6  and  C5_7 
REMARK    4  A    between atoms: C8_10  and  C9_11 
REMARK    5  A    between atoms: N1_12  and  C10_14 
REMARK    6  A    between atoms: C10_14  and  C11_15 
REMARK    7  A    between atoms: C11_15  and  O3_16 
REMARK    8  A    between atoms: C17_22  and  C18_23 
REMARK    9  A    between atoms: C24_31  and  O6_32 
REMARK   10  A    between atoms: C28_36  and  O7_37 
REMARK   11  A    between atoms: C32_42  and  O9_43 
ROOT
HETATM    1  C5  UNL     1      -7.835  47.245 -25.438  1.00  0.00     0.127 C 
HETATM    2  C6  UNL     1      -8.580  48.447 -26.031  1.00  0.00     0.033 C 
HETATM    3  C7  UNL     1     -10.055  48.151 -26.295  1.00  0.00     0.021 C 
HETATM    4  C8  UNL     1     -10.315  46.916 -27.231  1.00  0.00     0.026 C 
HETATM    5  C12 UNL     1     -11.698  46.284 -26.788  1.00  0.00     0.009 C 
HETATM    6  C13 UNL     1     -12.909  47.223 -27.010  1.00  0.00     0.007 C 
HETATM    7  C14 UNL     1     -14.230  46.618 -26.539  1.00  0.00     0.013 C 
HETATM    8  C15 UNL     1     -14.526  45.237 -27.169  1.00  0.00    -0.005 C 
HETATM    9  C16 UNL     1     -14.855  45.408 -28.669  1.00  0.00     0.019 C 
HETATM   10  C17 UNL     1     -15.669  44.483 -26.412  1.00  0.00     0.028 C 
HETATM   11  C22 UNL     1     -14.967  43.878 -25.173  1.00  0.00     0.013 C 
HETATM   12  C23 UNL     1     -13.460  43.888 -25.464  1.00  0.00     0.040 C 
HETATM   13  C24 UNL     1     -13.325  44.274 -26.947  1.00  0.00     0.070 C 
HETATM   14  C25 UNL     1     -11.956  44.872 -27.368  1.00  0.00     0.026 C 
HETATM   15  C26 UNL     1     -10.785  43.944 -27.015  1.00  0.00     0.011 C 
HETATM   16  C27 UNL     1      -9.492  44.478 -27.601  1.00  0.00     0.039 C 
HETATM   17  C28 UNL     1      -9.123  45.892 -27.141  1.00  0.00     0.073 C 
HETATM   18  C29 UNL     1      -8.531  45.900 -25.714  1.00  0.00     0.071 C 
ENDROOT
BRANCH   1  19
HETATM   19  O2  UNL     1      -7.688  47.456 -24.027  1.00  0.00    -0.356 OA
BRANCH  19  20
HETATM   20  C4  UNL     1      -7.089  48.710 -23.724  1.00  0.00     0.263 C 
HETATM   21  C3  UNL     1      -7.127  48.913 -22.206  1.00  0.00     0.095 C 
HETATM   22  C2  UNL     1      -6.193  50.060 -21.856  1.00  0.00     0.156 C 
HETATM   23  C32 UNL     1      -4.742  49.689 -22.273  1.00  0.00     0.175 C 
HETATM   24  C30 UNL     1      -4.731  48.596 -23.364  1.00  0.00     0.151 C 
HETATM   25  O8  UNL     1      -5.789  48.812 -24.305  1.00  0.00    -0.354 OA
HETATM   26  C31 UNL     1      -3.410  48.586 -24.125  1.00  0.00     0.042 C 
BRANCH  22  27
HETATM   27  O1  UNL     1      -6.188  50.351 -20.455  1.00  0.00    -0.388 OA
HETATM   28  C1  UNL     1      -7.155  49.646 -19.701  1.00  0.00     0.202 C 
ENDBRANCH  22  27
BRANCH  23  29
HETATM   29  O9  UNL     1      -4.006  49.226 -21.120  1.00  0.00    -0.390 OA
HETATM   30  H49 UNL     1      -4.443  49.687 -20.368  1.00  0.00     0.210 HD
ENDBRANCH  23  29
ENDBRANCH  19  20
ENDBRANCH   1  19
BRANCH  17  31
HETATM   31  O7  UNL     1      -8.043  46.314 -28.011  1.00  0.00    -0.389 OA
HETATM   32  H41 UNL     1      -7.363  45.601 -28.003  1.00  0.00     0.210 HD
ENDBRANCH  17  31
BRANCH   4  33
HETATM   33  C9  UNL     1     -10.330  47.464 -28.672  1.00  0.00     0.068 C 
HETATM   34  N1  UNL     1      -9.267  47.766 -29.341  1.00  0.00    -0.399 N 
ATOM     35  H1  UNL     1      -8.320  47.666 -28.977  1.00  0.00     0.158 HD
BRANCH  34  36
HETATM   36  C10 UNL     1      -9.578  48.274 -30.695  1.00  0.00     0.144 C 
BRANCH  36  37
HETATM   37  C11 UNL     1      -8.603  49.395 -31.064  1.00  0.00     0.183 C 
BRANCH  37  38
HETATM   38  O3  UNL     1      -8.991  50.630 -30.464  1.00  0.00    -0.399 OA
HETATM   39  H18 UNL     1      -9.848  50.458 -30.027  1.00  0.00     0.209 HD
ENDBRANCH  37  38
ENDBRANCH  36  37
ENDBRANCH  34  36
ENDBRANCH   4  33
BRANCH  13  40
HETATM   40  O6  UNL     1     -13.550  43.089 -27.732  1.00  0.00    -0.389 OA
HETATM   41  H35 UNL     1     -12.988  42.372 -27.384  1.00  0.00     0.210 HD
ENDBRANCH  13  40
BRANCH  10  42
HETATM   42  C18 UNL     1     -16.950  45.234 -26.126  1.00  0.00    -0.045 A 
HETATM   43  C19 UNL     1     -17.223  46.098 -25.145  1.00  0.00     0.087 A 
HETATM   44  C20 UNL     1     -18.640  46.449 -25.259  1.00  0.00     0.283 A 
HETATM   45  O4  UNL     1     -19.223  47.219 -24.518  1.00  0.00    -0.260 OA
HETATM   46  O5  UNL     1     -19.187  45.772 -26.305  1.00  0.00    -0.314 OA
HETATM   47  C21 UNL     1     -18.173  44.985 -26.933  1.00  0.00     0.213 A 
ENDBRANCH  10  42
TORSDOF 11
ENDMDL
MODEL 4
REMARK minimizedAffinity -7.41647768
REMARK CNNscore 0.52766186
REMARK CNNaffinity 5.97463989
REMARK  11 active torsions:
REMARK  status: ('A' for Active; 'I' for Inactive)
REMARK    1  A    between atoms: O1_2  and  C2_3 
REMARK    2  A    between atoms: C4_5  and  O2_6 
REMARK    3  A    between atoms: O2_6  and  C5_7 
REMARK    4  A    between atoms: C8_10  and  C9_11 
REMARK    5  A    between atoms: N1_12  and  C10_14 
REMARK    6  A    between atoms: C10_14  and  C11_15 
REMARK    7  A    between atoms: C11_15  and  O3_16 
REMARK    8  A    between atoms: C17_22  and  C18_23 
REMARK    9  A    between atoms: C24_31  and  O6_32 
REMARK   10  A    between atoms: C28_36  and  O7_37 
REMARK   11  A    between atoms: C32_42  and  O9_43 
ROOT
HETATM    1  C5  UNL     1      -7.892  47.275 -25.107  1.00  0.00     0.127 C 
HETATM    2  C6  UNL     1      -8.631  48.492 -25.676  1.00  0.00     0.033 C 
HETATM    3  C7  UNL     1     -10.093  48.192 -26.000  1.00  0.00     0.021 C 
HETATM    4  C8  UNL     1     -10.308  46.993 -26.993  1.00  0.00     0.026 C 
HETATM    5  C12 UNL     1     -11.697  46.330 -26.621  1.00  0.00     0.009 C 
HETATM    6  C13 UNL     1     -12.911  47.264 -26.846  1.00  0.00     0.007 C 
HETATM    7  C14 UNL     1     -14.240  46.628 -26.443  1.00  0.00     0.013 C 
HETATM    8  C15 UNL     1     -14.499  45.270 -27.138  1.00  0.00    -0.005 C 
HETATM    9  C16 UNL     1     -14.781  45.498 -28.639  1.00  0.00     0.019 C 
HETATM   10  C17 UNL     1     -15.658  44.475 -26.449  1.00  0.00     0.028 C 
HETATM   11  C22 UNL     1     -14.989  43.828 -25.213  1.00  0.00     0.013 C 
HETATM   12  C23 UNL     1     -13.474  43.865 -25.453  1.00  0.00     0.040 C 
HETATM   13  C24 UNL     1     -13.295  44.311 -26.914  1.00  0.00     0.070 C 
HETATM   14  C25 UNL     1     -11.919  44.939 -27.266  1.00  0.00     0.026 C 
HETATM   15  C26 UNL     1     -10.750  44.011 -26.911  1.00  0.00     0.011 C 
HETATM   16  C27 UNL     1      -9.445  44.581 -27.433  1.00  0.00     0.039 C 
HETATM   17  C28 UNL     1      -9.107  45.979 -26.904  1.00  0.00     0.073 C 
HETATM   18  C29 UNL     1      -8.563  45.935 -25.460  1.00  0.00     0.071 C 
ENDROOT
BRANCH   1  19
HETATM   19  O2  UNL     1      -7.793  47.431 -23.685  1.00  0.00    -0.356 OA
BRANCH  19  20
HETATM   20  C4  UNL     1      -6.462  47.691 -23.256  1.00  0.00     0.263 C 
HETATM   21  C3  UNL     1      -6.294  49.204 -23.083  1.00  0.00     0.095 C 
HETATM   22  C2  UNL     1      -5.013  49.454 -22.304  1.00  0.00     0.156 C 
HETATM   23  C32 UNL     1      -5.130  48.802 -20.897  1.00  0.00     0.175 C 
HETATM   24  C30 UNL     1      -6.188  47.676 -20.884  1.00  0.00     0.151 C 
HETATM   25  O8  UNL     1      -6.136  46.921 -22.099  1.00  0.00    -0.354 OA
HETATM   26  C31 UNL     1      -5.965  46.720 -19.718  1.00  0.00     0.042 C 
BRANCH  22  27
HETATM   27  O1  UNL     1      -4.749  50.849 -22.121  1.00  0.00    -0.388 OA
HETATM   28  C1  UNL     1      -4.820  51.624 -23.303  1.00  0.00     0.202 C 
ENDBRANCH  22  27
BRANCH  23  29
HETATM   29  O9  UNL     1      -5.484  49.806 -19.921  1.00  0.00    -0.390 OA
HETATM   30  H49 UNL     1      -5.115  50.636 -20.301  1.00  0.00     0.210 HD
ENDBRANCH  23  29
ENDBRANCH  19  20
ENDBRANCH   1  19
BRANCH  17  31
HETATM   31  O7  UNL     1      -8.004  46.447 -27.721  1.00  0.00    -0.389 OA
HETATM   32  H41 UNL     1      -7.317  45.741 -27.719  1.00  0.00     0.210 HD
ENDBRANCH  17  31
BRANCH   4  33
HETATM   33  C9  UNL     1     -10.282  47.599 -28.410  1.00  0.00     0.068 C 
HETATM   34  N1  UNL     1     -10.326  46.900 -29.496  1.00  0.00    -0.399 N 
ATOM     35  H1  UNL     1     -10.386  45.882 -29.513  1.00  0.00     0.158 HD
BRANCH  34  36
HETATM   36  C10 UNL     1     -10.281  47.741 -30.711  1.00  0.00     0.144 C 
BRANCH  36  37
HETATM   37  C11 UNL     1      -8.966  48.526 -30.749  1.00  0.00     0.183 C 
BRANCH  37  38
HETATM   38  O3  UNL     1      -9.202  49.926 -30.614  1.00  0.00    -0.399 OA
HETATM   39  H18 UNL     1     -10.174  50.036 -30.615  1.00  0.00     0.209 HD
ENDBRANCH  37  38
ENDBRANCH  36  37
ENDBRANCH  34  36
ENDBRANCH   4  33
BRANCH  13  40
HETATM   40  O6  UNL     1     -13.481  43.157 -27.752  1.00  0.00    -0.389 OA
HETATM   41  H35 UNL     1     -12.922  42.432 -27.415  1.00  0.00     0.210 HD
ENDBRANCH  13  40
BRANCH  10  42
HETATM   42  C18 UNL     1     -16.955  45.201 -26.176  1.00  0.00    -0.045 A 
HETATM   43  C19 UNL     1     -17.270  46.022 -25.172  1.00  0.00     0.087 A 
HETATM   44  C20 UNL     1     -18.686  46.363 -25.317  1.00  0.00     0.283 A 
HETATM   45  O4  UNL     1     -19.302  47.097 -24.566  1.00  0.00    -0.260 OA
HETATM   46  O5  UNL     1     -19.192  45.721 -26.407  1.00  0.00    -0.314 OA
HETATM   47  C21 UNL     1     -18.149  44.971 -27.031  1.00  0.00     0.213 A 
ENDBRANCH  10  42
TORSDOF 11
ENDMDL
MODEL 5
REMARK minimizedAffinity -6.90414476
REMARK CNNscore 0.469136715
REMARK CNNaffinity 5.82113123
REMARK  11 active torsions:
REMARK  status: ('A' for Active; 'I' for Inactive)
REMARK    1  A    between atoms: O1_2  and  C2_3 
REMARK    2  A    between atoms: C4_5  and  O2_6 
REMARK    3  A    between atoms: O2_6  and  C5_7 
REMARK    4  A    between atoms: C8_10  and  C9_11 
REMARK    5  A    between atoms: N1_12  and  C10_14 
REMARK    6  A    between atoms: C10_14  and  C11_15 
REMARK    7  A    between atoms: C11_15  and  O3_16 
REMARK    8  A    between atoms: C17_22  and  C18_23 
REMARK    9  A    between atoms: C24_31  and  O6_32 
REMARK   10  A    between atoms: C28_36  and  O7_37 
REMARK   11  A    between atoms: C32_42  and  O9_43 
ROOT
HETATM    1  C5  UNL     1       2.126  66.901 -36.401  1.00  0.00     0.127 C 
HETATM    2  C6  UNL     1       2.422  66.022 -37.623  1.00  0.00     0.033 C 
HETATM    3  C7  UNL     1       2.942  66.827 -38.812  1.00  0.00     0.021 C 
HETATM    4  C8  UNL     1       1.996  67.991 -39.276  1.00  0.00     0.026 C 
HETATM    5  C12 UNL     1       2.921  69.127 -39.876  1.00  0.00     0.009 C 
HETATM    6  C13 UNL     1       3.688  68.696 -41.151  1.00  0.00     0.007 C 
HETATM    7  C14 UNL     1       4.609  69.786 -41.694  1.00  0.00     0.013 C 
HETATM    8  C15 UNL     1       3.878  71.123 -41.960  1.00  0.00    -0.005 C 
HETATM    9  C16 UNL     1       2.937  70.970 -43.174  1.00  0.00     0.019 C 
HETATM   10  C17 UNL     1       4.883  72.307 -42.156  1.00  0.00     0.028 C 
HETATM   11  C22 UNL     1       5.289  72.701 -40.717  1.00  0.00     0.013 C 
HETATM   12  C23 UNL     1       4.234  72.105 -39.775  1.00  0.00     0.040 C 
HETATM   13  C24 UNL     1       3.111  71.581 -40.687  1.00  0.00     0.070 C 
HETATM   14  C25 UNL     1       2.200  70.483 -40.075  1.00  0.00     0.026 C 
HETATM   15  C26 UNL     1       1.562  70.930 -38.753  1.00  0.00     0.011 C 
HETATM   16  C27 UNL     1       0.545  69.907 -38.284  1.00  0.00     0.039 C 
HETATM   17  C28 UNL     1       1.112  68.498 -38.076  1.00  0.00     0.073 C 
HETATM   18  C29 UNL     1       1.904  68.382 -36.756  1.00  0.00     0.071 C 
ENDROOT
BRANCH   1  19
HETATM   19  O2  UNL     1       3.210  66.762 -35.472  1.00  0.00    -0.356 OA
BRANCH  19  20
HETATM   20  C4  UNL     1       3.848  65.494 -35.565  1.00  0.00     0.263 C 
HETATM   21  C3  UNL     1       5.330  65.717 -35.882  1.00  0.00     0.095 C 
HETATM   22  C2  UNL     1       6.070  64.412 -35.638  1.00  0.00     0.156 C 
HETATM   23  C32 UNL     1       5.935  64.015 -34.141  1.00  0.00     0.175 C 
HETATM   24  C30 UNL     1       4.706  64.686 -33.488  1.00  0.00     0.151 C 
HETATM   25  O8  UNL     1       3.601  64.708 -34.399  1.00  0.00    -0.354 OA
HETATM   26  C31 UNL     1       4.272  63.944 -32.230  1.00  0.00     0.042 C 
BRANCH  22  27
HETATM   27  O1  UNL     1       7.465  64.510 -35.943  1.00  0.00    -0.388 OA
HETATM   28  C1  UNL     1       7.822  65.637 -36.721  1.00  0.00     0.202 C 
ENDBRANCH  22  27
BRANCH  23  29
HETATM   29  O9  UNL     1       7.129  64.398 -33.424  1.00  0.00    -0.390 OA
HETATM   30  H49 UNL     1       7.829  64.372 -34.115  1.00  0.00     0.210 HD
ENDBRANCH  23  29
ENDBRANCH  19  20
ENDBRANCH   1  19
BRANCH  17  31
HETATM   31  O7  UNL     1      -0.042  67.635 -37.914  1.00  0.00    -0.389 OA
HETATM   32  H41 UNL     1      -0.617  68.041 -37.225  1.00  0.00     0.210 HD
ENDBRANCH  17  31
BRANCH   4  33
HETATM   33  C9  UNL     1       1.036  67.377 -40.314  1.00  0.00     0.068 C 
HETATM   34  N1  UNL     1       0.084  68.030 -40.894  1.00  0.00    -0.399 N 
ATOM     35  H1  UNL     1      -0.117  69.014 -40.720  1.00  0.00     0.158 HD
BRANCH  34  36
HETATM   36  C10 UNL     1      -0.683  67.190 -41.840  1.00  0.00     0.144 C 
BRANCH  36  37
HETATM   37  C11 UNL     1      -1.681  68.058 -42.612  1.00  0.00     0.183 C 
BRANCH  37  38
HETATM   38  O3  UNL     1      -2.588  68.708 -41.723  1.00  0.00    -0.399 OA
HETATM   39  H18 UNL     1      -2.388  68.359 -40.832  1.00  0.00     0.209 HD
ENDBRANCH  37  38
ENDBRANCH  36  37
ENDBRANCH  34  36
ENDBRANCH   4  33
BRANCH  13  40
HETATM   40  O6  UNL     1       2.278  72.698 -41.045  1.00  0.00    -0.389 OA
HETATM   41  H35 UNL     1       2.032  73.178 -40.232  1.00  0.00     0.210 HD
ENDBRANCH  13  40
BRANCH  10  42
HETATM   42  C18 UNL     1       6.030  72.115 -43.122  1.00  0.00    -0.045 A 
HETATM   43  C19 UNL     1       7.184  71.467 -42.946  1.00  0.00     0.087 A 
HETATM   44  C20 UNL     1       7.988  71.677 -44.151  1.00  0.00     0.283 A 
HETATM   45  O4  UNL     1       9.104  71.223 -44.327  1.00  0.00    -0.260 OA
HETATM   46  O5  UNL     1       7.295  72.463 -45.021  1.00  0.00    -0.314 OA
HETATM   47  C21 UNL     1       6.020  72.774 -44.454  1.00  0.00     0.213 A 
ENDBRANCH  10  42
TORSDOF 11
ENDMDL
MODEL 6
REMARK minimizedAffinity -7.05053759
REMARK CNNscore 0.440611422
REMARK CNNaffinity 5.23836899
REMARK  11 active torsions:
REMARK  status: ('A' for Active; 'I' for Inactive)
REMARK    1  A    between atoms: O1_2  and  C2_3 
REMARK    2  A    between atoms: C4_5  and  O2_6 
REMARK    3  A    between atoms: O2_6  and  C5_7 
REMARK    4  A    between atoms: C8_10  and  C9_11 
REMARK    5  A    between atoms: N1_12  and  C10_14 
REMARK    6  A    between atoms: C10_14  and  C11_15 
REMARK    7  A    between atoms: C11_15  and  O3_16 
REMARK    8  A    between atoms: C17_22  and  C18_23 
REMARK    9  A    between atoms: C24_31  and  O6_32 
REMARK   10  A    between atoms: C28_36  and  O7_37 
REMARK   11  A    between atoms: C32_42  and  O9_43 
ROOT
HETATM    1  C5  UNL     1      -8.347  48.161 -25.167  1.00  0.00     0.127 C 
HETATM    2  C6  UNL     1      -9.237  48.987 -26.104  1.00  0.00     0.033 C 
HETATM    3  C7  UNL     1     -10.682  48.495 -26.125  1.00  0.00     0.021 C 
HETATM    4  C8  UNL     1     -10.851  46.982 -26.512  1.00  0.00     0.026 C 
HETATM    5  C12 UNL     1     -12.141  46.454 -25.761  1.00  0.00     0.009 C 
HETATM    6  C13 UNL     1     -13.452  47.139 -26.221  1.00  0.00     0.007 C 
HETATM    7  C14 UNL     1     -14.682  46.651 -25.459  1.00  0.00     0.013 C 
HETATM    8  C15 UNL     1     -14.859  45.116 -25.507  1.00  0.00    -0.005 C 
HETATM    9  C16 UNL     1     -15.266  44.682 -26.932  1.00  0.00     0.019 C 
HETATM   10  C17 UNL     1     -15.885  44.613 -24.438  1.00  0.00     0.028 C 
HETATM   11  C22 UNL     1     -15.074  44.579 -23.121  1.00  0.00     0.013 C 
HETATM   12  C23 UNL     1     -13.589  44.600 -23.510  1.00  0.00     0.040 C 
HETATM   13  C24 UNL     1     -13.556  44.408 -25.037  1.00  0.00     0.070 C 
HETATM   14  C25 UNL     1     -12.275  44.911 -25.754  1.00  0.00     0.026 C 
HETATM   15  C26 UNL     1     -11.001  44.283 -25.174  1.00  0.00     0.011 C 
HETATM   16  C27 UNL     1      -9.796  44.659 -26.014  1.00  0.00     0.039 C 
HETATM   17  C28 UNL     1      -9.556  46.167 -26.141  1.00  0.00     0.073 C 
HETATM   18  C29 UNL     1      -8.910  46.760 -24.870  1.00  0.00     0.071 C 
ENDROOT
BRANCH   1  19
HETATM   19  O2  UNL     1      -8.164  48.900 -23.951  1.00  0.00    -0.356 OA
BRANCH  19  20
HETATM   20  C4  UNL     1      -6.836  48.805 -23.450  1.00  0.00     0.263 C 
HETATM   21  C3  UNL     1      -6.066  50.059 -23.875  1.00  0.00     0.095 C 
HETATM   22  C2  UNL     1      -4.783  50.127 -23.062  1.00  0.00     0.156 C 
HETATM   23  C32 UNL     1      -5.135  50.247 -21.553  1.00  0.00     0.175 C 
HETATM   24  C30 UNL     1      -6.559  49.721 -21.262  1.00  0.00     0.151 C 
HETATM   25  O8  UNL     1      -6.835  48.554 -22.045  1.00  0.00    -0.354 OA
HETATM   26  C31 UNL     1      -6.727  49.360 -19.791  1.00  0.00     0.042 C 
BRANCH  22  27
HETATM   27  O1  UNL     1      -3.973  51.253 -23.415  1.00  0.00    -0.388 OA
HETATM   28  C1  UNL     1      -4.263  51.817 -24.680  1.00  0.00     0.202 C 
ENDBRANCH  22  27
BRANCH  23  29
HETATM   29  O9  UNL     1      -5.037  51.626 -21.135  1.00  0.00    -0.390 OA
HETATM   30  H49 UNL     1      -4.368  52.004 -21.751  1.00  0.00     0.210 HD
ENDBRANCH  23  29
ENDBRANCH  19  20
ENDBRANCH   1  19
BRANCH  17  31
HETATM   31  O7  UNL     1      -8.563  46.316 -27.187  1.00  0.00    -0.389 OA
HETATM   32  H41 UNL     1      -7.813  45.716 -26.967  1.00  0.00     0.210 HD
ENDBRANCH  17  31
BRANCH   4  33
HETATM   33  C9  UNL     1     -10.982  46.943 -28.048  1.00  0.00     0.068 C 
HETATM   34  N1  UNL     1     -10.647  47.918 -28.827  1.00  0.00    -0.399 N 
ATOM     35  H1  UNL     1     -10.261  48.802 -28.495  1.00  0.00     0.158 HD
BRANCH  34  36
HETATM   36  C10 UNL     1     -10.886  47.608 -30.253  1.00  0.00     0.144 C 
BRANCH  36  37
HETATM   37  C11 UNL     1     -10.639  46.119 -30.509  1.00  0.00     0.183 C 
BRANCH  37  38
HETATM   38  O3  UNL     1     -11.672  45.561 -31.320  1.00  0.00    -0.399 OA
HETATM   39  H18 UNL     1     -12.333  46.271 -31.439  1.00  0.00     0.209 HD
ENDBRANCH  37  38
ENDBRANCH  36  37
ENDBRANCH  34  36
ENDBRANCH   4  33
BRANCH  13  40
HETATM   40  O6  UNL     1     -13.690  43.001 -25.306  1.00  0.00    -0.389 OA
HETATM   41  H35 UNL     1     -13.042  42.516 -24.761  1.00  0.00     0.210 HD
ENDBRANCH  13  40
BRANCH  10  42
HETATM   42  C18 UNL     1     -17.224  45.310 -24.353  1.00  0.00    -0.045 A 
HETATM   43  C19 UNL     1     -18.222  45.336 -25.241  1.00  0.00     0.087 A 
HETATM   44  C20 UNL     1     -19.243  46.246 -24.720  1.00  0.00     0.283 A 
HETATM   45  O4  UNL     1     -20.293  46.503 -25.280  1.00  0.00    -0.260 OA
HETATM   46  O5  UNL     1     -18.822  46.757 -23.529  1.00  0.00    -0.314 OA
HETATM   47  C21 UNL     1     -17.549  46.197 -23.206  1.00  0.00     0.213 A 
ENDBRANCH  10  42
TORSDOF 11
ENDMDL
MODEL 7
REMARK minimizedAffinity -8.36296654
REMARK CNNscore 0.36407882
REMARK CNNaffinity 6.47031546
REMARK  11 active torsions:
REMARK  status: ('A' for Active; 'I' for Inactive)
REMARK    1  A    between atoms: O1_2  and  C2_3 
REMARK    2  A    between atoms: C4_5  and  O2_6 
REMARK    3  A    between atoms: O2_6  and  C5_7 
REMARK    4  A    between atoms: C8_10  and  C9_11 
REMARK    5  A    between atoms: N1_12  and  C10_14 
REMARK    6  A    between atoms: C10_14  and  C11_15 
REMARK    7  A    between atoms: C11_15  and  O3_16 
REMARK    8  A    between atoms: C17_22  and  C18_23 
REMARK    9  A    between atoms: C24_31  and  O6_32 
REMARK   10  A    between atoms: C28_36  and  O7_37 
REMARK   11  A    between atoms: C32_42  and  O9_43 
ROOT
HETATM    1  C5  UNL     1      -7.531  47.873 -24.227  1.00  0.00     0.127 C 
HETATM    2  C6  UNL     1      -7.902  49.232 -23.620  1.00  0.00     0.033 C 
HETATM    3  C7  UNL     1      -6.803  49.792 -22.720  1.00  0.00     0.021 C 
HETATM    4  C8  UNL     1      -6.375  48.842 -21.544  1.00  0.00     0.026 C 
HETATM    5  C12 UNL     1      -4.847  49.132 -21.248  1.00  0.00     0.009 C 
HETATM    6  C13 UNL     1      -4.576  50.566 -20.729  1.00  0.00     0.007 C 
HETATM    7  C14 UNL     1      -3.094  50.846 -20.489  1.00  0.00     0.013 C 
HETATM    8  C15 UNL     1      -2.427  49.821 -19.543  1.00  0.00    -0.005 C 
HETATM    9  C16 UNL     1      -2.951  50.021 -18.104  1.00  0.00     0.019 C 
HETATM   10  C17 UNL     1      -0.865  49.903 -19.603  1.00  0.00     0.028 C 
HETATM   11  C22 UNL     1      -0.494  49.115 -20.881  1.00  0.00     0.013 C 
HETATM   12  C23 UNL     1      -1.711  48.255 -21.245  1.00  0.00     0.040 C 
HETATM   13  C24 UNL     1      -2.677  48.373 -20.053  1.00  0.00     0.070 C 
HETATM   14  C25 UNL     1      -4.167  48.064 -20.356  1.00  0.00     0.026 C 
HETATM   15  C26 UNL     1      -4.356  46.674 -20.977  1.00  0.00     0.011 C 
HETATM   16  C27 UNL     1      -5.831  46.340 -21.090  1.00  0.00     0.039 C 
HETATM   17  C28 UNL     1      -6.645  47.337 -21.922  1.00  0.00     0.073 C 
HETATM   18  C29 UNL     1      -6.437  47.131 -23.438  1.00  0.00     0.071 C 
ENDROOT
BRANCH   1  19
HETATM   19  O2  UNL     1      -7.120  48.083 -25.585  1.00  0.00    -0.356 OA
BRANCH  19  20
HETATM   20  C4  UNL     1      -8.003  47.479 -26.522  1.00  0.00     0.263 C 
HETATM   21  C3  UNL     1      -7.263  47.314 -27.853  1.00  0.00     0.095 C 
HETATM   22  C2  UNL     1      -8.069  46.371 -28.731  1.00  0.00     0.156 C 
HETATM   23  C32 UNL     1      -8.166  44.981 -28.040  1.00  0.00     0.175 C 
HETATM   24  C30 UNL     1      -7.939  45.092 -26.516  1.00  0.00     0.151 C 
HETATM   25  O8  UNL     1      -8.561  46.274 -25.998  1.00  0.00    -0.354 OA
HETATM   26  C31 UNL     1      -8.516  43.888 -25.780  1.00  0.00     0.042 C 
BRANCH  22  27
HETATM   27  O1  UNL     1      -7.472  46.181 -30.018  1.00  0.00    -0.388 OA
HETATM   28  C1  UNL     1      -6.352  47.005 -30.278  1.00  0.00     0.202 C 
ENDBRANCH  22  27
BRANCH  23  29
HETATM   29  O9  UNL     1      -7.188  44.083 -28.608  1.00  0.00    -0.390 OA
HETATM   30  H49 UNL     1      -7.067  44.425 -29.523  1.00  0.00     0.210 HD
ENDBRANCH  23  29
ENDBRANCH  19  20
ENDBRANCH   1  19
BRANCH  17  31
HETATM   31  O7  UNL     1      -8.035  47.008 -21.672  1.00  0.00    -0.389 OA
HETATM   32  H41 UNL     1      -8.139  46.040 -21.824  1.00  0.00     0.210 HD
ENDBRANCH  17  31
BRANCH   4  33
HETATM   33  C9  UNL     1      -7.300  49.181 -20.359  1.00  0.00     0.068 C 
HETATM   34  N1  UNL     1      -7.307  48.537 -19.240  1.00  0.00    -0.399 N 
ATOM     35  H1  UNL     1      -6.697  47.745 -19.037  1.00  0.00     0.158 HD
BRANCH  34  36
HETATM   36  C10 UNL     1      -8.299  49.076 -18.284  1.00  0.00     0.144 C 
BRANCH  36  37
HETATM   37  C11 UNL     1      -9.097  47.926 -17.663  1.00  0.00     0.183 C 
BRANCH  37  38
HETATM   38  O3  UNL     1     -10.420  47.875 -18.197  1.00  0.00    -0.399 OA
HETATM   39  H18 UNL     1     -10.506  48.658 -18.776  1.00  0.00     0.209 HD
ENDBRANCH  37  38
ENDBRANCH  36  37
ENDBRANCH  34  36
ENDBRANCH   4  33
BRANCH  13  40
HETATM   40  O6  UNL     1      -2.233  47.457 -19.036  1.00  0.00    -0.389 OA
HETATM   41  H35 UNL     1      -2.100  46.581 -19.441  1.00  0.00     0.210 HD
ENDBRANCH  13  40
BRANCH  10  42
HETATM   42  C18 UNL     1      -0.218  51.263 -19.471  1.00  0.00    -0.045 A 
HETATM   43  C19 UNL     1       0.167  52.112 -20.427  1.00  0.00     0.087 A 
HETATM   44  C20 UNL     1       0.837  53.234 -19.767  1.00  0.00     0.283 A 
HETATM   45  O4  UNL     1       1.314  54.193 -20.345  1.00  0.00    -0.260 OA
HETATM   46  O5  UNL     1       0.849  53.020 -18.422  1.00  0.00    -0.314 OA
HETATM   47  C21 UNL     1       0.175  51.792 -18.139  1.00  0.00     0.213 A 
ENDBRANCH  10  42
TORSDOF 11
ENDMDL
MODEL 8
REMARK minimizedAffinity -6.92236614
REMARK CNNscore 0.345804632
REMARK CNNaffinity 5.91103363
REMARK  11 active torsions:
REMARK  status: ('A' for Active; 'I' for Inactive)
REMARK    1  A    between atoms: O1_2  and  C2_3 
REMARK    2  A    between atoms: C4_5  and  O2_6 
REMARK    3  A    between atoms: O2_6  and  C5_7 
REMARK    4  A    between atoms: C8_10  and  C9_11 
REMARK    5  A    between atoms: N1_12  and  C10_14 
REMARK    6  A    between atoms: C10_14  and  C11_15 
REMARK    7  A    between atoms: C11_15  and  O3_16 
REMARK    8  A    between atoms: C17_22  and  C18_23 
REMARK    9  A    between atoms: C24_31  and  O6_32 
REMARK   10  A    between atoms: C28_36  and  O7_37 
REMARK   11  A    between atoms: C32_42  and  O9_43 
ROOT
HETATM    1  C5  UNL     1     -11.952  46.585 -27.219  1.00  0.00     0.127 C 
HETATM    2  C6  UNL     1     -12.147  47.606 -28.347  1.00  0.00     0.033 C 
HETATM    3  C7  UNL     1     -11.889  47.010 -29.729  1.00  0.00     0.021 C 
HETATM    4  C8  UNL     1     -10.467  46.365 -29.905  1.00  0.00     0.026 C 
HETATM    5  C12 UNL     1     -10.621  45.187 -30.952  1.00  0.00     0.009 C 
HETATM    6  C13 UNL     1     -11.029  45.663 -32.368  1.00  0.00     0.007 C 
HETATM    7  C14 UNL     1     -11.216  44.513 -33.356  1.00  0.00     0.013 C 
HETATM    8  C15 UNL     1      -9.978  43.592 -33.459  1.00  0.00    -0.005 C 
HETATM    9  C16 UNL     1      -8.828  44.341 -34.168  1.00  0.00     0.019 C 
HETATM   10  C17 UNL     1     -10.314  42.242 -34.176  1.00  0.00     0.028 C 
HETATM   11  C22 UNL     1     -10.983  41.386 -33.075  1.00  0.00     0.013 C 
HETATM   12  C23 UNL     1     -10.619  42.024 -31.728  1.00  0.00     0.040 C 
HETATM   13  C24 UNL     1      -9.558  43.092 -32.047  1.00  0.00     0.070 C 
HETATM   14  C25 UNL     1      -9.406  44.228 -30.999  1.00  0.00     0.026 C 
HETATM   15  C26 UNL     1      -9.118  43.685 -29.593  1.00  0.00     0.011 C 
HETATM   16  C27 UNL     1      -8.799  44.823 -28.642  1.00  0.00     0.039 C 
HETATM   17  C28 UNL     1      -9.905  45.876 -28.519  1.00  0.00     0.073 C 
HETATM   18  C29 UNL     1     -11.065  45.394 -27.622  1.00  0.00     0.071 C 
ENDROOT
BRANCH   1  19
HETATM   19  O2  UNL     1     -13.244  46.132 -26.792  1.00  0.00    -0.356 OA
BRANCH  19  20
HETATM   20  C4  UNL     1     -13.867  47.034 -25.887  1.00  0.00     0.263 C 
HETATM   21  C3  UNL     1     -15.263  46.500 -25.551  1.00  0.00     0.095 C 
HETATM   22  C2  UNL     1     -15.783  47.257 -24.340  1.00  0.00     0.156 C 
HETATM   23  C32 UNL     1     -14.846  46.995 -23.127  1.00  0.00     0.175 C 
HETATM   24  C30 UNL     1     -13.440  46.549 -23.588  1.00  0.00     0.151 C 
HETATM   25  O8  UNL     1     -13.035  47.278 -24.752  1.00  0.00    -0.354 OA
HETATM   26  C31 UNL     1     -12.400  46.778 -22.497  1.00  0.00     0.042 C 
BRANCH  22  27
HETATM   27  O1  UNL     1     -17.105  46.851 -23.969  1.00  0.00    -0.388 OA
HETATM   28  C1  UNL     1     -17.837  46.212 -24.997  1.00  0.00     0.202 C 
ENDBRANCH  22  27
BRANCH  23  29
HETATM   29  O9  UNL     1     -15.418  45.977 -22.277  1.00  0.00    -0.390 OA
HETATM   30  H49 UNL     1     -16.386  46.068 -22.432  1.00  0.00     0.210 HD
ENDBRANCH  23  29
ENDBRANCH  19  20
ENDBRANCH   1  19
BRANCH  17  31
HETATM   31  O7  UNL     1      -9.303  46.989 -27.810  1.00  0.00    -0.389 OA
HETATM   32  H41 UNL     1      -8.877  46.625 -26.999  1.00  0.00     0.210 HD
ENDBRANCH  17  31
BRANCH   4  33
HETATM   33  C9  UNL     1      -9.540  47.496 -30.394  1.00  0.00     0.068 C 
HETATM   34  N1  UNL     1      -9.788  48.753 -30.235  1.00  0.00    -0.399 N 
ATOM     35  H1  UNL     1     -10.620  49.113 -29.767  1.00  0.00     0.158 HD
BRANCH  34  36
HETATM   36  C10 UNL     1      -8.730  49.615 -30.806  1.00  0.00     0.144 C 
BRANCH  36  37
HETATM   37  C11 UNL     1      -7.535  48.756 -31.228  1.00  0.00     0.183 C 
BRANCH  37  38
HETATM   38  O3  UNL     1      -6.372  49.089 -30.471  1.00  0.00    -0.399 OA
HETATM   39  H18 UNL     1      -6.622  49.857 -29.920  1.00  0.00     0.209 HD
ENDBRANCH  37  38
ENDBRANCH  36  37
ENDBRANCH  34  36
ENDBRANCH   4  33
BRANCH  13  40
HETATM   40  O6  UNL     1      -8.288  42.428 -32.166  1.00  0.00    -0.389 OA
HETATM   41  H35 UNL     1      -8.157  41.860 -31.384  1.00  0.00     0.210 HD
ENDBRANCH  13  40
BRANCH  10  42
HETATM   42  C18 UNL     1     -11.057  42.300 -35.491  1.00  0.00    -0.045 A 
HETATM   43  C19 UNL     1     -12.346  42.064 -35.745  1.00  0.00     0.087 A 
HETATM   44  C20 UNL     1     -12.525  42.148 -37.195  1.00  0.00     0.283 A 
HETATM   45  O4  UNL     1     -13.585  41.985 -37.773  1.00  0.00    -0.260 OA
HETATM   46  O5  UNL     1     -11.326  42.421 -37.780  1.00  0.00    -0.314 OA
HETATM   47  C21 UNL     1     -10.332  42.557 -36.762  1.00  0.00     0.213 A 
ENDBRANCH  10  42
TORSDOF 11
ENDMDL
MODEL 9
REMARK minimizedAffinity -6.9976182
REMARK CNNscore 0.339291036
REMARK CNNaffinity 5.33179045
REMARK  11 active torsions:
REMARK  status: ('A' for Active; 'I' for Inactive)
REMARK    1  A    between atoms: O1_2  and  C2_3 
REMARK    2  A    between atoms: C4_5  and  O2_6 
REMARK    3  A    between atoms: O2_6  and  C5_7 
REMARK    4  A    between atoms: C8_10  and  C9_11 
REMARK    5  A    between atoms: N1_12  and  C10_14 
REMARK    6  A    between atoms: C10_14  and  C11_15 
REMARK    7  A    between atoms: C11_15  and  O3_16 
REMARK    8  A    between atoms: C17_22  and  C18_23 
REMARK    9  A    between atoms: C24_31  and  O6_32 
REMARK   10  A    between atoms: C28_36  and  O7_37 
REMARK   11  A    between atoms: C32_42  and  O9_43 
ROOT
HETATM    1  C5  UNL     1      -7.345  46.991 -24.959  1.00  0.00     0.127 C 
HETATM    2  C6  UNL     1      -8.092  48.284 -25.308  1.00  0.00     0.033 C 
HETATM    3  C7  UNL     1      -9.590  48.062 -25.500  1.00  0.00     0.021 C 
HETATM    4  C8  UNL     1      -9.957  46.988 -26.586  1.00  0.00     0.026 C 
HETATM    5  C12 UNL     1     -11.324  46.326 -26.137  1.00  0.00     0.009 C 
HETATM    6  C13 UNL     1     -12.517  47.313 -26.124  1.00  0.00     0.007 C 
HETATM    7  C14 UNL     1     -13.819  46.672 -25.649  1.00  0.00     0.013 C 
HETATM    8  C15 UNL     1     -14.204  45.408 -26.453  1.00  0.00    -0.005 C 
HETATM    9  C16 UNL     1     -14.635  45.809 -27.881  1.00  0.00     0.019 C 
HETATM   10  C17 UNL     1     -15.314  44.573 -25.730  1.00  0.00     0.028 C 
HETATM   11  C22 UNL     1     -14.544  43.774 -24.653  1.00  0.00     0.013 C 
HETATM   12  C23 UNL     1     -13.062  43.796 -25.053  1.00  0.00     0.040 C 
HETATM   13  C24 UNL     1     -13.022  44.397 -26.468  1.00  0.00     0.070 C 
HETATM   14  C25 UNL     1     -11.668  45.023 -26.899  1.00  0.00     0.026 C 
HETATM   15  C26 UNL     1     -10.506  44.028 -26.778  1.00  0.00     0.011 C 
HETATM   16  C27 UNL     1      -9.242  44.617 -27.376  1.00  0.00     0.039 C 
HETATM   17  C28 UNL     1      -8.795  45.937 -26.740  1.00  0.00     0.073 C 
HETATM   18  C29 UNL     1      -8.102  45.718 -25.378  1.00  0.00     0.071 C 
ENDROOT
BRANCH   1  19
HETATM   19  O2  UNL     1      -7.089  46.985 -23.547  1.00  0.00    -0.356 OA
BRANCH  19  20
HETATM   20  C4  UNL     1      -8.157  47.551 -22.797  1.00  0.00     0.263 C 
HETATM   21  C3  UNL     1      -8.719  46.475 -21.862  1.00  0.00     0.095 C 
HETATM   22  C2  UNL     1      -9.604  47.157 -20.832  1.00  0.00     0.156 C 
HETATM   23  C32 UNL     1      -8.749  48.148 -19.993  1.00  0.00     0.175 C 
HETATM   24  C30 UNL     1      -7.469  48.569 -20.749  1.00  0.00     0.151 C 
HETATM   25  O8  UNL     1      -7.744  48.751 -22.143  1.00  0.00    -0.354 OA
HETATM   26  C31 UNL     1      -6.905  49.874 -20.200  1.00  0.00     0.042 C 
BRANCH  22  27
HETATM   27  O1  UNL     1     -10.208  46.224 -19.930  1.00  0.00    -0.388 OA
HETATM   28  C1  UNL     1     -11.606  46.371 -19.775  1.00  0.00     0.202 C 
ENDBRANCH  22  27
BRANCH  23  29
HETATM   29  O9  UNL     1      -8.386  47.537 -18.735  1.00  0.00    -0.390 OA
HETATM   30  H49 UNL     1      -9.118  46.900 -18.571  1.00  0.00     0.210 HD
ENDBRANCH  23  29
ENDBRANCH  19  20
ENDBRANCH   1  19
BRANCH  17  31
HETATM   31  O7  UNL     1      -7.768  46.463 -27.618  1.00  0.00    -0.389 OA
HETATM   32  H41 UNL     1      -7.113  45.743 -27.768  1.00  0.00     0.210 HD
ENDBRANCH  17  31
BRANCH   4  33
HETATM   33  C9  UNL     1     -10.058  47.747 -27.924  1.00  0.00     0.068 C 
HETATM   34  N1  UNL     1     -10.167  47.171 -29.075  1.00  0.00    -0.399 N 
ATOM     35  H1  UNL     1     -10.200  46.159 -29.203  1.00  0.00     0.158 HD
BRANCH  34  36
HETATM   36  C10 UNL     1     -10.240  48.142 -30.188  1.00  0.00     0.144 C 
BRANCH  36  37
HETATM   37  C11 UNL     1      -8.871  48.796 -30.395  1.00  0.00     0.183 C 
BRANCH  37  38
HETATM   38  O3  UNL     1      -8.979  50.218 -30.405  1.00  0.00    -0.399 OA
HETATM   39  H18 UNL     1      -9.935  50.415 -30.358  1.00  0.00     0.209 HD
ENDBRANCH  37  38
ENDBRANCH  36  37
ENDBRANCH  34  36
ENDBRANCH   4  33
BRANCH  13  40
HETATM   40  O6  UNL     1     -13.342  43.349 -27.401  1.00  0.00    -0.389 OA
HETATM   41  H35 UNL     1     -12.779  42.576 -27.207  1.00  0.00     0.210 HD
ENDBRANCH  13  40
BRANCH  10  42
HETATM   42  C18 UNL     1     -16.545  45.299 -25.240  1.00  0.00    -0.045 A 
HETATM   43  C19 UNL     1     -17.682  45.570 -25.887  1.00  0.00     0.087 A 
HETATM   44  C20 UNL     1     -18.503  46.391 -24.997  1.00  0.00     0.283 A 
HETATM   45  O4  UNL     1     -19.610  46.817 -25.273  1.00  0.00    -0.260 OA
HETATM   46  O5  UNL     1     -17.828  46.605 -23.834  1.00  0.00    -0.314 OA
HETATM   47  C21 UNL     1     -16.573  45.924 -23.892  1.00  0.00     0.213 A 
ENDBRANCH  10  42
TORSDOF 11
ENDMDL
