MODEL 1
REMARK minimizedAffinity -9.00675488
REMARK  5 active torsions:
REMARK  status: ('A' for Active; 'I' for Inactive)
REMARK    1  A    between atoms: C2_2  and  C4_4 
REMARK    2  A    between atoms: C7_7  and  C8_8 
REMARK    3  A    between atoms: C8_8  and  O2_10 
REMARK    4  A    between atoms: C22_25  and  C24_27 
REMARK    5  A    between atoms: C24_27  and  O4_28 
ROOT
HETATM    1  C4  UNL     1      -5.668   4.932  12.544  1.00  0.00     0.019 C 
HETATM    2  C5  UNL     1      -4.128   4.770  12.662  1.00  0.00     0.011 C 
HETATM    3  C6  UNL     1      -3.709   5.495  13.955  1.00  0.00     0.021 C 
HETATM    4  C7  UNL     1      -4.810   6.544  14.158  1.00  0.00     0.050 C 
HETATM    5  C9  UNL     1      -4.944   7.073  15.590  1.00  0.00     0.022 C 
HETATM    6  C10 UNL     1      -6.236   7.902  15.738  1.00  0.00     0.011 C 
HETATM    7  C11 UNL     1      -7.573   7.175  15.324  1.00  0.00    -0.032 C 
HETATM    8  C12 UNL     1      -7.786   6.063  16.403  1.00  0.00     0.016 C 
HETATM    9  C13 UNL     1      -7.365   6.516  13.912  1.00  0.00     0.000 C 
HETATM   10  C14 UNL     1      -8.584   5.682  13.513  1.00  0.00     0.006 C 
HETATM   11  C15 UNL     1      -9.922   6.336  13.840  1.00  0.00     0.006 C 
HETATM   12  C16 UNL     1      -9.836   7.872  14.011  1.00  0.00     0.003 C 
HETATM   13  C17 UNL     1     -11.281   8.588  14.011  1.00  0.00    -0.035 C 
HETATM   14  C18 UNL     1     -11.131  10.075  13.584  1.00  0.00     0.016 C 
HETATM   15  C19 UNL     1     -12.237   7.907  12.999  1.00  0.00     0.017 C 
HETATM   16  C20 UNL     1     -13.606   8.551  12.882  1.00  0.00     0.080 C 
HETATM   17  C21 UNL     1     -14.208   9.035  14.178  1.00  0.00     0.137 C 
HETATM   18  O3  UNL     1     -15.368   9.465  14.162  1.00  0.00    -0.297 OA
HETATM   19  C22 UNL     1     -13.432   8.993  15.502  1.00  0.00     0.042 C 
HETATM   20  C23 UNL     1     -13.490  10.415  16.099  1.00  0.00     0.026 C 
HETATM   21  C25 UNL     1     -11.965   8.431  15.397  1.00  0.00     0.012 C 
HETATM   22  C26 UNL     1     -11.044   8.904  16.537  1.00  0.00     0.007 C 
HETATM   23  C27 UNL     1      -9.717   8.146  16.560  1.00  0.00     0.011 C 
HETATM   24  C28 UNL     1      -8.878   8.208  15.252  1.00  0.00    -0.032 C 
HETATM   25  C29 UNL     1      -8.357   9.663  15.102  1.00  0.00     0.016 C 
HETATM   26  C30 UNL     1      -6.055   5.699  13.834  1.00  0.00     0.017 C 
ENDROOT
BRANCH   4  27
HETATM   27  C8  UNL     1      -4.441   7.721  13.246  1.00  0.00     0.149 C 
HETATM   28  O1  UNL     1      -5.236   8.514  12.766  1.00  0.00    -0.649 OA
BRANCH  27  29
HETATM   29  O2  UNL     1      -3.130   7.908  13.025  1.00  0.00    -0.776 OA
HETATM   30  H11 UNL     1      -3.104   8.717  12.474  1.00  0.00     0.167 HD
ENDBRANCH  27  29
ENDBRANCH   4  27
BRANCH   1  31
HETATM   31  C2  UNL     1      -6.341   3.587  12.306  1.00  0.00    -0.088 C 
HETATM   32  C1  UNL     1      -7.234   3.037  13.149  1.00  0.00     0.014 C 
HETATM   33  C3  UNL     1      -5.930   2.868  11.047  1.00  0.00     0.043 C 
ENDBRANCH   1  31
BRANCH  19  34
HETATM   34  C24 UNL     1     -14.255   8.014  16.390  1.00  0.00     0.181 C 
BRANCH  34  35
HETATM   35  O4  UNL     1     -14.263   6.668  15.920  1.00  0.00    -0.400 OA
HETATM   36  H37 UNL     1     -13.379   6.461  15.554  1.00  0.00     0.209 HD
ENDBRANCH  34  35
ENDBRANCH  19  34
TORSDOF 5
ENDMDL
MODEL 2
REMARK minimizedAffinity -8.60387135
REMARK  5 active torsions:
REMARK  status: ('A' for Active; 'I' for Inactive)
REMARK    1  A    between atoms: C2_2  and  C4_4 
REMARK    2  A    between atoms: C7_7  and  C8_8 
REMARK    3  A    between atoms: C8_8  and  O2_10 
REMARK    4  A    between atoms: C22_25  and  C24_27 
REMARK    5  A    between atoms: C24_27  and  O4_28 
ROOT
HETATM    1  C4  UNL     1      -6.593   4.030  12.215  1.00  0.00     0.019 C 
HETATM    2  C5  UNL     1      -7.024   2.690  11.559  1.00  0.00     0.011 C 
HETATM    3  C6  UNL     1      -5.758   1.818  11.470  1.00  0.00     0.021 C 
HETATM    4  C7  UNL     1      -4.614   2.839  11.438  1.00  0.00     0.050 C 
HETATM    5  C9  UNL     1      -3.243   2.290  11.847  1.00  0.00     0.022 C 
HETATM    6  C10 UNL     1      -2.238   3.443  12.041  1.00  0.00     0.011 C 
HETATM    7  C11 UNL     1      -2.670   4.572  13.054  1.00  0.00    -0.032 C 
HETATM    8  C12 UNL     1      -2.645   3.892  14.461  1.00  0.00     0.016 C 
HETATM    9  C13 UNL     1      -4.136   5.021  12.703  1.00  0.00     0.000 C 
HETATM   10  C14 UNL     1      -4.662   6.022  13.734  1.00  0.00     0.006 C 
HETATM   11  C15 UNL     1      -3.644   7.072  14.160  1.00  0.00     0.006 C 
HETATM   12  C16 UNL     1      -2.496   7.272  13.142  1.00  0.00     0.003 C 
HETATM   13  C17 UNL     1      -1.628   8.603  13.423  1.00  0.00    -0.035 C 
HETATM   14  C18 UNL     1      -0.937   9.067  12.110  1.00  0.00     0.016 C 
HETATM   15  C19 UNL     1      -2.535   9.764  13.907  1.00  0.00     0.017 C 
HETATM   16  C20 UNL     1      -1.816  11.079  14.140  1.00  0.00     0.080 C 
HETATM   17  C21 UNL     1      -0.447  10.970  14.764  1.00  0.00     0.137 C 
HETATM   18  O3  UNL     1       0.138  12.012  15.081  1.00  0.00    -0.297 OA
HETATM   19  C22 UNL     1       0.221   9.613  15.026  1.00  0.00     0.042 C 
HETATM   20  C23 UNL     1       1.618   9.670  14.372  1.00  0.00     0.026 C 
HETATM   21  C25 UNL     1      -0.617   8.359  14.577  1.00  0.00     0.012 C 
HETATM   22  C26 UNL     1       0.243   7.107  14.317  1.00  0.00     0.007 C 
HETATM   23  C27 UNL     1      -0.607   5.850  14.139  1.00  0.00     0.011 C 
HETATM   24  C28 UNL     1      -1.671   5.905  13.006  1.00  0.00    -0.032 C 
HETATM   25  C29 UNL     1      -0.910   5.911  11.653  1.00  0.00     0.016 C 
HETATM   26  C30 UNL     1      -5.090   3.818  12.527  1.00  0.00     0.017 C 
ENDROOT
BRANCH   4  27
HETATM   27  C8  UNL     1      -4.521   3.319   9.983  1.00  0.00     0.149 C 
HETATM   28  O1  UNL     1      -5.474   3.547   9.256  1.00  0.00    -0.649 OA
BRANCH  27  29
HETATM   29  O2  UNL     1      -3.283   3.558   9.520  1.00  0.00    -0.776 OA
HETATM   30  H11 UNL     1      -3.439   3.894   8.613  1.00  0.00     0.167 HD
ENDBRANCH  27  29
ENDBRANCH   4  27
BRANCH   1  31
HETATM   31  C2  UNL     1      -7.503   4.383  13.384  1.00  0.00    -0.088 C 
HETATM   32  C1  UNL     1      -7.453   3.773  14.582  1.00  0.00     0.014 C 
HETATM   33  C3  UNL     1      -8.510   5.473  13.118  1.00  0.00     0.043 C 
ENDBRANCH   1  31
BRANCH  19  34
HETATM   34  C24 UNL     1       0.367   9.559  16.575  1.00  0.00     0.181 C 
BRANCH  34  35
HETATM   35  O4  UNL     1       1.544   8.894  17.028  1.00  0.00    -0.400 OA
HETATM   36  H37 UNL     1       2.279   9.112  16.418  1.00  0.00     0.209 HD
ENDBRANCH  34  35
ENDBRANCH  19  34
TORSDOF 5
ENDMDL
MODEL 3
REMARK minimizedAffinity -8.53801537
REMARK  5 active torsions:
REMARK  status: ('A' for Active; 'I' for Inactive)
REMARK    1  A    between atoms: C2_2  and  C4_4 
REMARK    2  A    between atoms: C7_7  and  C8_8 
REMARK    3  A    between atoms: C8_8  and  O2_10 
REMARK    4  A    between atoms: C22_25  and  C24_27 
REMARK    5  A    between atoms: C24_27  and  O4_28 
ROOT
HETATM    1  C4  UNL     1      -6.101   3.990  13.286  1.00  0.00     0.019 C 
HETATM    2  C5  UNL     1      -7.641   3.837  13.410  1.00  0.00     0.011 C 
HETATM    3  C6  UNL     1      -8.206   5.251  13.638  1.00  0.00     0.021 C 
HETATM    4  C7  UNL     1      -7.036   6.013  14.274  1.00  0.00     0.050 C 
HETATM    5  C9  UNL     1      -7.116   7.539  14.159  1.00  0.00     0.022 C 
HETATM    6  C10 UNL     1      -5.780   8.182  14.580  1.00  0.00     0.011 C 
HETATM    7  C11 UNL     1      -4.498   7.670  13.817  1.00  0.00    -0.032 C 
HETATM    8  C12 UNL     1      -4.655   8.196  12.353  1.00  0.00     0.016 C 
HETATM    9  C13 UNL     1      -4.510   6.097  13.823  1.00  0.00     0.000 C 
HETATM   10  C14 UNL     1      -3.360   5.539  12.982  1.00  0.00     0.006 C 
HETATM   11  C15 UNL     1      -2.038   6.274  13.166  1.00  0.00     0.006 C 
HETATM   12  C16 UNL     1      -1.948   7.065  14.493  1.00  0.00     0.003 C 
HETATM   13  C17 UNL     1      -0.447   7.546  14.840  1.00  0.00    -0.035 C 
HETATM   14  C18 UNL     1      -0.308   7.771  16.372  1.00  0.00     0.016 C 
HETATM   15  C19 UNL     1       0.589   6.468  14.431  1.00  0.00     0.017 C 
HETATM   16  C20 UNL     1       2.028   6.805  14.774  1.00  0.00     0.080 C 
HETATM   17  C21 UNL     1       2.422   8.248  14.577  1.00  0.00     0.137 C 
HETATM   18  O3  UNL     1       3.609   8.559  14.731  1.00  0.00    -0.297 OA
HETATM   19  C22 UNL     1       1.401   9.323  14.178  1.00  0.00     0.042 C 
HETATM   20  C23 UNL     1       1.532  10.466  15.207  1.00  0.00     0.026 C 
HETATM   21  C25 UNL     1      -0.078   8.810  14.015  1.00  0.00     0.012 C 
HETATM   22  C26 UNL     1      -1.134   9.919  14.181  1.00  0.00     0.007 C 
HETATM   23  C27 UNL     1      -2.529   9.455  13.764  1.00  0.00     0.011 C 
HETATM   24  C28 UNL     1      -3.077   8.202  14.505  1.00  0.00    -0.032 C 
HETATM   25  C29 UNL     1      -3.357   8.616  15.974  1.00  0.00     0.016 C 
HETATM   26  C30 UNL     1      -5.876   5.520  13.388  1.00  0.00     0.017 C 
ENDROOT
BRANCH   4  27
HETATM   27  C8  UNL     1      -7.054   5.644  15.763  1.00  0.00     0.149 C 
HETATM   28  O1  UNL     1      -6.133   5.824  16.543  1.00  0.00    -0.649 OA
BRANCH  27  29
HETATM   29  O2  UNL     1      -8.208   5.142  16.232  1.00  0.00    -0.776 OA
HETATM   30  H11 UNL     1      -8.033   5.021  17.188  1.00  0.00     0.167 HD
ENDBRANCH  27  29
ENDBRANCH   4  27
BRANCH   1  31
HETATM   31  C2  UNL     1      -5.582   3.293  12.036  1.00  0.00    -0.088 C 
HETATM   32  C1  UNL     1      -6.088   2.141  11.556  1.00  0.00     0.014 C 
HETATM   33  C3  UNL     1      -4.424   3.968  11.347  1.00  0.00     0.043 C 
ENDBRANCH   1  31
BRANCH  19  34
HETATM   34  C24 UNL     1       1.893   9.810  12.784  1.00  0.00     0.181 C 
BRANCH  34  35
HETATM   35  O4  UNL     1       1.262   9.159  11.683  1.00  0.00    -0.400 OA
HETATM   36  H37 UNL     1       0.321   9.007  11.908  1.00  0.00     0.209 HD
ENDBRANCH  34  35
ENDBRANCH  19  34
TORSDOF 5
ENDMDL
MODEL 4
REMARK minimizedAffinity -8.53520679
REMARK  5 active torsions:
REMARK  status: ('A' for Active; 'I' for Inactive)
REMARK    1  A    between atoms: C2_2  and  C4_4 
REMARK    2  A    between atoms: C7_7  and  C8_8 
REMARK    3  A    between atoms: C8_8  and  O2_10 
REMARK    4  A    between atoms: C22_25  and  C24_27 
REMARK    5  A    between atoms: C24_27  and  O4_28 
ROOT
HETATM    1  C4  UNL     1      -4.644   4.613  13.252  1.00  0.00     0.019 C 
HETATM    2  C5  UNL     1      -6.184   4.418  13.268  1.00  0.00     0.011 C 
HETATM    3  C6  UNL     1      -6.802   5.820  13.424  1.00  0.00     0.021 C 
HETATM    4  C7  UNL     1      -5.703   6.627  14.125  1.00  0.00     0.050 C 
HETATM    5  C9  UNL     1      -5.816   8.147  13.973  1.00  0.00     0.022 C 
HETATM    6  C10 UNL     1      -4.532   8.836  14.474  1.00  0.00     0.011 C 
HETATM    7  C11 UNL     1      -3.184   8.347  13.817  1.00  0.00    -0.032 C 
HETATM    8  C12 UNL     1      -3.248   8.840  12.335  1.00  0.00     0.016 C 
HETATM    9  C13 UNL     1      -3.154   6.775  13.856  1.00  0.00     0.000 C 
HETATM   10  C14 UNL     1      -1.931   6.233  13.113  1.00  0.00     0.006 C 
HETATM   11  C15 UNL     1      -0.646   7.010  13.376  1.00  0.00     0.006 C 
HETATM   12  C16 UNL     1      -0.674   7.829  14.689  1.00  0.00     0.003 C 
HETATM   13  C17 UNL     1       0.784   8.360  15.132  1.00  0.00    -0.035 C 
HETATM   14  C18 UNL     1       0.805   8.618  16.665  1.00  0.00     0.016 C 
HETATM   15  C19 UNL     1       1.876   7.304  14.822  1.00  0.00     0.017 C 
HETATM   16  C20 UNL     1       3.276   7.689  15.260  1.00  0.00     0.080 C 
HETATM   17  C21 UNL     1       3.644   9.138  15.061  1.00  0.00     0.137 C 
HETATM   18  O3  UNL     1       4.808   9.486  15.294  1.00  0.00    -0.297 OA
HETATM   19  C22 UNL     1       2.626  10.176  14.568  1.00  0.00     0.042 C 
HETATM   20  C23 UNL     1       2.650  11.342  15.578  1.00  0.00     0.026 C 
HETATM   21  C25 UNL     1       1.177   9.617  14.309  1.00  0.00     0.012 C 
HETATM   22  C26 UNL     1       0.081  10.699  14.374  1.00  0.00     0.007 C 
HETATM   23  C27 UNL     1      -1.266  10.187  13.868  1.00  0.00     0.011 C 
HETATM   24  C28 UNL     1      -1.832   8.933  14.594  1.00  0.00    -0.032 C 
HETATM   25  C29 UNL     1      -2.229   9.367  16.030  1.00  0.00     0.016 C 
HETATM   26  C30 UNL     1      -4.469   6.150  13.337  1.00  0.00     0.017 C 
ENDROOT
BRANCH   4  27
HETATM   27  C8  UNL     1      -5.819   6.287  15.617  1.00  0.00     0.149 C 
HETATM   28  O1  UNL     1      -6.861   6.049  16.205  1.00  0.00    -0.649 OA
BRANCH  27  29
HETATM   29  O2  UNL     1      -4.661   6.191  16.291  1.00  0.00    -0.776 OA
HETATM   30  H11 UNL     1      -4.942   5.926  17.192  1.00  0.00     0.167 HD
ENDBRANCH  27  29
ENDBRANCH   4  27
BRANCH   1  31
HETATM   31  C2  UNL     1      -4.017   3.907  12.057  1.00  0.00    -0.088 C 
HETATM   32  C1  UNL     1      -2.690   3.810  11.856  1.00  0.00     0.014 C 
HETATM   33  C3  UNL     1      -4.988   3.317  11.067  1.00  0.00     0.043 C 
ENDBRANCH   1  31
BRANCH  19  34
HETATM   34  C24 UNL     1       3.204  10.649  13.202  1.00  0.00     0.181 C 
BRANCH  34  35
HETATM   35  O4  UNL     1       3.293  12.066  13.066  1.00  0.00    -0.400 OA
HETATM   36  H37 UNL     1       3.554  12.446  13.931  1.00  0.00     0.209 HD
ENDBRANCH  34  35
ENDBRANCH  19  34
TORSDOF 5
ENDMDL
MODEL 5
REMARK minimizedAffinity -7.76605797
REMARK  5 active torsions:
REMARK  status: ('A' for Active; 'I' for Inactive)
REMARK    1  A    between atoms: C2_2  and  C4_4 
REMARK    2  A    between atoms: C7_7  and  C8_8 
REMARK    3  A    between atoms: C8_8  and  O2_10 
REMARK    4  A    between atoms: C22_25  and  C24_27 
REMARK    5  A    between atoms: C24_27  and  O4_28 
ROOT
HETATM    1  C4  UNL     1       7.148  11.315  16.331  1.00  0.00     0.019 C 
HETATM    2  C5  UNL     1       8.480  11.335  17.129  1.00  0.00     0.011 C 
HETATM    3  C6  UNL     1       9.493  10.513  16.311  1.00  0.00     0.021 C 
HETATM    4  C7  UNL     1       8.614   9.555  15.498  1.00  0.00     0.050 C 
HETATM    5  C9  UNL     1       9.277   8.968  14.248  1.00  0.00     0.022 C 
HETATM    6  C10 UNL     1       8.233   8.249  13.371  1.00  0.00     0.011 C 
HETATM    7  C11 UNL     1       6.983   9.110  12.940  1.00  0.00    -0.032 C 
HETATM    8  C12 UNL     1       7.545  10.180  11.949  1.00  0.00     0.016 C 
HETATM    9  C13 UNL     1       6.403   9.819  14.219  1.00  0.00     0.000 C 
HETATM   10  C14 UNL     1       5.269  10.775  13.845  1.00  0.00     0.006 C 
HETATM   11  C15 UNL     1       4.308  10.225  12.798  1.00  0.00     0.006 C 
HETATM   12  C16 UNL     1       4.322   8.681  12.693  1.00  0.00     0.003 C 
HETATM   13  C17 UNL     1       3.078   8.094  11.849  1.00  0.00    -0.035 C 
HETATM   14  C18 UNL     1       2.805   6.623  12.270  1.00  0.00     0.016 C 
HETATM   15  C19 UNL     1       1.788   8.908  12.127  1.00  0.00     0.017 C 
HETATM   16  C20 UNL     1       0.547   8.392  11.422  1.00  0.00     0.080 C 
HETATM   17  C21 UNL     1       0.758   7.897  10.013  1.00  0.00     0.137 C 
HETATM   18  O3  UNL     1      -0.234   7.572   9.350  1.00  0.00    -0.297 OA
HETATM   19  C22 UNL     1       2.155   7.804   9.384  1.00  0.00     0.042 C 
HETATM   20  C23 UNL     1       2.310   6.365   8.850  1.00  0.00     0.026 C 
HETATM   21  C25 UNL     1       3.340   8.241  10.324  1.00  0.00     0.012 C 
HETATM   22  C26 UNL     1       4.697   7.632   9.924  1.00  0.00     0.007 C 
HETATM   23  C27 UNL     1       5.862   8.269  10.682  1.00  0.00     0.011 C 
HETATM   24  C28 UNL     1       5.780   8.200  12.234  1.00  0.00    -0.032 C 
HETATM   25  C29 UNL     1       5.970   6.715  12.644  1.00  0.00     0.016 C 
HETATM   26  C30 UNL     1       7.501  10.521  15.048  1.00  0.00     0.017 C 
ENDROOT
BRANCH   4  27
HETATM   27  C8  UNL     1       8.267   8.397  16.443  1.00  0.00     0.149 C 
HETATM   28  O1  UNL     1       9.078   7.727  17.061  1.00  0.00    -0.649 OA
BRANCH  27  29
HETATM   29  O2  UNL     1       6.958   8.165  16.635  1.00  0.00    -0.776 OA
HETATM   30  H11 UNL     1       6.949   7.438  17.291  1.00  0.00     0.167 HD
ENDBRANCH  27  29
ENDBRANCH   4  27
BRANCH   1  31
HETATM   31  C2  UNL     1       6.600  12.725  16.148  1.00  0.00    -0.088 C 
HETATM   32  C1  UNL     1       5.502  13.188  16.772  1.00  0.00     0.014 C 
HETATM   33  C3  UNL     1       7.365  13.599  15.188  1.00  0.00     0.043 C 
ENDBRANCH   1  31
BRANCH  19  34
HETATM   34  C24 UNL     1       2.099   8.805   8.193  1.00  0.00     0.181 C 
BRANCH  34  35
HETATM   35  O4  UNL     1       3.377   9.164   7.672  1.00  0.00    -0.400 OA
HETATM   36  H37 UNL     1       3.956   8.374   7.695  1.00  0.00     0.209 HD
ENDBRANCH  34  35
ENDBRANCH  19  34
TORSDOF 5
ENDMDL
MODEL 6
REMARK minimizedAffinity -7.73734665
REMARK  5 active torsions:
REMARK  status: ('A' for Active; 'I' for Inactive)
REMARK    1  A    between atoms: C2_2  and  C4_4 
REMARK    2  A    between atoms: C7_7  and  C8_8 
REMARK    3  A    between atoms: C8_8  and  O2_10 
REMARK    4  A    between atoms: C22_25  and  C24_27 
REMARK    5  A    between atoms: C24_27  and  O4_28 
ROOT
HETATM    1  C4  UNL     1       1.779   7.483   9.095  1.00  0.00     0.019 C 
HETATM    2  C5  UNL     1       2.732   6.433   8.462  1.00  0.00     0.011 C 
HETATM    3  C6  UNL     1       2.692   5.196   9.379  1.00  0.00     0.021 C 
HETATM    4  C7  UNL     1       2.300   5.768  10.747  1.00  0.00     0.050 C 
HETATM    5  C9  UNL     1       1.702   4.753  11.728  1.00  0.00     0.022 C 
HETATM    6  C10 UNL     1       1.099   5.476  12.949  1.00  0.00     0.011 C 
HETATM    7  C11 UNL     1       0.026   6.588  12.633  1.00  0.00    -0.032 C 
HETATM    8  C12 UNL     1      -1.215   5.814  12.080  1.00  0.00     0.016 C 
HETATM    9  C13 UNL     1       0.605   7.535  11.519  1.00  0.00     0.000 C 
HETATM   10  C14 UNL     1      -0.443   8.557  11.073  1.00  0.00     0.006 C 
HETATM   11  C15 UNL     1      -1.254   9.158  12.215  1.00  0.00     0.006 C 
HETATM   12  C16 UNL     1      -0.560   9.050  13.593  1.00  0.00     0.003 C 
HETATM   13  C17 UNL     1      -1.246   9.978  14.721  1.00  0.00    -0.035 C 
HETATM   14  C18 UNL     1      -0.215  10.297  15.839  1.00  0.00     0.016 C 
HETATM   15  C19 UNL     1      -1.714  11.327  14.117  1.00  0.00     0.017 C 
HETATM   16  C20 UNL     1      -2.319  12.295  15.116  1.00  0.00     0.080 C 
HETATM   17  C21 UNL     1      -3.197  11.673  16.173  1.00  0.00     0.137 C 
HETATM   18  O3  UNL     1      -3.808  12.423  16.945  1.00  0.00    -0.297 OA
HETATM   19  C22 UNL     1      -3.362  10.153  16.303  1.00  0.00     0.042 C 
HETATM   20  C23 UNL     1      -3.047   9.793  17.770  1.00  0.00     0.026 C 
HETATM   21  C25 UNL     1      -2.533   9.302  15.270  1.00  0.00     0.012 C 
HETATM   22  C26 UNL     1      -2.255   7.862  15.743  1.00  0.00     0.007 C 
HETATM   23  C27 UNL     1      -1.684   6.988  14.628  1.00  0.00     0.011 C 
HETATM   24  C28 UNL     1      -0.373   7.502  13.967  1.00  0.00    -0.032 C 
HETATM   25  C29 UNL     1       0.760   7.373  15.019  1.00  0.00     0.016 C 
HETATM   26  C30 UNL     1       1.189   6.747  10.324  1.00  0.00     0.017 C 
ENDROOT
BRANCH   4  27
HETATM   27  C8  UNL     1       3.594   6.319  11.359  1.00  0.00     0.149 C 
HETATM   28  O1  UNL     1       4.716   6.134  10.915  1.00  0.00    -0.649 OA
BRANCH  27  29
HETATM   29  O2  UNL     1       3.447   7.113  12.432  1.00  0.00    -0.776 OA
HETATM   30  H11 UNL     1       4.364   7.392  12.637  1.00  0.00     0.167 HD
ENDBRANCH  27  29
ENDBRANCH   4  27
BRANCH   1  31
HETATM   31  C2  UNL     1       0.793   8.015   8.063  1.00  0.00    -0.088 C 
HETATM   32  C1  UNL     1      -0.306   8.727   8.375  1.00  0.00     0.014 C 
HETATM   33  C3  UNL     1       1.108   7.679   6.628  1.00  0.00     0.043 C 
ENDBRANCH   1  31
BRANCH  19  34
HETATM   34  C24 UNL     1      -4.873   9.912  16.014  1.00  0.00     0.181 C 
BRANCH  34  35
HETATM   35  O4  UNL     1      -5.278   8.550  16.128  1.00  0.00    -0.400 OA
HETATM   36  H37 UNL     1      -4.794   8.142  16.875  1.00  0.00     0.209 HD
ENDBRANCH  34  35
ENDBRANCH  19  34
TORSDOF 5
ENDMDL
MODEL 7
REMARK minimizedAffinity -7.69277668
REMARK  5 active torsions:
REMARK  status: ('A' for Active; 'I' for Inactive)
REMARK    1  A    between atoms: C2_2  and  C4_4 
REMARK    2  A    between atoms: C7_7  and  C8_8 
REMARK    3  A    between atoms: C8_8  and  O2_10 
REMARK    4  A    between atoms: C22_25  and  C24_27 
REMARK    5  A    between atoms: C24_27  and  O4_28 
ROOT
HETATM    1  C4  UNL     1       4.037  10.267  22.342  1.00  0.00     0.019 C 
HETATM    2  C5  UNL     1       5.329  10.701  23.086  1.00  0.00     0.011 C 
HETATM    3  C6  UNL     1       5.590  12.167  22.692  1.00  0.00     0.021 C 
HETATM    4  C7  UNL     1       4.906  12.305  21.327  1.00  0.00     0.050 C 
HETATM    5  C9  UNL     1       4.565  13.741  20.914  1.00  0.00     0.022 C 
HETATM    6  C10 UNL     1       3.649  13.742  19.674  1.00  0.00     0.011 C 
HETATM    7  C11 UNL     1       2.318  12.906  19.799  1.00  0.00    -0.032 C 
HETATM    8  C12 UNL     1       1.443  13.682  20.837  1.00  0.00     0.016 C 
HETATM    9  C13 UNL     1       2.675  11.481  20.360  1.00  0.00     0.000 C 
HETATM   10  C14 UNL     1       1.408  10.667  20.629  1.00  0.00     0.006 C 
HETATM   11  C15 UNL     1       0.341  10.796  19.548  1.00  0.00     0.006 C 
HETATM   12  C16 UNL     1       0.897  11.265  18.182  1.00  0.00     0.003 C 
HETATM   13  C17 UNL     1      -0.154  11.068  16.973  1.00  0.00    -0.035 C 
HETATM   14  C18 UNL     1       0.611  10.971  15.623  1.00  0.00     0.016 C 
HETATM   15  C19 UNL     1      -0.960   9.756  17.148  1.00  0.00     0.017 C 
HETATM   16  C20 UNL     1      -1.934   9.452  16.025  1.00  0.00     0.080 C 
HETATM   17  C21 UNL     1      -2.671  10.643  15.465  1.00  0.00     0.137 C 
HETATM   18  O3  UNL     1      -3.559  10.443  14.627  1.00  0.00    -0.297 OA
HETATM   19  C22 UNL     1      -2.361  12.077  15.915  1.00  0.00     0.042 C 
HETATM   20  C23 UNL     1      -2.094  12.899  14.637  1.00  0.00     0.026 C 
HETATM   21  C25 UNL     1      -1.210  12.207  16.981  1.00  0.00     0.012 C 
HETATM   22  C26 UNL     1      -0.542  13.595  16.996  1.00  0.00     0.007 C 
HETATM   23  C27 UNL     1       0.381  13.779  18.199  1.00  0.00     0.011 C 
HETATM   24  C28 UNL     1       1.522  12.731  18.345  1.00  0.00    -0.032 C 
HETATM   25  C29 UNL     1       2.530  12.978  17.191  1.00  0.00     0.016 C 
HETATM   26  C30 UNL     1       3.590  11.554  21.603  1.00  0.00     0.017 C 
ENDROOT
BRANCH   4  27
HETATM   27  C8  UNL     1       5.896  11.736  20.301  1.00  0.00     0.149 C 
HETATM   28  O1  UNL     1       5.631  10.888  19.465  1.00  0.00    -0.649 OA
BRANCH  27  29
HETATM   29  O2  UNL     1       7.125  12.276  20.307  1.00  0.00    -0.776 OA
HETATM   30  H11 UNL     1       7.578  11.822  19.566  1.00  0.00     0.167 HD
ENDBRANCH  27  29
ENDBRANCH   4  27
BRANCH   1  31
HETATM   31  C2  UNL     1       3.039   9.636  23.304  1.00  0.00    -0.088 C 
HETATM   32  C1  UNL     1       2.663  10.198  24.467  1.00  0.00     0.014 C 
HETATM   33  C3  UNL     1       2.490   8.296  22.885  1.00  0.00     0.043 C 
ENDBRANCH   1  31
BRANCH  19  34
HETATM   34  C24 UNL     1      -3.684  12.556  16.582  1.00  0.00     0.181 C 
BRANCH  34  35
HETATM   35  O4  UNL     1      -4.773  12.709  15.675  1.00  0.00    -0.400 OA
HETATM   36  H37 UNL     1      -4.726  11.994  15.008  1.00  0.00     0.209 HD
ENDBRANCH  34  35
ENDBRANCH  19  34
TORSDOF 5
ENDMDL
MODEL 8
REMARK minimizedAffinity -7.63199186
REMARK  5 active torsions:
REMARK  status: ('A' for Active; 'I' for Inactive)
REMARK    1  A    between atoms: C2_2  and  C4_4 
REMARK    2  A    between atoms: C7_7  and  C8_8 
REMARK    3  A    between atoms: C8_8  and  O2_10 
REMARK    4  A    between atoms: C22_25  and  C24_27 
REMARK    5  A    between atoms: C24_27  and  O4_28 
ROOT
HETATM    1  C4  UNL     1       5.725   6.919  13.081  1.00  0.00     0.019 C 
HETATM    2  C5  UNL     1       6.972   6.970  12.157  1.00  0.00     0.011 C 
HETATM    3  C6  UNL     1       6.515   7.626  10.841  1.00  0.00     0.021 C 
HETATM    4  C7  UNL     1       5.012   7.328  10.787  1.00  0.00     0.050 C 
HETATM    5  C9  UNL     1       4.200   8.255   9.875  1.00  0.00     0.022 C 
HETATM    6  C10 UNL     1       2.689   8.046  10.104  1.00  0.00     0.011 C 
HETATM    7  C11 UNL     1       2.188   8.207  11.591  1.00  0.00    -0.032 C 
HETATM    8  C12 UNL     1       2.348   9.729  11.914  1.00  0.00     0.016 C 
HETATM    9  C13 UNL     1       3.125   7.360  12.527  1.00  0.00     0.000 C 
HETATM   10  C14 UNL     1       2.771   7.582  13.999  1.00  0.00     0.006 C 
HETATM   11  C15 UNL     1       1.274   7.621  14.282  1.00  0.00     0.006 C 
HETATM   12  C16 UNL     1       0.419   6.930  13.193  1.00  0.00     0.003 C 
HETATM   13  C17 UNL     1      -1.104   6.671  13.658  1.00  0.00    -0.035 C 
HETATM   14  C18 UNL     1      -1.712   5.499  12.837  1.00  0.00     0.016 C 
HETATM   15  C19 UNL     1      -1.167   6.273  15.155  1.00  0.00     0.017 C 
HETATM   16  C20 UNL     1      -2.556   5.948  15.670  1.00  0.00     0.080 C 
HETATM   17  C21 UNL     1      -3.665   6.826  15.144  1.00  0.00     0.137 C 
HETATM   18  O3  UNL     1      -4.800   6.682  15.615  1.00  0.00    -0.297 OA
HETATM   19  C22 UNL     1      -3.419   7.890  14.066  1.00  0.00     0.042 C 
HETATM   20  C23 UNL     1      -4.442   7.630  12.940  1.00  0.00     0.026 C 
HETATM   21  C25 UNL     1      -1.937   7.977  13.541  1.00  0.00     0.012 C 
HETATM   22  C26 UNL     1      -1.819   8.596  12.135  1.00  0.00     0.007 C 
HETATM   23  C27 UNL     1      -0.371   8.907  11.761  1.00  0.00     0.011 C 
HETATM   24  C28 UNL     1       0.614   7.704  11.803  1.00  0.00    -0.032 C 
HETATM   25  C29 UNL     1       0.233   6.750  10.640  1.00  0.00     0.016 C 
HETATM   26  C30 UNL     1       4.623   7.621  12.248  1.00  0.00     0.017 C 
ENDROOT
BRANCH   4  27
HETATM   27  C8  UNL     1       4.887   5.897  10.247  1.00  0.00     0.149 C 
HETATM   28  O1  UNL     1       3.937   5.466   9.614  1.00  0.00    -0.649 OA
BRANCH  27  29
HETATM   29  O2  UNL     1       5.946   5.097  10.448  1.00  0.00    -0.776 OA
HETATM   30  H11 UNL     1       5.692   4.264   9.998  1.00  0.00     0.167 HD
ENDBRANCH  27  29
ENDBRANCH   4  27
BRANCH   1  31
HETATM   31  C2  UNL     1       6.038   7.503  14.452  1.00  0.00    -0.088 C 
HETATM   32  C1  UNL     1       7.200   8.107  14.762  1.00  0.00     0.014 C 
HETATM   33  C3  UNL     1       4.952   7.350  15.487  1.00  0.00     0.043 C 
ENDBRANCH   1  31
BRANCH  19  34
HETATM   34  C24 UNL     1      -3.751   9.233  14.779  1.00  0.00     0.181 C 
BRANCH  34  35
HETATM   35  O4  UNL     1      -5.142   9.537  14.832  1.00  0.00    -0.400 OA
HETATM   36  H37 UNL     1      -5.638   8.705  14.976  1.00  0.00     0.209 HD
ENDBRANCH  34  35
ENDBRANCH  19  34
TORSDOF 5
ENDMDL
MODEL 9
REMARK minimizedAffinity -7.60218668
REMARK  5 active torsions:
REMARK  status: ('A' for Active; 'I' for Inactive)
REMARK    1  A    between atoms: C2_2  and  C4_4 
REMARK    2  A    between atoms: C7_7  and  C8_8 
REMARK    3  A    between atoms: C8_8  and  O2_10 
REMARK    4  A    between atoms: C22_25  and  C24_27 
REMARK    5  A    between atoms: C24_27  and  O4_28 
ROOT
HETATM    1  C4  UNL     1      -3.341   4.731  13.286  1.00  0.00     0.019 C 
HETATM    2  C5  UNL     1      -4.759   4.151  13.033  1.00  0.00     0.011 C 
HETATM    3  C6  UNL     1      -5.721   5.353  12.983  1.00  0.00     0.021 C 
HETATM    4  C7  UNL     1      -5.011   6.424  13.821  1.00  0.00     0.050 C 
HETATM    5  C9  UNL     1      -5.464   7.863  13.553  1.00  0.00     0.022 C 
HETATM    6  C10 UNL     1      -4.510   8.863  14.235  1.00  0.00     0.011 C 
HETATM    7  C11 UNL     1      -2.983   8.721  13.868  1.00  0.00    -0.032 C 
HETATM    8  C12 UNL     1      -2.879   9.159  12.370  1.00  0.00     0.016 C 
HETATM    9  C13 UNL     1      -2.575   7.209  14.012  1.00  0.00     0.000 C 
HETATM   10  C14 UNL     1      -1.136   6.984  13.541  1.00  0.00     0.006 C 
HETATM   11  C15 UNL     1      -0.158   8.066  13.984  1.00  0.00     0.006 C 
HETATM   12  C16 UNL     1      -0.639   8.871  15.215  1.00  0.00     0.003 C 
HETATM   13  C17 UNL     1       0.529   9.762  15.882  1.00  0.00    -0.035 C 
HETATM   14  C18 UNL     1       0.190  10.041  17.373  1.00  0.00     0.016 C 
HETATM   15  C19 UNL     1       1.886   9.013  15.844  1.00  0.00     0.017 C 
HETATM   16  C20 UNL     1       3.037   9.747  16.506  1.00  0.00     0.080 C 
HETATM   17  C21 UNL     1       3.068  11.239  16.285  1.00  0.00     0.137 C 
HETATM   18  O3  UNL     1       4.043  11.875  16.704  1.00  0.00    -0.297 OA
HETATM   19  C22 UNL     1       1.941  11.976  15.548  1.00  0.00     0.042 C 
HETATM   20  C23 UNL     1       1.483  13.126  16.469  1.00  0.00     0.026 C 
HETATM   21  C25 UNL     1       0.752  11.065  15.066  1.00  0.00     0.012 C 
HETATM   22  C26 UNL     1      -0.567  11.833  14.860  1.00  0.00     0.007 C 
HETATM   23  C27 UNL     1      -1.623  10.988  14.150  1.00  0.00     0.011 C 
HETATM   24  C28 UNL     1      -1.993   9.644  14.840  1.00  0.00    -0.032 C 
HETATM   25  C29 UNL     1      -2.754   9.985  16.148  1.00  0.00     0.016 C 
HETATM   26  C30 UNL     1      -3.570   6.263  13.303  1.00  0.00     0.017 C 
ENDROOT
BRANCH   4  27
HETATM   27  C8  UNL     1      -5.325   6.089  15.285  1.00  0.00     0.149 C 
HETATM   28  O1  UNL     1      -6.420   5.759  15.711  1.00  0.00    -0.649 OA
BRANCH  27  29
HETATM   29  O2  UNL     1      -4.283   6.110  16.131  1.00  0.00    -0.776 OA
HETATM   30  H11 UNL     1      -4.674   5.829  16.984  1.00  0.00     0.167 HD
ENDBRANCH  27  29
ENDBRANCH   4  27
BRANCH   1  31
HETATM   31  C2  UNL     1      -2.341   4.188  12.273  1.00  0.00    -0.088 C 
HETATM   32  C1  UNL     1      -1.031   4.022  12.530  1.00  0.00     0.014 C 
HETATM   33  C3  UNL     1      -2.907   3.851  10.918  1.00  0.00     0.043 C 
ENDBRANCH   1  31
BRANCH  19  34
HETATM   34  C24 UNL     1       2.637  12.560  14.283  1.00  0.00     0.181 C 
BRANCH  34  35
HETATM   35  O4  UNL     1       2.886  11.599  13.260  1.00  0.00    -0.400 OA
HETATM   36  H37 UNL     1       2.133  10.973  13.229  1.00  0.00     0.209 HD
ENDBRANCH  34  35
ENDBRANCH  19  34
TORSDOF 5
ENDMDL
