MODEL 1
REMARK minimizedAffinity -8.22874165
REMARK CNNscore 0.44834742
REMARK CNNaffinity 6.87314272
REMARK  13 active torsions:
REMARK  status: ('A' for Active; 'I' for Inactive)
REMARK    1  A    between atoms: C3_3  and  O1_4 
REMARK    2  A    between atoms: N1_14  and  O2_16 
REMARK    3  A    between atoms: O2_16  and  C13_17 
REMARK    4  A    between atoms: C13_17  and  C14_18 
REMARK       I    between atoms: C14_18  and  N2_20 
REMARK    5  A    between atoms: N2_20  and  C15_21 
REMARK    6  A    between atoms: C15_21  and  C16_22 
REMARK    7  A    between atoms: C15_21  and  C21_32 
REMARK       I    between atoms: C16_22  and  N3_24 
REMARK    8  A    between atoms: N3_24  and  C17_25 
REMARK    9  A    between atoms: C17_25  and  C18_26 
REMARK   10  A    between atoms: C17_25  and  C19_28 
REMARK   11  A    between atoms: C18_26  and  S1_27 
REMARK   12  A    between atoms: C19_28  and  C20_29 
REMARK   13  A    between atoms: C20_29  and  O6_31 
ROOT
HETATM    1  C1  UNL     1      -0.045  55.558 -27.146  1.00  0.00     0.015 C 
HETATM    2  C2  UNL     1      -0.263  54.381 -27.022  1.00  0.00    -0.078 C 
HETATM    3  C3  UNL     1      -0.515  52.940 -26.862  1.00  0.00     0.128 C 
HETATM    4  C4  UNL     1       0.628  52.106 -27.435  1.00  0.00     0.052 C 
HETATM    5  C5  UNL     1       0.384  50.707 -26.859  1.00  0.00     0.010 C 
HETATM    6  C6  UNL     1      -0.359  50.902 -25.514  1.00  0.00     0.002 C 
HETATM    7  C7  UNL     1      -1.541  49.921 -25.250  1.00  0.00    -0.004 C 
HETATM    8  C8  UNL     1      -2.343  49.453 -26.483  1.00  0.00     0.010 C 
HETATM    9  C9  UNL     1      -3.396  48.404 -26.124  1.00  0.00     0.035 C 
HETATM   10  C10 UNL     1      -4.281  48.770 -24.961  1.00  0.00    -0.069 C 
HETATM   11  C11 UNL     1      -5.585  48.433 -24.998  1.00  0.00     0.030 C 
HETATM   12  C12 UNL     1      -6.481  48.591 -23.813  1.00  0.00     0.032 C 
HETATM   13  N1  UNL     1      -7.725  48.225 -23.748  1.00  0.00    -0.271 N 
ATOM     14  H1  UNL     1      -8.317  48.363 -22.929  1.00  0.00     0.194 HD
HETATM   15  C24 UNL     1      -5.875  49.163 -22.545  1.00  0.00     0.060 C 
HETATM   16  C25 UNL     1      -4.700  50.074 -22.858  1.00  0.00     0.020 C 
HETATM   17  C26 UNL     1      -3.612  49.412 -23.751  1.00  0.00    -0.016 C 
HETATM   18  C27 UNL     1      -2.935  48.281 -22.930  1.00  0.00     0.020 C 
HETATM   19  C28 UNL     1      -2.500  50.463 -24.155  1.00  0.00     0.002 C 
HETATM   20  C29 UNL     1      -3.023  51.834 -24.624  1.00  0.00     0.007 C 
HETATM   21  C30 UNL     1      -1.905  52.863 -24.669  1.00  0.00     0.014 C 
HETATM   22  C31 UNL     1      -0.604  52.447 -25.385  1.00  0.00     0.003 C 
HETATM   23  C32 UNL     1       0.566  53.041 -24.536  1.00  0.00     0.020 C 
ENDROOT
BRANCH   3  24
HETATM   24  O1  UNL     1      -1.704  52.605 -27.577  1.00  0.00    -0.377 OA
HETATM   25  H2  UNL     1      -2.389  53.248 -27.317  1.00  0.00     0.211 HD
ENDBRANCH   3  24
BRANCH  13  26
HETATM   26  O2  UNL     1      -8.163  47.617 -24.935  1.00  0.00    -0.271 OA
BRANCH  26  27
HETATM   27  C13 UNL     1      -9.039  46.549 -24.603  1.00  0.00     0.303 C 
BRANCH  27  28
HETATM   28  C14 UNL     1      -9.826  46.127 -25.833  1.00  0.00     0.244 C 
HETATM   29  O3  UNL     1      -9.568  45.101 -26.463  1.00  0.00    -0.271 OA
HETATM   30  N2  UNL     1     -10.887  46.962 -26.153  1.00  0.00    -0.346 N 
HETATM   31  H16 UNL     1     -11.237  47.523 -25.384  1.00  0.00     0.163 HD
BRANCH  30  32
HETATM   32  C15 UNL     1     -11.881  46.498 -27.116  1.00  0.00     0.180 C 
BRANCH  32  33
HETATM   33  C16 UNL     1     -13.274  46.602 -26.458  1.00  0.00     0.241 C 
HETATM   34  O4  UNL     1     -13.715  47.658 -26.006  1.00  0.00    -0.271 OA
HETATM   35  N3  UNL     1     -13.998  45.430 -26.471  1.00  0.00    -0.353 N 
HETATM   36  H18 UNL     1     -13.638  44.631 -26.985  1.00  0.00     0.163 HD
BRANCH  35  37
HETATM   37  C17 UNL     1     -15.377  45.351 -25.992  1.00  0.00     0.103 C 
BRANCH  37  38
HETATM   38  C18 UNL     1     -16.368  45.087 -27.145  1.00  0.00     0.096 C 
BRANCH  38  39
HETATM   39  S1  UNL     1     -17.291  43.514 -27.016  1.00  0.00    -0.180 SA
HETATM   40  H22 UNL     1     -18.141  43.758 -28.026  1.00  0.00     0.101 HD
ENDBRANCH  38  39
ENDBRANCH  37  38
BRANCH  37  41
HETATM   41  C19 UNL     1     -15.757  46.524 -25.084  1.00  0.00     0.136 C 
BRANCH  41  42
HETATM   42  C20 UNL     1     -17.178  46.510 -24.612  1.00  0.00     0.141 C 
HETATM   43  O5  UNL     1     -18.054  47.286 -24.959  1.00  0.00    -0.650 OA
BRANCH  42  44
HETATM   44  O6  UNL     1     -17.437  45.529 -23.724  1.00  0.00    -0.776 OA
HETATM   45  H25 UNL     1     -18.386  45.652 -23.510  1.00  0.00     0.167 HD
ENDBRANCH  42  44
ENDBRANCH  41  42
ENDBRANCH  37  41
ENDBRANCH  35  37
ENDBRANCH  32  33
BRANCH  32  46
HETATM   46  C21 UNL     1     -11.841  47.264 -28.457  1.00  0.00     0.009 C 
HETATM   47  C22 UNL     1     -10.461  47.823 -28.812  1.00  0.00     0.012 C 
HETATM   48  C23 UNL     1     -12.357  46.391 -29.602  1.00  0.00     0.012 C 
ENDBRANCH  32  46
ENDBRANCH  30  32
ENDBRANCH  27  28
ENDBRANCH  26  27
ENDBRANCH  13  26
TORSDOF 13
ENDMDL
MODEL 2
REMARK minimizedAffinity -8.57527924
REMARK CNNscore 0.387674868
REMARK CNNaffinity 6.8114953
REMARK  13 active torsions:
REMARK  status: ('A' for Active; 'I' for Inactive)
REMARK    1  A    between atoms: C3_3  and  O1_4 
REMARK    2  A    between atoms: N1_14  and  O2_16 
REMARK    3  A    between atoms: O2_16  and  C13_17 
REMARK    4  A    between atoms: C13_17  and  C14_18 
REMARK       I    between atoms: C14_18  and  N2_20 
REMARK    5  A    between atoms: N2_20  and  C15_21 
REMARK    6  A    between atoms: C15_21  and  C16_22 
REMARK    7  A    between atoms: C15_21  and  C21_32 
REMARK       I    between atoms: C16_22  and  N3_24 
REMARK    8  A    between atoms: N3_24  and  C17_25 
REMARK    9  A    between atoms: C17_25  and  C18_26 
REMARK   10  A    between atoms: C17_25  and  C19_28 
REMARK   11  A    between atoms: C18_26  and  S1_27 
REMARK   12  A    between atoms: C19_28  and  C20_29 
REMARK   13  A    between atoms: C20_29  and  O6_31 
ROOT
HETATM    1  C1  UNL     1      -8.881  40.804 -34.215  1.00  0.00     0.015 C 
HETATM    2  C2  UNL     1      -8.740  41.987 -34.048  1.00  0.00    -0.078 C 
HETATM    3  C3  UNL     1      -8.583  43.436 -33.845  1.00  0.00     0.128 C 
HETATM    4  C4  UNL     1      -9.150  44.229 -35.020  1.00  0.00     0.052 C 
HETATM    5  C5  UNL     1      -9.244  45.661 -34.483  1.00  0.00     0.010 C 
HETATM    6  C6  UNL     1      -9.433  45.551 -32.949  1.00  0.00     0.002 C 
HETATM    7  C7  UNL     1      -8.596  46.551 -32.096  1.00  0.00    -0.004 C 
HETATM    8  C8  UNL     1      -7.211  46.948 -32.648  1.00  0.00     0.010 C 
HETATM    9  C9  UNL     1      -6.533  48.021 -31.797  1.00  0.00     0.035 C 
HETATM   10  C10 UNL     1      -6.505  47.729 -30.319  1.00  0.00    -0.069 C 
HETATM   11  C11 UNL     1      -5.415  48.070 -29.604  1.00  0.00     0.030 C 
HETATM   12  C12 UNL     1      -5.385  47.987 -28.112  1.00  0.00     0.032 C 
HETATM   13  N1  UNL     1      -4.402  48.362 -27.352  1.00  0.00    -0.271 N 
ATOM     14  H1  UNL     1      -4.404  48.276 -26.335  1.00  0.00     0.194 HD
HETATM   15  C24 UNL     1      -6.635  47.490 -27.411  1.00  0.00     0.060 C 
HETATM   16  C25 UNL     1      -7.434  46.557 -28.304  1.00  0.00     0.020 C 
HETATM   17  C26 UNL     1      -7.775  47.159 -29.697  1.00  0.00    -0.016 C 
HETATM   18  C27 UNL     1      -8.768  48.334 -29.486  1.00  0.00     0.020 C 
HETATM   19  C28 UNL     1      -8.474  46.080 -30.620  1.00  0.00     0.002 C 
HETATM   20  C29 UNL     1      -7.819  44.686 -30.624  1.00  0.00     0.007 C 
HETATM   21  C30 UNL     1      -8.733  43.651 -31.261  1.00  0.00     0.014 C 
HETATM   22  C31 UNL     1      -9.358  44.018 -32.623  1.00  0.00     0.003 C 
HETATM   23  C32 UNL     1     -10.821  43.471 -32.588  1.00  0.00     0.020 C 
ENDROOT
BRANCH   3  24
HETATM   24  O1  UNL     1      -7.191  43.733 -33.746  1.00  0.00    -0.377 OA
HETATM   25  H2  UNL     1      -6.807  43.110 -33.102  1.00  0.00     0.211 HD
ENDBRANCH   3  24
BRANCH  13  26
HETATM   26  O2  UNL     1      -3.335  48.900 -28.088  1.00  0.00    -0.271 OA
BRANCH  26  27
HETATM   27  C13 UNL     1      -3.379  50.316 -27.985  1.00  0.00     0.303 C 
BRANCH  27  28
HETATM   28  C14 UNL     1      -2.368  50.789 -26.953  1.00  0.00     0.244 C 
HETATM   29  O3  UNL     1      -1.894  50.039 -26.100  1.00  0.00    -0.271 OA
HETATM   30  N2  UNL     1      -1.984  52.116 -27.087  1.00  0.00    -0.346 N 
HETATM   31  H16 UNL     1      -2.123  52.511 -28.012  1.00  0.00     0.163 HD
BRANCH  30  32
HETATM   32  C15 UNL     1      -0.812  52.586 -26.356  1.00  0.00     0.180 C 
BRANCH  32  33
HETATM   33  C16 UNL     1      -1.194  52.713 -24.864  1.00  0.00     0.241 C 
HETATM   34  O4  UNL     1      -2.304  53.093 -24.496  1.00  0.00    -0.271 OA
HETATM   35  N3  UNL     1      -0.208  52.313 -23.989  1.00  0.00    -0.353 N 
HETATM   36  H18 UNL     1       0.632  51.875 -24.357  1.00  0.00     0.163 HD
BRANCH  35  37
HETATM   37  C17 UNL     1      -0.414  52.258 -22.543  1.00  0.00     0.103 C 
BRANCH  37  38
HETATM   38  C18 UNL     1       0.921  52.335 -21.773  1.00  0.00     0.096 C 
BRANCH  38  39
HETATM   39  S1  UNL     1       1.072  53.767 -20.646  1.00  0.00    -0.180 SA
HETATM   40  H22 UNL     1       2.207  53.367 -20.050  1.00  0.00     0.101 HD
ENDBRANCH  38  39
ENDBRANCH  37  38
BRANCH  37  41
HETATM   41  C19 UNL     1      -1.326  51.104 -22.119  1.00  0.00     0.136 C 
BRANCH  41  42
HETATM   42  C20 UNL     1      -0.918  50.423 -20.849  1.00  0.00     0.141 C 
HETATM   43  O5  UNL     1      -1.075  50.862 -19.720  1.00  0.00    -0.650 OA
BRANCH  42  44
HETATM   44  O6  UNL     1      -0.329  49.226 -21.048  1.00  0.00    -0.776 OA
HETATM   45  H25 UNL     1      -0.119  48.915 -20.142  1.00  0.00     0.167 HD
ENDBRANCH  42  44
ENDBRANCH  41  42
ENDBRANCH  37  41
ENDBRANCH  35  37
ENDBRANCH  32  33
BRANCH  32  46
HETATM   46  C21 UNL     1       0.429  51.683 -26.537  1.00  0.00     0.009 C 
HETATM   47  C22 UNL     1       0.824  51.459 -27.999  1.00  0.00     0.012 C 
HETATM   48  C23 UNL     1       1.623  52.230 -25.755  1.00  0.00     0.012 C 
ENDBRANCH  32  46
ENDBRANCH  30  32
ENDBRANCH  27  28
ENDBRANCH  26  27
ENDBRANCH  13  26
TORSDOF 13
ENDMDL
MODEL 3
REMARK minimizedAffinity -7.33373117
REMARK CNNscore 0.28509292
REMARK CNNaffinity 6.15896177
REMARK  13 active torsions:
REMARK  status: ('A' for Active; 'I' for Inactive)
REMARK    1  A    between atoms: C3_3  and  O1_4 
REMARK    2  A    between atoms: N1_14  and  O2_16 
REMARK    3  A    between atoms: O2_16  and  C13_17 
REMARK    4  A    between atoms: C13_17  and  C14_18 
REMARK       I    between atoms: C14_18  and  N2_20 
REMARK    5  A    between atoms: N2_20  and  C15_21 
REMARK    6  A    between atoms: C15_21  and  C16_22 
REMARK    7  A    between atoms: C15_21  and  C21_32 
REMARK       I    between atoms: C16_22  and  N3_24 
REMARK    8  A    between atoms: N3_24  and  C17_25 
REMARK    9  A    between atoms: C17_25  and  C18_26 
REMARK   10  A    between atoms: C17_25  and  C19_28 
REMARK   11  A    between atoms: C18_26  and  S1_27 
REMARK   12  A    between atoms: C19_28  and  C20_29 
REMARK   13  A    between atoms: C20_29  and  O6_31 
ROOT
HETATM    1  C1  UNL     1      -2.204  52.906 -24.548  1.00  0.00     0.015 C 
HETATM    2  C2  UNL     1      -2.900  51.926 -24.501  1.00  0.00    -0.078 C 
HETATM    3  C3  UNL     1      -3.740  50.719 -24.445  1.00  0.00     0.128 C 
HETATM    4  C4  UNL     1      -3.479  49.801 -25.636  1.00  0.00     0.052 C 
HETATM    5  C5  UNL     1      -4.129  48.475 -25.226  1.00  0.00     0.010 C 
HETATM    6  C6  UNL     1      -4.090  48.419 -23.678  1.00  0.00     0.002 C 
HETATM    7  C7  UNL     1      -5.389  47.903 -22.991  1.00  0.00    -0.004 C 
HETATM    8  C8  UNL     1      -6.724  48.235 -23.689  1.00  0.00     0.010 C 
HETATM    9  C9  UNL     1      -7.919  47.578 -22.997  1.00  0.00     0.035 C 
HETATM   10  C10 UNL     1      -7.978  47.787 -21.506  1.00  0.00    -0.069 C 
HETATM   11  C11 UNL     1      -9.175  47.976 -20.917  1.00  0.00     0.030 C 
HETATM   12  C12 UNL     1      -9.334  48.002 -19.432  1.00  0.00     0.032 C 
HETATM   13  N1  UNL     1     -10.459  48.108 -18.792  1.00  0.00    -0.271 N 
ATOM     14  H1  UNL     1     -10.534  48.140 -17.775  1.00  0.00     0.194 HD
HETATM   15  C24 UNL     1      -8.088  47.816 -18.588  1.00  0.00     0.060 C 
HETATM   16  C25 UNL     1      -6.847  48.293 -19.324  1.00  0.00     0.020 C 
HETATM   17  C26 UNL     1      -6.670  47.660 -20.733  1.00  0.00    -0.016 C 
HETATM   18  C27 UNL     1      -6.375  46.146 -20.549  1.00  0.00     0.020 C 
HETATM   19  C28 UNL     1      -5.446  48.314 -21.493  1.00  0.00     0.002 C 
HETATM   20  C29 UNL     1      -5.366  49.850 -21.424  1.00  0.00     0.007 C 
HETATM   21  C30 UNL     1      -4.008  50.352 -21.887  1.00  0.00     0.014 C 
HETATM   22  C31 UNL     1      -3.475  49.789 -23.221  1.00  0.00     0.003 C 
HETATM   23  C32 UNL     1      -1.941  49.573 -23.016  1.00  0.00     0.020 C 
ENDROOT
BRANCH   3  24
HETATM   24  O1  UNL     1      -5.110  51.115 -24.488  1.00  0.00    -0.377 OA
HETATM   25  H2  UNL     1      -5.229  51.819 -23.824  1.00  0.00     0.211 HD
ENDBRANCH   3  24
BRANCH  13  26
HETATM   26  O2  UNL     1     -11.560  48.173 -19.660  1.00  0.00    -0.271 OA
BRANCH  26  27
HETATM   27  C13 UNL     1     -12.497  47.174 -19.281  1.00  0.00     0.303 C 
BRANCH  27  28
HETATM   28  C14 UNL     1     -13.911  47.669 -19.540  1.00  0.00     0.244 C 
HETATM   29  O3  UNL     1     -14.187  48.865 -19.623  1.00  0.00    -0.271 OA
HETATM   30  N2  UNL     1     -14.849  46.664 -19.728  1.00  0.00    -0.346 N 
HETATM   31  H16 UNL     1     -14.466  45.770 -20.020  1.00  0.00     0.163 HD
BRANCH  30  32
HETATM   32  C15 UNL     1     -16.155  47.015 -20.277  1.00  0.00     0.180 C 
BRANCH  32  33
HETATM   33  C16 UNL     1     -16.336  46.258 -21.612  1.00  0.00     0.241 C 
HETATM   34  O4  UNL     1     -15.385  45.825 -22.260  1.00  0.00    -0.271 OA
HETATM   35  N3  UNL     1     -17.648  46.063 -21.981  1.00  0.00    -0.353 N 
HETATM   36  H18 UNL     1     -18.388  46.318 -21.333  1.00  0.00     0.163 HD
BRANCH  35  37
HETATM   37  C17 UNL     1     -18.028  45.278 -23.154  1.00  0.00     0.103 C 
BRANCH  37  38
HETATM   38  C18 UNL     1     -19.042  46.030 -24.041  1.00  0.00     0.096 C 
BRANCH  38  39
HETATM   39  S1  UNL     1     -19.277  45.319 -25.708  1.00  0.00    -0.180 SA
HETATM   40  H22 UNL     1     -20.326  46.085 -26.050  1.00  0.00     0.101 HD
ENDBRANCH  38  39
ENDBRANCH  37  38
BRANCH  37  41
HETATM   41  C19 UNL     1     -18.433  43.845 -22.801  1.00  0.00     0.136 C 
BRANCH  41  42
HETATM   42  C20 UNL     1     -19.320  43.727 -21.600  1.00  0.00     0.141 C 
HETATM   43  O5  UNL     1     -20.157  44.543 -21.247  1.00  0.00    -0.650 OA
BRANCH  42  44
HETATM   44  O6  UNL     1     -19.117  42.596 -20.894  1.00  0.00    -0.776 OA
HETATM   45  H25 UNL     1     -19.755  42.667 -20.151  1.00  0.00     0.167 HD
ENDBRANCH  42  44
ENDBRANCH  41  42
ENDBRANCH  37  41
ENDBRANCH  35  37
ENDBRANCH  32  33
BRANCH  32  46
HETATM   46  C21 UNL     1     -17.325  46.726 -19.310  1.00  0.00     0.009 C 
HETATM   47  C22 UNL     1     -18.665  47.310 -19.766  1.00  0.00     0.012 C 
HETATM   48  C23 UNL     1     -17.472  45.224 -19.062  1.00  0.00     0.012 C 
ENDBRANCH  32  46
ENDBRANCH  30  32
ENDBRANCH  27  28
ENDBRANCH  26  27
ENDBRANCH  13  26
TORSDOF 13
ENDMDL
MODEL 4
REMARK minimizedAffinity -7.61053324
REMARK CNNscore 0.265478432
REMARK CNNaffinity 6.88946533
REMARK  13 active torsions:
REMARK  status: ('A' for Active; 'I' for Inactive)
REMARK    1  A    between atoms: C3_3  and  O1_4 
REMARK    2  A    between atoms: N1_14  and  O2_16 
REMARK    3  A    between atoms: O2_16  and  C13_17 
REMARK    4  A    between atoms: C13_17  and  C14_18 
REMARK       I    between atoms: C14_18  and  N2_20 
REMARK    5  A    between atoms: N2_20  and  C15_21 
REMARK    6  A    between atoms: C15_21  and  C16_22 
REMARK    7  A    between atoms: C15_21  and  C21_32 
REMARK       I    between atoms: C16_22  and  N3_24 
REMARK    8  A    between atoms: N3_24  and  C17_25 
REMARK    9  A    between atoms: C17_25  and  C18_26 
REMARK   10  A    between atoms: C17_25  and  C19_28 
REMARK   11  A    between atoms: C18_26  and  S1_27 
REMARK   12  A    between atoms: C19_28  and  C20_29 
REMARK   13  A    between atoms: C20_29  and  O6_31 
ROOT
HETATM    1  C1  UNL     1       3.480  43.435 -13.317  1.00  0.00     0.015 C 
HETATM    2  C2  UNL     1       2.611  44.251 -13.480  1.00  0.00    -0.078 C 
HETATM    3  C3  UNL     1       1.545  45.248 -13.665  1.00  0.00     0.128 C 
HETATM    4  C4  UNL     1       0.236  44.793 -13.026  1.00  0.00     0.052 C 
HETATM    5  C5  UNL     1      -0.614  46.067 -12.983  1.00  0.00     0.010 C 
HETATM    6  C6  UNL     1       0.373  47.259 -12.901  1.00  0.00     0.002 C 
HETATM    7  C7  UNL     1       0.029  48.481 -13.805  1.00  0.00    -0.004 C 
HETATM    8  C8  UNL     1      -0.661  48.177 -15.152  1.00  0.00     0.010 C 
HETATM    9  C9  UNL     1      -1.061  49.450 -15.898  1.00  0.00     0.035 C 
HETATM   10  C10 UNL     1       0.035  50.476 -16.027  1.00  0.00    -0.069 C 
HETATM   11  C11 UNL     1       0.137  51.186 -17.167  1.00  0.00     0.030 C 
HETATM   12  C12 UNL     1       1.071  52.345 -17.300  1.00  0.00     0.032 C 
HETATM   13  N1  UNL     1       1.175  53.119 -18.338  1.00  0.00    -0.271 N 
ATOM     14  H1  UNL     1       1.836  53.894 -18.406  1.00  0.00     0.194 HD
HETATM   15  C24 UNL     1       1.923  52.703 -16.098  1.00  0.00     0.060 C 
HETATM   16  C25 UNL     1       2.189  51.486 -15.229  1.00  0.00     0.020 C 
HETATM   17  C26 UNL     1       0.901  50.728 -14.798  1.00  0.00    -0.016 C 
HETATM   18  C27 UNL     1       0.100  51.645 -13.834  1.00  0.00     0.020 C 
HETATM   19  C28 UNL     1       1.265  49.396 -14.025  1.00  0.00     0.002 C 
HETATM   20  C29 UNL     1       2.375  48.540 -14.664  1.00  0.00     0.007 C 
HETATM   21  C30 UNL     1       2.876  47.479 -13.698  1.00  0.00     0.014 C 
HETATM   22  C31 UNL     1       1.807  46.627 -12.984  1.00  0.00     0.003 C 
HETATM   23  C32 UNL     1       2.321  46.428 -11.521  1.00  0.00     0.020 C 
ENDROOT
BRANCH   3  24
HETATM   24  O1  UNL     1       1.315  45.415 -15.064  1.00  0.00    -0.377 OA
HETATM   25  H2  UNL     1       2.183  45.550 -15.486  1.00  0.00     0.211 HD
ENDBRANCH   3  24
BRANCH  13  26
HETATM   26  O2  UNL     1       0.275  52.768 -19.356  1.00  0.00    -0.271 OA
BRANCH  26  27
HETATM   27  C13 UNL     1       0.595  53.513 -20.523  1.00  0.00     0.303 C 
BRANCH  27  28
HETATM   28  C14 UNL     1       0.772  52.571 -21.703  1.00  0.00     0.244 C 
HETATM   29  O3  UNL     1       1.408  51.521 -21.620  1.00  0.00    -0.271 OA
HETATM   30  N2  UNL     1       0.115  52.965 -22.860  1.00  0.00    -0.346 N 
HETATM   31  H16 UNL     1      -0.663  53.601 -22.715  1.00  0.00     0.163 HD
BRANCH  30  32
HETATM   32  C15 UNL     1      -0.035  52.002 -23.946  1.00  0.00     0.180 C 
BRANCH  32  33
HETATM   33  C16 UNL     1      -1.539  51.681 -24.101  1.00  0.00     0.241 C 
HETATM   34  O4  UNL     1      -2.358  52.520 -24.472  1.00  0.00    -0.271 OA
HETATM   35  N3  UNL     1      -1.870  50.369 -23.844  1.00  0.00    -0.353 N 
HETATM   36  H18 UNL     1      -1.128  49.694 -23.682  1.00  0.00     0.163 HD
BRANCH  35  37
HETATM   37  C17 UNL     1      -3.221  49.845 -24.038  1.00  0.00     0.103 C 
BRANCH  37  38
HETATM   38  C18 UNL     1      -3.727  50.088 -25.475  1.00  0.00     0.096 C 
BRANCH  38  39
HETATM   39  S1  UNL     1      -4.073  48.569 -26.431  1.00  0.00    -0.180 SA
HETATM   40  H22 UNL     1      -4.659  49.181 -27.474  1.00  0.00     0.101 HD
ENDBRANCH  38  39
ENDBRANCH  37  38
BRANCH  37  41
HETATM   41  C19 UNL     1      -4.190  50.289 -22.939  1.00  0.00     0.136 C 
BRANCH  41  42
HETATM   42  C20 UNL     1      -5.550  50.678 -23.430  1.00  0.00     0.141 C 
HETATM   43  O5  UNL     1      -6.459  49.910 -23.704  1.00  0.00    -0.650 OA
BRANCH  42  44
HETATM   44  O6  UNL     1      -5.711  52.011 -23.560  1.00  0.00    -0.776 OA
HETATM   45  H25 UNL     1      -6.630  52.105 -23.888  1.00  0.00     0.167 HD
ENDBRANCH  42  44
ENDBRANCH  41  42
ENDBRANCH  37  41
ENDBRANCH  35  37
ENDBRANCH  32  33
BRANCH  32  46
HETATM   46  C21 UNL     1       0.571  52.484 -25.283  1.00  0.00     0.009 C 
HETATM   47  C22 UNL     1       0.201  51.608 -26.483  1.00  0.00     0.012 C 
HETATM   48  C23 UNL     1       0.190  53.937 -25.564  1.00  0.00     0.012 C 
ENDBRANCH  32  46
ENDBRANCH  30  32
ENDBRANCH  27  28
ENDBRANCH  26  27
ENDBRANCH  13  26
TORSDOF 13
ENDMDL
MODEL 5
REMARK minimizedAffinity -7.49819756
REMARK CNNscore 0.24933891
REMARK CNNaffinity 6.4071269
REMARK  13 active torsions:
REMARK  status: ('A' for Active; 'I' for Inactive)
REMARK    1  A    between atoms: C3_3  and  O1_4 
REMARK    2  A    between atoms: N1_14  and  O2_16 
REMARK    3  A    between atoms: O2_16  and  C13_17 
REMARK    4  A    between atoms: C13_17  and  C14_18 
REMARK       I    between atoms: C14_18  and  N2_20 
REMARK    5  A    between atoms: N2_20  and  C15_21 
REMARK    6  A    between atoms: C15_21  and  C16_22 
REMARK    7  A    between atoms: C15_21  and  C21_32 
REMARK       I    between atoms: C16_22  and  N3_24 
REMARK    8  A    between atoms: N3_24  and  C17_25 
REMARK    9  A    between atoms: C17_25  and  C18_26 
REMARK   10  A    between atoms: C17_25  and  C19_28 
REMARK   11  A    between atoms: C18_26  and  S1_27 
REMARK   12  A    between atoms: C19_28  and  C20_29 
REMARK   13  A    between atoms: C20_29  and  O6_31 
ROOT
HETATM    1  C1  UNL     1      -2.694  51.778 -22.987  1.00  0.00     0.015 C 
HETATM    2  C2  UNL     1      -2.708  51.238 -21.912  1.00  0.00    -0.078 C 
HETATM    3  C3  UNL     1      -2.721  50.566 -20.603  1.00  0.00     0.128 C 
HETATM    4  C4  UNL     1      -3.531  49.273 -20.646  1.00  0.00     0.052 C 
HETATM    5  C5  UNL     1      -3.129  48.546 -19.359  1.00  0.00     0.010 C 
HETATM    6  C6  UNL     1      -1.693  49.013 -19.012  1.00  0.00     0.002 C 
HETATM    7  C7  UNL     1      -1.434  49.328 -17.508  1.00  0.00    -0.004 C 
HETATM    8  C8  UNL     1      -2.618  49.904 -16.704  1.00  0.00     0.010 C 
HETATM    9  C9  UNL     1      -2.289  50.060 -15.219  1.00  0.00     0.035 C 
HETATM   10  C10 UNL     1      -0.993  50.772 -14.931  1.00  0.00    -0.069 C 
HETATM   11  C11 UNL     1      -0.926  51.613 -13.880  1.00  0.00     0.030 C 
HETATM   12  C12 UNL     1       0.365  52.208 -13.420  1.00  0.00     0.032 C 
HETATM   13  N1  UNL     1       0.520  52.966 -12.378  1.00  0.00    -0.271 N 
ATOM     14  H1  UNL     1       1.414  53.372 -12.098  1.00  0.00     0.194 HD
HETATM   15  C24 UNL     1       1.621  51.842 -14.187  1.00  0.00     0.060 C 
HETATM   16  C25 UNL     1       1.304  51.500 -15.633  1.00  0.00     0.020 C 
HETATM   17  C26 UNL     1       0.209  50.407 -15.795  1.00  0.00    -0.016 C 
HETATM   18  C27 UNL     1       0.783  49.065 -15.264  1.00  0.00     0.020 C 
HETATM   19  C28 UNL     1      -0.171  50.214 -17.319  1.00  0.00     0.002 C 
HETATM   20  C29 UNL     1      -0.384  51.512 -18.120  1.00  0.00     0.007 C 
HETATM   21  C30 UNL     1      -0.414  51.238 -19.615  1.00  0.00     0.014 C 
HETATM   22  C31 UNL     1      -1.326  50.089 -20.093  1.00  0.00     0.003 C 
HETATM   23  C32 UNL     1      -0.542  49.364 -21.234  1.00  0.00     0.020 C 
ENDROOT
BRANCH   3  24
HETATM   24  O1  UNL     1      -3.334  51.435 -19.651  1.00  0.00    -0.377 OA
HETATM   25  H2  UNL     1      -2.911  52.308 -19.742  1.00  0.00     0.211 HD
ENDBRANCH   3  24
BRANCH  13  26
HETATM   26  O2  UNL     1      -0.681  53.163 -11.679  1.00  0.00    -0.271 OA
BRANCH  26  27
HETATM   27  C13 UNL     1      -0.554  54.329 -10.875  1.00  0.00     0.303 C 
BRANCH  27  28
HETATM   28  C14 UNL     1       0.654  54.194  -9.961  1.00  0.00     0.244 C 
HETATM   29  O3  UNL     1       0.701  53.372  -9.046  1.00  0.00    -0.271 OA
HETATM   30  N2  UNL     1       1.713  55.033 -10.277  1.00  0.00    -0.346 N 
HETATM   31  H16 UNL     1       1.724  55.366 -11.235  1.00  0.00     0.163 HD
BRANCH  30  32
HETATM   32  C15 UNL     1       3.015  54.780  -9.669  1.00  0.00     0.180 C 
BRANCH  32  33
HETATM   33  C16 UNL     1       3.548  53.435 -10.211  1.00  0.00     0.241 C 
HETATM   34  O4  UNL     1       3.571  53.169 -11.411  1.00  0.00    -0.271 OA
HETATM   35  N3  UNL     1       4.043  52.589  -9.244  1.00  0.00    -0.353 N 
HETATM   36  H18 UNL     1       4.127  52.924  -8.288  1.00  0.00     0.163 HD
BRANCH  35  37
HETATM   37  C17 UNL     1       4.686  51.316  -9.565  1.00  0.00     0.103 C 
BRANCH  37  38
HETATM   38  C18 UNL     1       6.211  51.475  -9.740  1.00  0.00     0.096 C 
BRANCH  38  39
HETATM   39  S1  UNL     1       7.083  49.958 -10.269  1.00  0.00    -0.180 SA
HETATM   40  H22 UNL     1       8.270  50.542 -10.500  1.00  0.00     0.101 HD
ENDBRANCH  38  39
ENDBRANCH  37  38
BRANCH  37  41
HETATM   41  C19 UNL     1       3.989  50.573 -10.708  1.00  0.00     0.136 C 
BRANCH  41  42
HETATM   42  C20 UNL     1       3.731  49.122 -10.441  1.00  0.00     0.141 C 
HETATM   43  O5  UNL     1       3.693  48.236 -11.280  1.00  0.00    -0.650 OA
BRANCH  42  44
HETATM   44  O6  UNL     1       3.530  48.846  -9.136  1.00  0.00    -0.776 OA
HETATM   45  H25 UNL     1       3.372  47.878  -9.124  1.00  0.00     0.167 HD
ENDBRANCH  42  44
ENDBRANCH  41  42
ENDBRANCH  37  41
ENDBRANCH  35  37
ENDBRANCH  32  33
BRANCH  32  46
HETATM   46  C21 UNL     1       4.035  55.917  -9.905  1.00  0.00     0.009 C 
HETATM   47  C22 UNL     1       5.488  55.442  -9.981  1.00  0.00     0.012 C 
HETATM   48  C23 UNL     1       3.684  56.715 -11.162  1.00  0.00     0.012 C 
ENDBRANCH  32  46
ENDBRANCH  30  32
ENDBRANCH  27  28
ENDBRANCH  26  27
ENDBRANCH  13  26
TORSDOF 13
ENDMDL
MODEL 6
REMARK minimizedAffinity -7.31628609
REMARK CNNscore 0.228250965
REMARK CNNaffinity 5.84737015
REMARK  13 active torsions:
REMARK  status: ('A' for Active; 'I' for Inactive)
REMARK    1  A    between atoms: C3_3  and  O1_4 
REMARK    2  A    between atoms: N1_14  and  O2_16 
REMARK    3  A    between atoms: O2_16  and  C13_17 
REMARK    4  A    between atoms: C13_17  and  C14_18 
REMARK       I    between atoms: C14_18  and  N2_20 
REMARK    5  A    between atoms: N2_20  and  C15_21 
REMARK    6  A    between atoms: C15_21  and  C16_22 
REMARK    7  A    between atoms: C15_21  and  C21_32 
REMARK       I    between atoms: C16_22  and  N3_24 
REMARK    8  A    between atoms: N3_24  and  C17_25 
REMARK    9  A    between atoms: C17_25  and  C18_26 
REMARK   10  A    between atoms: C17_25  and  C19_28 
REMARK   11  A    between atoms: C18_26  and  S1_27 
REMARK   12  A    between atoms: C19_28  and  C20_29 
REMARK   13  A    between atoms: C20_29  and  O6_31 
ROOT
HETATM    1  C1  UNL     1      -2.154  52.878 -24.428  1.00  0.00     0.015 C 
HETATM    2  C2  UNL     1      -2.875  51.914 -24.423  1.00  0.00    -0.078 C 
HETATM    3  C3  UNL     1      -3.743  50.727 -24.418  1.00  0.00     0.128 C 
HETATM    4  C4  UNL     1      -3.508  49.856 -25.649  1.00  0.00     0.052 C 
HETATM    5  C5  UNL     1      -4.189  48.530 -25.297  1.00  0.00     0.010 C 
HETATM    6  C6  UNL     1      -4.148  48.404 -23.753  1.00  0.00     0.002 C 
HETATM    7  C7  UNL     1      -5.458  47.889 -23.085  1.00  0.00    -0.004 C 
HETATM    8  C8  UNL     1      -6.787  48.285 -23.764  1.00  0.00     0.010 C 
HETATM    9  C9  UNL     1      -7.996  47.627 -23.099  1.00  0.00     0.035 C 
HETATM   10  C10 UNL     1      -8.046  47.771 -21.600  1.00  0.00    -0.069 C 
HETATM   11  C11 UNL     1      -9.237  47.963 -20.999  1.00  0.00     0.030 C 
HETATM   12  C12 UNL     1      -9.393  47.927 -19.514  1.00  0.00     0.032 C 
HETATM   13  N1  UNL     1     -10.514  48.032 -18.866  1.00  0.00    -0.271 N 
ATOM     14  H1  UNL     1     -10.586  48.021 -17.849  1.00  0.00     0.194 HD
HETATM   15  C24 UNL     1      -8.150  47.673 -18.682  1.00  0.00     0.060 C 
HETATM   16  C25 UNL     1      -6.900  48.152 -19.400  1.00  0.00     0.020 C 
HETATM   17  C26 UNL     1      -6.740  47.578 -20.837  1.00  0.00    -0.016 C 
HETATM   18  C27 UNL     1      -6.482  46.051 -20.721  1.00  0.00     0.020 C 
HETATM   19  C28 UNL     1      -5.502  48.235 -21.571  1.00  0.00     0.002 C 
HETATM   20  C29 UNL     1      -5.385  49.764 -21.434  1.00  0.00     0.007 C 
HETATM   21  C30 UNL     1      -4.015  50.253 -21.878  1.00  0.00     0.014 C 
HETATM   22  C31 UNL     1      -3.499  49.737 -23.237  1.00  0.00     0.003 C 
HETATM   23  C32 UNL     1      -1.970  49.475 -23.047  1.00  0.00     0.020 C 
ENDROOT
BRANCH   3  24
HETATM   24  O1  UNL     1      -5.104  51.158 -24.439  1.00  0.00    -0.377 OA
HETATM   25  H2  UNL     1      -5.204  51.834 -23.744  1.00  0.00     0.211 HD
ENDBRANCH   3  24
BRANCH  13  26
HETATM   26  O2  UNL     1     -11.615  48.162 -19.727  1.00  0.00    -0.271 OA
BRANCH  26  27
HETATM   27  C13 UNL     1     -12.464  47.036 -19.553  1.00  0.00     0.303 C 
BRANCH  27  28
HETATM   28  C14 UNL     1     -13.875  47.382 -20.002  1.00  0.00     0.244 C 
HETATM   29  O3  UNL     1     -14.496  48.343 -19.549  1.00  0.00    -0.271 OA
HETATM   30  N2  UNL     1     -14.381  46.559 -20.999  1.00  0.00    -0.346 N 
HETATM   31  H16 UNL     1     -13.680  46.075 -21.551  1.00  0.00     0.163 HD
BRANCH  30  32
HETATM   32  C15 UNL     1     -15.585  46.976 -21.710  1.00  0.00     0.180 C 
BRANCH  32  33
HETATM   33  C16 UNL     1     -15.288  46.933 -23.226  1.00  0.00     0.241 C 
HETATM   34  O4  UNL     1     -15.426  47.914 -23.954  1.00  0.00    -0.271 OA
HETATM   35  N3  UNL     1     -14.805  45.725 -23.676  1.00  0.00    -0.353 N 
HETATM   36  H18 UNL     1     -14.578  44.999 -23.002  1.00  0.00     0.163 HD
BRANCH  35  37
HETATM   37  C17 UNL     1     -14.366  45.517 -25.055  1.00  0.00     0.103 C 
BRANCH  37  38
HETATM   38  C18 UNL     1     -15.095  44.327 -25.713  1.00  0.00     0.096 C 
BRANCH  38  39
HETATM   39  S1  UNL     1     -16.358  43.527 -24.661  1.00  0.00    -0.180 SA
HETATM   40  H22 UNL     1     -16.871  42.739 -25.620  1.00  0.00     0.101 HD
ENDBRANCH  38  39
ENDBRANCH  37  38
BRANCH  37  41
HETATM   41  C19 UNL     1     -12.841  45.483 -25.192  1.00  0.00     0.136 C 
BRANCH  41  42
HETATM   42  C20 UNL     1     -12.165  46.795 -24.939  1.00  0.00     0.141 C 
HETATM   43  O5  UNL     1     -11.454  47.060 -23.982  1.00  0.00    -0.650 OA
BRANCH  42  44
HETATM   44  O6  UNL     1     -12.412  47.717 -25.892  1.00  0.00    -0.776 OA
HETATM   45  H25 UNL     1     -11.916  48.506 -25.587  1.00  0.00     0.167 HD
ENDBRANCH  42  44
ENDBRANCH  41  42
ENDBRANCH  37  41
ENDBRANCH  35  37
ENDBRANCH  32  33
BRANCH  32  46
HETATM   46  C21 UNL     1     -16.828  46.127 -21.363  1.00  0.00     0.009 C 
HETATM   47  C22 UNL     1     -17.392  46.396 -19.965  1.00  0.00     0.012 C 
HETATM   48  C23 UNL     1     -17.927  46.310 -22.410  1.00  0.00     0.012 C 
ENDBRANCH  32  46
ENDBRANCH  30  32
ENDBRANCH  27  28
ENDBRANCH  26  27
ENDBRANCH  13  26
TORSDOF 13
ENDMDL
MODEL 7
REMARK minimizedAffinity -8.14371395
REMARK CNNscore 0.180465296
REMARK CNNaffinity 6.44786692
REMARK  13 active torsions:
REMARK  status: ('A' for Active; 'I' for Inactive)
REMARK    1  A    between atoms: C3_3  and  O1_4 
REMARK    2  A    between atoms: N1_14  and  O2_16 
REMARK    3  A    between atoms: O2_16  and  C13_17 
REMARK    4  A    between atoms: C13_17  and  C14_18 
REMARK       I    between atoms: C14_18  and  N2_20 
REMARK    5  A    between atoms: N2_20  and  C15_21 
REMARK    6  A    between atoms: C15_21  and  C16_22 
REMARK    7  A    between atoms: C15_21  and  C21_32 
REMARK       I    between atoms: C16_22  and  N3_24 
REMARK    8  A    between atoms: N3_24  and  C17_25 
REMARK    9  A    between atoms: C17_25  and  C18_26 
REMARK   10  A    between atoms: C17_25  and  C19_28 
REMARK   11  A    between atoms: C18_26  and  S1_27 
REMARK   12  A    between atoms: C19_28  and  C20_29 
REMARK   13  A    between atoms: C20_29  and  O6_31 
ROOT
HETATM    1  C1  UNL     1      -1.105  50.914 -27.354  1.00  0.00     0.015 C 
HETATM    2  C2  UNL     1      -1.760  51.034 -26.351  1.00  0.00    -0.078 C 
HETATM    3  C3  UNL     1      -2.573  51.178 -25.133  1.00  0.00     0.128 C 
HETATM    4  C4  UNL     1      -3.648  52.248 -25.302  1.00  0.00     0.052 C 
HETATM    5  C5  UNL     1      -4.600  52.000 -24.128  1.00  0.00     0.010 C 
HETATM    6  C6  UNL     1      -4.497  50.494 -23.780  1.00  0.00     0.002 C 
HETATM    7  C7  UNL     1      -4.435  50.157 -22.260  1.00  0.00    -0.004 C 
HETATM    8  C8  UNL     1      -3.726  51.181 -21.349  1.00  0.00     0.010 C 
HETATM    9  C9  UNL     1      -3.832  50.810 -19.869  1.00  0.00     0.035 C 
HETATM   10  C10 UNL     1      -3.453  49.388 -19.547  1.00  0.00    -0.069 C 
HETATM   11  C11 UNL     1      -2.785  49.130 -18.405  1.00  0.00     0.030 C 
HETATM   12  C12 UNL     1      -2.541  47.737 -17.925  1.00  0.00     0.032 C 
HETATM   13  N1  UNL     1      -1.970  47.410 -16.805  1.00  0.00    -0.271 N 
ATOM     14  H1  UNL     1      -1.802  46.447 -16.512  1.00  0.00     0.194 HD
HETATM   15  C24 UNL     1      -3.067  46.597 -18.777  1.00  0.00     0.060 C 
HETATM   16  C25 UNL     1      -3.149  46.995 -20.240  1.00  0.00     0.020 C 
HETATM   17  C26 UNL     1      -3.955  48.302 -20.492  1.00  0.00    -0.016 C 
HETATM   18  C27 UNL     1      -5.444  48.026 -20.148  1.00  0.00     0.020 C 
HETATM   19  C28 UNL     1      -3.870  48.731 -22.013  1.00  0.00     0.002 C 
HETATM   20  C29 UNL     1      -2.466  48.666 -22.643  1.00  0.00     0.007 C 
HETATM   21  C30 UNL     1      -2.537  48.771 -24.158  1.00  0.00     0.014 C 
HETATM   22  C31 UNL     1      -3.396  49.913 -24.737  1.00  0.00     0.003 C 
HETATM   23  C32 UNL     1      -4.123  49.317 -25.986  1.00  0.00     0.020 C 
ENDROOT
BRANCH   3  24
HETATM   24  O1  UNL     1      -1.720  51.578 -24.061  1.00  0.00    -0.377 OA
HETATM   25  H2  UNL     1      -0.952  50.978 -24.063  1.00  0.00     0.211 HD
ENDBRANCH   3  24
BRANCH  13  26
HETATM   26  O2  UNL     1      -1.611  48.533 -16.044  1.00  0.00    -0.271 OA
BRANCH  26  27
HETATM   27  C13 UNL     1      -0.215  48.479 -15.784  1.00  0.00     0.303 C 
BRANCH  27  28
HETATM   28  C14 UNL     1       0.345  49.889 -15.687  1.00  0.00     0.244 C 
HETATM   29  O3  UNL     1      -0.083  50.818 -16.370  1.00  0.00    -0.271 OA
HETATM   30  N2  UNL     1       1.338  50.051 -14.731  1.00  0.00    -0.346 N 
HETATM   31  H16 UNL     1       1.337  49.356 -13.991  1.00  0.00     0.163 HD
BRANCH  30  32
HETATM   32  C15 UNL     1       1.728  51.403 -14.345  1.00  0.00     0.180 C 
BRANCH  32  33
HETATM   33  C16 UNL     1       1.091  51.714 -12.972  1.00  0.00     0.241 C 
HETATM   34  O4  UNL     1       0.953  50.860 -12.098  1.00  0.00    -0.271 OA
HETATM   35  N3  UNL     1       0.745  53.035 -12.793  1.00  0.00    -0.353 N 
HETATM   36  H18 UNL     1       1.015  53.718 -13.495  1.00  0.00     0.163 HD
BRANCH  35  37
HETATM   37  C17 UNL     1       0.227  53.549 -11.525  1.00  0.00     0.103 C 
BRANCH  37  38
HETATM   38  C18 UNL     1       1.241  53.365 -10.378  1.00  0.00     0.096 C 
BRANCH  38  39
HETATM   39  S1  UNL     1       2.859  54.171 -10.650  1.00  0.00    -0.180 SA
HETATM   40  H22 UNL     1       3.335  53.969  -9.410  1.00  0.00     0.101 HD
ENDBRANCH  38  39
ENDBRANCH  37  38
BRANCH  37  41
HETATM   41  C19 UNL     1      -1.184  53.042 -11.215  1.00  0.00     0.136 C 
BRANCH  41  42
HETATM   42  C20 UNL     1      -2.068  54.042 -10.535  1.00  0.00     0.141 C 
HETATM   43  O5  UNL     1      -3.088  53.789  -9.913  1.00  0.00    -0.650 OA
BRANCH  42  44
HETATM   44  O6  UNL     1      -1.637  55.314 -10.666  1.00  0.00    -0.776 OA
HETATM   45  H25 UNL     1      -2.309  55.839 -10.182  1.00  0.00     0.167 HD
ENDBRANCH  42  44
ENDBRANCH  41  42
ENDBRANCH  37  41
ENDBRANCH  35  37
ENDBRANCH  32  33
BRANCH  32  46
HETATM   46  C21 UNL     1       3.258  51.614 -14.308  1.00  0.00     0.009 C 
HETATM   47  C22 UNL     1       4.053  50.341 -14.002  1.00  0.00     0.012 C 
HETATM   48  C23 UNL     1       3.757  52.236 -15.613  1.00  0.00     0.012 C 
ENDBRANCH  32  46
ENDBRANCH  30  32
ENDBRANCH  27  28
ENDBRANCH  26  27
ENDBRANCH  13  26
TORSDOF 13
ENDMDL
MODEL 8
REMARK minimizedAffinity -7.24829769
REMARK CNNscore 0.155208021
REMARK CNNaffinity 5.31365728
REMARK  13 active torsions:
REMARK  status: ('A' for Active; 'I' for Inactive)
REMARK    1  A    between atoms: C3_3  and  O1_4 
REMARK    2  A    between atoms: N1_14  and  O2_16 
REMARK    3  A    between atoms: O2_16  and  C13_17 
REMARK    4  A    between atoms: C13_17  and  C14_18 
REMARK       I    between atoms: C14_18  and  N2_20 
REMARK    5  A    between atoms: N2_20  and  C15_21 
REMARK    6  A    between atoms: C15_21  and  C16_22 
REMARK    7  A    between atoms: C15_21  and  C21_32 
REMARK       I    between atoms: C16_22  and  N3_24 
REMARK    8  A    between atoms: N3_24  and  C17_25 
REMARK    9  A    between atoms: C17_25  and  C18_26 
REMARK   10  A    between atoms: C17_25  and  C19_28 
REMARK   11  A    between atoms: C18_26  and  S1_27 
REMARK   12  A    between atoms: C19_28  and  C20_29 
REMARK   13  A    between atoms: C20_29  and  O6_31 
ROOT
HETATM    1  C1  UNL     1      -4.668  48.178 -28.618  1.00  0.00     0.015 C 
HETATM    2  C2  UNL     1      -5.847  48.079 -28.836  1.00  0.00    -0.078 C 
HETATM    3  C3  UNL     1      -7.287  47.951 -29.116  1.00  0.00     0.128 C 
HETATM    4  C4  UNL     1      -7.631  48.451 -30.516  1.00  0.00     0.052 C 
HETATM    5  C5  UNL     1      -9.041  47.906 -30.763  1.00  0.00     0.010 C 
HETATM    6  C6  UNL     1      -9.174  46.613 -29.921  1.00  0.00     0.002 C 
HETATM    7  C7  UNL     1     -10.524  46.441 -29.162  1.00  0.00    -0.004 C 
HETATM    8  C8  UNL     1     -11.210  47.729 -28.661  1.00  0.00     0.010 C 
HETATM    9  C9  UNL     1     -12.580  47.454 -28.042  1.00  0.00     0.035 C 
HETATM   10  C10 UNL     1     -12.598  46.351 -27.015  1.00  0.00    -0.069 C 
HETATM   11  C11 UNL     1     -13.384  46.480 -25.928  1.00  0.00     0.030 C 
HETATM   12  C12 UNL     1     -13.600  45.358 -24.966  1.00  0.00     0.032 C 
HETATM   13  N1  UNL     1     -14.394  45.382 -23.938  1.00  0.00    -0.271 N 
ATOM     14  H1  UNL     1     -14.507  44.604 -23.289  1.00  0.00     0.194 HD
HETATM   15  C24 UNL     1     -12.890  44.046 -25.244  1.00  0.00     0.060 C 
HETATM   16  C25 UNL     1     -11.606  44.270 -26.025  1.00  0.00     0.020 C 
HETATM   17  C26 UNL     1     -11.799  45.092 -27.331  1.00  0.00    -0.016 C 
HETATM   18  C27 UNL     1     -12.635  44.237 -28.322  1.00  0.00     0.020 C 
HETATM   19  C28 UNL     1     -10.403  45.409 -28.007  1.00  0.00     0.002 C 
HETATM   20  C29 UNL     1      -9.300  45.900 -27.051  1.00  0.00     0.007 C 
HETATM   21  C30 UNL     1      -7.935  45.859 -27.719  1.00  0.00     0.014 C 
HETATM   22  C31 UNL     1      -7.828  46.488 -29.124  1.00  0.00     0.003 C 
HETATM   23  C32 UNL     1      -6.879  45.554 -29.943  1.00  0.00     0.020 C 
ENDROOT
BRANCH   3  24
HETATM   24  O1  UNL     1      -8.006  48.748 -28.176  1.00  0.00    -0.377 OA
HETATM   25  H2  UNL     1      -7.663  48.530 -27.290  1.00  0.00     0.211 HD
ENDBRANCH   3  24
BRANCH  13  26
HETATM   26  O2  UNL     1     -15.079  46.602 -23.825  1.00  0.00    -0.271 OA
BRANCH  26  27
HETATM   27  C13 UNL     1     -15.588  46.716 -22.503  1.00  0.00     0.303 C 
BRANCH  27  28
HETATM   28  C14 UNL     1     -16.958  46.062 -22.421  1.00  0.00     0.244 C 
HETATM   29  O3  UNL     1     -17.808  46.409 -21.601  1.00  0.00    -0.271 OA
HETATM   30  N2  UNL     1     -17.188  45.083 -23.377  1.00  0.00    -0.346 N 
HETATM   31  H16 UNL     1     -16.607  45.150 -24.207  1.00  0.00     0.163 HD
BRANCH  30  32
HETATM   32  C15 UNL     1     -18.553  44.609 -23.584  1.00  0.00     0.180 C 
BRANCH  32  33
HETATM   33  C16 UNL     1     -19.181  44.332 -22.201  1.00  0.00     0.241 C 
HETATM   34  O4  UNL     1     -20.324  44.681 -21.912  1.00  0.00    -0.271 OA
HETATM   35  N3  UNL     1     -18.377  43.613 -21.345  1.00  0.00    -0.353 N 
HETATM   36  H18 UNL     1     -17.502  43.230 -21.692  1.00  0.00     0.163 HD
BRANCH  35  37
HETATM   37  C17 UNL     1     -18.831  43.160 -20.031  1.00  0.00     0.103 C 
BRANCH  37  38
HETATM   38  C18 UNL     1     -20.271  42.609 -20.083  1.00  0.00     0.096 C 
BRANCH  38  39
HETATM   39  S1  UNL     1     -20.685  41.425 -18.753  1.00  0.00    -0.180 SA
HETATM   40  H22 UNL     1     -22.001  41.362 -19.017  1.00  0.00     0.101 HD
ENDBRANCH  38  39
ENDBRANCH  37  38
BRANCH  37  41
HETATM   41  C19 UNL     1     -18.587  44.196 -18.931  1.00  0.00     0.136 C 
BRANCH  41  42
HETATM   42  C20 UNL     1     -19.730  45.135 -18.696  1.00  0.00     0.141 C 
HETATM   43  O5  UNL     1     -20.617  44.988 -17.870  1.00  0.00    -0.650 OA
BRANCH  42  44
HETATM   44  O6  UNL     1     -19.714  46.212 -19.508  1.00  0.00    -0.776 OA
HETATM   45  H25 UNL     1     -20.511  46.717 -19.242  1.00  0.00     0.167 HD
ENDBRANCH  42  44
ENDBRANCH  41  42
ENDBRANCH  37  41
ENDBRANCH  35  37
ENDBRANCH  32  33
BRANCH  32  46
HETATM   46  C21 UNL     1     -19.424  45.586 -24.405  1.00  0.00     0.009 C 
HETATM   47  C22 UNL     1     -18.915  47.030 -24.395  1.00  0.00     0.012 C 
HETATM   48  C23 UNL     1     -19.581  45.101 -25.847  1.00  0.00     0.012 C 
ENDBRANCH  32  46
ENDBRANCH  30  32
ENDBRANCH  27  28
ENDBRANCH  26  27
ENDBRANCH  13  26
TORSDOF 13
ENDMDL
MODEL 9
REMARK minimizedAffinity -7.54604912
REMARK CNNscore 0.152773082
REMARK CNNaffinity 5.70386744
REMARK  13 active torsions:
REMARK  status: ('A' for Active; 'I' for Inactive)
REMARK    1  A    between atoms: C3_3  and  O1_4 
REMARK    2  A    between atoms: N1_14  and  O2_16 
REMARK    3  A    between atoms: O2_16  and  C13_17 
REMARK    4  A    between atoms: C13_17  and  C14_18 
REMARK       I    between atoms: C14_18  and  N2_20 
REMARK    5  A    between atoms: N2_20  and  C15_21 
REMARK    6  A    between atoms: C15_21  and  C16_22 
REMARK    7  A    between atoms: C15_21  and  C21_32 
REMARK       I    between atoms: C16_22  and  N3_24 
REMARK    8  A    between atoms: N3_24  and  C17_25 
REMARK    9  A    between atoms: C17_25  and  C18_26 
REMARK   10  A    between atoms: C17_25  and  C19_28 
REMARK   11  A    between atoms: C18_26  and  S1_27 
REMARK   12  A    between atoms: C19_28  and  C20_29 
REMARK   13  A    between atoms: C20_29  and  O6_31 
ROOT
HETATM    1  C1  UNL     1      -2.400  52.846 -24.305  1.00  0.00     0.015 C 
HETATM    2  C2  UNL     1      -3.100  51.868 -24.337  1.00  0.00    -0.078 C 
HETATM    3  C3  UNL     1      -3.944  50.663 -24.379  1.00  0.00     0.128 C 
HETATM    4  C4  UNL     1      -3.681  49.840 -25.637  1.00  0.00     0.052 C 
HETATM    5  C5  UNL     1      -4.338  48.489 -25.334  1.00  0.00     0.010 C 
HETATM    6  C6  UNL     1      -4.305  48.312 -23.795  1.00  0.00     0.002 C 
HETATM    7  C7  UNL     1      -5.609  47.748 -23.156  1.00  0.00    -0.004 C 
HETATM    8  C8  UNL     1      -6.941  48.139 -23.832  1.00  0.00     0.010 C 
HETATM    9  C9  UNL     1      -8.141  47.435 -23.198  1.00  0.00     0.035 C 
HETATM   10  C10 UNL     1      -8.206  47.528 -21.696  1.00  0.00    -0.069 C 
HETATM   11  C11 UNL     1      -9.404  47.675 -21.099  1.00  0.00     0.030 C 
HETATM   12  C12 UNL     1      -9.570  47.585 -19.617  1.00  0.00     0.032 C 
HETATM   13  N1  UNL     1     -10.698  47.646 -18.975  1.00  0.00    -0.271 N 
ATOM     14  H1  UNL     1     -10.777  47.599 -17.959  1.00  0.00     0.194 HD
HETATM   15  C24 UNL     1      -8.329  47.330 -18.784  1.00  0.00     0.060 C 
HETATM   16  C25 UNL     1      -7.083  47.858 -19.475  1.00  0.00     0.020 C 
HETATM   17  C26 UNL     1      -6.901  47.335 -20.929  1.00  0.00    -0.016 C 
HETATM   18  C27 UNL     1      -6.613  45.811 -20.862  1.00  0.00     0.020 C 
HETATM   19  C28 UNL     1      -5.672  48.042 -21.631  1.00  0.00     0.002 C 
HETATM   20  C29 UNL     1      -5.587  49.568 -21.442  1.00  0.00     0.007 C 
HETATM   21  C30 UNL     1      -4.225  50.099 -21.859  1.00  0.00     0.014 C 
HETATM   22  C31 UNL     1      -3.688  49.639 -23.230  1.00  0.00     0.003 C 
HETATM   23  C32 UNL     1      -2.155  49.402 -23.036  1.00  0.00     0.020 C 
ENDROOT
BRANCH   3  24
HETATM   24  O1  UNL     1      -5.313  51.067 -24.396  1.00  0.00    -0.377 OA
HETATM   25  H2  UNL     1      -5.432  51.717 -23.680  1.00  0.00     0.211 HD
ENDBRANCH   3  24
BRANCH  13  26
HETATM   26  O2  UNL     1     -11.795  47.782 -19.840  1.00  0.00    -0.271 OA
BRANCH  26  27
HETATM   27  C13 UNL     1     -12.887  47.044 -19.309  1.00  0.00     0.303 C 
BRANCH  27  28
HETATM   28  C14 UNL     1     -14.185  47.515 -19.947  1.00  0.00     0.244 C 
HETATM   29  O3  UNL     1     -14.318  48.644 -20.418  1.00  0.00    -0.271 OA
HETATM   30  N2  UNL     1     -15.182  46.552 -20.003  1.00  0.00    -0.346 N 
HETATM   31  H16 UNL     1     -14.855  45.592 -19.952  1.00  0.00     0.163 HD
BRANCH  30  32
HETATM   32  C15 UNL     1     -16.344  46.791 -20.853  1.00  0.00     0.180 C 
BRANCH  32  33
HETATM   33  C16 UNL     1     -16.120  46.056 -22.193  1.00  0.00     0.241 C 
HETATM   34  O4  UNL     1     -15.272  45.176 -22.330  1.00  0.00    -0.271 OA
HETATM   35  N3  UNL     1     -16.985  46.428 -23.197  1.00  0.00    -0.353 N 
HETATM   36  H18 UNL     1     -17.755  47.055 -22.980  1.00  0.00     0.163 HD
BRANCH  35  37
HETATM   37  C17 UNL     1     -17.004  45.774 -24.505  1.00  0.00     0.103 C 
BRANCH  37  38
HETATM   38  C18 UNL     1     -15.836  46.246 -25.396  1.00  0.00     0.096 C 
BRANCH  38  39
HETATM   39  S1  UNL     1     -14.743  44.910 -25.996  1.00  0.00    -0.180 SA
HETATM   40  H22 UNL     1     -14.039  45.668 -26.853  1.00  0.00     0.101 HD
ENDBRANCH  38  39
ENDBRANCH  37  38
BRANCH  37  41
HETATM   41  C19 UNL     1     -18.379  45.830 -25.175  1.00  0.00     0.136 C 
BRANCH  41  42
HETATM   42  C20 UNL     1     -18.585  44.815 -26.256  1.00  0.00     0.141 C 
HETATM   43  O5  UNL     1     -18.729  43.613 -26.091  1.00  0.00    -0.650 OA
BRANCH  42  44
HETATM   44  O6  UNL     1     -18.600  45.348 -27.495  1.00  0.00    -0.776 OA
HETATM   45  H25 UNL     1     -18.735  44.573 -28.081  1.00  0.00     0.167 HD
ENDBRANCH  42  44
ENDBRANCH  41  42
ENDBRANCH  37  41
ENDBRANCH  35  37
ENDBRANCH  32  33
BRANCH  32  46
HETATM   46  C21 UNL     1     -17.680  46.367 -20.202  1.00  0.00     0.009 C 
HETATM   47  C22 UNL     1     -17.566  45.136 -19.300  1.00  0.00     0.012 C 
HETATM   48  C23 UNL     1     -18.301  47.526 -19.422  1.00  0.00     0.012 C 
ENDBRANCH  32  46
ENDBRANCH  30  32
ENDBRANCH  27  28
ENDBRANCH  26  27
ENDBRANCH  13  26
TORSDOF 13
ENDMDL
