MODEL 1
REMARK minimizedAffinity -7.01743793
REMARK CNNscore 0.695733726
REMARK CNNaffinity 7.30134916
REMARK  9 active torsions:
REMARK  status: ('A' for Active; 'I' for Inactive)
REMARK    1  A    between atoms: N1_2  and  C2_3 
REMARK    2  A    between atoms: C2_3  and  C3_4 
REMARK    3  A    between atoms: C7_8  and  O1_9 
REMARK    4  A    between atoms: C13_15  and  O2_16 
REMARK    5  A    between atoms: C17_20  and  C18_21 
REMARK    6  A    between atoms: C18_21  and  C20_23 
REMARK    7  A    between atoms: C28_31  and  O3_32 
REMARK    8  A    between atoms: C31_35  and  C32_36 
REMARK    9  A    between atoms: C33_38  and  O5_39 
ROOT
HETATM    1  C3  UNL     1      -7.826  -8.447  -1.698  1.00  0.00    -0.022 C 
HETATM    2  C4  UNL     1      -8.163  -8.832  -0.441  1.00  0.00    -0.014 C 
HETATM    3  C5  UNL     1      -7.560 -10.069   0.176  1.00  0.00     0.021 C 
HETATM    4  C6  UNL     1      -7.372 -10.151   1.690  1.00  0.00     0.051 C 
HETATM    5  C7  UNL     1      -6.607 -11.488   1.809  1.00  0.00     0.098 C 
HETATM    6  C8  UNL     1      -5.522 -11.399   0.656  1.00  0.00    -0.002 C 
HETATM    7  C9  UNL     1      -5.213 -12.758   0.010  1.00  0.00     0.019 C 
HETATM    8  C10 UNL     1      -4.175 -10.805   1.175  1.00  0.00     0.013 C 
HETATM    9  C11 UNL     1      -3.708 -11.335   2.527  1.00  0.00     0.010 C 
HETATM   10  C12 UNL     1      -4.791 -11.056   3.588  1.00  0.00     0.041 C 
HETATM   11  C13 UNL     1      -6.059 -11.853   3.229  1.00  0.00     0.095 C 
HETATM   12  C14 UNL     1      -7.115 -11.786   4.349  1.00  0.00     0.049 C 
HETATM   13  C15 UNL     1      -6.911 -10.669   5.401  1.00  0.00     0.025 C 
HETATM   14  C16 UNL     1      -8.102 -10.809   6.398  1.00  0.00     0.012 C 
HETATM   15  C17 UNL     1      -8.376  -9.757   7.503  1.00  0.00    -0.010 C 
HETATM   16  C25 UNL     1      -7.109  -9.224   8.197  1.00  0.00     0.005 C 
HETATM   17  C26 UNL     1      -6.162  -8.490   7.259  1.00  0.00     0.010 C 
HETATM   18  C27 UNL     1      -5.073  -9.326   6.572  1.00  0.00     0.050 C 
HETATM   19  C28 UNL     1      -3.791  -9.413   7.437  1.00  0.00     0.125 C 
HETATM   20  C29 UNL     1      -2.714 -10.282   6.792  1.00  0.00     0.033 C 
HETATM   21  C30 UNL     1      -2.989 -10.524   5.316  1.00  0.00     0.023 C 
HETATM   22  C31 UNL     1      -4.343 -11.277   5.071  1.00  0.00     0.051 C 
HETATM   23  C33 UNL     1      -5.487 -10.740   6.058  1.00  0.00     0.082 C 
HETATM   24  C34 UNL     1      -6.133 -10.349  -0.353  1.00  0.00     0.036 C 
HETATM   25  C35 UNL     1      -6.293 -10.443  -1.835  1.00  0.00    -0.035 C 
HETATM   26  C36 UNL     1      -6.280 -11.436  -2.717  1.00  0.00     0.088 C 
HETATM   27  C37 UNL     1      -6.807 -10.878  -3.965  1.00  0.00     0.284 C 
HETATM   28  O6  UNL     1      -6.944 -11.505  -4.998  1.00  0.00    -0.260 OA
HETATM   29  O7  UNL     1      -7.162  -9.576  -3.776  1.00  0.00    -0.304 OA
HETATM   30  C38 UNL     1      -6.735  -9.169  -2.484  1.00  0.00     0.192 C 
ENDROOT
BRANCH  15  31
HETATM   31  C18 UNL     1      -9.417 -10.344   8.546  1.00  0.00    -0.011 C 
HETATM   32  C19 UNL     1     -10.310  -9.256   9.170  1.00  0.00     0.011 C 
BRANCH  31  33
HETATM   33  C20 UNL     1     -10.251 -11.514   7.953  1.00  0.00    -0.010 C 
HETATM   34  C21 UNL     1     -10.531 -12.668   8.925  1.00  0.00     0.005 C 
HETATM   35  C22 UNL     1     -11.704 -13.393   8.280  1.00  0.00     0.000 C 
HETATM   36  C23 UNL     1     -12.584 -12.259   7.780  1.00  0.00     0.000 C 
HETATM   37  C24 UNL     1     -11.628 -11.134   7.377  1.00  0.00     0.005 C 
ENDBRANCH  31  33
ENDBRANCH  15  31
BRANCH  23  38
HETATM   38  O5  UNL     1      -5.590 -11.653   7.160  1.00  0.00    -0.388 OA
HETATM   39  H52 UNL     1      -5.086 -11.302   7.927  1.00  0.00     0.210 HD
ENDBRANCH  23  38
BRANCH  11  40
HETATM   40  O2  UNL     1      -5.704 -13.253   3.163  1.00  0.00    -0.386 OA
HETATM   41  H20 UNL     1      -6.276 -13.656   2.477  1.00  0.00     0.210 HD
ENDBRANCH  11  40
BRANCH  22  42
HETATM   42  C32 UNL     1      -4.076 -12.774   5.329  1.00  0.00     0.244 C 
HETATM   43  O4  UNL     1      -4.865 -13.531   5.896  1.00  0.00    -0.306 OA
ENDBRANCH  22  42
BRANCH  19  44
HETATM   44  O3  UNL     1      -4.103  -9.982   8.707  1.00  0.00    -0.395 OA
HETATM   45  H46 UNL     1      -3.305  -9.916   9.265  1.00  0.00     0.210 HD
ENDBRANCH  19  44
BRANCH   5  46
HETATM   46  O1  UNL     1      -7.536 -12.550   1.454  1.00  0.00    -0.386 OA
HETATM   47  H11 UNL     1      -8.283 -12.546   2.072  1.00  0.00     0.210 HD
ENDBRANCH   5  46
BRANCH   1  48
HETATM   48  C2  UNL     1      -8.471  -7.303  -2.446  1.00  0.00     0.306 C 
BRANCH  48  49
HETATM   49  N1  UNL     1      -9.344  -7.734  -3.542  1.00  0.00     0.083 N 
HETATM   50  C1  UNL     1     -10.732  -7.808  -3.104  1.00  0.00     0.307 C 
HETATM   51  H4  UNL     1      -9.048  -8.659  -3.842  1.00  0.00     0.315 HD
ENDBRANCH  48  49
ENDBRANCH   1  48
TORSDOF 9
ENDMDL
MODEL 2
REMARK minimizedAffinity -8.29429913
REMARK CNNscore 0.663894594
REMARK CNNaffinity 7.4172492
REMARK  9 active torsions:
REMARK  status: ('A' for Active; 'I' for Inactive)
REMARK    1  A    between atoms: N1_2  and  C2_3 
REMARK    2  A    between atoms: C2_3  and  C3_4 
REMARK    3  A    between atoms: C7_8  and  O1_9 
REMARK    4  A    between atoms: C13_15  and  O2_16 
REMARK    5  A    between atoms: C17_20  and  C18_21 
REMARK    6  A    between atoms: C18_21  and  C20_23 
REMARK    7  A    between atoms: C28_31  and  O3_32 
REMARK    8  A    between atoms: C31_35  and  C32_36 
REMARK    9  A    between atoms: C33_38  and  O5_39 
ROOT
HETATM    1  C3  UNL     1      -8.288  -8.076  -1.505  1.00  0.00    -0.022 C 
HETATM    2  C4  UNL     1      -8.531  -8.495  -0.237  1.00  0.00    -0.014 C 
HETATM    3  C5  UNL     1      -7.900  -9.757   0.293  1.00  0.00     0.021 C 
HETATM    4  C6  UNL     1      -7.596  -9.887   1.785  1.00  0.00     0.051 C 
HETATM    5  C7  UNL     1      -6.843 -11.236   1.804  1.00  0.00     0.098 C 
HETATM    6  C8  UNL     1      -5.849 -11.124   0.574  1.00  0.00    -0.002 C 
HETATM    7  C9  UNL     1      -5.610 -12.466  -0.135  1.00  0.00     0.019 C 
HETATM    8  C10 UNL     1      -4.457 -10.561   1.004  1.00  0.00     0.013 C 
HETATM    9  C11 UNL     1      -3.895 -11.138   2.299  1.00  0.00     0.010 C 
HETATM   10  C12 UNL     1      -4.888 -10.879   3.448  1.00  0.00     0.041 C 
HETATM   11  C13 UNL     1      -6.191 -11.650   3.166  1.00  0.00     0.095 C 
HETATM   12  C14 UNL     1      -7.156 -11.606   4.367  1.00  0.00     0.049 C 
HETATM   13  C15 UNL     1      -6.856 -10.524   5.432  1.00  0.00     0.025 C 
HETATM   14  C16 UNL     1      -7.968 -10.681   6.514  1.00  0.00     0.012 C 
HETATM   15  C17 UNL     1      -8.141  -9.660   7.668  1.00  0.00    -0.010 C 
HETATM   16  C25 UNL     1      -6.816  -9.163   8.276  1.00  0.00     0.005 C 
HETATM   17  C26 UNL     1      -5.935  -8.411   7.290  1.00  0.00     0.010 C 
HETATM   18  C27 UNL     1      -4.914  -9.238   6.496  1.00  0.00     0.050 C 
HETATM   19  C28 UNL     1      -3.570  -9.366   7.255  1.00  0.00     0.125 C 
HETATM   20  C29 UNL     1      -2.559 -10.227   6.503  1.00  0.00     0.033 C 
HETATM   21  C30 UNL     1      -2.950 -10.420   5.046  1.00  0.00     0.023 C 
HETATM   22  C31 UNL     1      -4.330 -11.150   4.885  1.00  0.00     0.051 C 
HETATM   23  C33 UNL     1      -5.387 -10.631   5.974  1.00  0.00     0.082 C 
HETATM   24  C34 UNL     1      -6.522 -10.037  -0.353  1.00  0.00     0.036 C 
HETATM   25  C35 UNL     1      -6.798 -10.083  -1.820  1.00  0.00    -0.035 C 
HETATM   26  C36 UNL     1      -6.866 -11.049  -2.730  1.00  0.00     0.088 C 
HETATM   27  C37 UNL     1      -7.481 -10.448  -3.916  1.00  0.00     0.284 C 
HETATM   28  O6  UNL     1      -7.706 -11.041  -4.953  1.00  0.00    -0.260 OA
HETATM   29  O7  UNL     1      -7.802  -9.148  -3.661  1.00  0.00    -0.304 OA
HETATM   30  C38 UNL     1      -7.271  -8.786  -2.394  1.00  0.00     0.192 C 
ENDROOT
BRANCH  15  31
HETATM   31  C18 UNL     1      -9.106 -10.268   8.771  1.00  0.00    -0.011 C 
HETATM   32  C19 UNL     1      -9.769 -11.582   8.319  1.00  0.00     0.011 C 
BRANCH  31  33
HETATM   33  C20 UNL     1      -8.409 -10.410  10.152  1.00  0.00    -0.010 C 
HETATM   34  C21 UNL     1      -6.931 -10.820  10.093  1.00  0.00     0.005 C 
HETATM   35  C22 UNL     1      -6.403 -10.427  11.465  1.00  0.00     0.000 C 
HETATM   36  C23 UNL     1      -7.067  -9.085  11.725  1.00  0.00     0.000 C 
HETATM   37  C24 UNL     1      -8.441  -9.161  11.053  1.00  0.00     0.005 C 
ENDBRANCH  31  33
ENDBRANCH  15  31
BRANCH  23  38
HETATM   38  O5  UNL     1      -5.416 -11.576   7.053  1.00  0.00    -0.388 OA
HETATM   39  H52 UNL     1      -4.849 -11.255   7.789  1.00  0.00     0.210 HD
ENDBRANCH  23  38
BRANCH  11  40
HETATM   40  O2  UNL     1      -5.861 -13.052   3.031  1.00  0.00    -0.386 OA
HETATM   41  H20 UNL     1      -6.491 -13.427   2.380  1.00  0.00     0.210 HD
ENDBRANCH  11  40
BRANCH  22  42
HETATM   42  C32 UNL     1      -4.064 -12.658   5.077  1.00  0.00     0.244 C 
HETATM   43  O4  UNL     1      -3.328 -13.127   5.946  1.00  0.00    -0.306 OA
ENDBRANCH  22  42
BRANCH  19  44
HETATM   44  O3  UNL     1      -3.791  -9.970   8.528  1.00  0.00    -0.395 OA
HETATM   45  H46 UNL     1      -2.951  -9.931   9.024  1.00  0.00     0.210 HD
ENDBRANCH  19  44
BRANCH   5  46
HETATM   46  O1  UNL     1      -7.810 -12.276   1.492  1.00  0.00    -0.386 OA
HETATM   47  H11 UNL     1      -8.507 -12.282   2.166  1.00  0.00     0.210 HD
ENDBRANCH   5  46
BRANCH   1  48
HETATM   48  C2  UNL     1      -8.973  -6.902  -2.167  1.00  0.00     0.306 C 
BRANCH  48  49
HETATM   49  N1  UNL     1      -8.208  -6.322  -3.274  1.00  0.00     0.083 N 
HETATM   50  C1  UNL     1      -9.097  -5.799  -4.304  1.00  0.00     0.307 C 
HETATM   51  H4  UNL     1      -7.632  -7.052  -3.682  1.00  0.00     0.315 HD
ENDBRANCH  48  49
ENDBRANCH   1  48
TORSDOF 9
ENDMDL
MODEL 3
REMARK minimizedAffinity -8.31913185
REMARK CNNscore 0.566985428
REMARK CNNaffinity 6.53711462
REMARK  9 active torsions:
REMARK  status: ('A' for Active; 'I' for Inactive)
REMARK    1  A    between atoms: N1_2  and  C2_3 
REMARK    2  A    between atoms: C2_3  and  C3_4 
REMARK    3  A    between atoms: C7_8  and  O1_9 
REMARK    4  A    between atoms: C13_15  and  O2_16 
REMARK    5  A    between atoms: C17_20  and  C18_21 
REMARK    6  A    between atoms: C18_21  and  C20_23 
REMARK    7  A    between atoms: C28_31  and  O3_32 
REMARK    8  A    between atoms: C31_35  and  C32_36 
REMARK    9  A    between atoms: C33_38  and  O5_39 
ROOT
HETATM    1  C3  UNL     1      -7.269  -9.335   8.598  1.00  0.00    -0.022 C 
HETATM    2  C4  UNL     1      -7.143  -9.138   7.261  1.00  0.00    -0.014 C 
HETATM    3  C5  UNL     1      -5.927  -9.632   6.519  1.00  0.00     0.021 C 
HETATM    4  C6  UNL     1      -6.043 -10.033   5.049  1.00  0.00     0.051 C 
HETATM    5  C7  UNL     1      -4.626 -10.594   4.795  1.00  0.00     0.098 C 
HETATM    6  C8  UNL     1      -4.349 -11.492   6.072  1.00  0.00    -0.002 C 
HETATM    7  C9  UNL     1      -2.875 -11.489   6.506  1.00  0.00     0.019 C 
HETATM    8  C10 UNL     1      -4.769 -12.978   5.836  1.00  0.00     0.013 C 
HETATM    9  C11 UNL     1      -4.375 -13.557   4.481  1.00  0.00     0.010 C 
HETATM   10  C12 UNL     1      -4.996 -12.703   3.359  1.00  0.00     0.041 C 
HETATM   11  C13 UNL     1      -4.389 -11.289   3.414  1.00  0.00     0.095 C 
HETATM   12  C14 UNL     1      -4.808 -10.437   2.199  1.00  0.00     0.049 C 
HETATM   13  C15 UNL     1      -6.018 -10.966   1.391  1.00  0.00     0.025 C 
HETATM   14  C16 UNL     1      -6.240  -9.933   0.244  1.00  0.00     0.012 C 
HETATM   15  C17 UNL     1      -7.478  -9.993  -0.686  1.00  0.00    -0.010 C 
HETATM   16  C25 UNL     1      -7.880 -11.417  -1.114  1.00  0.00     0.005 C 
HETATM   17  C26 UNL     1      -8.287 -12.311   0.048  1.00  0.00     0.010 C 
HETATM   18  C27 UNL     1      -7.179 -13.144   0.709  1.00  0.00     0.050 C 
HETATM   19  C28 UNL     1      -7.000 -14.513   0.009  1.00  0.00     0.125 C 
HETATM   20  C29 UNL     1      -5.869 -15.335   0.621  1.00  0.00     0.033 C 
HETATM   21  C30 UNL     1      -5.459 -14.806   1.988  1.00  0.00     0.023 C 
HETATM   22  C31 UNL     1      -4.927 -13.331   1.927  1.00  0.00     0.051 C 
HETATM   23  C33 UNL     1      -5.798 -12.445   0.914  1.00  0.00     0.082 C 
HETATM   24  C34 UNL     1      -5.325 -10.903   7.164  1.00  0.00     0.036 C 
HETATM   25  C35 UNL     1      -5.038 -10.507   8.576  1.00  0.00    -0.035 C 
HETATM   26  C36 UNL     1      -3.937 -10.236   9.267  1.00  0.00     0.088 C 
HETATM   27  C37 UNL     1      -4.383  -9.617  10.517  1.00  0.00     0.284 C 
HETATM   28  O6  UNL     1      -3.642  -9.231  11.400  1.00  0.00    -0.260 OA
HETATM   29  O7  UNL     1      -5.741  -9.497  10.514  1.00  0.00    -0.304 OA
HETATM   30  C38 UNL     1      -6.257 -10.172   9.376  1.00  0.00     0.192 C 
ENDROOT
BRANCH  15  31
HETATM   31  C18 UNL     1      -7.246  -9.044  -1.937  1.00  0.00    -0.011 C 
HETATM   32  C19 UNL     1      -7.028  -9.829  -3.244  1.00  0.00     0.011 C 
BRANCH  31  33
HETATM   33  C20 UNL     1      -8.362  -7.972  -2.079  1.00  0.00    -0.010 C 
HETATM   34  C21 UNL     1      -8.094  -6.896  -3.141  1.00  0.00     0.005 C 
HETATM   35  C22 UNL     1      -9.473  -6.306  -3.397  1.00  0.00     0.000 C 
HETATM   36  C23 UNL     1     -10.380  -7.525  -3.402  1.00  0.00     0.000 C 
HETATM   37  C24 UNL     1      -9.771  -8.505  -2.397  1.00  0.00     0.005 C 
ENDBRANCH  31  33
ENDBRANCH  15  31
BRANCH  23  38
HETATM   38  O5  UNL     1      -5.094 -12.373  -0.334  1.00  0.00    -0.388 OA
HETATM   39  H52 UNL     1      -5.463 -13.035  -0.960  1.00  0.00     0.210 HD
ENDBRANCH  23  38
BRANCH  11  40
HETATM   40  O2  UNL     1      -2.954 -11.412   3.278  1.00  0.00    -0.386 OA
HETATM   41  H20 UNL     1      -2.559 -10.688   3.807  1.00  0.00     0.210 HD
ENDBRANCH  11  40
BRANCH  22  42
HETATM   42  C32 UNL     1      -3.462 -13.403   1.449  1.00  0.00     0.244 C 
HETATM   43  O4  UNL     1      -2.925 -12.556   0.735  1.00  0.00    -0.306 OA
ENDBRANCH  22  42
BRANCH  19  44
HETATM   44  O3  UNL     1      -6.693 -14.314  -1.370  1.00  0.00    -0.395 OA
HETATM   45  H46 UNL     1      -6.701 -15.188  -1.804  1.00  0.00     0.210 HD
ENDBRANCH  19  44
BRANCH   5  46
HETATM   46  O1  UNL     1      -3.702  -9.471   4.842  1.00  0.00    -0.386 OA
HETATM   47  H11 UNL     1      -3.930  -8.836   4.146  1.00  0.00     0.210 HD
ENDBRANCH   5  46
BRANCH   1  48
HETATM   48  C2  UNL     1      -8.382  -8.766   9.448  1.00  0.00     0.306 C 
BRANCH  48  49
HETATM   49  N1  UNL     1      -9.201  -7.769   8.754  1.00  0.00     0.083 N 
HETATM   50  C1  UNL     1     -10.525  -8.300   8.452  1.00  0.00     0.307 C 
HETATM   51  H4  UNL     1      -8.741  -7.528   7.881  1.00  0.00     0.315 HD
ENDBRANCH  48  49
ENDBRANCH   1  48
TORSDOF 9
ENDMDL
MODEL 4
REMARK minimizedAffinity -7.41193151
REMARK CNNscore 0.492355257
REMARK CNNaffinity 6.43166876
REMARK  9 active torsions:
REMARK  status: ('A' for Active; 'I' for Inactive)
REMARK    1  A    between atoms: N1_2  and  C2_3 
REMARK    2  A    between atoms: C2_3  and  C3_4 
REMARK    3  A    between atoms: C7_8  and  O1_9 
REMARK    4  A    between atoms: C13_15  and  O2_16 
REMARK    5  A    between atoms: C17_20  and  C18_21 
REMARK    6  A    between atoms: C18_21  and  C20_23 
REMARK    7  A    between atoms: C28_31  and  O3_32 
REMARK    8  A    between atoms: C31_35  and  C32_36 
REMARK    9  A    between atoms: C33_38  and  O5_39 
ROOT
HETATM    1  C3  UNL     1     -10.065  12.340  22.125  1.00  0.00    -0.022 C 
HETATM    2  C4  UNL     1     -10.339  11.089  22.573  1.00  0.00    -0.014 C 
HETATM    3  C5  UNL     1     -11.399  10.859  23.621  1.00  0.00     0.021 C 
HETATM    4  C6  UNL     1     -12.172   9.541  23.645  1.00  0.00     0.051 C 
HETATM    5  C7  UNL     1     -13.206   9.840  24.753  1.00  0.00     0.098 C 
HETATM    6  C8  UNL     1     -13.708  11.303  24.407  1.00  0.00    -0.002 C 
HETATM    7  C9  UNL     1     -14.044  12.138  25.653  1.00  0.00     0.019 C 
HETATM    8  C10 UNL     1     -14.977  11.279  23.497  1.00  0.00     0.013 C 
HETATM    9  C11 UNL     1     -16.039  10.256  23.890  1.00  0.00     0.010 C 
HETATM   10  C12 UNL     1     -15.419   8.845  23.878  1.00  0.00     0.041 C 
HETATM   11  C13 UNL     1     -14.329   8.770  24.964  1.00  0.00     0.095 C 
HETATM   12  C14 UNL     1     -13.804   7.333  25.152  1.00  0.00     0.049 C 
HETATM   13  C15 UNL     1     -14.139   6.340  24.013  1.00  0.00     0.025 C 
HETATM   14  C16 UNL     1     -13.493   4.985  24.436  1.00  0.00     0.012 C 
HETATM   15  C17 UNL     1     -13.436   3.768  23.476  1.00  0.00    -0.010 C 
HETATM   16  C25 UNL     1     -14.715   3.558  22.644  1.00  0.00     0.005 C 
HETATM   17  C26 UNL     1     -15.030   4.714  21.706  1.00  0.00     0.010 C 
HETATM   18  C27 UNL     1     -15.928   5.832  22.253  1.00  0.00     0.050 C 
HETATM   19  C28 UNL     1     -17.427   5.526  22.018  1.00  0.00     0.125 C 
HETATM   20  C29 UNL     1     -18.338   6.603  22.600  1.00  0.00     0.033 C 
HETATM   21  C30 UNL     1     -17.576   7.883  22.910  1.00  0.00     0.023 C 
HETATM   22  C31 UNL     1     -16.443   7.666  23.974  1.00  0.00     0.051 C 
HETATM   23  C33 UNL     1     -15.681   6.277  23.729  1.00  0.00     0.082 C 
HETATM   24  C34 UNL     1     -12.533  11.909  23.545  1.00  0.00     0.036 C 
HETATM   25  C35 UNL     1     -11.837  13.223  23.684  1.00  0.00    -0.035 C 
HETATM   26  C36 UNL     1     -11.734  14.131  24.648  1.00  0.00     0.088 C 
HETATM   27  C37 UNL     1     -10.653  15.033  24.245  1.00  0.00     0.284 C 
HETATM   28  O6  UNL     1     -10.273  15.990  24.892  1.00  0.00    -0.260 OA
HETATM   29  O7  UNL     1     -10.111  14.608  23.069  1.00  0.00    -0.304 OA
HETATM   30  C38 UNL     1     -10.900  13.541  22.562  1.00  0.00     0.192 C 
ENDROOT
BRANCH  15  31
HETATM   31  C18 UNL     1     -13.044   2.467  24.295  1.00  0.00    -0.011 C 
HETATM   32  C19 UNL     1     -11.558   2.092  24.137  1.00  0.00     0.011 C 
BRANCH  31  33
HETATM   33  C20 UNL     1     -13.467   2.559  25.788  1.00  0.00    -0.010 C 
HETATM   34  C21 UNL     1     -14.742   1.784  26.148  1.00  0.00     0.005 C 
HETATM   35  C22 UNL     1     -14.652   1.647  27.661  1.00  0.00     0.000 C 
HETATM   36  C23 UNL     1     -13.184   1.339  27.899  1.00  0.00     0.000 C 
HETATM   37  C24 UNL     1     -12.416   2.098  26.814  1.00  0.00     0.005 C 
ENDBRANCH  31  33
ENDBRANCH  15  31
BRANCH  23  38
HETATM   38  O5  UNL     1     -16.224   5.304  24.632  1.00  0.00    -0.388 OA
HETATM   39  H52 UNL     1     -16.892   4.755  24.164  1.00  0.00     0.210 HD
ENDBRANCH  23  38
BRANCH  11  40
HETATM   40  O2  UNL     1     -14.941   9.090  26.235  1.00  0.00    -0.386 OA
HETATM   41  H20 UNL     1     -14.255   9.543  26.770  1.00  0.00     0.210 HD
ENDBRANCH  11  40
BRANCH  22  42
HETATM   42  C32 UNL     1     -17.123   7.664  25.359  1.00  0.00     0.244 C 
HETATM   43  O4  UNL     1     -18.013   8.446  25.695  1.00  0.00    -0.306 OA
ENDBRANCH  22  42
BRANCH  19  44
HETATM   44  O3  UNL     1     -17.770   4.288  22.638  1.00  0.00    -0.395 OA
HETATM   45  H46 UNL     1     -18.684   4.069  22.376  1.00  0.00     0.210 HD
ENDBRANCH  19  44
BRANCH   5  46
HETATM   46  O1  UNL     1     -12.482   9.912  26.013  1.00  0.00    -0.386 OA
HETATM   47  H11 UNL     1     -12.053   9.061  26.189  1.00  0.00     0.210 HD
ENDBRANCH   5  46
BRANCH   1  48
HETATM   48  C2  UNL     1      -8.938  12.685  21.178  1.00  0.00     0.306 C 
BRANCH  48  49
HETATM   49  N1  UNL     1      -7.722  13.147  21.854  1.00  0.00     0.083 N 
HETATM   50  C1  UNL     1      -6.783  13.724  20.899  1.00  0.00     0.307 C 
HETATM   51  H4  UNL     1      -7.281  12.348  22.301  1.00  0.00     0.315 HD
ENDBRANCH  48  49
ENDBRANCH   1  48
TORSDOF 9
ENDMDL
MODEL 5
REMARK minimizedAffinity -8.19971561
REMARK CNNscore 0.454345644
REMARK CNNaffinity 6.47606897
REMARK  9 active torsions:
REMARK  status: ('A' for Active; 'I' for Inactive)
REMARK    1  A    between atoms: N1_2  and  C2_3 
REMARK    2  A    between atoms: C2_3  and  C3_4 
REMARK    3  A    between atoms: C7_8  and  O1_9 
REMARK    4  A    between atoms: C13_15  and  O2_16 
REMARK    5  A    between atoms: C17_20  and  C18_21 
REMARK    6  A    between atoms: C18_21  and  C20_23 
REMARK    7  A    between atoms: C28_31  and  O3_32 
REMARK    8  A    between atoms: C31_35  and  C32_36 
REMARK    9  A    between atoms: C33_38  and  O5_39 
ROOT
HETATM    1  C3  UNL     1      -5.091  15.972  18.002  1.00  0.00    -0.022 C 
HETATM    2  C4  UNL     1      -4.170  15.229  18.666  1.00  0.00    -0.014 C 
HETATM    3  C5  UNL     1      -3.932  13.785  18.300  1.00  0.00     0.021 C 
HETATM    4  C6  UNL     1      -2.551  13.165  18.509  1.00  0.00     0.051 C 
HETATM    5  C7  UNL     1      -2.763  11.777  17.864  1.00  0.00     0.098 C 
HETATM    6  C8  UNL     1      -3.532  12.108  16.517  1.00  0.00    -0.002 C 
HETATM    7  C9  UNL     1      -4.545  11.024  16.117  1.00  0.00     0.019 C 
HETATM    8  C10 UNL     1      -2.546  12.300  15.321  1.00  0.00     0.013 C 
HETATM    9  C11 UNL     1      -1.415  11.280  15.241  1.00  0.00     0.010 C 
HETATM   10  C12 UNL     1      -0.594  11.322  16.545  1.00  0.00     0.041 C 
HETATM   11  C13 UNL     1      -1.492  10.877  17.714  1.00  0.00     0.095 C 
HETATM   12  C14 UNL     1      -0.688  10.698  19.018  1.00  0.00     0.049 C 
HETATM   13  C15 UNL     1       0.716  11.349  19.037  1.00  0.00     0.025 C 
HETATM   14  C16 UNL     1       1.302  11.038  20.449  1.00  0.00     0.012 C 
HETATM   15  C17 UNL     1       2.625  11.674  20.947  1.00  0.00    -0.010 C 
HETATM   16  C25 UNL     1       3.728  11.760  19.876  1.00  0.00     0.005 C 
HETATM   17  C26 UNL     1       3.359  12.635  18.688  1.00  0.00     0.010 C 
HETATM   18  C27 UNL     1       2.674  11.946  17.500  1.00  0.00     0.050 C 
HETATM   19  C28 UNL     1       3.708  11.394  16.487  1.00  0.00     0.125 C 
HETATM   20  C29 UNL     1       3.046  10.662  15.323  1.00  0.00     0.033 C 
HETATM   21  C30 UNL     1       1.562  10.980  15.222  1.00  0.00     0.023 C 
HETATM   22  C31 UNL     1       0.765  10.548  16.502  1.00  0.00     0.051 C 
HETATM   23  C33 UNL     1       1.600  10.864  17.835  1.00  0.00     0.082 C 
HETATM   24  C34 UNL     1      -4.195  13.513  16.800  1.00  0.00     0.036 C 
HETATM   25  C35 UNL     1      -5.605  13.955  16.580  1.00  0.00    -0.035 C 
HETATM   26  C36 UNL     1      -6.762  13.333  16.387  1.00  0.00     0.088 C 
HETATM   27  C37 UNL     1      -7.803  14.351  16.551  1.00  0.00     0.284 C 
HETATM   28  O6  UNL     1      -8.997  14.141  16.448  1.00  0.00    -0.260 OA
HETATM   29  O7  UNL     1      -7.235  15.544  16.882  1.00  0.00    -0.304 OA
HETATM   30  C38 UNL     1      -5.823  15.422  16.781  1.00  0.00     0.192 C 
ENDROOT
BRANCH  15  31
HETATM   31  C18 UNL     1       3.121  10.912  22.247  1.00  0.00    -0.011 C 
HETATM   32  C19 UNL     1       3.589   9.475  21.950  1.00  0.00     0.011 C 
BRANCH  31  33
HETATM   33  C20 UNL     1       4.188  11.722  23.035  1.00  0.00    -0.010 C 
HETATM   34  C21 UNL     1       5.632  11.537  22.548  1.00  0.00     0.005 C 
HETATM   35  C22 UNL     1       6.355  12.742  23.132  1.00  0.00     0.000 C 
HETATM   36  C23 UNL     1       5.363  13.875  22.936  1.00  0.00     0.000 C 
HETATM   37  C24 UNL     1       3.975  13.246  23.083  1.00  0.00     0.005 C 
ENDBRANCH  31  33
ENDBRANCH  15  31
BRANCH  23  38
HETATM   38  O5  UNL     1       2.239   9.652  18.259  1.00  0.00    -0.388 OA
HETATM   39  H52 UNL     1       3.173   9.646  17.951  1.00  0.00     0.210 HD
ENDBRANCH  23  38
BRANCH  11  40
HETATM   40  O2  UNL     1      -1.984   9.550  17.420  1.00  0.00    -0.386 OA
HETATM   41  H20 UNL     1      -2.879   9.488  17.816  1.00  0.00     0.210 HD
ENDBRANCH  11  40
BRANCH  22  42
HETATM   42  C32 UNL     1       0.509   9.032  16.380  1.00  0.00     0.244 C 
HETATM   43  O4  UNL     1       1.333   8.165  16.673  1.00  0.00    -0.306 OA
ENDBRANCH  22  42
BRANCH  19  44
HETATM   44  O3  UNL     1       4.579  10.473  17.140  1.00  0.00    -0.395 OA
HETATM   45  H46 UNL     1       5.283  10.234  16.509  1.00  0.00     0.210 HD
ENDBRANCH  19  44
BRANCH   5  46
HETATM   46  O1  UNL     1      -3.678  11.038  18.719  1.00  0.00    -0.386 OA
HETATM   47  H11 UNL     1      -3.284  10.931  19.599  1.00  0.00     0.210 HD
ENDBRANCH   5  46
BRANCH   1  48
HETATM   48  C2  UNL     1      -5.492  17.379  18.379  1.00  0.00     0.306 C 
BRANCH  48  49
HETATM   49  N1  UNL     1      -6.028  18.159  17.260  1.00  0.00     0.083 N 
HETATM   50  C1  UNL     1      -7.054  19.089  17.717  1.00  0.00     0.307 C 
HETATM   51  H4  UNL     1      -6.447  17.515  16.594  1.00  0.00     0.315 HD
ENDBRANCH  48  49
ENDBRANCH   1  48
TORSDOF 9
ENDMDL
MODEL 6
REMARK minimizedAffinity -7.5346818
REMARK CNNscore 0.434539586
REMARK CNNaffinity 6.40605497
REMARK  9 active torsions:
REMARK  status: ('A' for Active; 'I' for Inactive)
REMARK    1  A    between atoms: N1_2  and  C2_3 
REMARK    2  A    between atoms: C2_3  and  C3_4 
REMARK    3  A    between atoms: C7_8  and  O1_9 
REMARK    4  A    between atoms: C13_15  and  O2_16 
REMARK    5  A    between atoms: C17_20  and  C18_21 
REMARK    6  A    between atoms: C18_21  and  C20_23 
REMARK    7  A    between atoms: C28_31  and  O3_32 
REMARK    8  A    between atoms: C31_35  and  C32_36 
REMARK    9  A    between atoms: C33_38  and  O5_39 
ROOT
HETATM    1  C3  UNL     1      -6.678  -9.806  11.236  1.00  0.00    -0.022 C 
HETATM    2  C4  UNL     1      -7.845  -9.317  10.747  1.00  0.00    -0.014 C 
HETATM    3  C5  UNL     1      -9.167  -9.739  11.338  1.00  0.00     0.021 C 
HETATM    4  C6  UNL     1     -10.356  -8.779  11.308  1.00  0.00     0.051 C 
HETATM    5  C7  UNL     1     -11.386  -9.578  12.138  1.00  0.00     0.098 C 
HETATM    6  C8  UNL     1     -10.540 -10.106  13.370  1.00  0.00    -0.002 C 
HETATM    7  C9  UNL     1     -10.989 -11.490  13.863  1.00  0.00     0.019 C 
HETATM    8  C10 UNL     1     -10.612  -9.125  14.584  1.00  0.00     0.013 C 
HETATM    9  C11 UNL     1     -11.998  -8.563  14.883  1.00  0.00     0.010 C 
HETATM   10  C12 UNL     1     -12.529  -7.822  13.641  1.00  0.00     0.041 C 
HETATM   11  C13 UNL     1     -12.716  -8.836  12.497  1.00  0.00     0.095 C 
HETATM   12  C14 UNL     1     -13.436  -8.209  11.287  1.00  0.00     0.049 C 
HETATM   13  C15 UNL     1     -13.480  -6.662  11.258  1.00  0.00     0.025 C 
HETATM   14  C16 UNL     1     -14.239  -6.290   9.946  1.00  0.00     0.012 C 
HETATM   15  C17 UNL     1     -14.337  -4.827   9.443  1.00  0.00    -0.010 C 
HETATM   16  C25 UNL     1     -14.574  -3.789  10.555  1.00  0.00     0.005 C 
HETATM   17  C26 UNL     1     -13.448  -3.719  11.576  1.00  0.00     0.010 C 
HETATM   18  C27 UNL     1     -13.566  -4.626  12.808  1.00  0.00     0.050 C 
HETATM   19  C28 UNL     1     -14.346  -3.934  13.953  1.00  0.00     0.125 C 
HETATM   20  C29 UNL     1     -14.516  -4.839  15.170  1.00  0.00     0.033 C 
HETATM   21  C30 UNL     1     -13.567  -6.027  15.131  1.00  0.00     0.023 C 
HETATM   22  C31 UNL     1     -13.803  -6.947  13.882  1.00  0.00     0.051 C 
HETATM   23  C33 UNL     1     -14.105  -6.073  12.572  1.00  0.00     0.082 C 
HETATM   24  C34 UNL     1      -9.052 -10.081  12.843  1.00  0.00     0.036 C 
HETATM   25  C35 UNL     1      -8.006 -11.145  12.907  1.00  0.00    -0.035 C 
HETATM   26  C36 UNL     1      -8.017 -12.457  13.117  1.00  0.00     0.088 C 
HETATM   27  C37 UNL     1      -6.687 -12.940  12.741  1.00  0.00     0.284 C 
HETATM   28  O6  UNL     1      -6.332 -14.102  12.800  1.00  0.00    -0.260 OA
HETATM   29  O7  UNL     1      -5.935 -11.905  12.273  1.00  0.00    -0.304 OA
HETATM   30  C38 UNL     1      -6.646 -10.693  12.478  1.00  0.00     0.192 C 
ENDROOT
BRANCH  15  31
HETATM   31  C18 UNL     1     -15.437  -4.733   8.303  1.00  0.00    -0.011 C 
HETATM   32  C19 UNL     1     -14.832  -4.441   6.917  1.00  0.00     0.011 C 
BRANCH  31  33
HETATM   33  C20 UNL     1     -16.372  -5.974   8.282  1.00  0.00    -0.010 C 
HETATM   34  C21 UNL     1     -17.714  -5.786   9.003  1.00  0.00     0.005 C 
HETATM   35  C22 UNL     1     -18.575  -6.907   8.438  1.00  0.00     0.000 C 
HETATM   36  C23 UNL     1     -18.216  -6.914   6.961  1.00  0.00     0.000 C 
HETATM   37  C24 UNL     1     -16.740  -6.514   6.887  1.00  0.00     0.005 C 
ENDBRANCH  31  33
ENDBRANCH  15  31
BRANCH  23  38
HETATM   38  O5  UNL     1     -15.525  -6.041  12.372  1.00  0.00    -0.388 OA
HETATM   39  H52 UNL     1     -15.891  -5.204  12.734  1.00  0.00     0.210 HD
ENDBRANCH  23  38
BRANCH  11  40
HETATM   40  O2  UNL     1     -13.626  -9.863  12.954  1.00  0.00    -0.386 OA
HETATM   41  H20 UNL     1     -13.351 -10.696  12.517  1.00  0.00     0.210 HD
ENDBRANCH  11  40
BRANCH  22  42
HETATM   42  C32 UNL     1     -15.012  -7.847  14.211  1.00  0.00     0.244 C 
HETATM   43  O4  UNL     1     -16.092  -7.430  14.632  1.00  0.00    -0.306 OA
ENDBRANCH  22  42
BRANCH  19  44
HETATM   44  O3  UNL     1     -15.648  -3.569  13.499  1.00  0.00    -0.395 OA
HETATM   45  H46 UNL     1     -16.067  -3.036  14.201  1.00  0.00     0.210 HD
ENDBRANCH  19  44
BRANCH   5  46
HETATM   46  O1  UNL     1     -11.775 -10.734  11.347  1.00  0.00    -0.386 OA
HETATM   47  H11 UNL     1     -12.182 -10.438  10.519  1.00  0.00     0.210 HD
ENDBRANCH   5  46
BRANCH   1  48
HETATM   48  C2  UNL     1      -5.318  -9.545  10.630  1.00  0.00     0.306 C 
BRANCH  48  49
HETATM   49  N1  UNL     1      -4.300  -9.161  11.612  1.00  0.00     0.083 N 
HETATM   50  C1  UNL     1      -2.971  -9.161  11.012  1.00  0.00     0.307 C 
HETATM   51  H4  UNL     1      -4.314  -9.839  12.369  1.00  0.00     0.315 HD
ENDBRANCH  48  49
ENDBRANCH   1  48
TORSDOF 9
ENDMDL
MODEL 7
REMARK minimizedAffinity -7.70171261
REMARK CNNscore 0.420222789
REMARK CNNaffinity 6.65538788
REMARK  9 active torsions:
REMARK  status: ('A' for Active; 'I' for Inactive)
REMARK    1  A    between atoms: N1_2  and  C2_3 
REMARK    2  A    between atoms: C2_3  and  C3_4 
REMARK    3  A    between atoms: C7_8  and  O1_9 
REMARK    4  A    between atoms: C13_15  and  O2_16 
REMARK    5  A    between atoms: C17_20  and  C18_21 
REMARK    6  A    between atoms: C18_21  and  C20_23 
REMARK    7  A    between atoms: C28_31  and  O3_32 
REMARK    8  A    between atoms: C31_35  and  C32_36 
REMARK    9  A    between atoms: C33_38  and  O5_39 
ROOT
HETATM    1  C3  UNL     1      -0.402   5.894  12.003  1.00  0.00    -0.022 C 
HETATM    2  C4  UNL     1      -0.526   7.245  12.045  1.00  0.00    -0.014 C 
HETATM    3  C5  UNL     1      -1.627   7.895  12.845  1.00  0.00     0.021 C 
HETATM    4  C6  UNL     1      -1.412   9.281  13.450  1.00  0.00     0.051 C 
HETATM    5  C7  UNL     1      -2.712   9.437  14.270  1.00  0.00     0.098 C 
HETATM    6  C8  UNL     1      -2.869   8.031  14.986  1.00  0.00    -0.002 C 
HETATM    7  C9  UNL     1      -4.335   7.600  15.157  1.00  0.00     0.019 C 
HETATM    8  C10 UNL     1      -2.207   8.026  16.401  1.00  0.00     0.013 C 
HETATM    9  C11 UNL     1      -2.468   9.269  17.246  1.00  0.00     0.010 C 
HETATM   10  C12 UNL     1      -1.968  10.515  16.492  1.00  0.00     0.041 C 
HETATM   11  C13 UNL     1      -2.798  10.688  15.206  1.00  0.00     0.095 C 
HETATM   12  C14 UNL     1      -2.495  12.026  14.502  1.00  0.00     0.049 C 
HETATM   13  C15 UNL     1      -1.196  12.740  14.947  1.00  0.00     0.025 C 
HETATM   14  C16 UNL     1      -1.117  14.039  14.087  1.00  0.00     0.012 C 
HETATM   15  C17 UNL     1       0.137  14.951  14.090  1.00  0.00    -0.010 C 
HETATM   16  C25 UNL     1       0.775  15.144  15.478  1.00  0.00     0.005 C 
HETATM   17  C26 UNL     1       1.294  13.854  16.096  1.00  0.00     0.010 C 
HETATM   18  C27 UNL     1       0.321  13.065  16.984  1.00  0.00     0.050 C 
HETATM   19  C28 UNL     1       0.385  13.534  18.458  1.00  0.00     0.125 C 
HETATM   20  C29 UNL     1      -0.612  12.794  19.346  1.00  0.00     0.033 C 
HETATM   21  C30 UNL     1      -1.135  11.530  18.681  1.00  0.00     0.023 C 
HETATM   22  C31 UNL     1      -1.899  11.826  17.343  1.00  0.00     0.051 C 
HETATM   23  C33 UNL     1      -1.160  12.972  16.499  1.00  0.00     0.082 C 
HETATM   24  C34 UNL     1      -2.029   7.051  14.078  1.00  0.00     0.036 C 
HETATM   25  C35 UNL     1      -2.411   5.721  13.515  1.00  0.00    -0.035 C 
HETATM   26  C36 UNL     1      -3.558   5.080  13.322  1.00  0.00     0.088 C 
HETATM   27  C37 UNL     1      -3.249   3.948  12.446  1.00  0.00     0.284 C 
HETATM   28  O6  UNL     1      -4.064   3.137  12.052  1.00  0.00    -0.260 OA
HETATM   29  O7  UNL     1      -1.929   3.973  12.106  1.00  0.00    -0.304 OA
HETATM   30  C38 UNL     1      -1.283   4.989  12.860  1.00  0.00     0.192 C 
ENDROOT
BRANCH  15  31
HETATM   31  C18 UNL     1      -0.216  16.337  13.405  1.00  0.00    -0.011 C 
HETATM   32  C19 UNL     1       0.516  17.525  14.057  1.00  0.00     0.011 C 
BRANCH  31  33
HETATM   33  C20 UNL     1      -0.016  16.303  11.864  1.00  0.00    -0.010 C 
HETATM   34  C21 UNL     1      -0.010  17.677  11.181  1.00  0.00     0.005 C 
HETATM   35  C22 UNL     1       0.656  17.398   9.840  1.00  0.00     0.000 C 
HETATM   36  C23 UNL     1       1.784  16.446  10.201  1.00  0.00     0.000 C 
HETATM   37  C24 UNL     1       1.264  15.604  11.369  1.00  0.00     0.005 C 
ENDBRANCH  31  33
ENDBRANCH  15  31
BRANCH  23  38
HETATM   38  O5  UNL     1      -1.835  14.214  16.743  1.00  0.00    -0.388 OA
HETATM   39  H52 UNL     1      -1.349  14.725  17.427  1.00  0.00     0.210 HD
ENDBRANCH  23  38
BRANCH  11  40
HETATM   40  O2  UNL     1      -4.190  10.798  15.584  1.00  0.00    -0.386 OA
HETATM   41  H20 UNL     1      -4.711  10.392  14.860  1.00  0.00     0.210 HD
ENDBRANCH  11  40
BRANCH  22  42
HETATM   42  C32 UNL     1      -3.321  12.284  17.730  1.00  0.00     0.244 C 
HETATM   43  O4  UNL     1      -3.958  13.148  17.128  1.00  0.00    -0.306 OA
ENDBRANCH  22  42
BRANCH  19  44
HETATM   44  O3  UNL     1       0.083  14.926  18.535  1.00  0.00    -0.395 OA
HETATM   45  H46 UNL     1       0.244  15.213  19.453  1.00  0.00     0.210 HD
ENDBRANCH  19  44
BRANCH   5  46
HETATM   46  O1  UNL     1      -3.807   9.570  13.323  1.00  0.00    -0.386 OA
HETATM   47  H11 UNL     1      -3.669  10.360  12.777  1.00  0.00     0.210 HD
ENDBRANCH   5  46
BRANCH   1  48
HETATM   48  C2  UNL     1       0.583   5.150  11.130  1.00  0.00     0.306 C 
BRANCH  48  49
HETATM   49  N1  UNL     1       1.939   5.704  11.168  1.00  0.00     0.083 N 
HETATM   50  C1  UNL     1       2.441   5.944   9.820  1.00  0.00     0.307 C 
HETATM   51  H4  UNL     1       2.547   5.031  11.626  1.00  0.00     0.315 HD
ENDBRANCH  48  49
ENDBRANCH   1  48
TORSDOF 9
ENDMDL
MODEL 8
REMARK minimizedAffinity -10.0620165
REMARK CNNscore 0.4167386
REMARK CNNaffinity 6.40572977
REMARK  9 active torsions:
REMARK  status: ('A' for Active; 'I' for Inactive)
REMARK    1  A    between atoms: N1_2  and  C2_3 
REMARK    2  A    between atoms: C2_3  and  C3_4 
REMARK    3  A    between atoms: C7_8  and  O1_9 
REMARK    4  A    between atoms: C13_15  and  O2_16 
REMARK    5  A    between atoms: C17_20  and  C18_21 
REMARK    6  A    between atoms: C18_21  and  C20_23 
REMARK    7  A    between atoms: C28_31  and  O3_32 
REMARK    8  A    between atoms: C31_35  and  C32_36 
REMARK    9  A    between atoms: C33_38  and  O5_39 
ROOT
HETATM    1  C3  UNL     1      -6.253   5.990  13.546  1.00  0.00    -0.022 C 
HETATM    2  C4  UNL     1      -6.070   6.811  14.611  1.00  0.00    -0.014 C 
HETATM    3  C5  UNL     1      -4.683   7.216  15.044  1.00  0.00     0.021 C 
HETATM    4  C6  UNL     1      -4.463   8.568  15.722  1.00  0.00     0.051 C 
HETATM    5  C7  UNL     1      -2.922   8.585  15.826  1.00  0.00     0.098 C 
HETATM    6  C8  UNL     1      -2.448   8.076  14.400  1.00  0.00    -0.002 C 
HETATM    7  C9  UNL     1      -1.160   7.241  14.454  1.00  0.00     0.019 C 
HETATM    8  C10 UNL     1      -2.202   9.263  13.416  1.00  0.00     0.013 C 
HETATM    9  C11 UNL     1      -1.459  10.457  14.009  1.00  0.00     0.010 C 
HETATM   10  C12 UNL     1      -2.244  10.998  15.219  1.00  0.00     0.041 C 
HETATM   11  C13 UNL     1      -2.272   9.920  16.319  1.00  0.00     0.095 C 
HETATM   12  C14 UNL     1      -2.862  10.460  17.637  1.00  0.00     0.049 C 
HETATM   13  C15 UNL     1      -3.656  11.784  17.525  1.00  0.00     0.025 C 
HETATM   14  C16 UNL     1      -4.149  12.099  18.972  1.00  0.00     0.012 C 
HETATM   15  C17 UNL     1      -5.145  13.250  19.266  1.00  0.00    -0.010 C 
HETATM   16  C25 UNL     1      -4.885  14.535  18.458  1.00  0.00     0.005 C 
HETATM   17  C26 UNL     1      -5.021  14.348  16.954  1.00  0.00     0.010 C 
HETATM   18  C27 UNL     1      -3.752  13.962  16.181  1.00  0.00     0.050 C 
HETATM   19  C28 UNL     1      -2.957  15.211  15.729  1.00  0.00     0.125 C 
HETATM   20  C29 UNL     1      -1.666  14.845  15.002  1.00  0.00     0.033 C 
HETATM   21  C30 UNL     1      -1.660  13.392  14.552  1.00  0.00     0.023 C 
HETATM   22  C31 UNL     1      -1.767  12.389  15.754  1.00  0.00     0.051 C 
HETATM   23  C33 UNL     1      -2.804  12.920  16.856  1.00  0.00     0.082 C 
HETATM   24  C34 UNL     1      -3.694   7.274  13.856  1.00  0.00     0.036 C 
HETATM   25  C35 UNL     1      -3.751   5.909  13.253  1.00  0.00    -0.035 C 
HETATM   26  C36 UNL     1      -2.938   4.858  13.236  1.00  0.00     0.088 C 
HETATM   27  C37 UNL     1      -3.733   3.737  12.729  1.00  0.00     0.284 C 
HETATM   28  O6  UNL     1      -3.314   2.605  12.579  1.00  0.00    -0.260 OA
HETATM   29  O7  UNL     1      -5.013   4.145  12.500  1.00  0.00    -0.304 OA
HETATM   30  C38 UNL     1      -5.081   5.553  12.669  1.00  0.00     0.192 C 
ENDROOT
BRANCH  15  31
HETATM   31  C18 UNL     1      -5.180  13.532  20.827  1.00  0.00    -0.011 C 
HETATM   32  C19 UNL     1      -4.929  15.013  21.169  1.00  0.00     0.011 C 
BRANCH  31  33
HETATM   33  C20 UNL     1      -6.474  12.990  21.496  1.00  0.00    -0.010 C 
HETATM   34  C21 UNL     1      -6.620  13.324  22.987  1.00  0.00     0.005 C 
HETATM   35  C22 UNL     1      -8.105  13.116  23.248  1.00  0.00     0.000 C 
HETATM   36  C23 UNL     1      -8.764  13.708  22.013  1.00  0.00     0.000 C 
HETATM   37  C24 UNL     1      -7.800  13.437  20.854  1.00  0.00     0.005 C 
ENDBRANCH  31  33
ENDBRANCH  15  31
BRANCH  23  38
HETATM   38  O5  UNL     1      -2.057  13.546  17.908  1.00  0.00    -0.388 OA
HETATM   39  H52 UNL     1      -2.053  14.520  17.776  1.00  0.00     0.210 HD
ENDBRANCH  23  38
BRANCH  11  40
HETATM   40  O2  UNL     1      -0.905   9.589  16.656  1.00  0.00    -0.386 OA
HETATM   41  H20 UNL     1      -0.899   8.641  16.902  1.00  0.00     0.210 HD
ENDBRANCH  11  40
BRANCH  22  42
HETATM   42  C32 UNL     1      -0.356  12.269  16.365  1.00  0.00     0.244 C 
HETATM   43  O4  UNL     1      -0.130  12.173  17.572  1.00  0.00    -0.306 OA
ENDBRANCH  22  42
BRANCH  19  44
HETATM   44  O3  UNL     1      -2.606  15.998  16.866  1.00  0.00    -0.395 OA
HETATM   45  H46 UNL     1      -2.211  16.828  16.540  1.00  0.00     0.210 HD
ENDBRANCH  19  44
BRANCH   5  46
HETATM   46  O1  UNL     1      -2.543   7.573  16.799  1.00  0.00    -0.386 OA
HETATM   47  H11 UNL     1      -2.930   7.791  17.661  1.00  0.00     0.210 HD
ENDBRANCH   5  46
BRANCH   1  48
HETATM   48  C2  UNL     1      -7.587   5.425  13.117  1.00  0.00     0.306 C 
BRANCH  48  49
HETATM   49  N1  UNL     1      -8.009   4.256  13.894  1.00  0.00     0.083 N 
HETATM   50  C1  UNL     1      -7.998   3.052  13.073  1.00  0.00     0.307 C 
HETATM   51  H4  UNL     1      -8.958   4.417  14.223  1.00  0.00     0.315 HD
ENDBRANCH  48  49
ENDBRANCH   1  48
TORSDOF 9
ENDMDL
MODEL 9
REMARK minimizedAffinity -7.54065847
REMARK CNNscore 0.361048937
REMARK CNNaffinity 6.4104867
REMARK  9 active torsions:
REMARK  status: ('A' for Active; 'I' for Inactive)
REMARK    1  A    between atoms: N1_2  and  C2_3 
REMARK    2  A    between atoms: C2_3  and  C3_4 
REMARK    3  A    between atoms: C7_8  and  O1_9 
REMARK    4  A    between atoms: C13_15  and  O2_16 
REMARK    5  A    between atoms: C17_20  and  C18_21 
REMARK    6  A    between atoms: C18_21  and  C20_23 
REMARK    7  A    between atoms: C28_31  and  O3_32 
REMARK    8  A    between atoms: C31_35  and  C32_36 
REMARK    9  A    between atoms: C33_38  and  O5_39 
ROOT
HETATM    1  C3  UNL     1      -8.569  -9.419   8.730  1.00  0.00    -0.022 C 
HETATM    2  C4  UNL     1      -8.169  -9.300   7.439  1.00  0.00    -0.014 C 
HETATM    3  C5  UNL     1      -6.714  -9.432   7.066  1.00  0.00     0.021 C 
HETATM    4  C6  UNL     1      -6.327  -9.966   5.687  1.00  0.00     0.051 C 
HETATM    5  C7  UNL     1      -4.793 -10.057   5.839  1.00  0.00     0.098 C 
HETATM    6  C8  UNL     1      -4.600 -10.712   7.270  1.00  0.00    -0.002 C 
HETATM    7  C9  UNL     1      -3.354 -10.197   8.008  1.00  0.00     0.019 C 
HETATM    8  C10 UNL     1      -4.490 -12.268   7.184  1.00  0.00     0.013 C 
HETATM    9  C11 UNL     1      -3.610 -12.796   6.055  1.00  0.00     0.010 C 
HETATM   10  C12 UNL     1      -4.147 -12.282   4.705  1.00  0.00     0.041 C 
HETATM   11  C13 UNL     1      -4.017 -10.748   4.668  1.00  0.00     0.095 C 
HETATM   12  C14 UNL     1      -4.342 -10.178   3.273  1.00  0.00     0.049 C 
HETATM   13  C15 UNL     1      -5.095 -11.133   2.315  1.00  0.00     0.025 C 
HETATM   14  C16 UNL     1      -5.310 -10.322   1.000  1.00  0.00     0.012 C 
HETATM   15  C17 UNL     1      -6.195 -10.855  -0.156  1.00  0.00    -0.010 C 
HETATM   16  C25 UNL     1      -6.037 -12.361  -0.432  1.00  0.00     0.005 C 
HETATM   17  C26 UNL     1      -6.446 -13.243   0.739  1.00  0.00     0.010 C 
HETATM   18  C27 UNL     1      -5.350 -13.616   1.747  1.00  0.00     0.050 C 
HETATM   19  C28 UNL     1      -4.604 -14.906   1.326  1.00  0.00     0.125 C 
HETATM   20  C29 UNL     1      -3.477 -15.265   2.291  1.00  0.00     0.033 C 
HETATM   21  C30 UNL     1      -3.604 -14.525   3.613  1.00  0.00     0.023 C 
HETATM   22  C31 UNL     1      -3.532 -12.967   3.440  1.00  0.00     0.051 C 
HETATM   23  C33 UNL     1      -4.336 -12.495   2.135  1.00  0.00     0.082 C 
HETATM   24  C34 UNL     1      -5.951 -10.384   8.017  1.00  0.00     0.036 C 
HETATM   25  C35 UNL     1      -6.164  -9.805   9.378  1.00  0.00    -0.035 C 
HETATM   26  C36 UNL     1      -5.407  -9.137  10.240  1.00  0.00     0.088 C 
HETATM   27  C37 UNL     1      -6.319  -8.597  11.250  1.00  0.00     0.284 C 
HETATM   28  O6  UNL     1      -5.976  -7.922  12.202  1.00  0.00    -0.260 OA
HETATM   29  O7  UNL     1      -7.604  -8.923  10.934  1.00  0.00    -0.304 OA
HETATM   30  C38 UNL     1      -7.590  -9.818   9.831  1.00  0.00     0.192 C 
ENDROOT
BRANCH  15  31
HETATM   31  C18 UNL     1      -5.941  -9.986  -1.460  1.00  0.00    -0.011 C 
HETATM   32  C19 UNL     1      -5.137 -10.746  -2.532  1.00  0.00     0.011 C 
BRANCH  31  33
HETATM   33  C20 UNL     1      -7.253  -9.382  -2.032  1.00  0.00    -0.010 C 
HETATM   34  C21 UNL     1      -8.039  -8.497  -1.056  1.00  0.00     0.005 C 
HETATM   35  C22 UNL     1      -8.952  -7.693  -1.969  1.00  0.00     0.000 C 
HETATM   36  C23 UNL     1      -8.055  -7.346  -3.146  1.00  0.00     0.000 C 
HETATM   37  C24 UNL     1      -7.101  -8.533  -3.308  1.00  0.00     0.005 C 
ENDBRANCH  31  33
ENDBRANCH  15  31
BRANCH  23  38
HETATM   38  O5  UNL     1      -3.390 -12.299   1.074  1.00  0.00    -0.388 OA
HETATM   39  H52 UNL     1      -3.375 -13.094   0.495  1.00  0.00     0.210 HD
ENDBRANCH  23  38
BRANCH  11  40
HETATM   40  O2  UNL     1      -2.625 -10.411   4.869  1.00  0.00    -0.386 OA
HETATM   41  H20 UNL     1      -2.609  -9.558   5.351  1.00  0.00     0.210 HD
ENDBRANCH  11  40
BRANCH  22  42
HETATM   42  C32 UNL     1      -2.039 -12.599   3.308  1.00  0.00     0.244 C 
HETATM   43  O4  UNL     1      -1.600 -11.761   2.521  1.00  0.00    -0.306 OA
ENDBRANCH  22  42
BRANCH  19  44
HETATM   44  O3  UNL     1      -4.027 -14.730   0.033  1.00  0.00    -0.395 OA
HETATM   45  H46 UNL     1      -3.666 -15.592  -0.249  1.00  0.00     0.210 HD
ENDBRANCH  19  44
BRANCH   5  46
HETATM   46  O1  UNL     1      -4.283  -8.697   5.908  1.00  0.00    -0.386 OA
HETATM   47  H11 UNL     1      -4.502  -8.227   5.089  1.00  0.00     0.210 HD
ENDBRANCH   5  46
BRANCH   1  48
HETATM   48  C2  UNL     1      -9.979  -9.174   9.218  1.00  0.00     0.306 C 
BRANCH  48  49
HETATM   49  N1  UNL     1     -10.375 -10.039  10.332  1.00  0.00     0.083 N 
HETATM   50  C1  UNL     1     -11.076  -9.278  11.360  1.00  0.00     0.307 C 
HETATM   51  H4  UNL     1      -9.535 -10.439  10.740  1.00  0.00     0.315 HD
ENDBRANCH  48  49
ENDBRANCH   1  48
TORSDOF 9
ENDMDL
