MODEL 1
REMARK minimizedAffinity -9.58203125
REMARK  9 active torsions:
REMARK  status: ('A' for Active; 'I' for Inactive)
REMARK    1  A    between atoms: C11_11  and  C13_13 
REMARK    2  A    between atoms: C13_13  and  O2_15 
REMARK    3  A    between atoms: C15_17  and  C16_18 
REMARK    4  A    between atoms: C16_18  and  C17_19 
REMARK    5  A    between atoms: C17_19  and  C18_20 
REMARK    6  A    between atoms: C19_21  and  C20_22 
REMARK    7  A    between atoms: C20_22  and  O3_23 
REMARK    8  A    between atoms: O3_23  and  C21_24 
REMARK    9  A    between atoms: C21_24  and  C22_26 
ROOT
HETATM    1  C16 UNL     1      -3.013  48.806 -22.645  1.00  0.00     0.014 C 
ENDROOT
BRANCH   1   2
HETATM    2  C15 UNL     1      -2.276  49.714 -23.665  1.00  0.00     0.022 C 
HETATM    3  C2  UNL     1      -2.978  49.759 -25.013  1.00  0.00    -0.084 C 
HETATM    4  C1  UNL     1      -2.780  48.829 -25.965  1.00  0.00     0.014 C 
HETATM    5  C3  UNL     1      -3.810  50.970 -25.283  1.00  0.00     0.034 C 
HETATM    6  C4  UNL     1      -2.914  52.203 -25.305  1.00  0.00     0.011 C 
HETATM    7  C5  UNL     1      -1.821  52.268 -24.201  1.00  0.00     0.012 C 
HETATM    8  C6  UNL     1      -1.960  51.161 -23.082  1.00  0.00    -0.032 C 
HETATM    9  C11 UNL     1      -0.364  52.467 -24.762  1.00  0.00     0.049 C 
HETATM   10  C7  UNL     1      -3.081  51.655 -22.111  1.00  0.00     0.016 C 
HETATM   11  C8  UNL     1      -0.655  51.070 -22.230  1.00  0.00     0.010 C 
HETATM   12  C9  UNL     1       0.131  52.373 -22.220  1.00  0.00     0.002 C 
HETATM   13  C10 UNL     1       0.665  52.694 -23.613  1.00  0.00     0.020 C 
HETATM   14  C12 UNL     1       0.106  51.267 -25.611  1.00  0.00     0.026 C 
BRANCH   9  15
HETATM   15  C13 UNL     1      -0.320  53.721 -25.663  1.00  0.00     0.267 C 
HETATM   16  O1  UNL     1       0.206  54.785 -25.359  1.00  0.00    -0.264 OA
BRANCH  15  17
HETATM   17  O2  UNL     1      -0.961  53.498 -26.848  1.00  0.00    -0.326 OA
HETATM   18  C14 UNL     1      -0.183  53.819 -28.002  1.00  0.00     0.213 C 
ENDBRANCH  15  17
ENDBRANCH   9  15
ENDBRANCH   1   2
BRANCH   1  19
HETATM   19  C17 UNL     1      -2.197  47.600 -22.159  1.00  0.00     0.042 C 
BRANCH  19  20
HETATM   20  C18 UNL     1      -2.582  47.187 -20.774  1.00  0.00    -0.024 A 
HETATM   21  C19 UNL     1      -2.169  47.748 -19.575  1.00  0.00     0.083 A 
HETATM   22  O5  UNL     1      -2.745  47.093 -18.525  1.00  0.00    -0.324 OA
HETATM   23  C28 UNL     1      -3.519  46.108 -19.044  1.00  0.00     0.143 A 
HETATM   24  C29 UNL     1      -3.457  46.122 -20.416  1.00  0.00     0.034 A 
BRANCH  21  25
HETATM   25  C20 UNL     1      -1.272  48.880 -19.229  1.00  0.00     0.244 C 
BRANCH  25  26
HETATM   26  O3  UNL     1      -1.836  49.544 -18.090  1.00  0.00    -0.311 OA
BRANCH  26  27
HETATM   27  C21 UNL     1      -1.812  50.895 -18.122  1.00  0.00     0.293 C 
HETATM   28  O4  UNL     1      -2.732  51.629 -18.448  1.00  0.00    -0.259 OA
BRANCH  27  29
HETATM   29  C22 UNL     1      -0.478  51.398 -17.689  1.00  0.00     0.039 A 
HETATM   30  C23 UNL     1       0.051  50.920 -16.481  1.00  0.00     0.019 A 
HETATM   31  C24 UNL     1       1.300  51.359 -16.033  1.00  0.00     0.025 A 
HETATM   32  C25 UNL     1       2.024  52.278 -16.793  1.00  0.00     0.034 A 
HETATM   33 CL1  UNL     1       3.562  52.819 -16.243  1.00  0.00    -0.084 Cl
HETATM   34  C26 UNL     1       1.509  52.762 -17.995  1.00  0.00     0.025 A 
HETATM   35  C27 UNL     1       0.259  52.325 -18.444  1.00  0.00     0.019 A 
ENDBRANCH  27  29
ENDBRANCH  26  27
ENDBRANCH  25  26
ENDBRANCH  21  25
ENDBRANCH  19  20
ENDBRANCH   1  19
TORSDOF 9
ENDMDL
MODEL 2
REMARK minimizedAffinity -9.16721249
REMARK  9 active torsions:
REMARK  status: ('A' for Active; 'I' for Inactive)
REMARK    1  A    between atoms: C11_11  and  C13_13 
REMARK    2  A    between atoms: C13_13  and  O2_15 
REMARK    3  A    between atoms: C15_17  and  C16_18 
REMARK    4  A    between atoms: C16_18  and  C17_19 
REMARK    5  A    between atoms: C17_19  and  C18_20 
REMARK    6  A    between atoms: C19_21  and  C20_22 
REMARK    7  A    between atoms: C20_22  and  O3_23 
REMARK    8  A    between atoms: O3_23  and  C21_24 
REMARK    9  A    between atoms: C21_24  and  C22_26 
ROOT
HETATM    1  C16 UNL     1      -2.749  49.297 -22.944  1.00  0.00     0.014 C 
ENDROOT
BRANCH   1   2
HETATM    2  C15 UNL     1      -2.027  50.013 -24.115  1.00  0.00     0.022 C 
HETATM    3  C2  UNL     1      -2.762  49.846 -25.436  1.00  0.00    -0.084 C 
HETATM    4  C1  UNL     1      -2.598  48.770 -26.226  1.00  0.00     0.014 C 
HETATM    5  C3  UNL     1      -3.588  51.009 -25.884  1.00  0.00     0.034 C 
HETATM    6  C4  UNL     1      -2.678  52.208 -26.129  1.00  0.00     0.011 C 
HETATM    7  C5  UNL     1      -1.558  52.438 -25.076  1.00  0.00     0.012 C 
HETATM    8  C6  UNL     1      -1.682  51.532 -23.786  1.00  0.00    -0.032 C 
HETATM    9  C11 UNL     1      -0.113  52.519 -25.694  1.00  0.00     0.049 C 
HETATM   10  C7  UNL     1      -2.773  52.196 -22.885  1.00  0.00     0.016 C 
HETATM   11  C8  UNL     1      -0.357  51.563 -22.961  1.00  0.00     0.010 C 
HETATM   12  C9  UNL     1       0.444  52.838 -23.183  1.00  0.00     0.002 C 
HETATM   13  C10 UNL     1       0.946  52.917 -24.622  1.00  0.00     0.020 C 
HETATM   14  C12 UNL     1       0.323  51.189 -26.344  1.00  0.00     0.026 C 
BRANCH   9  15
HETATM   15  C13 UNL     1      -0.078  53.607 -26.790  1.00  0.00     0.267 C 
HETATM   16  O1  UNL     1      -0.244  54.805 -26.596  1.00  0.00    -0.264 OA
BRANCH  15  17
HETATM   17  O2  UNL     1       0.150  53.060 -28.020  1.00  0.00    -0.326 OA
HETATM   18  C14 UNL     1       0.261  51.636 -28.015  1.00  0.00     0.213 C 
ENDBRANCH  15  17
ENDBRANCH   9  15
ENDBRANCH   1   2
BRANCH   1  19
HETATM   19  C17 UNL     1      -4.214  48.935 -23.223  1.00  0.00     0.042 C 
BRANCH  19  20
HETATM   20  C18 UNL     1      -5.090  49.194 -22.039  1.00  0.00    -0.024 A 
HETATM   21  C19 UNL     1      -4.950  48.693 -20.754  1.00  0.00     0.083 A 
HETATM   22  O5  UNL     1      -5.948  49.166 -19.952  1.00  0.00    -0.324 OA
HETATM   23  C28 UNL     1      -6.733  49.963 -20.718  1.00  0.00     0.143 A 
HETATM   24  C29 UNL     1      -6.252  50.017 -22.004  1.00  0.00     0.034 A 
BRANCH  21  25
HETATM   25  C20 UNL     1      -3.963  47.791 -20.107  1.00  0.00     0.244 C 
BRANCH  25  26
HETATM   26  O3  UNL     1      -3.085  48.606 -19.320  1.00  0.00    -0.311 OA
BRANCH  26  27
HETATM   27  C21 UNL     1      -1.762  48.435 -19.541  1.00  0.00     0.293 C 
HETATM   28  O4  UNL     1      -1.247  47.558 -20.217  1.00  0.00    -0.259 OA
BRANCH  27  29
HETATM   29  C22 UNL     1      -0.981  49.489 -18.834  1.00  0.00     0.039 A 
HETATM   30  C23 UNL     1      -0.518  49.215 -17.539  1.00  0.00     0.019 A 
HETATM   31  C24 UNL     1       0.220  50.170 -16.835  1.00  0.00     0.025 A 
HETATM   32  C25 UNL     1       0.500  51.403 -17.426  1.00  0.00     0.034 A 
HETATM   33 CL1  UNL     1       1.409  52.579 -16.561  1.00  0.00    -0.084 Cl
HETATM   34  C26 UNL     1       0.044  51.689 -18.712  1.00  0.00     0.025 A 
HETATM   35  C27 UNL     1      -0.697  50.734 -19.417  1.00  0.00     0.019 A 
ENDBRANCH  27  29
ENDBRANCH  26  27
ENDBRANCH  25  26
ENDBRANCH  21  25
ENDBRANCH  19  20
ENDBRANCH   1  19
TORSDOF 9
ENDMDL
MODEL 3
REMARK minimizedAffinity -9.01795578
REMARK  9 active torsions:
REMARK  status: ('A' for Active; 'I' for Inactive)
REMARK    1  A    between atoms: C11_11  and  C13_13 
REMARK    2  A    between atoms: C13_13  and  O2_15 
REMARK    3  A    between atoms: C15_17  and  C16_18 
REMARK    4  A    between atoms: C16_18  and  C17_19 
REMARK    5  A    between atoms: C17_19  and  C18_20 
REMARK    6  A    between atoms: C19_21  and  C20_22 
REMARK    7  A    between atoms: C20_22  and  O3_23 
REMARK    8  A    between atoms: O3_23  and  C21_24 
REMARK    9  A    between atoms: C21_24  and  C22_26 
ROOT
HETATM    1  C16 UNL     1      -3.279  49.078 -23.051  1.00  0.00     0.014 C 
ENDROOT
BRANCH   1   2
HETATM    2  C15 UNL     1      -2.345  49.887 -23.989  1.00  0.00     0.022 C 
HETATM    3  C2  UNL     1      -2.861  49.934 -25.419  1.00  0.00    -0.084 C 
HETATM    4  C1  UNL     1      -2.618  48.957 -26.310  1.00  0.00     0.014 C 
HETATM    5  C3  UNL     1      -3.551  51.195 -25.831  1.00  0.00     0.034 C 
HETATM    6  C4  UNL     1      -2.562  52.353 -25.768  1.00  0.00     0.011 C 
HETATM    7  C5  UNL     1      -1.619  52.377 -24.532  1.00  0.00     0.012 C 
HETATM    8  C6  UNL     1      -1.992  51.327 -23.410  1.00  0.00    -0.032 C 
HETATM    9  C11 UNL     1      -0.091  52.441 -24.901  1.00  0.00     0.049 C 
HETATM   10  C7  UNL     1      -3.184  51.942 -22.610  1.00  0.00     0.016 C 
HETATM   11  C8  UNL     1      -0.819  51.169 -22.391  1.00  0.00     0.010 C 
HETATM   12  C9  UNL     1       0.063  52.407 -22.314  1.00  0.00     0.002 C 
HETATM   13  C10 UNL     1       0.796  52.632 -23.633  1.00  0.00     0.020 C 
HETATM   14  C12 UNL     1       0.386  51.177 -25.647  1.00  0.00     0.026 C 
BRANCH   9  15
HETATM   15  C13 UNL     1       0.171  53.653 -25.822  1.00  0.00     0.267 C 
HETATM   16  O1  UNL     1       0.033  54.825 -25.496  1.00  0.00    -0.264 OA
BRANCH  15  17
HETATM   17  O2  UNL     1       0.566  53.249 -27.066  1.00  0.00    -0.326 OA
HETATM   18  C14 UNL     1      -0.250  53.746 -28.128  1.00  0.00     0.213 C 
ENDBRANCH  15  17
ENDBRANCH   9  15
ENDBRANCH   1   2
BRANCH   1  19
HETATM   19  C17 UNL     1      -4.356  48.258 -23.776  1.00  0.00     0.042 C 
BRANCH  19  20
HETATM   20  C18 UNL     1      -5.734  48.755 -23.474  1.00  0.00    -0.024 A 
HETATM   21  C19 UNL     1      -6.935  48.296 -23.993  1.00  0.00     0.083 A 
HETATM   22  O5  UNL     1      -7.977  49.003 -23.467  1.00  0.00    -0.324 OA
HETATM   23  C28 UNL     1      -7.450  49.920 -22.618  1.00  0.00     0.143 A 
HETATM   24  C29 UNL     1      -6.081  49.811 -22.583  1.00  0.00     0.034 A 
BRANCH  21  25
HETATM   25  C20 UNL     1      -7.291  47.224 -24.958  1.00  0.00     0.244 C 
BRANCH  25  26
HETATM   26  O3  UNL     1      -6.773  47.609 -26.239  1.00  0.00    -0.311 OA
BRANCH  26  27
HETATM   27  C21 UNL     1      -7.642  47.545 -27.272  1.00  0.00     0.293 C 
HETATM   28  O4  UNL     1      -8.843  47.760 -27.224  1.00  0.00    -0.259 OA
BRANCH  27  29
HETATM   29  C22 UNL     1      -6.927  47.169 -28.524  1.00  0.00     0.039 A 
HETATM   30  C23 UNL     1      -5.902  48.010 -28.980  1.00  0.00     0.019 A 
HETATM   31  C24 UNL     1      -5.200  47.700 -30.149  1.00  0.00     0.025 A 
HETATM   32  C25 UNL     1      -5.522  46.547 -30.865  1.00  0.00     0.034 A 
HETATM   33 CL1  UNL     1      -4.659  46.164 -32.302  1.00  0.00    -0.084 Cl
HETATM   34  C26 UNL     1      -6.540  45.703 -30.423  1.00  0.00     0.025 A 
HETATM   35  C27 UNL     1      -7.245  46.013 -29.254  1.00  0.00     0.019 A 
ENDBRANCH  27  29
ENDBRANCH  26  27
ENDBRANCH  25  26
ENDBRANCH  21  25
ENDBRANCH  19  20
ENDBRANCH   1  19
TORSDOF 9
ENDMDL
MODEL 4
REMARK minimizedAffinity -8.8866787
REMARK  9 active torsions:
REMARK  status: ('A' for Active; 'I' for Inactive)
REMARK    1  A    between atoms: C11_11  and  C13_13 
REMARK    2  A    between atoms: C13_13  and  O2_15 
REMARK    3  A    between atoms: C15_17  and  C16_18 
REMARK    4  A    between atoms: C16_18  and  C17_19 
REMARK    5  A    between atoms: C17_19  and  C18_20 
REMARK    6  A    between atoms: C19_21  and  C20_22 
REMARK    7  A    between atoms: C20_22  and  O3_23 
REMARK    8  A    between atoms: O3_23  and  C21_24 
REMARK    9  A    between atoms: C21_24  and  C22_26 
ROOT
HETATM    1  C16 UNL     1      -1.094  52.976 -23.577  1.00  0.00     0.014 C 
ENDROOT
BRANCH   1   2
HETATM    2  C15 UNL     1      -1.349  52.303 -22.202  1.00  0.00     0.022 C 
HETATM    3  C2  UNL     1      -2.221  51.063 -22.318  1.00  0.00    -0.084 C 
HETATM    4  C1  UNL     1      -3.564  51.120 -22.341  1.00  0.00     0.014 C 
HETATM    5  C3  UNL     1      -1.508  49.749 -22.274  1.00  0.00     0.034 C 
HETATM    6  C4  UNL     1      -0.833  49.587 -20.917  1.00  0.00     0.011 C 
HETATM    7  C5  UNL     1      -0.122  50.851 -20.356  1.00  0.00     0.012 C 
HETATM    8  C6  UNL     1      -0.006  52.043 -21.388  1.00  0.00    -0.032 C 
HETATM    9  C11 UNL     1      -0.603  51.263 -18.916  1.00  0.00     0.049 C 
HETATM   10  C7  UNL     1       1.189  51.694 -22.331  1.00  0.00     0.016 C 
HETATM   11  C8  UNL     1       0.387  53.367 -20.659  1.00  0.00     0.010 C 
HETATM   12  C9  UNL     1       1.147  53.121 -19.364  1.00  0.00     0.002 C 
HETATM   13  C10 UNL     1       0.256  52.427 -18.337  1.00  0.00     0.020 C 
HETATM   14  C12 UNL     1      -2.087  51.690 -18.893  1.00  0.00     0.026 C 
BRANCH   9  15
HETATM   15  C13 UNL     1      -0.448  50.064 -17.954  1.00  0.00     0.267 C 
HETATM   16  O1  UNL     1      -1.198  49.097 -17.912  1.00  0.00    -0.264 OA
BRANCH  15  17
HETATM   17  O2  UNL     1       0.635  50.225 -17.137  1.00  0.00    -0.326 OA
HETATM   18  C14 UNL     1       0.487  49.630 -15.848  1.00  0.00     0.213 C 
ENDBRANCH  15  17
ENDBRANCH   9  15
ENDBRANCH   1   2
BRANCH   1  19
HETATM   19  C17 UNL     1      -1.955  52.429 -24.723  1.00  0.00     0.042 C 
BRANCH  19  20
HETATM   20  C18 UNL     1      -1.136  52.108 -25.933  1.00  0.00    -0.024 A 
HETATM   21  C19 UNL     1      -1.533  51.420 -27.070  1.00  0.00     0.083 A 
HETATM   22  O5  UNL     1      -0.498  51.335 -27.955  1.00  0.00    -0.324 OA
HETATM   23  C28 UNL     1       0.565  51.957 -27.388  1.00  0.00     0.143 A 
HETATM   24  C29 UNL     1       0.229  52.450 -26.151  1.00  0.00     0.034 A 
BRANCH  21  25
HETATM   25  C20 UNL     1      -2.812  50.797 -27.496  1.00  0.00     0.244 C 
BRANCH  25  26
HETATM   26  O3  UNL     1      -2.656  49.376 -27.390  1.00  0.00    -0.311 OA
BRANCH  26  27
HETATM   27  C21 UNL     1      -3.769  48.640 -27.605  1.00  0.00     0.293 C 
HETATM   28  O4  UNL     1      -4.156  48.209 -28.679  1.00  0.00    -0.259 OA
BRANCH  27  29
HETATM   29  C22 UNL     1      -4.489  48.407 -26.321  1.00  0.00     0.039 A 
HETATM   30  C23 UNL     1      -3.765  48.519 -25.125  1.00  0.00     0.019 A 
HETATM   31  C24 UNL     1      -4.396  48.312 -23.895  1.00  0.00     0.025 A 
HETATM   32  C25 UNL     1      -5.753  47.993 -23.858  1.00  0.00     0.034 A 
HETATM   33 CL1  UNL     1      -6.531  47.739 -22.345  1.00  0.00    -0.084 Cl
HETATM   34  C26 UNL     1      -6.484  47.877 -25.040  1.00  0.00     0.025 A 
HETATM   35  C27 UNL     1      -5.854  48.083 -26.272  1.00  0.00     0.019 A 
ENDBRANCH  27  29
ENDBRANCH  26  27
ENDBRANCH  25  26
ENDBRANCH  21  25
ENDBRANCH  19  20
ENDBRANCH   1  19
TORSDOF 9
ENDMDL
MODEL 5
REMARK minimizedAffinity -8.64478397
REMARK  9 active torsions:
REMARK  status: ('A' for Active; 'I' for Inactive)
REMARK    1  A    between atoms: C11_11  and  C13_13 
REMARK    2  A    between atoms: C13_13  and  O2_15 
REMARK    3  A    between atoms: C15_17  and  C16_18 
REMARK    4  A    between atoms: C16_18  and  C17_19 
REMARK    5  A    between atoms: C17_19  and  C18_20 
REMARK    6  A    between atoms: C19_21  and  C20_22 
REMARK    7  A    between atoms: C20_22  and  O3_23 
REMARK    8  A    between atoms: O3_23  and  C21_24 
REMARK    9  A    between atoms: C21_24  and  C22_26 
ROOT
HETATM    1  C16 UNL     1      -5.247  49.581 -22.395  1.00  0.00     0.014 C 
ENDROOT
BRANCH   1   2
HETATM    2  C15 UNL     1      -4.398  50.359 -23.435  1.00  0.00     0.022 C 
HETATM    3  C2  UNL     1      -3.886  51.683 -22.890  1.00  0.00    -0.084 C 
HETATM    4  C1  UNL     1      -4.622  52.808 -22.911  1.00  0.00     0.014 C 
HETATM    5  C3  UNL     1      -2.460  51.705 -22.443  1.00  0.00     0.034 C 
HETATM    6  C4  UNL     1      -1.553  51.434 -23.638  1.00  0.00     0.011 C 
HETATM    7  C5  UNL     1      -2.023  50.314 -24.608  1.00  0.00     0.012 C 
HETATM    8  C6  UNL     1      -3.247  49.467 -24.078  1.00  0.00    -0.032 C 
HETATM    9  C11 UNL     1      -2.135  50.779 -26.107  1.00  0.00     0.049 C 
HETATM   10  C7  UNL     1      -2.663  48.442 -23.054  1.00  0.00     0.016 C 
HETATM   11  C8  UNL     1      -3.873  48.620 -25.232  1.00  0.00     0.010 C 
HETATM   12  C9  UNL     1      -2.876  48.306 -26.337  1.00  0.00     0.002 C 
HETATM   13  C10 UNL     1      -2.445  49.582 -27.056  1.00  0.00     0.020 C 
HETATM   14  C12 UNL     1      -3.223  51.856 -26.307  1.00  0.00     0.026 C 
BRANCH   9  15
HETATM   15  C13 UNL     1      -0.790  51.384 -26.566  1.00  0.00     0.267 C 
HETATM   16  O1  UNL     1       0.230  51.421 -25.888  1.00  0.00    -0.264 OA
BRANCH  15  17
HETATM   17  O2  UNL     1      -0.883  51.889 -27.831  1.00  0.00    -0.326 OA
HETATM   18  C14 UNL     1       0.028  52.955 -28.102  1.00  0.00     0.213 C 
ENDBRANCH  15  17
ENDBRANCH   9  15
ENDBRANCH   1   2
BRANCH   1  19
HETATM   19  C17 UNL     1      -5.519  50.348 -21.093  1.00  0.00     0.042 C 
BRANCH  19  20
HETATM   20  C18 UNL     1      -4.901  49.675 -19.909  1.00  0.00    -0.024 A 
HETATM   21  C19 UNL     1      -3.845  50.125 -19.132  1.00  0.00     0.083 A 
HETATM   22  O5  UNL     1      -3.576  49.229 -18.138  1.00  0.00    -0.324 OA
HETATM   23  C28 UNL     1      -4.450  48.202 -18.278  1.00  0.00     0.143 A 
HETATM   24  C29 UNL     1      -5.286  48.425 -19.345  1.00  0.00     0.034 A 
BRANCH  21  25
HETATM   25  C20 UNL     1      -2.995  51.342 -19.164  1.00  0.00     0.244 C 
BRANCH  25  26
HETATM   26  O3  UNL     1      -2.086  51.263 -18.058  1.00  0.00    -0.311 OA
BRANCH  26  27
HETATM   27  C21 UNL     1      -0.839  50.830 -18.346  1.00  0.00     0.293 C 
HETATM   28  O4  UNL     1      -0.295  49.835 -17.895  1.00  0.00    -0.259 OA
BRANCH  27  29
HETATM   29  C22 UNL     1      -0.186  51.750 -19.320  1.00  0.00     0.039 A 
HETATM   30  C23 UNL     1      -0.168  53.122 -19.027  1.00  0.00     0.019 A 
HETATM   31  C24 UNL     1       0.434  54.025 -19.907  1.00  0.00     0.025 A 
HETATM   32  C25 UNL     1       1.021  53.559 -21.083  1.00  0.00     0.034 A 
HETATM   33 CL1  UNL     1       1.763  54.669 -22.168  1.00  0.00    -0.084 Cl
HETATM   34  C26 UNL     1       1.009  52.198 -21.387  1.00  0.00     0.025 A 
HETATM   35  C27 UNL     1       0.406  51.293 -20.508  1.00  0.00     0.019 A 
ENDBRANCH  27  29
ENDBRANCH  26  27
ENDBRANCH  25  26
ENDBRANCH  21  25
ENDBRANCH  19  20
ENDBRANCH   1  19
TORSDOF 9
ENDMDL
MODEL 6
REMARK minimizedAffinity -8.62819862
REMARK  9 active torsions:
REMARK  status: ('A' for Active; 'I' for Inactive)
REMARK    1  A    between atoms: C11_11  and  C13_13 
REMARK    2  A    between atoms: C13_13  and  O2_15 
REMARK    3  A    between atoms: C15_17  and  C16_18 
REMARK    4  A    between atoms: C16_18  and  C17_19 
REMARK    5  A    between atoms: C17_19  and  C18_20 
REMARK    6  A    between atoms: C19_21  and  C20_22 
REMARK    7  A    between atoms: C20_22  and  O3_23 
REMARK    8  A    between atoms: O3_23  and  C21_24 
REMARK    9  A    between atoms: C21_24  and  C22_26 
ROOT
HETATM    1  C16 UNL     1      -2.085  49.789 -24.680  1.00  0.00     0.014 C 
ENDROOT
BRANCH   1   2
HETATM    2  C15 UNL     1      -3.001  49.085 -23.644  1.00  0.00     0.022 C 
HETATM    3  C2  UNL     1      -2.537  49.311 -22.214  1.00  0.00    -0.084 C 
HETATM    4  C1  UNL     1      -1.591  48.554 -21.630  1.00  0.00     0.014 C 
HETATM    5  C3  UNL     1      -3.282  50.346 -21.434  1.00  0.00     0.034 C 
HETATM    6  C4  UNL     1      -4.734  49.907 -21.275  1.00  0.00     0.011 C 
HETATM    7  C5  UNL     1      -5.399  49.287 -22.536  1.00  0.00     0.012 C 
HETATM    8  C6  UNL     1      -4.542  49.424 -23.856  1.00  0.00    -0.032 C 
HETATM    9  C11 UNL     1      -6.018  47.861 -22.290  1.00  0.00     0.049 C 
HETATM   10  C7  UNL     1      -4.752  50.885 -24.369  1.00  0.00     0.016 C 
HETATM   11  C8  UNL     1      -5.098  48.486 -24.975  1.00  0.00     0.010 C 
HETATM   12  C9  UNL     1      -6.578  48.178 -24.800  1.00  0.00     0.002 C 
HETATM   13  C10 UNL     1      -6.815  47.362 -23.533  1.00  0.00     0.020 C 
HETATM   14  C12 UNL     1      -4.945  46.808 -21.939  1.00  0.00     0.026 C 
BRANCH   9  15
HETATM   15  C13 UNL     1      -7.013  47.924 -21.110  1.00  0.00     0.267 C 
HETATM   16  O1  UNL     1      -7.999  48.649 -21.061  1.00  0.00    -0.264 OA
BRANCH  15  17
HETATM   17  O2  UNL     1      -6.646  47.070 -20.110  1.00  0.00    -0.326 OA
HETATM   18  C14 UNL     1      -7.727  46.321 -19.554  1.00  0.00     0.213 C 
ENDBRANCH  15  17
ENDBRANCH   9  15
ENDBRANCH   1   2
BRANCH   1  19
HETATM   19  C17 UNL     1      -1.194  50.895 -24.096  1.00  0.00     0.042 C 
BRANCH  19  20
HETATM   20  C18 UNL     1      -0.227  51.425 -25.106  1.00  0.00    -0.024 A 
HETATM   21  C19 UNL     1       0.587  52.542 -24.998  1.00  0.00     0.083 A 
HETATM   22  O5  UNL     1       1.333  52.693 -26.131  1.00  0.00    -0.324 OA
HETATM   23  C28 UNL     1       0.996  51.683 -26.969  1.00  0.00     0.143 A 
HETATM   24  C29 UNL     1       0.047  50.876 -26.392  1.00  0.00     0.034 A 
BRANCH  21  25
HETATM   25  C20 UNL     1       0.803  53.553 -23.931  1.00  0.00     0.244 C 
BRANCH  25  26
HETATM   26  O3  UNL     1       0.832  52.858 -22.678  1.00  0.00    -0.311 OA
BRANCH  26  27
HETATM   27  C21 UNL     1       1.175  53.597 -21.599  1.00  0.00     0.293 C 
HETATM   28  O4  UNL     1       1.696  54.701 -21.613  1.00  0.00    -0.259 OA
BRANCH  27  29
HETATM   29  C22 UNL     1       0.825  52.872 -20.345  1.00  0.00     0.039 A 
HETATM   30  C23 UNL     1      -0.007  51.747 -20.440  1.00  0.00     0.019 A 
HETATM   31  C24 UNL     1      -0.363  51.032 -19.292  1.00  0.00     0.025 A 
HETATM   32  C25 UNL     1       0.114  51.440 -18.047  1.00  0.00     0.034 A 
HETATM   33 CL1  UNL     1      -0.322  50.561 -16.634  1.00  0.00    -0.084 Cl
HETATM   34  C26 UNL     1       0.941  52.558 -17.939  1.00  0.00     0.025 A 
HETATM   35  C27 UNL     1       1.296  53.275 -19.086  1.00  0.00     0.019 A 
ENDBRANCH  27  29
ENDBRANCH  26  27
ENDBRANCH  25  26
ENDBRANCH  21  25
ENDBRANCH  19  20
ENDBRANCH   1  19
TORSDOF 9
ENDMDL
MODEL 7
REMARK minimizedAffinity -8.58871174
REMARK  9 active torsions:
REMARK  status: ('A' for Active; 'I' for Inactive)
REMARK    1  A    between atoms: C11_11  and  C13_13 
REMARK    2  A    between atoms: C13_13  and  O2_15 
REMARK    3  A    between atoms: C15_17  and  C16_18 
REMARK    4  A    between atoms: C16_18  and  C17_19 
REMARK    5  A    between atoms: C17_19  and  C18_20 
REMARK    6  A    between atoms: C19_21  and  C20_22 
REMARK    7  A    between atoms: C20_22  and  O3_23 
REMARK    8  A    between atoms: O3_23  and  C21_24 
REMARK    9  A    between atoms: C21_24  and  C22_26 
ROOT
HETATM    1  C16 UNL     1      -3.387  48.911 -23.251  1.00  0.00     0.014 C 
ENDROOT
BRANCH   1   2
HETATM    2  C15 UNL     1      -2.426  49.780 -24.104  1.00  0.00     0.022 C 
HETATM    3  C2  UNL     1      -2.871  49.880 -25.555  1.00  0.00    -0.084 C 
HETATM    4  C1  UNL     1      -2.561  48.949 -26.474  1.00  0.00     0.014 C 
HETATM    5  C3  UNL     1      -3.568  51.143 -25.946  1.00  0.00     0.034 C 
HETATM    6  C4  UNL     1      -2.610  52.318 -25.783  1.00  0.00     0.011 C 
HETATM    7  C5  UNL     1      -1.731  52.306 -24.500  1.00  0.00     0.012 C 
HETATM    8  C6  UNL     1      -2.135  51.200 -23.446  1.00  0.00    -0.032 C 
HETATM    9  C11 UNL     1      -0.188  52.418 -24.788  1.00  0.00     0.049 C 
HETATM   10  C7  UNL     1      -3.380  51.754 -22.681  1.00  0.00     0.016 C 
HETATM   11  C8  UNL     1      -1.011  51.020 -22.376  1.00  0.00     0.010 C 
HETATM   12  C9  UNL     1      -0.163  52.272 -22.200  1.00  0.00     0.002 C 
HETATM   13  C10 UNL     1       0.630  52.571 -23.470  1.00  0.00     0.020 C 
HETATM   14  C12 UNL     1       0.355  51.198 -25.563  1.00  0.00     0.026 C 
BRANCH   9  15
HETATM   15  C13 UNL     1       0.092  53.675 -25.641  1.00  0.00     0.267 C 
HETATM   16  O1  UNL     1      -0.089  54.829 -25.271  1.00  0.00    -0.264 OA
BRANCH  15  17
HETATM   17  O2  UNL     1       0.557  53.336 -26.879  1.00  0.00    -0.326 OA
HETATM   18  C14 UNL     1      -0.225  53.849 -27.959  1.00  0.00     0.213 C 
ENDBRANCH  15  17
ENDBRANCH   9  15
ENDBRANCH   1   2
BRANCH   1  19
HETATM   19  C17 UNL     1      -4.802  48.770 -23.829  1.00  0.00     0.042 C 
BRANCH  19  20
HETATM   20  C18 UNL     1      -5.613  47.760 -23.081  1.00  0.00    -0.024 A 
HETATM   21  C19 UNL     1      -5.311  47.156 -21.870  1.00  0.00     0.083 A 
HETATM   22  O5  UNL     1      -6.306  46.293 -21.513  1.00  0.00    -0.324 OA
HETATM   23  C28 UNL     1      -7.242  46.333 -22.493  1.00  0.00     0.143 A 
HETATM   24  C29 UNL     1      -6.869  47.217 -23.476  1.00  0.00     0.034 A 
BRANCH  21  25
HETATM   25  C20 UNL     1      -4.171  47.271 -20.925  1.00  0.00     0.244 C 
BRANCH  25  26
HETATM   26  O3  UNL     1      -4.634  47.994 -19.777  1.00  0.00    -0.311 OA
BRANCH  26  27
HETATM   27  C21 UNL     1      -4.625  49.341 -19.882  1.00  0.00     0.293 C 
HETATM   28  O4  UNL     1      -5.544  50.044 -20.271  1.00  0.00    -0.259 OA
BRANCH  27  29
HETATM   29  C22 UNL     1      -3.307  49.884 -19.447  1.00  0.00     0.039 A 
HETATM   30  C23 UNL     1      -3.220  51.250 -19.143  1.00  0.00     0.019 A 
HETATM   31  C24 UNL     1      -2.007  51.807 -18.729  1.00  0.00     0.025 A 
HETATM   32  C25 UNL     1      -0.876  50.998 -18.616  1.00  0.00     0.034 A 
HETATM   33 CL1  UNL     1       0.618  51.681 -18.106  1.00  0.00    -0.084 Cl
HETATM   34  C26 UNL     1      -0.949  49.638 -18.918  1.00  0.00     0.025 A 
HETATM   35  C27 UNL     1      -2.162  49.080 -19.334  1.00  0.00     0.019 A 
ENDBRANCH  27  29
ENDBRANCH  26  27
ENDBRANCH  25  26
ENDBRANCH  21  25
ENDBRANCH  19  20
ENDBRANCH   1  19
TORSDOF 9
ENDMDL
MODEL 8
REMARK minimizedAffinity -8.55715561
REMARK  9 active torsions:
REMARK  status: ('A' for Active; 'I' for Inactive)
REMARK    1  A    between atoms: C11_11  and  C13_13 
REMARK    2  A    between atoms: C13_13  and  O2_15 
REMARK    3  A    between atoms: C15_17  and  C16_18 
REMARK    4  A    between atoms: C16_18  and  C17_19 
REMARK    5  A    between atoms: C17_19  and  C18_20 
REMARK    6  A    between atoms: C19_21  and  C20_22 
REMARK    7  A    between atoms: C20_22  and  O3_23 
REMARK    8  A    between atoms: O3_23  and  C21_24 
REMARK    9  A    between atoms: C21_24  and  C22_26 
ROOT
HETATM    1  C16 UNL     1      -0.963  51.237 -23.616  1.00  0.00     0.014 C 
ENDROOT
BRANCH   1   2
HETATM    2  C15 UNL     1      -2.299  50.486 -23.374  1.00  0.00     0.022 C 
HETATM    3  C2  UNL     1      -2.958  50.886 -22.063  1.00  0.00    -0.084 C 
HETATM    4  C1  UNL     1      -2.632  50.323 -20.886  1.00  0.00     0.014 C 
HETATM    5  C3  UNL     1      -4.092  51.855 -22.164  1.00  0.00     0.034 C 
HETATM    6  C4  UNL     1      -5.228  51.220 -22.958  1.00  0.00     0.011 C 
HETATM    7  C5  UNL     1      -4.809  50.415 -24.219  1.00  0.00     0.012 C 
HETATM    8  C6  UNL     1      -3.288  50.576 -24.618  1.00  0.00    -0.032 C 
HETATM    9  C11 UNL     1      -5.348  48.936 -24.236  1.00  0.00     0.049 C 
HETATM   10  C7  UNL     1      -3.170  51.947 -25.358  1.00  0.00     0.016 C 
HETATM   11  C8  UNL     1      -2.871  49.484 -25.654  1.00  0.00     0.010 C 
HETATM   12  C9  UNL     1      -4.046  48.975 -26.476  1.00  0.00     0.002 C 
HETATM   13  C10 UNL     1      -5.043  48.231 -25.592  1.00  0.00     0.020 C 
HETATM   14  C12 UNL     1      -4.752  48.083 -23.095  1.00  0.00     0.026 C 
BRANCH   9  15
HETATM   15  C13 UNL     1      -6.882  48.940 -24.063  1.00  0.00     0.267 C 
HETATM   16  O1  UNL     1      -7.507  49.725 -23.359  1.00  0.00    -0.264 OA
BRANCH  15  17
HETATM   17  O2  UNL     1      -7.463  47.940 -24.789  1.00  0.00    -0.326 OA
HETATM   18  C14 UNL     1      -8.659  48.327 -25.465  1.00  0.00     0.213 C 
ENDBRANCH  15  17
ENDBRANCH   9  15
ENDBRANCH   1   2
BRANCH   1  19
HETATM   19  C17 UNL     1      -0.195  51.600 -22.338  1.00  0.00     0.042 C 
BRANCH  19  20
HETATM   20  C18 UNL     1       0.529  52.902 -22.472  1.00  0.00    -0.024 A 
HETATM   21  C19 UNL     1       1.106  53.660 -21.465  1.00  0.00     0.083 A 
HETATM   22  O5  UNL     1       1.679  54.783 -21.989  1.00  0.00    -0.324 OA
HETATM   23  C28 UNL     1       1.466  54.752 -23.328  1.00  0.00     0.143 A 
HETATM   24  C29 UNL     1       0.769  53.621 -23.678  1.00  0.00     0.034 A 
BRANCH  21  25
HETATM   25  C20 UNL     1       1.224  53.490 -19.994  1.00  0.00     0.244 C 
BRANCH  25  26
HETATM   26  O3  UNL     1       0.721  52.188 -19.669  1.00  0.00    -0.311 OA
BRANCH  26  27
HETATM   27  C21 UNL     1      -0.182  52.136 -18.664  1.00  0.00     0.293 C 
HETATM   28  O4  UNL     1      -1.365  52.428 -18.738  1.00  0.00    -0.259 OA
BRANCH  27  29
HETATM   29  C22 UNL     1       0.467  51.658 -17.411  1.00  0.00     0.039 A 
HETATM   30  C23 UNL     1      -0.004  50.470 -16.832  1.00  0.00     0.019 A 
HETATM   31  C24 UNL     1       0.573  49.979 -15.657  1.00  0.00     0.025 A 
HETATM   32  C25 UNL     1       1.623  50.674 -15.059  1.00  0.00     0.034 A 
HETATM   33 CL1  UNL     1       2.335  50.071 -13.613  1.00  0.00    -0.084 Cl
HETATM   34  C26 UNL     1       2.100  51.857 -15.623  1.00  0.00     0.025 A 
HETATM   35  C27 UNL     1       1.523  52.351 -16.798  1.00  0.00     0.019 A 
ENDBRANCH  27  29
ENDBRANCH  26  27
ENDBRANCH  25  26
ENDBRANCH  21  25
ENDBRANCH  19  20
ENDBRANCH   1  19
TORSDOF 9
ENDMDL
MODEL 9
REMARK minimizedAffinity -8.52733231
REMARK  9 active torsions:
REMARK  status: ('A' for Active; 'I' for Inactive)
REMARK    1  A    between atoms: C11_11  and  C13_13 
REMARK    2  A    between atoms: C13_13  and  O2_15 
REMARK    3  A    between atoms: C15_17  and  C16_18 
REMARK    4  A    between atoms: C16_18  and  C17_19 
REMARK    5  A    between atoms: C17_19  and  C18_20 
REMARK    6  A    between atoms: C19_21  and  C20_22 
REMARK    7  A    between atoms: C20_22  and  O3_23 
REMARK    8  A    between atoms: O3_23  and  C21_24 
REMARK    9  A    between atoms: C21_24  and  C22_26 
ROOT
HETATM    1  C16 UNL     1      -3.078  49.071 -22.928  1.00  0.00     0.014 C 
ENDROOT
BRANCH   1   2
HETATM    2  C15 UNL     1      -2.196  49.898 -23.899  1.00  0.00     0.022 C 
HETATM    3  C2  UNL     1      -2.764  49.932 -25.310  1.00  0.00    -0.084 C 
HETATM    4  C1  UNL     1      -2.532  48.959 -26.208  1.00  0.00     0.014 C 
HETATM    5  C3  UNL     1      -3.495  51.177 -25.697  1.00  0.00     0.034 C 
HETATM    6  C4  UNL     1      -2.529  52.357 -25.670  1.00  0.00     0.011 C 
HETATM    7  C5  UNL     1      -1.543  52.402 -24.469  1.00  0.00     0.012 C 
HETATM    8  C6  UNL     1      -1.852  51.346 -23.335  1.00  0.00    -0.032 C 
HETATM    9  C11 UNL     1      -0.031  52.499 -24.893  1.00  0.00     0.049 C 
HETATM   10  C7  UNL     1      -3.028  51.937 -22.492  1.00  0.00     0.016 C 
HETATM   11  C8  UNL     1      -0.640  51.215 -22.359  1.00  0.00     0.010 C 
HETATM   12  C9  UNL     1       0.217  52.471 -22.314  1.00  0.00     0.002 C 
HETATM   13  C10 UNL     1       0.897  52.710 -23.659  1.00  0.00     0.020 C 
HETATM   14  C12 UNL     1       0.446  51.244 -25.655  1.00  0.00     0.026 C 
BRANCH   9  15
HETATM   15  C13 UNL     1       0.171  53.714 -25.825  1.00  0.00     0.267 C 
HETATM   16  O1  UNL     1       0.021  54.884 -25.494  1.00  0.00    -0.264 OA
BRANCH  15  17
HETATM   17  O2  UNL     1       0.528  53.318 -27.081  1.00  0.00    -0.326 OA
HETATM   18  C14 UNL     1      -0.330  53.804 -28.114  1.00  0.00     0.213 C 
ENDBRANCH  15  17
ENDBRANCH   9  15
ENDBRANCH   1   2
BRANCH   1  19
HETATM   19  C17 UNL     1      -2.398  47.816 -22.361  1.00  0.00     0.042 C 
BRANCH  19  20
HETATM   20  C18 UNL     1      -2.386  47.814 -20.866  1.00  0.00    -0.024 A 
HETATM   21  C19 UNL     1      -3.294  47.209 -20.010  1.00  0.00     0.083 A 
HETATM   22  O5  UNL     1      -2.937  47.430 -18.711  1.00  0.00    -0.324 OA
HETATM   23  C28 UNL     1      -1.809  48.182 -18.729  1.00  0.00     0.143 A 
HETATM   24  C29 UNL     1      -1.427  48.444 -20.022  1.00  0.00     0.034 A 
BRANCH  21  25
HETATM   25  C20 UNL     1      -4.517  46.394 -20.223  1.00  0.00     0.244 C 
BRANCH  25  26
HETATM   26  O3  UNL     1      -5.454  47.205 -20.944  1.00  0.00    -0.311 OA
BRANCH  26  27
HETATM   27  C21 UNL     1      -6.551  46.568 -21.411  1.00  0.00     0.293 C 
HETATM   28  O4  UNL     1      -7.307  45.858 -20.767  1.00  0.00    -0.259 OA
BRANCH  27  29
HETATM   29  C22 UNL     1      -6.733  46.852 -22.863  1.00  0.00     0.039 A 
HETATM   30  C23 UNL     1      -7.702  46.120 -23.565  1.00  0.00     0.019 A 
HETATM   31  C24 UNL     1      -7.911  46.350 -24.928  1.00  0.00     0.025 A 
HETATM   32  C25 UNL     1      -7.154  47.315 -25.592  1.00  0.00     0.034 A 
HETATM   33 CL1  UNL     1      -7.412  47.601 -27.268  1.00  0.00    -0.084 Cl
HETATM   34  C26 UNL     1      -6.187  48.049 -24.905  1.00  0.00     0.025 A 
HETATM   35  C27 UNL     1      -5.975  47.819 -23.542  1.00  0.00     0.019 A 
ENDBRANCH  27  29
ENDBRANCH  26  27
ENDBRANCH  25  26
ENDBRANCH  21  25
ENDBRANCH  19  20
ENDBRANCH   1  19
TORSDOF 9
ENDMDL
