MODEL 1
REMARK minimizedAffinity -10.1641798
REMARK CNNscore 0.57850951
REMARK CNNaffinity 7.55062723
REMARK  10 active torsions:
REMARK  status: ('A' for Active; 'I' for Inactive)
REMARK    1  A    between atoms: O1_2  and  C2_3 
REMARK    2  A    between atoms: C4_5  and  O2_6 
REMARK    3  A    between atoms: O2_6  and  C5_7 
REMARK    4  A    between atoms: C8_10  and  C9_11 
REMARK    5  A    between atoms: N1_12  and  C10_14 
REMARK    6  A    between atoms: C10_14  and  C11_15 
REMARK    7  A    between atoms: C21_27  and  C22_28 
REMARK    8  A    between atoms: C28_36  and  O5_37 
REMARK    9  A    between atoms: C32_41  and  O6_42 
REMARK   10  A    between atoms: C36_47  and  O8_48 
ROOT
HETATM    1  C5  UNL     1      -5.840   7.814  15.304  1.00  0.00     0.127 C 
HETATM    2  C6  UNL     1      -5.697   8.536  13.966  1.00  0.00     0.033 C 
HETATM    3  C7  UNL     1      -4.377   8.233  13.249  1.00  0.00     0.021 C 
HETATM    4  C8  UNL     1      -3.094   8.442  14.117  1.00  0.00     0.026 C 
HETATM    5  C16 UNL     1      -1.859   7.908  13.265  1.00  0.00     0.009 C 
HETATM    6  C17 UNL     1      -1.116   9.025  12.499  1.00  0.00     0.007 C 
HETATM    7  C18 UNL     1       0.036   8.500  11.648  1.00  0.00     0.013 C 
HETATM    8  C19 UNL     1       1.068   7.685  12.466  1.00  0.00    -0.005 C 
HETATM    9  C20 UNL     1       1.869   8.628  13.390  1.00  0.00     0.019 C 
HETATM   10  C21 UNL     1       2.016   6.862  11.542  1.00  0.00     0.028 C 
HETATM   11  C26 UNL     1       1.139   5.677  11.090  1.00  0.00     0.013 C 
HETATM   12  C27 UNL     1       0.066   5.486  12.174  1.00  0.00     0.040 C 
HETATM   13  C28 UNL     1       0.355   6.549  13.256  1.00  0.00     0.070 C 
HETATM   14  C29 UNL     1      -0.874   7.035  14.077  1.00  0.00     0.026 C 
HETATM   15  C30 UNL     1      -1.607   5.865  14.772  1.00  0.00     0.011 C 
HETATM   16  C31 UNL     1      -3.021   6.190  15.275  1.00  0.00     0.039 C 
HETATM   17  C32 UNL     1      -3.253   7.696  15.481  1.00  0.00     0.073 C 
HETATM   18  C33 UNL     1      -4.597   8.018  16.169  1.00  0.00     0.071 C 
ENDROOT
BRANCH   1  19
HETATM   19  O2  UNL     1      -6.050   6.420  15.063  1.00  0.00    -0.356 OA
BRANCH  19  20
HETATM   20  C4  UNL     1      -6.993   6.165  14.014  1.00  0.00     0.263 C 
HETATM   21  C3  UNL     1      -7.046   4.658  13.827  1.00  0.00     0.095 C 
HETATM   22  C2  UNL     1      -7.945   4.288  12.646  1.00  0.00     0.156 C 
HETATM   23  C36 UNL     1      -9.111   5.285  12.485  1.00  0.00     0.175 C 
HETATM   24  C34 UNL     1      -9.398   5.990  13.822  1.00  0.00     0.151 C 
HETATM   25  O7  UNL     1      -8.267   6.711  14.336  1.00  0.00    -0.354 OA
HETATM   26  C35 UNL     1     -10.547   6.992  13.717  1.00  0.00     0.042 C 
BRANCH  22  27
HETATM   27  O1  UNL     1      -8.505   2.980  12.835  1.00  0.00    -0.388 OA
HETATM   28  C1  UNL     1      -7.558   1.932  12.664  1.00  0.00     0.202 C 
ENDBRANCH  22  27
BRANCH  23  29
HETATM   29  O8  UNL     1      -8.772   6.257  11.486  1.00  0.00    -0.390 OA
HETATM   30  H50 UNL     1      -8.834   5.813  10.621  1.00  0.00     0.210 HD
ENDBRANCH  23  29
ENDBRANCH  19  20
ENDBRANCH   1  19
BRANCH  17  31
HETATM   31  O6  UNL     1      -2.242   8.140  16.410  1.00  0.00    -0.389 OA
HETATM   32  H42 UNL     1      -2.362   7.639  17.237  1.00  0.00     0.210 HD
ENDBRANCH  17  31
BRANCH   4  33
HETATM   33  C9  UNL     1      -2.888   9.931  14.437  1.00  0.00     0.069 C 
HETATM   34  N1  UNL     1      -3.732  10.599  15.153  1.00  0.00    -0.397 N 
ATOM     35  H1  UNL     1      -4.560  10.179  15.576  1.00  0.00     0.159 HD
BRANCH  34  36
HETATM   36  C10 UNL     1      -3.388  12.014  15.299  1.00  0.00     0.158 C 
BRANCH  36  37
HETATM   37  C11 UNL     1      -3.572  12.455  16.722  1.00  0.00    -0.025 A 
HETATM   38  C12 UNL     1      -3.718  11.532  17.760  1.00  0.00     0.011 A 
HETATM   39  C13 UNL     1      -3.867  11.987  19.067  1.00  0.00     0.018 A 
HETATM   40  C14 UNL     1      -3.856  13.353  19.292  1.00  0.00     0.087 A 
HETATM   41  N2  UNL     1      -3.706  14.275  18.318  1.00  0.00    -0.375 N 
HETATM   42  C15 UNL     1      -3.556  13.806  17.059  1.00  0.00     0.096 A 
ATOM     43  H2  UNL     1      -3.706  15.274  18.522  1.00  0.00     0.164 HD
ENDBRANCH  36  37
ENDBRANCH  34  36
ENDBRANCH   4  33
BRANCH  13  44
HETATM   44  O5  UNL     1       1.302   5.975  14.173  1.00  0.00    -0.389 OA
HETATM   45  H36 UNL     1       0.921   5.154  14.532  1.00  0.00     0.210 HD
ENDBRANCH  13  44
BRANCH  10  46
HETATM   46  C22 UNL     1       2.720   7.615  10.446  1.00  0.00    -0.045 A 
HETATM   47  C23 UNL     1       2.284   7.956   9.233  1.00  0.00     0.087 A 
HETATM   48  C24 UNL     1       3.384   8.640   8.552  1.00  0.00     0.283 A 
HETATM   49  O3  UNL     1       3.327   9.100   7.425  1.00  0.00    -0.260 OA
HETATM   50  O4  UNL     1       4.465   8.672   9.373  1.00  0.00    -0.314 OA
HETATM   51  C25 UNL     1       4.133   8.037  10.607  1.00  0.00     0.213 A 
ENDBRANCH  10  46
TORSDOF 10
ENDMDL
MODEL 2
REMARK minimizedAffinity -9.43757629
REMARK CNNscore 0.556911349
REMARK CNNaffinity 7.30737162
REMARK  10 active torsions:
REMARK  status: ('A' for Active; 'I' for Inactive)
REMARK    1  A    between atoms: O1_2  and  C2_3 
REMARK    2  A    between atoms: C4_5  and  O2_6 
REMARK    3  A    between atoms: O2_6  and  C5_7 
REMARK    4  A    between atoms: C8_10  and  C9_11 
REMARK    5  A    between atoms: N1_12  and  C10_14 
REMARK    6  A    between atoms: C10_14  and  C11_15 
REMARK    7  A    between atoms: C21_27  and  C22_28 
REMARK    8  A    between atoms: C28_36  and  O5_37 
REMARK    9  A    between atoms: C32_41  and  O6_42 
REMARK   10  A    between atoms: C36_47  and  O8_48 
ROOT
HETATM    1  C5  UNL     1      -4.973   7.535  14.459  1.00  0.00     0.127 C 
HETATM    2  C6  UNL     1      -4.555   8.634  13.483  1.00  0.00     0.033 C 
HETATM    3  C7  UNL     1      -3.069   8.582  13.111  1.00  0.00     0.021 C 
HETATM    4  C8  UNL     1      -2.087   8.533  14.326  1.00  0.00     0.026 C 
HETATM    5  C16 UNL     1      -0.625   8.302  13.739  1.00  0.00     0.009 C 
HETATM    6  C17 UNL     1       0.180   9.610  13.570  1.00  0.00     0.007 C 
HETATM    7  C18 UNL     1       1.561   9.387  12.963  1.00  0.00     0.013 C 
HETATM    8  C19 UNL     1       2.416   8.375  13.765  1.00  0.00    -0.005 C 
HETATM    9  C20 UNL     1       2.848   9.001  15.108  1.00  0.00     0.019 C 
HETATM   10  C21 UNL     1       3.650   7.887  12.947  1.00  0.00     0.028 C 
HETATM   11  C26 UNL     1       3.044   6.884  11.945  1.00  0.00     0.013 C 
HETATM   12  C27 UNL     1       1.748   6.357  12.580  1.00  0.00     0.040 C 
HETATM   13  C28 UNL     1       1.635   7.042  13.959  1.00  0.00     0.070 C 
HETATM   14  C29 UNL     1       0.192   7.237  14.505  1.00  0.00     0.026 C 
HETATM   15  C30 UNL     1      -0.580   5.900  14.597  1.00  0.00     0.011 C 
HETATM   16  C31 UNL     1      -2.101   6.037  14.754  1.00  0.00     0.039 C 
HETATM   17  C32 UNL     1      -2.526   7.405  15.314  1.00  0.00     0.073 C 
HETATM   18  C33 UNL     1      -4.029   7.482  15.659  1.00  0.00     0.071 C 
ENDROOT
BRANCH   1  19
HETATM   19  O2  UNL     1      -4.974   6.279  13.776  1.00  0.00    -0.356 OA
BRANCH  19  20
HETATM   20  C4  UNL     1      -6.241   5.959  13.186  1.00  0.00     0.263 C 
HETATM   21  C3  UNL     1      -6.365   4.444  13.205  1.00  0.00     0.095 C 
HETATM   22  C2  UNL     1      -7.641   3.994  12.491  1.00  0.00     0.156 C 
HETATM   23  C36 UNL     1      -8.779   5.021  12.660  1.00  0.00     0.175 C 
HETATM   24  C34 UNL     1      -8.545   5.874  13.919  1.00  0.00     0.151 C 
HETATM   25  O7  UNL     1      -7.302   6.593  13.893  1.00  0.00    -0.354 OA
HETATM   26  C35 UNL     1      -9.647   6.911  14.132  1.00  0.00     0.042 C 
BRANCH  22  27
HETATM   27  O1  UNL     1      -8.094   2.740  13.021  1.00  0.00    -0.388 OA
HETATM   28  C1  UNL     1      -7.389   1.620  12.500  1.00  0.00     0.202 C 
ENDBRANCH  22  27
BRANCH  23  29
HETATM   29  O8  UNL     1      -8.834   5.867  11.502  1.00  0.00    -0.390 OA
HETATM   30  H50 UNL     1      -9.215   5.338  10.779  1.00  0.00     0.210 HD
ENDBRANCH  23  29
ENDBRANCH  19  20
ENDBRANCH   1  19
BRANCH  17  31
HETATM   31  O6  UNL     1      -1.845   7.557  16.576  1.00  0.00    -0.389 OA
HETATM   32  H42 UNL     1      -2.128   6.826  17.154  1.00  0.00     0.210 HD
ENDBRANCH  17  31
BRANCH   4  33
HETATM   33  C9  UNL     1      -2.120   9.856  15.108  1.00  0.00     0.069 C 
HETATM   34  N1  UNL     1      -2.929  10.815  14.793  1.00  0.00    -0.397 N 
ATOM     35  H1  UNL     1      -3.612  10.744  14.040  1.00  0.00     0.159 HD
BRANCH  34  36
HETATM   36  C10 UNL     1      -2.770  12.012  15.621  1.00  0.00     0.158 C 
BRANCH  36  37
HETATM   37  C11 UNL     1      -2.377  13.187  14.775  1.00  0.00    -0.025 A 
HETATM   38  C12 UNL     1      -3.272  14.224  14.502  1.00  0.00     0.011 A 
HETATM   39  C13 UNL     1      -2.857  15.304  13.728  1.00  0.00     0.018 A 
HETATM   40  C14 UNL     1      -1.554  15.314  13.259  1.00  0.00     0.087 A 
HETATM   41  N2  UNL     1      -0.657  14.338  13.511  1.00  0.00    -0.375 N 
HETATM   42  C15 UNL     1      -1.083  13.304  14.271  1.00  0.00     0.096 A 
ATOM     43  H2  UNL     1       0.295  14.377  13.146  1.00  0.00     0.164 HD
ENDBRANCH  36  37
ENDBRANCH  34  36
ENDBRANCH   4  33
BRANCH  13  44
HETATM   44  O5  UNL     1       2.359   6.228  14.898  1.00  0.00    -0.389 OA
HETATM   45  H36 UNL     1       1.979   5.332  14.881  1.00  0.00     0.210 HD
ENDBRANCH  13  44
BRANCH  10  46
HETATM   46  C22 UNL     1       4.540   8.949  12.360  1.00  0.00    -0.045 A 
HETATM   47  C23 UNL     1       5.211   9.928  12.968  1.00  0.00     0.087 A 
HETATM   48  C24 UNL     1       5.883  10.704  11.926  1.00  0.00     0.283 A 
HETATM   49  O3  UNL     1       6.598  11.670  12.130  1.00  0.00    -0.260 OA
HETATM   50  O4  UNL     1       5.578  10.181  10.712  1.00  0.00    -0.314 OA
HETATM   51  C25 UNL     1       4.720   9.054  10.891  1.00  0.00     0.213 A 
ENDBRANCH  10  46
TORSDOF 10
ENDMDL
MODEL 3
REMARK minimizedAffinity -7.2119956
REMARK CNNscore 0.519277453
REMARK CNNaffinity 6.81692934
REMARK  10 active torsions:
REMARK  status: ('A' for Active; 'I' for Inactive)
REMARK    1  A    between atoms: O1_2  and  C2_3 
REMARK    2  A    between atoms: C4_5  and  O2_6 
REMARK    3  A    between atoms: O2_6  and  C5_7 
REMARK    4  A    between atoms: C8_10  and  C9_11 
REMARK    5  A    between atoms: N1_12  and  C10_14 
REMARK    6  A    between atoms: C10_14  and  C11_15 
REMARK    7  A    between atoms: C21_27  and  C22_28 
REMARK    8  A    between atoms: C28_36  and  O5_37 
REMARK    9  A    between atoms: C32_41  and  O6_42 
REMARK   10  A    between atoms: C36_47  and  O8_48 
ROOT
HETATM    1  C5  UNL     1     -11.299   6.988  13.584  1.00  0.00     0.127 C 
HETATM    2  C6  UNL     1     -12.175   7.786  12.620  1.00  0.00     0.033 C 
HETATM    3  C7  UNL     1     -11.993   9.302  12.748  1.00  0.00     0.021 C 
HETATM    4  C8  UNL     1     -12.136   9.862  14.200  1.00  0.00     0.026 C 
HETATM    5  C16 UNL     1     -11.739  11.404  14.150  1.00  0.00     0.009 C 
HETATM    6  C17 UNL     1     -12.958  12.346  14.026  1.00  0.00     0.007 C 
HETATM    7  C18 UNL     1     -12.567  13.817  13.931  1.00  0.00     0.013 C 
HETATM    8  C19 UNL     1     -11.692  14.287  15.120  1.00  0.00    -0.005 C 
HETATM    9  C20 UNL     1     -12.544  14.352  16.405  1.00  0.00     0.019 C 
HETATM   10  C21 UNL     1     -11.008  15.657  14.826  1.00  0.00     0.028 C 
HETATM   11  C26 UNL     1      -9.859  15.286  13.866  1.00  0.00     0.013 C 
HETATM   12  C27 UNL     1      -9.515  13.814  14.140  1.00  0.00     0.040 C 
HETATM   13  C28 UNL     1     -10.453  13.358  15.279  1.00  0.00     0.070 C 
HETATM   14  C29 UNL     1     -10.807  11.843  15.302  1.00  0.00     0.026 C 
HETATM   15  C30 UNL     1      -9.544  10.953  15.369  1.00  0.00     0.011 C 
HETATM   16  C31 UNL     1      -9.769   9.477  15.015  1.00  0.00     0.039 C 
HETATM   17  C32 UNL     1     -11.235   9.038  15.175  1.00  0.00     0.073 C 
HETATM   18  C33 UNL     1     -11.437   7.516  15.011  1.00  0.00     0.071 C 
ENDROOT
BRANCH   1  19
HETATM   19  O2  UNL     1      -9.937   7.070  13.157  1.00  0.00    -0.356 OA
BRANCH  19  20
HETATM   20  C4  UNL     1      -9.095   6.080  13.762  1.00  0.00     0.263 C 
HETATM   21  C3  UNL     1      -8.641   5.150  12.649  1.00  0.00     0.095 C 
HETATM   22  C2  UNL     1      -7.825   3.986  13.214  1.00  0.00     0.156 C 
HETATM   23  C36 UNL     1      -7.017   4.409  14.458  1.00  0.00     0.175 C 
HETATM   24  C34 UNL     1      -6.781   5.929  14.448  1.00  0.00     0.151 C 
HETATM   25  O7  UNL     1      -7.998   6.692  14.431  1.00  0.00    -0.354 OA
HETATM   26  C35 UNL     1      -5.984   6.402  15.664  1.00  0.00     0.042 C 
BRANCH  22  27
HETATM   27  O1  UNL     1      -6.900   3.502  12.230  1.00  0.00    -0.388 OA
HETATM   28  C1  UNL     1      -6.855   2.081  12.150  1.00  0.00     0.202 C 
ENDBRANCH  22  27
BRANCH  23  29
HETATM   29  O8  UNL     1      -7.736   4.036  15.643  1.00  0.00    -0.390 OA
HETATM   30  H50 UNL     1      -7.656   3.070  15.734  1.00  0.00     0.210 HD
ENDBRANCH  23  29
ENDBRANCH  19  20
ENDBRANCH   1  19
BRANCH  17  31
HETATM   31  O6  UNL     1     -11.596   9.318  16.542  1.00  0.00    -0.389 OA
HETATM   32  H42 UNL     1     -11.000   8.804  17.116  1.00  0.00     0.210 HD
ENDBRANCH  17  31
BRANCH   4  33
HETATM   33  C9  UNL     1     -13.584   9.724  14.698  1.00  0.00     0.069 C 
HETATM   34  N1  UNL     1     -14.003   8.653  15.290  1.00  0.00    -0.397 N 
ATOM     35  H1  UNL     1     -13.401   7.856  15.494  1.00  0.00     0.159 HD
BRANCH  34  36
HETATM   36  C10 UNL     1     -15.424   8.694  15.639  1.00  0.00     0.158 C 
BRANCH  36  37
HETATM   37  C11 UNL     1     -16.043   7.336  15.478  1.00  0.00    -0.025 A 
HETATM   38  C12 UNL     1     -15.279   6.221  15.126  1.00  0.00     0.011 A 
HETATM   39  C13 UNL     1     -15.892   4.977  15.007  1.00  0.00     0.018 A 
HETATM   40  C14 UNL     1     -17.252   4.890  15.253  1.00  0.00     0.087 A 
HETATM   41  N2  UNL     1     -18.022   5.941  15.606  1.00  0.00    -0.375 N 
HETATM   42  C15 UNL     1     -17.400   7.136  15.722  1.00  0.00     0.096 A 
ATOM     43  H2  UNL     1     -19.023   5.839  15.777  1.00  0.00     0.164 HD
ENDBRANCH  36  37
ENDBRANCH  34  36
ENDBRANCH   4  33
BRANCH  13  44
HETATM   44  O5  UNL     1      -9.804  13.681  16.520  1.00  0.00    -0.389 OA
HETATM   45  H36 UNL     1      -8.937  13.239  16.536  1.00  0.00     0.210 HD
ENDBRANCH  13  44
BRANCH  10  46
HETATM   46  C22 UNL     1     -11.902  16.781  14.379  1.00  0.00    -0.045 A 
HETATM   47  C23 UNL     1     -13.133  16.738  13.867  1.00  0.00     0.087 A 
HETATM   48  C24 UNL     1     -13.526  18.114  13.564  1.00  0.00     0.283 A 
HETATM   49  O3  UNL     1     -14.601  18.443  13.094  1.00  0.00    -0.260 OA
HETATM   50  O4  UNL     1     -12.506  18.950  13.882  1.00  0.00    -0.314 OA
HETATM   51  C25 UNL     1     -11.422  18.185  14.410  1.00  0.00     0.213 A 
ENDBRANCH  10  46
TORSDOF 10
ENDMDL
MODEL 4
REMARK minimizedAffinity -9.67914581
REMARK CNNscore 0.362112164
REMARK CNNaffinity 6.93307638
REMARK  10 active torsions:
REMARK  status: ('A' for Active; 'I' for Inactive)
REMARK    1  A    between atoms: O1_2  and  C2_3 
REMARK    2  A    between atoms: C4_5  and  O2_6 
REMARK    3  A    between atoms: O2_6  and  C5_7 
REMARK    4  A    between atoms: C8_10  and  C9_11 
REMARK    5  A    between atoms: N1_12  and  C10_14 
REMARK    6  A    between atoms: C10_14  and  C11_15 
REMARK    7  A    between atoms: C21_27  and  C22_28 
REMARK    8  A    between atoms: C28_36  and  O5_37 
REMARK    9  A    between atoms: C32_41  and  O6_42 
REMARK   10  A    between atoms: C36_47  and  O8_48 
ROOT
HETATM    1  C5  UNL     1      -5.131   7.748  14.560  1.00  0.00     0.127 C 
HETATM    2  C6  UNL     1      -4.726   8.718  13.452  1.00  0.00     0.033 C 
HETATM    3  C7  UNL     1      -3.266   8.562  13.012  1.00  0.00     0.021 C 
HETATM    4  C8  UNL     1      -2.221   8.599  14.174  1.00  0.00     0.026 C 
HETATM    5  C16 UNL     1      -0.803   8.243  13.540  1.00  0.00     0.009 C 
HETATM    6  C17 UNL     1       0.041   9.489  13.191  1.00  0.00     0.007 C 
HETATM    7  C18 UNL     1       1.376   9.143  12.542  1.00  0.00     0.013 C 
HETATM    8  C19 UNL     1       2.235   8.184  13.403  1.00  0.00    -0.005 C 
HETATM    9  C20 UNL     1       2.765   8.928  14.647  1.00  0.00     0.019 C 
HETATM   10  C21 UNL     1       3.402   7.559  12.580  1.00  0.00     0.028 C 
HETATM   11  C26 UNL     1       2.703   6.484  11.724  1.00  0.00     0.013 C 
HETATM   12  C27 UNL     1       1.425   6.084  12.477  1.00  0.00     0.040 C 
HETATM   13  C28 UNL     1       1.416   6.914  13.778  1.00  0.00     0.070 C 
HETATM   14  C29 UNL     1       0.013   7.230  14.374  1.00  0.00     0.026 C 
HETATM   15  C30 UNL     1      -0.803   5.945  14.648  1.00  0.00     0.011 C 
HETATM   16  C31 UNL     1      -2.306   6.164  14.867  1.00  0.00     0.039 C 
HETATM   17  C32 UNL     1      -2.646   7.601  15.298  1.00  0.00     0.073 C 
HETATM   18  C33 UNL     1      -4.124   7.780  15.709  1.00  0.00     0.071 C 
ENDROOT
BRANCH   1  19
HETATM   19  O2  UNL     1      -5.218   6.428  14.017  1.00  0.00    -0.356 OA
BRANCH  19  20
HETATM   20  C4  UNL     1      -6.478   6.160  13.387  1.00  0.00     0.263 C 
HETATM   21  C3  UNL     1      -6.600   4.649  13.275  1.00  0.00     0.095 C 
HETATM   22  C2  UNL     1      -7.867   4.261  12.511  1.00  0.00     0.156 C 
HETATM   23  C36 UNL     1      -9.009   5.270  12.755  1.00  0.00     0.175 C 
HETATM   24  C34 UNL     1      -8.790   6.012  14.085  1.00  0.00     0.151 C 
HETATM   25  O7  UNL     1      -7.547   6.731  14.134  1.00  0.00    -0.354 OA
HETATM   26  C35 UNL     1      -9.895   7.027  14.373  1.00  0.00     0.042 C 
BRANCH  22  27
HETATM   27  O1  UNL     1      -8.325   2.967  12.927  1.00  0.00    -0.388 OA
HETATM   28  C1  UNL     1      -7.395   1.925  12.651  1.00  0.00     0.202 C 
ENDBRANCH  22  27
BRANCH  23  29
HETATM   29  O8  UNL     1      -9.051   6.212  11.673  1.00  0.00    -0.390 OA
HETATM   30  H50 UNL     1      -9.424   5.747  10.903  1.00  0.00     0.210 HD
ENDBRANCH  23  29
ENDBRANCH  19  20
ENDBRANCH   1  19
BRANCH  17  31
HETATM   31  O6  UNL     1      -1.891   7.855  16.500  1.00  0.00    -0.389 OA
HETATM   32  H42 UNL     1      -2.170   7.202  17.167  1.00  0.00     0.210 HD
ENDBRANCH  17  31
BRANCH   4  33
HETATM   33  C9  UNL     1      -2.160   9.996  14.810  1.00  0.00     0.069 C 
HETATM   34  N1  UNL     1      -1.068  10.469  15.316  1.00  0.00    -0.397 N 
ATOM     35  H1  UNL     1      -0.180   9.967  15.296  1.00  0.00     0.159 HD
BRANCH  34  36
HETATM   36  C10 UNL     1      -1.226  11.792  15.922  1.00  0.00     0.158 C 
BRANCH  36  37
HETATM   37  C11 UNL     1      -0.452  11.877  17.206  1.00  0.00    -0.025 A 
HETATM   38  C12 UNL     1      -0.877  11.217  18.361  1.00  0.00     0.011 A 
HETATM   39  C13 UNL     1      -0.117  11.310  19.524  1.00  0.00     0.018 A 
HETATM   40  C14 UNL     1       1.050  12.053  19.488  1.00  0.00     0.087 A 
HETATM   41  N2  UNL     1       1.500  12.695  18.389  1.00  0.00    -0.375 N 
HETATM   42  C15 UNL     1       0.747  12.583  17.271  1.00  0.00     0.096 A 
ATOM     43  H2  UNL     1       2.364  13.237  18.400  1.00  0.00     0.164 HD
ENDBRANCH  36  37
ENDBRANCH  34  36
ENDBRANCH   4  33
BRANCH  13  44
HETATM   44  O5  UNL     1       2.159   6.173  14.761  1.00  0.00    -0.389 OA
HETATM   45  H36 UNL     1       1.745   5.298  14.860  1.00  0.00     0.210 HD
ENDBRANCH  13  44
BRANCH  10  46
HETATM   46  C22 UNL     1       4.298   8.513  11.838  1.00  0.00    -0.045 A 
HETATM   47  C23 UNL     1       5.076   9.489  12.307  1.00  0.00     0.087 A 
HETATM   48  C24 UNL     1       5.699  10.139  11.154  1.00  0.00     0.283 A 
HETATM   49  O3  UNL     1       6.485  11.068  11.219  1.00  0.00    -0.260 OA
HETATM   50  O4  UNL     1       5.258   9.547  10.015  1.00  0.00    -0.314 OA
HETATM   51  C25 UNL     1       4.355   8.495  10.355  1.00  0.00     0.213 A 
ENDBRANCH  10  46
TORSDOF 10
ENDMDL
MODEL 5
REMARK minimizedAffinity -7.96550846
REMARK CNNscore 0.321270823
REMARK CNNaffinity 6.90579414
REMARK  10 active torsions:
REMARK  status: ('A' for Active; 'I' for Inactive)
REMARK    1  A    between atoms: O1_2  and  C2_3 
REMARK    2  A    between atoms: C4_5  and  O2_6 
REMARK    3  A    between atoms: O2_6  and  C5_7 
REMARK    4  A    between atoms: C8_10  and  C9_11 
REMARK    5  A    between atoms: N1_12  and  C10_14 
REMARK    6  A    between atoms: C10_14  and  C11_15 
REMARK    7  A    between atoms: C21_27  and  C22_28 
REMARK    8  A    between atoms: C28_36  and  O5_37 
REMARK    9  A    between atoms: C32_41  and  O6_42 
REMARK   10  A    between atoms: C36_47  and  O8_48 
ROOT
HETATM    1  C5  UNL     1     -10.116   9.089  15.647  1.00  0.00     0.127 C 
HETATM    2  C6  UNL     1     -11.242   9.600  16.544  1.00  0.00     0.033 C 
HETATM    3  C7  UNL     1     -12.639   9.229  16.036  1.00  0.00     0.021 C 
HETATM    4  C8  UNL     1     -12.920   9.607  14.545  1.00  0.00     0.026 C 
HETATM    5  C16 UNL     1     -14.335   8.984  14.162  1.00  0.00     0.009 C 
HETATM    6  C17 UNL     1     -15.500   9.992  14.286  1.00  0.00     0.007 C 
HETATM    7  C18 UNL     1     -16.857   9.377  13.963  1.00  0.00     0.013 C 
HETATM    8  C19 UNL     1     -16.907   8.728  12.558  1.00  0.00    -0.005 C 
HETATM    9  C20 UNL     1     -16.882   9.825  11.472  1.00  0.00     0.019 C 
HETATM   10  C21 UNL     1     -18.150   7.801  12.394  1.00  0.00     0.028 C 
HETATM   11  C26 UNL     1     -17.760   6.535  13.184  1.00  0.00     0.013 C 
HETATM   12  C27 UNL     1     -16.225   6.482  13.201  1.00  0.00     0.040 C 
HETATM   13  C28 UNL     1     -15.744   7.706  12.393  1.00  0.00     0.070 C 
HETATM   14  C29 UNL     1     -14.351   8.277  12.787  1.00  0.00     0.026 C 
HETATM   15  C30 UNL     1     -13.239   7.206  12.697  1.00  0.00     0.011 C 
HETATM   16  C31 UNL     1     -11.933   7.564  13.420  1.00  0.00     0.039 C 
HETATM   17  C32 UNL     1     -11.762   9.076  13.639  1.00  0.00     0.073 C 
HETATM   18  C33 UNL     1     -10.370   9.460  14.187  1.00  0.00     0.071 C 
ENDROOT
BRANCH   1  19
HETATM   19  O2  UNL     1     -10.017   7.669  15.784  1.00  0.00    -0.356 OA
BRANCH  19  20
HETATM   20  C4  UNL     1      -8.668   7.187  15.702  1.00  0.00     0.263 C 
HETATM   21  C3  UNL     1      -8.614   6.231  14.522  1.00  0.00     0.095 C 
HETATM   22  C2  UNL     1      -7.237   5.574  14.419  1.00  0.00     0.156 C 
HETATM   23  C36 UNL     1      -6.118   6.520  14.900  1.00  0.00     0.175 C 
HETATM   24  C34 UNL     1      -6.575   7.985  14.791  1.00  0.00     0.151 C 
HETATM   25  O7  UNL     1      -7.754   8.269  15.560  1.00  0.00    -0.354 OA
HETATM   26  C35 UNL     1      -5.500   8.966  15.258  1.00  0.00     0.042 C 
BRANCH  22  27
HETATM   27  O1  UNL     1      -6.957   5.213  13.058  1.00  0.00    -0.388 OA
HETATM   28  C1  UNL     1      -6.683   3.827  12.888  1.00  0.00     0.202 C 
ENDBRANCH  22  27
BRANCH  23  29
HETATM   29  O8  UNL     1      -5.787   6.213  16.262  1.00  0.00    -0.390 OA
HETATM   30  H50 UNL     1      -5.285   5.379  16.254  1.00  0.00     0.210 HD
ENDBRANCH  23  29
ENDBRANCH  19  20
ENDBRANCH   1  19
BRANCH  17  31
HETATM   31  O6  UNL     1     -11.833   9.687  12.335  1.00  0.00    -0.389 OA
HETATM   32  H42 UNL     1     -11.110   9.316  11.797  1.00  0.00     0.210 HD
ENDBRANCH  17  31
BRANCH   4  33
HETATM   33  C9  UNL     1     -12.968  11.133  14.369  1.00  0.00     0.069 C 
HETATM   34  N1  UNL     1     -11.911  11.821  14.085  1.00  0.00    -0.397 N 
ATOM     35  H1  UNL     1     -10.996  11.400  13.927  1.00  0.00     0.159 HD
BRANCH  34  36
HETATM   36  C10 UNL     1     -12.152  13.263  14.012  1.00  0.00     0.158 C 
BRANCH  36  37
HETATM   37  C11 UNL     1     -10.858  14.017  14.120  1.00  0.00    -0.025 A 
HETATM   38  C12 UNL     1     -10.785  15.385  13.848  1.00  0.00     0.011 A 
HETATM   39  C13 UNL     1      -9.567  16.047  13.979  1.00  0.00     0.018 A 
HETATM   40  C14 UNL     1      -8.464  15.317  14.387  1.00  0.00     0.087 A 
HETATM   41  N2  UNL     1      -8.497  13.998  14.670  1.00  0.00    -0.375 N 
HETATM   42  C15 UNL     1      -9.693  13.381  14.542  1.00  0.00     0.096 A 
ATOM     43  H2  UNL     1      -7.662  13.492  14.966  1.00  0.00     0.164 HD
ENDBRANCH  36  37
ENDBRANCH  34  36
ENDBRANCH   4  33
BRANCH  13  44
HETATM   44  O5  UNL     1     -15.686   7.309  11.013  1.00  0.00    -0.389 OA
HETATM   45  H36 UNL     1     -15.090   6.542  10.940  1.00  0.00     0.210 HD
ENDBRANCH  13  44
BRANCH  10  46
HETATM   46  C22 UNL     1     -19.491   8.397  12.725  1.00  0.00    -0.045 A 
HETATM   47  C23 UNL     1     -20.170   8.380  13.872  1.00  0.00     0.087 A 
HETATM   48  C24 UNL     1     -21.439   9.068  13.636  1.00  0.00     0.283 A 
HETATM   49  O3  UNL     1     -22.301   9.248  14.479  1.00  0.00    -0.260 OA
HETATM   50  O4  UNL     1     -21.498   9.462  12.339  1.00  0.00    -0.314 OA
HETATM   51  C25 UNL     1     -20.295   9.073  11.677  1.00  0.00     0.213 A 
ENDBRANCH  10  46
TORSDOF 10
ENDMDL
MODEL 6
REMARK minimizedAffinity -7.41046143
REMARK CNNscore 0.295570672
REMARK CNNaffinity 6.09120989
REMARK  10 active torsions:
REMARK  status: ('A' for Active; 'I' for Inactive)
REMARK    1  A    between atoms: O1_2  and  C2_3 
REMARK    2  A    between atoms: C4_5  and  O2_6 
REMARK    3  A    between atoms: O2_6  and  C5_7 
REMARK    4  A    between atoms: C8_10  and  C9_11 
REMARK    5  A    between atoms: N1_12  and  C10_14 
REMARK    6  A    between atoms: C10_14  and  C11_15 
REMARK    7  A    between atoms: C21_27  and  C22_28 
REMARK    8  A    between atoms: C28_36  and  O5_37 
REMARK    9  A    between atoms: C32_41  and  O6_42 
REMARK   10  A    between atoms: C36_47  and  O8_48 
ROOT
HETATM    1  C5  UNL     1     -12.812  10.555  18.648  1.00  0.00     0.127 C 
HETATM    2  C6  UNL     1     -11.637  10.110  19.516  1.00  0.00     0.033 C 
HETATM    3  C7  UNL     1     -11.928   8.846  20.333  1.00  0.00     0.021 C 
HETATM    4  C8  UNL     1     -13.240   8.900  21.182  1.00  0.00     0.026 C 
HETATM    5  C16 UNL     1     -13.456   7.449  21.803  1.00  0.00     0.009 C 
HETATM    6  C17 UNL     1     -12.924   7.317  23.248  1.00  0.00     0.007 C 
HETATM    7  C18 UNL     1     -13.091   5.913  23.820  1.00  0.00     0.013 C 
HETATM    8  C19 UNL     1     -14.557   5.416  23.781  1.00  0.00    -0.005 C 
HETATM    9  C20 UNL     1     -15.402   6.193  24.813  1.00  0.00     0.019 C 
HETATM   10  C21 UNL     1     -14.651   3.878  24.016  1.00  0.00     0.028 C 
HETATM   11  C26 UNL     1     -14.202   3.279  22.668  1.00  0.00     0.013 C 
HETATM   12  C27 UNL     1     -14.490   4.343  21.597  1.00  0.00     0.040 C 
HETATM   13  C28 UNL     1     -15.130   5.537  22.338  1.00  0.00     0.070 C 
HETATM   14  C29 UNL     1     -14.909   6.935  21.693  1.00  0.00     0.026 C 
HETATM   15  C30 UNL     1     -15.410   6.985  20.231  1.00  0.00     0.011 C 
HETATM   16  C31 UNL     1     -14.896   8.175  19.408  1.00  0.00     0.039 C 
HETATM   17  C32 UNL     1     -14.433   9.353  20.281  1.00  0.00     0.073 C 
HETATM   18  C33 UNL     1     -14.100  10.622  19.466  1.00  0.00     0.071 C 
ENDROOT
BRANCH   1  19
HETATM   19  O2  UNL     1     -12.965   9.636  17.562  1.00  0.00    -0.356 OA
BRANCH  19  20
HETATM   20  C4  UNL     1     -12.223  10.015  16.395  1.00  0.00     0.263 C 
HETATM   21  C3  UNL     1     -10.957   9.174  16.387  1.00  0.00     0.095 C 
HETATM   22  C2  UNL     1     -10.039   9.585  15.235  1.00  0.00     0.156 C 
HETATM   23  C36 UNL     1     -10.844  10.063  14.009  1.00  0.00     0.175 C 
HETATM   24  C34 UNL     1     -12.263   9.469  14.039  1.00  0.00     0.151 C 
HETATM   25  O7  UNL     1     -13.001   9.825  15.218  1.00  0.00    -0.354 OA
HETATM   26  C35 UNL     1     -13.105   9.914  12.843  1.00  0.00     0.042 C 
BRANCH  22  27
HETATM   27  O1  UNL     1      -9.225   8.476  14.825  1.00  0.00    -0.388 OA
HETATM   28  C1  UNL     1      -9.780   7.212  15.173  1.00  0.00     0.202 C 
ENDBRANCH  22  27
BRANCH  23  29
HETATM   29  O8  UNL     1     -10.916  11.496  14.016  1.00  0.00    -0.390 OA
HETATM   30  H50 UNL     1     -10.037  11.828  13.757  1.00  0.00     0.210 HD
ENDBRANCH  23  29
ENDBRANCH  19  20
ENDBRANCH   1  19
BRANCH  17  31
HETATM   31  O6  UNL     1     -15.562   9.721  21.100  1.00  0.00    -0.389 OA
HETATM   32  H42 UNL     1     -16.289   9.976  20.503  1.00  0.00     0.210 HD
ENDBRANCH  17  31
BRANCH   4  33
HETATM   33  C9  UNL     1     -13.114   9.928  22.317  1.00  0.00     0.069 C 
HETATM   34  N1  UNL     1     -11.965  10.287  22.789  1.00  0.00    -0.397 N 
ATOM     35  H1  UNL     1     -11.079   9.944  22.421  1.00  0.00     0.159 HD
BRANCH  34  36
HETATM   36  C10 UNL     1     -12.057  11.233  23.902  1.00  0.00     0.158 C 
BRANCH  36  37
HETATM   37  C11 UNL     1     -10.914  12.205  23.861  1.00  0.00    -0.025 A 
HETATM   38  C12 UNL     1      -9.734  11.917  23.173  1.00  0.00     0.011 A 
HETATM   39  C13 UNL     1      -8.707  12.857  23.146  1.00  0.00     0.018 A 
HETATM   40  C14 UNL     1      -8.902  14.060  23.802  1.00  0.00     0.087 A 
HETATM   41  N2  UNL     1     -10.032  14.381  24.467  1.00  0.00    -0.375 N 
HETATM   42  C15 UNL     1     -11.016  13.453  24.472  1.00  0.00     0.096 A 
ATOM     43  H2  UNL     1     -10.139  15.277  24.942  1.00  0.00     0.164 HD
ENDBRANCH  36  37
ENDBRANCH  34  36
ENDBRANCH   4  33
BRANCH  13  44
HETATM   44  O5  UNL     1     -16.546   5.292  22.394  1.00  0.00    -0.389 OA
HETATM   45  H36 UNL     1     -16.873   5.184  21.484  1.00  0.00     0.210 HD
ENDBRANCH  13  44
BRANCH  10  46
HETATM   46  C22 UNL     1     -13.964   3.335  25.240  1.00  0.00    -0.045 A 
HETATM   47  C23 UNL     1     -12.945   2.480  25.334  1.00  0.00     0.087 A 
HETATM   48  C24 UNL     1     -12.699   2.253  26.758  1.00  0.00     0.283 A 
HETATM   49  O3  UNL     1     -11.825   1.532  27.208  1.00  0.00    -0.260 OA
HETATM   50  O4  UNL     1     -13.597   2.965  27.485  1.00  0.00    -0.314 OA
HETATM   51  C25 UNL     1     -14.450   3.687  26.597  1.00  0.00     0.213 A 
ENDBRANCH  10  46
TORSDOF 10
ENDMDL
MODEL 7
REMARK minimizedAffinity -9.58626556
REMARK CNNscore 0.247813374
REMARK CNNaffinity 6.5959754
REMARK  10 active torsions:
REMARK  status: ('A' for Active; 'I' for Inactive)
REMARK    1  A    between atoms: O1_2  and  C2_3 
REMARK    2  A    between atoms: C4_5  and  O2_6 
REMARK    3  A    between atoms: O2_6  and  C5_7 
REMARK    4  A    between atoms: C8_10  and  C9_11 
REMARK    5  A    between atoms: N1_12  and  C10_14 
REMARK    6  A    between atoms: C10_14  and  C11_15 
REMARK    7  A    between atoms: C21_27  and  C22_28 
REMARK    8  A    between atoms: C28_36  and  O5_37 
REMARK    9  A    between atoms: C32_41  and  O6_42 
REMARK   10  A    between atoms: C36_47  and  O8_48 
ROOT
HETATM    1  C5  UNL     1      -4.767   7.568  14.277  1.00  0.00     0.127 C 
HETATM    2  C6  UNL     1      -4.309   8.806  13.507  1.00  0.00     0.033 C 
HETATM    3  C7  UNL     1      -2.795   8.848  13.269  1.00  0.00     0.021 C 
HETATM    4  C8  UNL     1      -1.922   8.653  14.551  1.00  0.00     0.026 C 
HETATM    5  C16 UNL     1      -0.406   8.548  14.075  1.00  0.00     0.009 C 
HETATM    6  C17 UNL     1       0.358   9.888  14.165  1.00  0.00     0.007 C 
HETATM    7  C18 UNL     1       1.795   9.791  13.663  1.00  0.00     0.013 C 
HETATM    8  C19 UNL     1       2.616   8.699  14.391  1.00  0.00    -0.005 C 
HETATM    9  C20 UNL     1       2.903   9.138  15.843  1.00  0.00     0.019 C 
HETATM   10  C21 UNL     1       3.935   8.366  13.630  1.00  0.00     0.028 C 
HETATM   11  C26 UNL     1       3.459   7.501  12.446  1.00  0.00     0.013 C 
HETATM   12  C27 UNL     1       2.135   6.853  12.879  1.00  0.00     0.040 C 
HETATM   13  C28 UNL     1       1.875   7.330  14.324  1.00  0.00     0.070 C 
HETATM   14  C29 UNL     1       0.383   7.407  14.757  1.00  0.00     0.026 C 
HETATM   15  C30 UNL     1      -0.340   6.050  14.589  1.00  0.00     0.011 C 
HETATM   16  C31 UNL     1      -1.873   6.122  14.623  1.00  0.00     0.039 C 
HETATM   17  C32 UNL     1      -2.400   7.383  15.327  1.00  0.00     0.073 C 
HETATM   18  C33 UNL     1      -3.929   7.370  15.539  1.00  0.00     0.071 C 
ENDROOT
BRANCH   1  19
HETATM   19  O2  UNL     1      -4.658   6.423  13.428  1.00  0.00    -0.356 OA
BRANCH  19  20
HETATM   20  C4  UNL     1      -5.753   5.508  13.572  1.00  0.00     0.263 C 
HETATM   21  C3  UNL     1      -7.020   6.289  13.265  1.00  0.00     0.095 C 
HETATM   22  C2  UNL     1      -8.260   5.425  13.503  1.00  0.00     0.156 C 
HETATM   23  C36 UNL     1      -7.986   3.939  13.191  1.00  0.00     0.175 C 
HETATM   24  C34 UNL     1      -6.807   3.809  12.212  1.00  0.00     0.151 C 
HETATM   25  O7  UNL     1      -5.591   4.387  12.709  1.00  0.00    -0.354 OA
HETATM   26  C35 UNL     1      -6.493   2.352  11.871  1.00  0.00     0.042 C 
BRANCH  22  27
HETATM   27  O1  UNL     1      -9.340   5.861  12.664  1.00  0.00    -0.388 OA
HETATM   28  C1  UNL     1     -10.269   6.705  13.334  1.00  0.00     0.202 C 
ENDBRANCH  22  27
BRANCH  23  29
HETATM   29  O8  UNL     1      -7.686   3.245  14.411  1.00  0.00    -0.390 OA
HETATM   30  H50 UNL     1      -8.523   3.144  14.897  1.00  0.00     0.210 HD
ENDBRANCH  23  29
ENDBRANCH  19  20
ENDBRANCH   1  19
BRANCH  17  31
HETATM   31  O6  UNL     1      -1.838   7.372  16.655  1.00  0.00    -0.389 OA
HETATM   32  H42 UNL     1      -2.142   6.559  17.097  1.00  0.00     0.210 HD
ENDBRANCH  17  31
BRANCH   4  33
HETATM   33  C9  UNL     1      -2.076   9.849  15.504  1.00  0.00     0.069 C 
HETATM   34  N1  UNL     1      -1.487   9.886  16.654  1.00  0.00    -0.397 N 
ATOM     35  H1  UNL     1      -0.861   9.152  16.985  1.00  0.00     0.159 HD
BRANCH  34  36
HETATM   36  C10 UNL     1      -1.801  11.082  17.437  1.00  0.00     0.158 C 
BRANCH  36  37
HETATM   37  C11 UNL     1      -0.634  11.467  18.299  1.00  0.00    -0.025 A 
HETATM   38  C12 UNL     1      -0.690  12.570  19.155  1.00  0.00     0.011 A 
HETATM   39  C13 UNL     1       0.410  12.878  19.951  1.00  0.00     0.018 A 
HETATM   40  C14 UNL     1       1.528  12.065  19.869  1.00  0.00     0.087 A 
HETATM   41  N2  UNL     1       1.616  10.985  19.064  1.00  0.00    -0.375 N 
HETATM   42  C15 UNL     1       0.531  10.703  18.307  1.00  0.00     0.096 A 
ATOM     43  H2  UNL     1       2.458  10.410  19.028  1.00  0.00     0.164 HD
ENDBRANCH  36  37
ENDBRANCH  34  36
ENDBRANCH   4  33
BRANCH  13  44
HETATM   44  O5  UNL     1       2.546   6.411  15.202  1.00  0.00    -0.389 OA
HETATM   45  H36 UNL     1       2.205   5.517  15.026  1.00  0.00     0.210 HD
ENDBRANCH  13  44
BRANCH  10  46
HETATM   46  C22 UNL     1       4.830   9.524  13.282  1.00  0.00    -0.045 A 
HETATM   47  C23 UNL     1       4.808  10.326  12.217  1.00  0.00     0.087 A 
HETATM   48  C24 UNL     1       5.926  11.259  12.352  1.00  0.00     0.283 A 
HETATM   49  O3  UNL     1       6.195  12.143  11.558  1.00  0.00    -0.260 OA
HETATM   50  O4  UNL     1       6.608  10.977  13.492  1.00  0.00    -0.314 OA
HETATM   51  C25 UNL     1       5.979   9.878  14.152  1.00  0.00     0.213 A 
ENDBRANCH  10  46
TORSDOF 10
ENDMDL
MODEL 8
REMARK minimizedAffinity -7.53463268
REMARK CNNscore 0.236194074
REMARK CNNaffinity 6.70498848
REMARK  10 active torsions:
REMARK  status: ('A' for Active; 'I' for Inactive)
REMARK    1  A    between atoms: O1_2  and  C2_3 
REMARK    2  A    between atoms: C4_5  and  O2_6 
REMARK    3  A    between atoms: O2_6  and  C5_7 
REMARK    4  A    between atoms: C8_10  and  C9_11 
REMARK    5  A    between atoms: N1_12  and  C10_14 
REMARK    6  A    between atoms: C10_14  and  C11_15 
REMARK    7  A    between atoms: C21_27  and  C22_28 
REMARK    8  A    between atoms: C28_36  and  O5_37 
REMARK    9  A    between atoms: C32_41  and  O6_42 
REMARK   10  A    between atoms: C36_47  and  O8_48 
ROOT
HETATM    1  C5  UNL     1      -1.219  12.526  15.829  1.00  0.00     0.127 C 
HETATM    2  C6  UNL     1      -0.885  11.984  14.441  1.00  0.00     0.033 C 
HETATM    3  C7  UNL     1      -1.774  10.811  14.016  1.00  0.00     0.021 C 
HETATM    4  C8  UNL     1      -1.858   9.641  15.050  1.00  0.00     0.026 C 
HETATM    5  C16 UNL     1      -2.956   8.619  14.514  1.00  0.00     0.009 C 
HETATM    6  C17 UNL     1      -2.356   7.434  13.725  1.00  0.00     0.007 C 
HETATM    7  C18 UNL     1      -3.415   6.485  13.175  1.00  0.00     0.013 C 
HETATM    8  C19 UNL     1      -4.356   5.929  14.272  1.00  0.00    -0.005 C 
HETATM    9  C20 UNL     1      -3.589   4.931  15.165  1.00  0.00     0.019 C 
HETATM   10  C21 UNL     1      -5.632   5.273  13.660  1.00  0.00     0.028 C 
HETATM   11  C26 UNL     1      -6.496   6.483  13.250  1.00  0.00     0.013 C 
HETATM   12  C27 UNL     1      -6.070   7.653  14.150  1.00  0.00     0.040 C 
HETATM   13  C28 UNL     1      -4.980   7.097  15.092  1.00  0.00     0.070 C 
HETATM   14  C29 UNL     1      -3.934   8.127  15.605  1.00  0.00     0.026 C 
HETATM   15  C30 UNL     1      -4.601   9.317  16.334  1.00  0.00     0.011 C 
HETATM   16  C31 UNL     1      -3.702  10.546  16.531  1.00  0.00     0.039 C 
HETATM   17  C32 UNL     1      -2.203  10.209  16.464  1.00  0.00     0.073 C 
HETATM   18  C33 UNL     1      -1.294  11.395  16.853  1.00  0.00     0.071 C 
ENDROOT
BRANCH   1  19
HETATM   19  O2  UNL     1      -2.467  13.223  15.770  1.00  0.00    -0.356 OA
BRANCH  19  20
HETATM   20  C4  UNL     1      -2.640  14.160  16.841  1.00  0.00     0.263 C 
HETATM   21  C3  UNL     1      -2.988  15.496  16.204  1.00  0.00     0.095 C 
HETATM   22  C2  UNL     1      -3.082  16.595  17.263  1.00  0.00     0.156 C 
HETATM   23  C36 UNL     1      -3.599  16.045  18.609  1.00  0.00     0.175 C 
HETATM   24  C34 UNL     1      -4.407  14.755  18.382  1.00  0.00     0.151 C 
HETATM   25  O7  UNL     1      -3.648  13.717  17.743  1.00  0.00    -0.354 OA
HETATM   26  C35 UNL     1      -4.942  14.168  19.687  1.00  0.00     0.042 C 
BRANCH  22  27
HETATM   27  O1  UNL     1      -3.981  17.627  16.833  1.00  0.00    -0.388 OA
HETATM   28  C1  UNL     1      -3.932  17.869  15.431  1.00  0.00     0.202 C 
ENDBRANCH  22  27
BRANCH  23  29
HETATM   29  O8  UNL     1      -2.486  15.776  19.473  1.00  0.00    -0.390 OA
HETATM   30  H50 UNL     1      -2.149  16.637  19.782  1.00  0.00     0.210 HD
ENDBRANCH  23  29
ENDBRANCH  19  20
ENDBRANCH   1  19
BRANCH  17  31
HETATM   31  O6  UNL     1      -1.965   9.208  17.473  1.00  0.00    -0.389 OA
HETATM   32  H42 UNL     1      -2.210   9.593  18.334  1.00  0.00     0.210 HD
ENDBRANCH  17  31
BRANCH   4  33
HETATM   33  C9  UNL     1      -0.506   8.920  15.170  1.00  0.00     0.069 C 
HETATM   34  N1  UNL     1       0.430   9.351  15.951  1.00  0.00    -0.397 N 
ATOM     35  H1  UNL     1       0.322  10.165  16.556  1.00  0.00     0.159 HD
BRANCH  34  36
HETATM   36  C10 UNL     1       1.660   8.561  15.884  1.00  0.00     0.158 C 
BRANCH  36  37
HETATM   37  C11 UNL     1       1.967   8.186  14.463  1.00  0.00    -0.025 A 
HETATM   38  C12 UNL     1       1.580   6.953  13.933  1.00  0.00     0.011 A 
HETATM   39  C13 UNL     1       1.869   6.656  12.604  1.00  0.00     0.018 A 
HETATM   40  C14 UNL     1       2.530   7.608  11.847  1.00  0.00     0.087 A 
HETATM   41  N2  UNL     1       2.910   8.814  12.319  1.00  0.00    -0.375 N 
HETATM   42  C15 UNL     1       2.610   9.081  13.611  1.00  0.00     0.096 A 
ATOM     43  H2  UNL     1       3.398   9.491  11.733  1.00  0.00     0.164 HD
ENDBRANCH  36  37
ENDBRANCH  34  36
ENDBRANCH   4  33
BRANCH  13  44
HETATM   44  O5  UNL     1      -5.650   6.538  16.234  1.00  0.00    -0.389 OA
HETATM   45  H36 UNL     1      -6.191   7.236  16.642  1.00  0.00     0.210 HD
ENDBRANCH  13  44
BRANCH  10  46
HETATM   46  C22 UNL     1      -5.417   4.228  12.599  1.00  0.00    -0.045 A 
HETATM   47  C23 UNL     1      -6.188   3.197  12.252  1.00  0.00     0.087 A 
HETATM   48  C24 UNL     1      -5.489   2.470  11.193  1.00  0.00     0.283 A 
HETATM   49  O3  UNL     1      -5.917   1.476  10.632  1.00  0.00    -0.260 OA
HETATM   50  O4  UNL     1      -4.299   3.074  10.946  1.00  0.00    -0.314 OA
HETATM   51  C25 UNL     1      -4.165   4.209  11.802  1.00  0.00     0.213 A 
ENDBRANCH  10  46
TORSDOF 10
ENDMDL
MODEL 9
REMARK minimizedAffinity -7.73570681
REMARK CNNscore 0.212099046
REMARK CNNaffinity 6.31880903
REMARK  10 active torsions:
REMARK  status: ('A' for Active; 'I' for Inactive)
REMARK    1  A    between atoms: O1_2  and  C2_3 
REMARK    2  A    between atoms: C4_5  and  O2_6 
REMARK    3  A    between atoms: O2_6  and  C5_7 
REMARK    4  A    between atoms: C8_10  and  C9_11 
REMARK    5  A    between atoms: N1_12  and  C10_14 
REMARK    6  A    between atoms: C10_14  and  C11_15 
REMARK    7  A    between atoms: C21_27  and  C22_28 
REMARK    8  A    between atoms: C28_36  and  O5_37 
REMARK    9  A    between atoms: C32_41  and  O6_42 
REMARK   10  A    between atoms: C36_47  and  O8_48 
ROOT
HETATM    1  C5  UNL     1      -1.855   6.942  13.468  1.00  0.00     0.127 C 
HETATM    2  C6  UNL     1      -2.059   8.440  13.249  1.00  0.00     0.033 C 
HETATM    3  C7  UNL     1      -0.784   9.263  13.459  1.00  0.00     0.021 C 
HETATM    4  C8  UNL     1      -0.052   9.009  14.817  1.00  0.00     0.026 C 
HETATM    5  C16 UNL     1       1.324   9.810  14.766  1.00  0.00     0.009 C 
HETATM    6  C17 UNL     1       1.251  11.194  15.449  1.00  0.00     0.007 C 
HETATM    7  C18 UNL     1       2.557  11.975  15.356  1.00  0.00     0.013 C 
HETATM    8  C19 UNL     1       3.768  11.198  15.931  1.00  0.00    -0.005 C 
HETATM    9  C20 UNL     1       3.655  11.113  17.467  1.00  0.00     0.019 C 
HETATM   10  C21 UNL     1       5.122  11.839  15.499  1.00  0.00     0.028 C 
HETATM   11  C26 UNL     1       5.278  11.394  14.030  1.00  0.00     0.013 C 
HETATM   12  C27 UNL     1       4.467  10.099  13.875  1.00  0.00     0.040 C 
HETATM   13  C28 UNL     1       3.873   9.793  15.266  1.00  0.00     0.070 C 
HETATM   14  C29 UNL     1       2.536   8.997  15.275  1.00  0.00     0.026 C 
HETATM   15  C30 UNL     1       2.659   7.649  14.528  1.00  0.00     0.011 C 
HETATM   16  C31 UNL     1       1.324   6.987  14.158  1.00  0.00     0.039 C 
HETATM   17  C32 UNL     1       0.152   7.474  15.027  1.00  0.00     0.073 C 
HETATM   18  C33 UNL     1      -1.150   6.675  14.797  1.00  0.00     0.071 C 
ENDROOT
BRANCH   1  19
HETATM   19  O2  UNL     1      -1.084   6.412  12.386  1.00  0.00    -0.356 OA
BRANCH  19  20
HETATM   20  C4  UNL     1      -1.716   5.301  11.736  1.00  0.00     0.263 C 
HETATM   21  C3  UNL     1      -0.728   4.146  11.780  1.00  0.00     0.095 C 
HETATM   22  C2  UNL     1      -1.266   2.940  11.009  1.00  0.00     0.156 C 
HETATM   23  C36 UNL     1      -2.804   2.851  11.095  1.00  0.00     0.175 C 
HETATM   24  C34 UNL     1      -3.311   3.588  12.346  1.00  0.00     0.151 C 
HETATM   25  O7  UNL     1      -2.948   4.977  12.371  1.00  0.00    -0.354 OA
HETATM   26  C35 UNL     1      -4.833   3.531  12.478  1.00  0.00     0.042 C 
BRANCH  22  27
HETATM   27  O1  UNL     1      -0.722   1.724  11.540  1.00  0.00    -0.388 OA
HETATM   28  C1  UNL     1      -0.710   0.655  10.601  1.00  0.00     0.202 C 
ENDBRANCH  22  27
BRANCH  23  29
HETATM   29  O8  UNL     1      -3.382   3.435   9.918  1.00  0.00    -0.390 OA
HETATM   30  H50 UNL     1      -3.236   2.809   9.186  1.00  0.00     0.210 HD
ENDBRANCH  23  29
ENDBRANCH  19  20
ENDBRANCH   1  19
BRANCH  17  31
HETATM   31  O6  UNL     1       0.519   7.204  16.395  1.00  0.00    -0.389 OA
HETATM   32  H42 UNL     1       0.657   6.243  16.479  1.00  0.00     0.210 HD
ENDBRANCH  17  31
BRANCH   4  33
HETATM   33  C9  UNL     1      -0.896   9.518  15.996  1.00  0.00     0.069 C 
HETATM   34  N1  UNL     1      -1.840   8.805  16.518  1.00  0.00    -0.397 N 
ATOM     35  H1  UNL     1      -2.060   7.858  16.210  1.00  0.00     0.159 HD
BRANCH  34  36
HETATM   36  C10 UNL     1      -2.563   9.485  17.593  1.00  0.00     0.158 C 
BRANCH  36  37
HETATM   37  C11 UNL     1      -2.917  10.886  17.184  1.00  0.00    -0.025 A 
HETATM   38  C12 UNL     1      -3.766  11.139  16.104  1.00  0.00     0.011 A 
HETATM   39  C13 UNL     1      -4.081  12.454  15.773  1.00  0.00     0.018 A 
HETATM   40  C14 UNL     1      -3.543  13.472  16.541  1.00  0.00     0.087 A 
HETATM   41  N2  UNL     1      -2.729  13.267  17.599  1.00  0.00    -0.375 N 
HETATM   42  C15 UNL     1      -2.445  11.981  17.904  1.00  0.00     0.096 A 
ATOM     43  H2  UNL     1      -2.349  14.043  18.140  1.00  0.00     0.164 HD
ENDBRANCH  36  37
ENDBRANCH  34  36
ENDBRANCH   4  33
BRANCH  13  44
HETATM   44  O5  UNL     1       4.851   9.026  15.988  1.00  0.00    -0.389 OA
HETATM   45  H36 UNL     1       5.052   8.226  15.472  1.00  0.00     0.210 HD
ENDBRANCH  13  44
BRANCH  10  46
HETATM   46  C22 UNL     1       5.293  13.310  15.763  1.00  0.00    -0.045 A 
HETATM   47  C23 UNL     1       5.038  14.352  14.971  1.00  0.00     0.087 A 
HETATM   48  C24 UNL     1       5.424  15.558  15.702  1.00  0.00     0.283 A 
HETATM   49  O3  UNL     1       5.313  16.695  15.277  1.00  0.00    -0.260 OA
HETATM   50  O4  UNL     1       5.925  15.205  16.912  1.00  0.00    -0.314 OA
HETATM   51  C25 UNL     1       5.883  13.784  17.039  1.00  0.00     0.213 A 
ENDBRANCH  10  46
TORSDOF 10
ENDMDL
