MODEL 1
REMARK minimizedAffinity -7.81462574
REMARK CNNscore 0.665428877
REMARK CNNaffinity 6.56510115
REMARK  13 active torsions:
REMARK  status: ('A' for Active; 'I' for Inactive)
REMARK    1  A    between atoms: C4_4  and  C5_5 
REMARK    2  A    between atoms: C5_5  and  C6_6 
REMARK    3  A    between atoms: C6_6  and  C7_7 
REMARK    4  A    between atoms: C7_7  and  C9_9 
REMARK    5  A    between atoms: C18_18  and  C20_20 
REMARK    6  A    between atoms: C20_20  and  O2_22 
REMARK    7  A    between atoms: C21_23  and  O3_24 
REMARK    8  A    between atoms: O3_24  and  C22_25 
REMARK    9  A    between atoms: C23_27  and  C24_28 
REMARK   10  A    between atoms: C24_28  and  O5_29 
REMARK   11  A    between atoms: C25_30  and  O6_31 
REMARK   12  A    between atoms: C26_32  and  O7_33 
REMARK   13  A    between atoms: C28_35  and  O8_36 
ROOT
HETATM    1  C9  UNL     1       3.986  56.813  -6.120  1.00  0.00    -0.002 C 
HETATM    2  C10 UNL     1       2.998  57.995  -5.904  1.00  0.00     0.006 C 
HETATM    3  C11 UNL     1       1.738  57.704  -6.737  1.00  0.00     0.011 C 
HETATM    4  C12 UNL     1       1.892  56.244  -7.208  1.00  0.00    -0.032 C 
HETATM    5  C13 UNL     1       1.346  55.351  -6.049  1.00  0.00     0.016 C 
HETATM    6  C14 UNL     1       1.160  55.919  -8.542  1.00  0.00     0.004 C 
HETATM    7  C15 UNL     1      -0.360  55.831  -8.402  1.00  0.00     0.007 C 
HETATM    8  C16 UNL     1      -1.034  55.628  -9.754  1.00  0.00     0.007 C 
HETATM    9  C17 UNL     1      -0.644  54.336 -10.509  1.00  0.00     0.018 C 
HETATM   10  C18 UNL     1      -1.704  53.168 -10.492  1.00  0.00     0.072 C 
HETATM   11  C19 UNL     1      -3.109  53.686 -10.903  1.00  0.00     0.030 C 
HETATM   12  C21 UNL     1      -1.256  52.051 -11.505  1.00  0.00     0.146 C 
HETATM   13  C27 UNL     1       0.261  51.932 -11.700  1.00  0.00     0.066 C 
HETATM   14  C28 UNL     1       1.052  52.390 -10.491  1.00  0.00     0.130 C 
HETATM   15  C29 UNL     1       0.806  53.869 -10.223  1.00  0.00    -0.001 A 
HETATM   16  C30 UNL     1       1.897  54.785 -10.741  1.00  0.00     0.024 A 
HETATM   17  C31 UNL     1       1.726  54.663  -9.241  1.00  0.00    -0.025 A 
HETATM   18  C32 UNL     1       2.793  53.874  -8.477  1.00  0.00     0.011 C 
HETATM   19  C33 UNL     1       3.817  54.680  -7.654  1.00  0.00     0.011 C 
HETATM   20  C34 UNL     1       3.445  56.152  -7.430  1.00  0.00    -0.032 C 
HETATM   21  C35 UNL     1       3.953  56.967  -8.659  1.00  0.00     0.016 C 
ENDROOT
BRANCH  12  22
HETATM   22  O3  UNL     1      -1.807  52.321 -12.816  1.00  0.00    -0.352 OA
BRANCH  22  23
HETATM   23  C22 UNL     1      -1.689  51.205 -13.701  1.00  0.00     0.292 C 
HETATM   24  O4  UNL     1      -0.782  51.469 -14.781  1.00  0.00    -0.348 OA
HETATM   25  C23 UNL     1      -1.413  51.000 -16.002  1.00  0.00     0.179 C 
HETATM   26  C25 UNL     1      -2.670  50.221 -15.607  1.00  0.00     0.182 C 
HETATM   27  C26 UNL     1      -3.065  50.930 -14.328  1.00  0.00     0.204 C 
BRANCH  25  28
HETATM   28  C24 UNL     1      -0.387  50.195 -16.792  1.00  0.00     0.198 C 
BRANCH  28  29
HETATM   29  O5  UNL     1       0.399  49.411 -15.890  1.00  0.00    -0.398 OA
HETATM   30  H39 UNL     1      -0.246  48.981 -15.299  1.00  0.00     0.209 HD
ENDBRANCH  28  29
ENDBRANCH  25  28
BRANCH  26  31
HETATM   31  O6  UNL     1      -2.386  48.848 -15.330  1.00  0.00    -0.390 OA
HETATM   32  H41 UNL     1      -3.236  48.371 -15.339  1.00  0.00     0.210 HD
ENDBRANCH  26  31
BRANCH  27  33
HETATM   33  O7  UNL     1      -3.750  52.150 -14.646  1.00  0.00    -0.388 OA
HETATM   34  H43 UNL     1      -3.447  52.795 -13.974  1.00  0.00     0.210 HD
ENDBRANCH  27  33
ENDBRANCH  22  23
ENDBRANCH  12  22
BRANCH  10  35
HETATM   35  C20 UNL     1      -1.930  52.590  -9.089  1.00  0.00     0.151 C 
HETATM   36  O1  UNL     1      -1.607  53.087  -8.023  1.00  0.00    -0.649 OA
BRANCH  35  37
HETATM   37  O2  UNL     1      -2.705  51.485  -9.055  1.00  0.00    -0.776 OA
HETATM   38  H33 UNL     1      -2.729  51.276  -8.097  1.00  0.00     0.167 HD
ENDBRANCH  35  37
ENDBRANCH  10  35
BRANCH  14  39
HETATM   39  O8  UNL     1       0.690  51.632  -9.346  1.00  0.00    -0.395 OA
HETATM   40  H47 UNL     1       1.128  50.769  -9.431  1.00  0.00     0.210 HD
ENDBRANCH  14  39
BRANCH   1  41
HETATM   41  C7  UNL     1       5.473  57.257  -6.037  1.00  0.00    -0.014 C 
HETATM   42  C8  UNL     1       6.415  56.087  -5.739  1.00  0.00     0.010 C 
BRANCH  41  43
HETATM   43  C6  UNL     1       5.705  58.429  -5.045  1.00  0.00     0.008 C 
BRANCH  43  44
HETATM   44  C5  UNL     1       7.028  58.472  -4.265  1.00  0.00     0.028 C 
BRANCH  44  45
HETATM   45  C4  UNL     1       8.162  59.153  -4.982  1.00  0.00    -0.025 C 
HETATM   46  C2  UNL     1       8.513  60.451  -4.895  1.00  0.00    -0.091 C 
HETATM   47  C1  UNL     1       9.709  60.979  -5.643  1.00  0.00     0.042 C 
HETATM   48  C3  UNL     1       7.781  61.485  -4.086  1.00  0.00     0.042 C 
ENDBRANCH  44  45
ENDBRANCH  43  44
ENDBRANCH  41  43
ENDBRANCH   1  41
TORSDOF 13
ENDMDL
MODEL 2
REMARK minimizedAffinity -8.04292774
REMARK CNNscore 0.570718765
REMARK CNNaffinity 6.84884882
REMARK  13 active torsions:
REMARK  status: ('A' for Active; 'I' for Inactive)
REMARK    1  A    between atoms: C4_4  and  C5_5 
REMARK    2  A    between atoms: C5_5  and  C6_6 
REMARK    3  A    between atoms: C6_6  and  C7_7 
REMARK    4  A    between atoms: C7_7  and  C9_9 
REMARK    5  A    between atoms: C18_18  and  C20_20 
REMARK    6  A    between atoms: C20_20  and  O2_22 
REMARK    7  A    between atoms: C21_23  and  O3_24 
REMARK    8  A    between atoms: O3_24  and  C22_25 
REMARK    9  A    between atoms: C23_27  and  C24_28 
REMARK   10  A    between atoms: C24_28  and  O5_29 
REMARK   11  A    between atoms: C25_30  and  O6_31 
REMARK   12  A    between atoms: C26_32  and  O7_33 
REMARK   13  A    between atoms: C28_35  and  O8_36 
ROOT
HETATM    1  C9  UNL     1       3.296  56.476  -5.960  1.00  0.00    -0.002 C 
HETATM    2  C10 UNL     1       2.302  57.663  -5.800  1.00  0.00     0.006 C 
HETATM    3  C11 UNL     1       1.117  57.406  -6.745  1.00  0.00     0.011 C 
HETATM    4  C12 UNL     1       1.298  55.956  -7.239  1.00  0.00    -0.032 C 
HETATM    5  C13 UNL     1       0.647  55.041  -6.153  1.00  0.00     0.016 C 
HETATM    6  C14 UNL     1       0.681  55.672  -8.638  1.00  0.00     0.004 C 
HETATM    7  C15 UNL     1      -0.847  55.597  -8.631  1.00  0.00     0.007 C 
HETATM    8  C16 UNL     1      -1.403  55.435 -10.041  1.00  0.00     0.007 C 
HETATM    9  C17 UNL     1      -0.961  54.158 -10.793  1.00  0.00     0.018 C 
HETATM   10  C18 UNL     1      -2.028  53.001 -10.896  1.00  0.00     0.072 C 
HETATM   11  C19 UNL     1      -3.388  53.544 -11.413  1.00  0.00     0.030 C 
HETATM   12  C21 UNL     1      -1.504  51.905 -11.895  1.00  0.00     0.146 C 
HETATM   13  C27 UNL     1       0.023  51.774 -11.962  1.00  0.00     0.066 C 
HETATM   14  C28 UNL     1       0.712  52.194 -10.678  1.00  0.00     0.130 C 
HETATM   15  C29 UNL     1       0.456  53.669 -10.395  1.00  0.00    -0.001 A 
HETATM   16  C30 UNL     1       1.595  54.585 -10.793  1.00  0.00     0.024 A 
HETATM   17  C31 UNL     1       1.294  54.429  -9.317  1.00  0.00    -0.025 A 
HETATM   18  C32 UNL     1       2.284  53.609  -8.486  1.00  0.00     0.011 C 
HETATM   19  C33 UNL     1       3.241  54.384  -7.557  1.00  0.00     0.011 C 
HETATM   20  C34 UNL     1       2.864  55.854  -7.329  1.00  0.00    -0.032 C 
HETATM   21  C35 UNL     1       3.483  56.694  -8.488  1.00  0.00     0.016 C 
ENDROOT
BRANCH  12  22
HETATM   22  O3  UNL     1      -1.938  52.213 -13.242  1.00  0.00    -0.352 OA
BRANCH  22  23
HETATM   23  C22 UNL     1      -2.608  51.116 -13.866  1.00  0.00     0.292 C 
HETATM   24  O4  UNL     1      -2.469  49.902 -13.114  1.00  0.00    -0.348 OA
HETATM   25  C23 UNL     1      -2.142  48.844 -14.052  1.00  0.00     0.179 C 
HETATM   26  C25 UNL     1      -2.304  49.410 -15.466  1.00  0.00     0.182 C 
HETATM   27  C26 UNL     1      -1.963  50.868 -15.239  1.00  0.00     0.204 C 
BRANCH  25  28
HETATM   28  C24 UNL     1      -3.026  47.641 -13.744  1.00  0.00     0.198 C 
BRANCH  28  29
HETATM   29  O5  UNL     1      -4.309  48.093 -13.304  1.00  0.00    -0.398 OA
HETATM   30  H39 UNL     1      -4.575  48.772 -13.951  1.00  0.00     0.209 HD
ENDBRANCH  28  29
ENDBRANCH  25  28
BRANCH  26  31
HETATM   31  O6  UNL     1      -3.647  49.295 -15.940  1.00  0.00    -0.390 OA
HETATM   32  H41 UNL     1      -3.624  49.430 -16.905  1.00  0.00     0.210 HD
ENDBRANCH  26  31
BRANCH  27  33
HETATM   33  O7  UNL     1      -0.538  51.027 -15.186  1.00  0.00    -0.388 OA
HETATM   34  H43 UNL     1      -0.382  51.704 -14.496  1.00  0.00     0.210 HD
ENDBRANCH  27  33
ENDBRANCH  22  23
ENDBRANCH  12  22
BRANCH  10  35
HETATM   35  C20 UNL     1      -2.379  52.391  -9.533  1.00  0.00     0.151 C 
HETATM   36  O1  UNL     1      -1.917  52.694  -8.446  1.00  0.00    -0.649 OA
BRANCH  35  37
HETATM   37  O2  UNL     1      -3.422  51.535  -9.554  1.00  0.00    -0.776 OA
HETATM   38  H33 UNL     1      -3.486  51.261  -8.613  1.00  0.00     0.167 HD
ENDBRANCH  35  37
ENDBRANCH  10  35
BRANCH  14  39
HETATM   39  O8  UNL     1       0.246  51.412  -9.589  1.00  0.00    -0.395 OA
HETATM   40  H47 UNL     1       0.682  50.547  -9.658  1.00  0.00     0.210 HD
ENDBRANCH  14  39
BRANCH   1  41
HETATM   41  C7  UNL     1       4.773  56.902  -5.738  1.00  0.00    -0.014 C 
HETATM   42  C8  UNL     1       4.892  58.289  -5.102  1.00  0.00     0.010 C 
BRANCH  41  43
HETATM   43  C6  UNL     1       5.637  56.800  -7.025  1.00  0.00     0.008 C 
BRANCH  43  44
HETATM   44  C5  UNL     1       6.970  56.040  -6.949  1.00  0.00     0.028 C 
BRANCH  44  45
HETATM   45  C4  UNL     1       6.914  54.614  -7.424  1.00  0.00    -0.025 C 
HETATM   46  C2  UNL     1       6.644  54.186  -8.673  1.00  0.00    -0.091 C 
HETATM   47  C1  UNL     1       6.670  52.718  -9.008  1.00  0.00     0.042 C 
HETATM   48  C3  UNL     1       6.292  55.080  -9.829  1.00  0.00     0.042 C 
ENDBRANCH  44  45
ENDBRANCH  43  44
ENDBRANCH  41  43
ENDBRANCH   1  41
TORSDOF 13
ENDMDL
MODEL 3
REMARK minimizedAffinity -7.55083179
REMARK CNNscore 0.502898991
REMARK CNNaffinity 6.16004992
REMARK  13 active torsions:
REMARK  status: ('A' for Active; 'I' for Inactive)
REMARK    1  A    between atoms: C4_4  and  C5_5 
REMARK    2  A    between atoms: C5_5  and  C6_6 
REMARK    3  A    between atoms: C6_6  and  C7_7 
REMARK    4  A    between atoms: C7_7  and  C9_9 
REMARK    5  A    between atoms: C18_18  and  C20_20 
REMARK    6  A    between atoms: C20_20  and  O2_22 
REMARK    7  A    between atoms: C21_23  and  O3_24 
REMARK    8  A    between atoms: O3_24  and  C22_25 
REMARK    9  A    between atoms: C23_27  and  C24_28 
REMARK   10  A    between atoms: C24_28  and  O5_29 
REMARK   11  A    between atoms: C25_30  and  O6_31 
REMARK   12  A    between atoms: C26_32  and  O7_33 
REMARK   13  A    between atoms: C28_35  and  O8_36 
ROOT
HETATM    1  C9  UNL     1      -6.762  46.456 -32.160  1.00  0.00    -0.002 C 
HETATM    2  C10 UNL     1      -5.744  46.977 -31.105  1.00  0.00     0.006 C 
HETATM    3  C11 UNL     1      -6.481  47.074 -29.759  1.00  0.00     0.011 C 
HETATM    4  C12 UNL     1      -7.829  46.358 -29.982  1.00  0.00    -0.032 C 
HETATM    5  C13 UNL     1      -7.561  44.839 -29.740  1.00  0.00     0.016 C 
HETATM    6  C14 UNL     1      -8.983  46.864 -29.069  1.00  0.00     0.004 C 
HETATM    7  C15 UNL     1      -8.857  46.413 -27.613  1.00  0.00     0.007 C 
HETATM    8  C16 UNL     1      -9.945  47.031 -26.742  1.00  0.00     0.007 C 
HETATM    9  C17 UNL     1     -11.398  46.670 -27.130  1.00  0.00     0.018 C 
HETATM   10  C18 UNL     1     -12.123  45.607 -26.218  1.00  0.00     0.072 C 
HETATM   11  C19 UNL     1     -11.993  45.982 -24.717  1.00  0.00     0.030 C 
HETATM   12  C21 UNL     1     -13.648  45.557 -26.600  1.00  0.00     0.146 C 
HETATM   13  C27 UNL     1     -13.955  45.894 -28.065  1.00  0.00     0.066 C 
HETATM   14  C28 UNL     1     -12.804  45.578 -29.000  1.00  0.00     0.130 C 
HETATM   15  C29 UNL     1     -11.587  46.424 -28.649  1.00  0.00    -0.001 A 
HETATM   16  C30 UNL     1     -11.400  47.642 -29.533  1.00  0.00     0.024 A 
HETATM   17  C31 UNL     1     -10.380  46.527 -29.635  1.00  0.00    -0.025 A 
HETATM   18  C32 UNL     1     -10.419  45.657 -30.894  1.00  0.00     0.011 C 
HETATM   19  C33 UNL     1      -9.326  45.895 -31.955  1.00  0.00     0.011 C 
HETATM   20  C34 UNL     1      -8.138  46.740 -31.474  1.00  0.00    -0.032 C 
HETATM   21  C35 UNL     1      -8.507  48.243 -31.675  1.00  0.00     0.016 C 
ENDROOT
BRANCH  12  22
HETATM   22  O3  UNL     1     -14.390  46.513 -25.806  1.00  0.00    -0.352 OA
BRANCH  22  23
HETATM   23  C22 UNL     1     -15.507  45.922 -25.137  1.00  0.00     0.292 C 
HETATM   24  O4  UNL     1     -16.743  46.192 -25.812  1.00  0.00    -0.348 OA
HETATM   25  C23 UNL     1     -17.714  46.578 -24.804  1.00  0.00     0.179 C 
HETATM   26  C25 UNL     1     -17.087  46.319 -23.432  1.00  0.00     0.182 C 
HETATM   27  C26 UNL     1     -15.619  46.538 -23.734  1.00  0.00     0.204 C 
BRANCH  25  28
HETATM   28  C24 UNL     1     -19.007  45.815 -25.067  1.00  0.00     0.198 C 
BRANCH  28  29
HETATM   29  O5  UNL     1     -20.110  46.725 -25.043  1.00  0.00    -0.398 OA
HETATM   30  H39 UNL     1     -19.833  47.474 -25.603  1.00  0.00     0.209 HD
ENDBRANCH  28  29
ENDBRANCH  25  28
BRANCH  26  31
HETATM   31  O6  UNL     1     -17.294  44.976 -22.991  1.00  0.00    -0.390 OA
HETATM   32  H41 UNL     1     -17.104  44.955 -22.035  1.00  0.00     0.210 HD
ENDBRANCH  26  31
BRANCH  27  33
HETATM   33  O7  UNL     1     -15.336  47.946 -23.754  1.00  0.00    -0.388 OA
HETATM   34  H43 UNL     1     -14.687  48.064 -24.479  1.00  0.00     0.210 HD
ENDBRANCH  27  33
ENDBRANCH  22  23
ENDBRANCH  12  22
BRANCH  10  35
HETATM   35  C20 UNL     1     -11.481  44.216 -26.298  1.00  0.00     0.151 C 
HETATM   36  O1  UNL     1     -11.966  43.205 -26.777  1.00  0.00    -0.649 OA
BRANCH  35  37
HETATM   37  O2  UNL     1     -10.184  44.175 -25.927  1.00  0.00    -0.776 OA
HETATM   38  H33 UNL     1      -9.965  43.225 -26.045  1.00  0.00     0.167 HD
ENDBRANCH  35  37
ENDBRANCH  10  35
BRANCH  14  39
HETATM   39  O8  UNL     1     -12.466  44.201 -28.921  1.00  0.00    -0.395 OA
HETATM   40  H47 UNL     1     -13.141  43.718 -29.426  1.00  0.00     0.210 HD
ENDBRANCH  14  39
BRANCH   1  41
HETATM   41  C7  UNL     1      -6.480  47.010 -33.584  1.00  0.00    -0.014 C 
HETATM   42  C8  UNL     1      -5.276  47.956 -33.615  1.00  0.00     0.010 C 
BRANCH  41  43
HETATM   43  C6  UNL     1      -7.725  47.668 -34.239  1.00  0.00     0.008 C 
BRANCH  43  44
HETATM   44  C5  UNL     1      -8.299  47.030 -35.515  1.00  0.00     0.028 C 
BRANCH  44  45
HETATM   45  C4  UNL     1      -7.844  47.665 -36.800  1.00  0.00    -0.025 C 
HETATM   46  C2  UNL     1      -8.360  47.468 -38.028  1.00  0.00    -0.091 C 
HETATM   47  C1  UNL     1      -7.823  48.217 -39.220  1.00  0.00     0.042 C 
HETATM   48  C3  UNL     1      -9.477  46.514 -38.347  1.00  0.00     0.042 C 
ENDBRANCH  44  45
ENDBRANCH  43  44
ENDBRANCH  41  43
ENDBRANCH   1  41
TORSDOF 13
ENDMDL
MODEL 4
REMARK minimizedAffinity -9.2883358
REMARK CNNscore 0.33809492
REMARK CNNaffinity 6.617167
REMARK  13 active torsions:
REMARK  status: ('A' for Active; 'I' for Inactive)
REMARK    1  A    between atoms: C4_4  and  C5_5 
REMARK    2  A    between atoms: C5_5  and  C6_6 
REMARK    3  A    between atoms: C6_6  and  C7_7 
REMARK    4  A    between atoms: C7_7  and  C9_9 
REMARK    5  A    between atoms: C18_18  and  C20_20 
REMARK    6  A    between atoms: C20_20  and  O2_22 
REMARK    7  A    between atoms: C21_23  and  O3_24 
REMARK    8  A    between atoms: O3_24  and  C22_25 
REMARK    9  A    between atoms: C23_27  and  C24_28 
REMARK   10  A    between atoms: C24_28  and  O5_29 
REMARK   11  A    between atoms: C25_30  and  O6_31 
REMARK   12  A    between atoms: C26_32  and  O7_33 
REMARK   13  A    between atoms: C28_35  and  O8_36 
ROOT
HETATM    1  C9  UNL     1      -0.931  52.402 -21.610  1.00  0.00    -0.002 C 
HETATM    2  C10 UNL     1      -0.415  52.482 -23.076  1.00  0.00     0.006 C 
HETATM    3  C11 UNL     1      -1.304  51.563 -23.931  1.00  0.00     0.011 C 
HETATM    4  C12 UNL     1      -2.484  51.175 -23.017  1.00  0.00    -0.032 C 
HETATM    5  C13 UNL     1      -3.531  52.327 -23.143  1.00  0.00     0.016 C 
HETATM    6  C14 UNL     1      -3.135  49.803 -23.355  1.00  0.00     0.004 C 
HETATM    7  C15 UNL     1      -3.981  49.823 -24.628  1.00  0.00     0.007 C 
HETATM    8  C16 UNL     1      -4.497  48.431 -24.976  1.00  0.00     0.007 C 
HETATM    9  C17 UNL     1      -5.412  47.772 -23.918  1.00  0.00     0.018 C 
HETATM   10  C18 UNL     1      -6.957  47.758 -24.239  1.00  0.00     0.072 C 
HETATM   11  C19 UNL     1      -7.223  47.210 -25.667  1.00  0.00     0.030 C 
HETATM   12  C21 UNL     1      -7.690  46.838 -23.195  1.00  0.00     0.146 C 
HETATM   13  C27 UNL     1      -7.023  46.773 -21.815  1.00  0.00     0.066 C 
HETATM   14  C28 UNL     1      -6.228  48.020 -21.481  1.00  0.00     0.130 C 
HETATM   15  C29 UNL     1      -5.078  48.197 -22.465  1.00  0.00    -0.001 A 
HETATM   16  C30 UNL     1      -3.735  47.728 -21.943  1.00  0.00     0.024 A 
HETATM   17  C31 UNL     1      -3.928  49.213 -22.170  1.00  0.00    -0.025 A 
HETATM   18  C32 UNL     1      -4.068  50.097 -20.928  1.00  0.00     0.011 C 
HETATM   19  C33 UNL     1      -2.854  50.962 -20.533  1.00  0.00     0.011 C 
HETATM   20  C34 UNL     1      -1.774  51.085 -21.618  1.00  0.00    -0.032 C 
HETATM   21  C35 UNL     1      -0.813  49.864 -21.478  1.00  0.00     0.016 C 
ENDROOT
BRANCH  12  22
HETATM   22  O3  UNL     1      -7.736  45.475 -23.681  1.00  0.00    -0.352 OA
BRANCH  22  23
HETATM   23  C22 UNL     1      -7.780  44.517 -22.622  1.00  0.00     0.292 C 
HETATM   24  O4  UNL     1      -6.897  43.412 -22.859  1.00  0.00    -0.348 OA
HETATM   25  C23 UNL     1      -7.626  42.197 -22.546  1.00  0.00     0.179 C 
HETATM   26  C25 UNL     1      -8.945  42.604 -21.882  1.00  0.00     0.182 C 
HETATM   27  C26 UNL     1      -9.204  43.943 -22.541  1.00  0.00     0.204 C 
BRANCH  25  28
HETATM   28  C24 UNL     1      -6.731  41.307 -21.690  1.00  0.00     0.198 C 
BRANCH  28  29
HETATM   29  O5  UNL     1      -5.908  42.125 -20.854  1.00  0.00    -0.398 OA
HETATM   30  H39 UNL     1      -6.517  42.775 -20.456  1.00  0.00     0.209 HD
ENDBRANCH  28  29
ENDBRANCH  25  28
BRANCH  26  31
HETATM   31  O6  UNL     1      -8.804  42.779 -20.471  1.00  0.00    -0.390 OA
HETATM   32  H41 UNL     1      -9.702  42.781 -20.091  1.00  0.00     0.210 HD
ENDBRANCH  26  31
BRANCH  27  33
HETATM   33  O7  UNL     1      -9.762  43.737 -23.848  1.00  0.00    -0.388 OA
HETATM   34  H43 UNL     1      -9.360  44.433 -24.408  1.00  0.00     0.210 HD
ENDBRANCH  27  33
ENDBRANCH  22  23
ENDBRANCH  12  22
BRANCH  10  35
HETATM   35  C20 UNL     1      -7.571  49.164 -24.273  1.00  0.00     0.151 C 
HETATM   36  O1  UNL     1      -8.751  49.457 -24.187  1.00  0.00    -0.649 OA
BRANCH  35  37
HETATM   37  O2  UNL     1      -6.671  50.170 -24.245  1.00  0.00    -0.776 OA
HETATM   38  H33 UNL     1      -7.247  50.964 -24.273  1.00  0.00     0.167 HD
ENDBRANCH  35  37
ENDBRANCH  10  35
BRANCH  14  39
HETATM   39  O8  UNL     1      -7.066  49.166 -21.517  1.00  0.00    -0.395 OA
HETATM   40  H47 UNL     1      -7.587  49.157 -20.697  1.00  0.00     0.210 HD
ENDBRANCH  14  39
BRANCH   1  41
HETATM   41  C7  UNL     1       0.205  52.586 -20.567  1.00  0.00    -0.014 C 
HETATM   42  C8  UNL     1       1.593  52.595 -21.212  1.00  0.00     0.010 C 
BRANCH  41  43
HETATM   43  C6  UNL     1       0.135  51.560 -19.403  1.00  0.00     0.008 C 
BRANCH  43  44
HETATM   44  C5  UNL     1       0.259  52.083 -17.963  1.00  0.00     0.028 C 
BRANCH  44  45
HETATM   45  C4  UNL     1       1.642  52.522 -17.567  1.00  0.00    -0.025 C 
HETATM   46  C2  UNL     1       2.283  52.238 -16.416  1.00  0.00    -0.091 C 
HETATM   47  C1  UNL     1       3.693  52.713 -16.181  1.00  0.00     0.042 C 
HETATM   48  C3  UNL     1       1.693  51.458 -15.275  1.00  0.00     0.042 C 
ENDBRANCH  44  45
ENDBRANCH  43  44
ENDBRANCH  41  43
ENDBRANCH   1  41
TORSDOF 13
ENDMDL
MODEL 5
REMARK minimizedAffinity -8.14700317
REMARK CNNscore 0.337498397
REMARK CNNaffinity 6.63898325
REMARK  13 active torsions:
REMARK  status: ('A' for Active; 'I' for Inactive)
REMARK    1  A    between atoms: C4_4  and  C5_5 
REMARK    2  A    between atoms: C5_5  and  C6_6 
REMARK    3  A    between atoms: C6_6  and  C7_7 
REMARK    4  A    between atoms: C7_7  and  C9_9 
REMARK    5  A    between atoms: C18_18  and  C20_20 
REMARK    6  A    between atoms: C20_20  and  O2_22 
REMARK    7  A    between atoms: C21_23  and  O3_24 
REMARK    8  A    between atoms: O3_24  and  C22_25 
REMARK    9  A    between atoms: C23_27  and  C24_28 
REMARK   10  A    between atoms: C24_28  and  O5_29 
REMARK   11  A    between atoms: C25_30  and  O6_31 
REMARK   12  A    between atoms: C26_32  and  O7_33 
REMARK   13  A    between atoms: C28_35  and  O8_36 
ROOT
HETATM    1  C9  UNL     1      -1.759  51.043 -22.291  1.00  0.00    -0.002 C 
HETATM    2  C10 UNL     1      -3.094  51.819 -22.482  1.00  0.00     0.006 C 
HETATM    3  C11 UNL     1      -4.200  51.019 -21.773  1.00  0.00     0.011 C 
HETATM    4  C12 UNL     1      -3.460  49.941 -20.955  1.00  0.00    -0.032 C 
HETATM    5  C13 UNL     1      -3.064  50.616 -19.603  1.00  0.00     0.016 C 
HETATM    6  C14 UNL     1      -4.287  48.648 -20.701  1.00  0.00     0.004 C 
HETATM    7  C15 UNL     1      -5.402  48.824 -19.671  1.00  0.00     0.007 C 
HETATM    8  C16 UNL     1      -6.252  47.565 -19.548  1.00  0.00     0.007 C 
HETATM    9  C17 UNL     1      -5.502  46.294 -19.085  1.00  0.00     0.018 C 
HETATM   10  C18 UNL     1      -5.725  45.855 -17.587  1.00  0.00     0.072 C 
HETATM   11  C19 UNL     1      -7.238  45.800 -17.243  1.00  0.00     0.030 C 
HETATM   12  C21 UNL     1      -5.101  44.427 -17.371  1.00  0.00     0.146 C 
HETATM   13  C27 UNL     1      -3.896  44.110 -18.267  1.00  0.00     0.066 C 
HETATM   14  C28 UNL     1      -3.132  45.347 -18.693  1.00  0.00     0.130 C 
HETATM   15  C29 UNL     1      -4.018  46.257 -19.534  1.00  0.00    -0.001 A 
HETATM   16  C30 UNL     1      -3.794  46.135 -21.028  1.00  0.00     0.024 A 
HETATM   17  C31 UNL     1      -3.399  47.433 -20.355  1.00  0.00    -0.025 A 
HETATM   18  C32 UNL     1      -1.901  47.703 -20.183  1.00  0.00     0.011 C 
HETATM   19  C33 UNL     1      -1.254  48.736 -21.128  1.00  0.00     0.011 C 
HETATM   20  C34 UNL     1      -2.251  49.610 -21.902  1.00  0.00    -0.032 C 
HETATM   21  C35 UNL     1      -2.658  48.842 -23.196  1.00  0.00     0.016 C 
ENDROOT
BRANCH  12  22
HETATM   22  O3  UNL     1      -6.089  43.407 -17.653  1.00  0.00    -0.352 OA
BRANCH  22  23
HETATM   23  C22 UNL     1      -5.861  42.754 -18.904  1.00  0.00     0.292 C 
HETATM   24  O4  UNL     1      -6.791  43.180 -19.910  1.00  0.00    -0.348 OA
HETATM   25  C23 UNL     1      -7.262  41.992 -20.598  1.00  0.00     0.179 C 
HETATM   26  C25 UNL     1      -6.410  40.812 -20.123  1.00  0.00     0.182 C 
HETATM   27  C26 UNL     1      -6.069  41.244 -18.712  1.00  0.00     0.204 C 
BRANCH  25  28
HETATM   28  C24 UNL     1      -7.208  42.254 -22.098  1.00  0.00     0.198 C 
BRANCH  28  29
HETATM   29  O5  UNL     1      -6.058  43.049 -22.401  1.00  0.00    -0.398 OA
HETATM   30  H39 UNL     1      -5.321  42.620 -21.928  1.00  0.00     0.209 HD
ENDBRANCH  28  29
ENDBRANCH  25  28
BRANCH  26  31
HETATM   31  O6  UNL     1      -5.211  40.673 -20.889  1.00  0.00    -0.390 OA
HETATM   32  H41 UNL     1      -4.859  39.781 -20.711  1.00  0.00     0.210 HD
ENDBRANCH  26  31
BRANCH  27  33
HETATM   33  O7  UNL     1      -7.180  40.973 -17.844  1.00  0.00    -0.388 OA
HETATM   34  H43 UNL     1      -7.206  41.728 -17.221  1.00  0.00     0.210 HD
ENDBRANCH  27  33
ENDBRANCH  22  23
ENDBRANCH  12  22
BRANCH  10  35
HETATM   35  C20 UNL     1      -5.164  46.867 -16.579  1.00  0.00     0.151 C 
HETATM   36  O1  UNL     1      -4.718  46.635 -15.468  1.00  0.00    -0.649 OA
BRANCH  35  37
HETATM   37  O2  UNL     1      -5.023  48.119 -17.062  1.00  0.00    -0.776 OA
HETATM   38  H33 UNL     1      -4.662  48.602 -16.288  1.00  0.00     0.167 HD
ENDBRANCH  35  37
ENDBRANCH  10  35
BRANCH  14  39
HETATM   39  O8  UNL     1      -2.665  46.057 -17.554  1.00  0.00    -0.395 OA
HETATM   40  H47 UNL     1      -1.892  45.572 -17.220  1.00  0.00     0.210 HD
ENDBRANCH  14  39
BRANCH   1  41
HETATM   41  C7  UNL     1      -0.786  51.226 -23.489  1.00  0.00    -0.014 C 
HETATM   42  C8  UNL     1       0.279  52.291 -23.218  1.00  0.00     0.010 C 
BRANCH  41  43
HETATM   43  C6  UNL     1      -1.518  51.495 -24.832  1.00  0.00     0.008 C 
BRANCH  43  44
HETATM   44  C5  UNL     1      -1.099  50.679 -26.065  1.00  0.00     0.028 C 
BRANCH  44  45
HETATM   45  C4  UNL     1       0.364  50.755 -26.407  1.00  0.00    -0.025 C 
HETATM   46  C2  UNL     1       0.976  51.704 -27.142  1.00  0.00    -0.091 C 
HETATM   47  C1  UNL     1       2.466  51.670 -27.361  1.00  0.00     0.042 C 
HETATM   48  C3  UNL     1       0.277  52.855 -27.810  1.00  0.00     0.042 C 
ENDBRANCH  44  45
ENDBRANCH  43  44
ENDBRANCH  41  43
ENDBRANCH   1  41
TORSDOF 13
ENDMDL
MODEL 6
REMARK minimizedAffinity -7.40329838
REMARK CNNscore 0.333219975
REMARK CNNaffinity 6.01890135
REMARK  13 active torsions:
REMARK  status: ('A' for Active; 'I' for Inactive)
REMARK    1  A    between atoms: C4_4  and  C5_5 
REMARK    2  A    between atoms: C5_5  and  C6_6 
REMARK    3  A    between atoms: C6_6  and  C7_7 
REMARK    4  A    between atoms: C7_7  and  C9_9 
REMARK    5  A    between atoms: C18_18  and  C20_20 
REMARK    6  A    between atoms: C20_20  and  O2_22 
REMARK    7  A    between atoms: C21_23  and  O3_24 
REMARK    8  A    between atoms: O3_24  and  C22_25 
REMARK    9  A    between atoms: C23_27  and  C24_28 
REMARK   10  A    between atoms: C24_28  and  O5_29 
REMARK   11  A    between atoms: C25_30  and  O6_31 
REMARK   12  A    between atoms: C26_32  and  O7_33 
REMARK   13  A    between atoms: C28_35  and  O8_36 
ROOT
HETATM    1  C9  UNL     1     -11.298  46.157 -28.395  1.00  0.00    -0.002 C 
HETATM    2  C10 UNL     1     -11.581  44.954 -29.339  1.00  0.00     0.006 C 
HETATM    3  C11 UNL     1     -12.841  44.243 -28.819  1.00  0.00     0.011 C 
HETATM    4  C12 UNL     1     -13.429  45.188 -27.751  1.00  0.00    -0.032 C 
HETATM    5  C13 UNL     1     -14.313  46.220 -28.521  1.00  0.00     0.016 C 
HETATM    6  C14 UNL     1     -14.257  44.472 -26.646  1.00  0.00     0.004 C 
HETATM    7  C15 UNL     1     -15.624  43.981 -27.124  1.00  0.00     0.007 C 
HETATM    8  C16 UNL     1     -16.342  43.187 -26.039  1.00  0.00     0.007 C 
HETATM    9  C17 UNL     1     -16.648  43.960 -24.735  1.00  0.00     0.018 C 
HETATM   10  C18 UNL     1     -18.142  44.424 -24.530  1.00  0.00     0.072 C 
HETATM   11  C19 UNL     1     -19.126  43.244 -24.757  1.00  0.00     0.030 C 
HETATM   12  C21 UNL     1     -18.317  44.958 -23.061  1.00  0.00     0.146 C 
HETATM   13  C27 UNL     1     -17.055  45.579 -22.448  1.00  0.00     0.066 C 
HETATM   14  C28 UNL     1     -16.114  46.156 -23.487  1.00  0.00     0.130 C 
HETATM   15  C29 UNL     1     -15.602  45.057 -24.410  1.00  0.00    -0.001 A 
HETATM   16  C30 UNL     1     -14.216  44.551 -24.066  1.00  0.00     0.024 A 
HETATM   17  C31 UNL     1     -14.390  45.318 -25.361  1.00  0.00    -0.025 A 
HETATM   18  C32 UNL     1     -13.825  46.740 -25.413  1.00  0.00     0.011 C 
HETATM   19  C33 UNL     1     -12.519  46.956 -26.203  1.00  0.00     0.011 C 
HETATM   20  C34 UNL     1     -12.122  45.788 -27.118  1.00  0.00    -0.032 C 
HETATM   21  C35 UNL     1     -11.310  44.766 -26.265  1.00  0.00     0.016 C 
ENDROOT
BRANCH  12  22
HETATM   22  O3  UNL     1     -18.698  43.874 -22.181  1.00  0.00    -0.352 OA
BRANCH  22  23
HETATM   23  C22 UNL     1     -19.502  44.315 -21.084  1.00  0.00     0.292 C 
HETATM   24  O4  UNL     1     -19.226  45.677 -20.728  1.00  0.00    -0.348 OA
HETATM   25  C23 UNL     1     -19.122  45.736 -19.282  1.00  0.00     0.179 C 
HETATM   26  C25 UNL     1     -19.569  44.380 -18.727  1.00  0.00     0.182 C 
HETATM   27  C26 UNL     1     -19.166  43.454 -19.856  1.00  0.00     0.204 C 
BRANCH  25  28
HETATM   28  C24 UNL     1     -19.939  46.925 -18.790  1.00  0.00     0.198 C 
BRANCH  28  29
HETATM   29  O5  UNL     1     -19.566  48.095 -19.524  1.00  0.00    -0.398 OA
HETATM   30  H39 UNL     1     -19.571  47.820 -20.460  1.00  0.00     0.209 HD
ENDBRANCH  28  29
ENDBRANCH  25  28
BRANCH  26  31
HETATM   31  O6  UNL     1     -20.984  44.320 -18.535  1.00  0.00    -0.390 OA
HETATM   32  H41 UNL     1     -21.163  43.554 -17.958  1.00  0.00     0.210 HD
ENDBRANCH  26  31
BRANCH  27  33
HETATM   33  O7  UNL     1     -17.759  43.181 -19.774  1.00  0.00    -0.388 OA
HETATM   34  H43 UNL     1     -17.450  43.155 -20.704  1.00  0.00     0.210 HD
ENDBRANCH  27  33
ENDBRANCH  22  23
ENDBRANCH  12  22
BRANCH  10  35
HETATM   35  C20 UNL     1     -18.589  45.468 -25.561  1.00  0.00     0.151 C 
HETATM   36  O1  UNL     1     -19.160  46.523 -25.345  1.00  0.00    -0.649 OA
BRANCH  35  37
HETATM   37  O2  UNL     1     -18.156  45.236 -26.819  1.00  0.00    -0.776 OA
HETATM   38  H33 UNL     1     -18.537  45.993 -27.313  1.00  0.00     0.167 HD
ENDBRANCH  35  37
ENDBRANCH  10  35
BRANCH  14  39
HETATM   39  O8  UNL     1     -16.773  47.154 -24.253  1.00  0.00    -0.395 OA
HETATM   40  H47 UNL     1     -16.812  47.951 -23.700  1.00  0.00     0.210 HD
ENDBRANCH  14  39
BRANCH   1  41
HETATM   41  C7  UNL     1      -9.782  46.474 -28.270  1.00  0.00    -0.014 C 
HETATM   42  C8  UNL     1      -9.466  47.942 -28.568  1.00  0.00     0.010 C 
BRANCH  41  43
HETATM   43  C6  UNL     1      -8.890  45.525 -29.116  1.00  0.00     0.008 C 
BRANCH  43  44
HETATM   44  C5  UNL     1      -7.621  46.104 -29.762  1.00  0.00     0.028 C 
BRANCH  44  45
HETATM   45  C4  UNL     1      -6.605  46.639 -28.791  1.00  0.00    -0.025 C 
HETATM   46  C2  UNL     1      -5.730  47.641 -29.004  1.00  0.00    -0.091 C 
HETATM   47  C1  UNL     1      -4.799  48.098 -27.911  1.00  0.00     0.042 C 
HETATM   48  C3  UNL     1      -5.576  48.384 -30.301  1.00  0.00     0.042 C 
ENDBRANCH  44  45
ENDBRANCH  43  44
ENDBRANCH  41  43
ENDBRANCH   1  41
TORSDOF 13
ENDMDL
MODEL 7
REMARK minimizedAffinity -8.31645489
REMARK CNNscore 0.323094726
REMARK CNNaffinity 6.38110399
REMARK  13 active torsions:
REMARK  status: ('A' for Active; 'I' for Inactive)
REMARK    1  A    between atoms: C4_4  and  C5_5 
REMARK    2  A    between atoms: C5_5  and  C6_6 
REMARK    3  A    between atoms: C6_6  and  C7_7 
REMARK    4  A    between atoms: C7_7  and  C9_9 
REMARK    5  A    between atoms: C18_18  and  C20_20 
REMARK    6  A    between atoms: C20_20  and  O2_22 
REMARK    7  A    between atoms: C21_23  and  O3_24 
REMARK    8  A    between atoms: O3_24  and  C22_25 
REMARK    9  A    between atoms: C23_27  and  C24_28 
REMARK   10  A    between atoms: C24_28  and  O5_29 
REMARK   11  A    between atoms: C25_30  and  O6_31 
REMARK   12  A    between atoms: C26_32  and  O7_33 
REMARK   13  A    between atoms: C28_35  and  O8_36 
ROOT
HETATM    1  C9  UNL     1      -0.998  51.301 -20.340  1.00  0.00    -0.002 C 
HETATM    2  C10 UNL     1      -0.065  50.087 -20.613  1.00  0.00     0.006 C 
HETATM    3  C11 UNL     1      -0.960  48.871 -20.907  1.00  0.00     0.011 C 
HETATM    4  C12 UNL     1      -2.382  49.445 -21.070  1.00  0.00    -0.032 C 
HETATM    5  C13 UNL     1      -2.499  49.908 -22.557  1.00  0.00     0.016 C 
HETATM    6  C14 UNL     1      -3.522  48.447 -20.714  1.00  0.00     0.004 C 
HETATM    7  C15 UNL     1      -3.725  47.350 -21.759  1.00  0.00     0.007 C 
HETATM    8  C16 UNL     1      -4.769  46.336 -21.306  1.00  0.00     0.007 C 
HETATM    9  C17 UNL     1      -6.189  46.900 -21.063  1.00  0.00     0.018 C 
HETATM   10  C18 UNL     1      -7.263  46.595 -22.177  1.00  0.00     0.072 C 
HETATM   11  C19 UNL     1      -7.286  45.084 -22.529  1.00  0.00     0.030 C 
HETATM   12  C21 UNL     1      -8.684  47.017 -21.650  1.00  0.00     0.146 C 
HETATM   13  C27 UNL     1      -8.680  48.181 -20.651  1.00  0.00     0.066 C 
HETATM   14  C28 UNL     1      -7.497  49.113 -20.832  1.00  0.00     0.130 C 
HETATM   15  C29 UNL     1      -6.191  48.372 -20.577  1.00  0.00    -0.001 A 
HETATM   16  C30 UNL     1      -5.605  48.601 -19.198  1.00  0.00     0.024 A 
HETATM   17  C31 UNL     1      -4.854  49.157 -20.389  1.00  0.00    -0.025 A 
HETATM   18  C32 UNL     1      -4.892  50.675 -20.593  1.00  0.00     0.011 C 
HETATM   19  C33 UNL     1      -3.623  51.471 -20.227  1.00  0.00     0.011 C 
HETATM   20  C34 UNL     1      -2.366  50.614 -20.019  1.00  0.00    -0.032 C 
HETATM   21  C35 UNL     1      -2.357  50.127 -18.537  1.00  0.00     0.016 C 
ENDROOT
BRANCH  12  22
HETATM   22  O3  UNL     1      -9.309  45.905 -20.964  1.00  0.00    -0.352 OA
BRANCH  22  23
HETATM   23  C22 UNL     1     -10.688  45.753 -21.310  1.00  0.00     0.292 C 
HETATM   24  O4  UNL     1     -11.411  46.985 -21.189  1.00  0.00    -0.348 OA
HETATM   25  C23 UNL     1     -12.659  46.692 -20.506  1.00  0.00     0.179 C 
HETATM   26  C25 UNL     1     -12.785  45.169 -20.403  1.00  0.00     0.182 C 
HETATM   27  C26 UNL     1     -11.329  44.758 -20.330  1.00  0.00     0.204 C 
BRANCH  25  28
HETATM   28  C24 UNL     1     -13.792  47.374 -21.264  1.00  0.00     0.198 C 
BRANCH  28  29
HETATM   29  O5  UNL     1     -13.442  47.483 -22.647  1.00  0.00    -0.398 OA
HETATM   30  H39 UNL     1     -13.117  46.598 -22.897  1.00  0.00     0.209 HD
ENDBRANCH  28  29
ENDBRANCH  25  28
BRANCH  26  31
HETATM   31  O6  UNL     1     -13.390  44.601 -21.567  1.00  0.00    -0.390 OA
HETATM   32  H41 UNL     1     -13.667  43.696 -21.333  1.00  0.00     0.210 HD
ENDBRANCH  26  31
BRANCH  27  33
HETATM   33  O7  UNL     1     -10.842  44.949 -18.993  1.00  0.00    -0.388 OA
HETATM   34  H43 UNL     1      -9.923  45.272 -19.101  1.00  0.00     0.210 HD
ENDBRANCH  27  33
ENDBRANCH  22  23
ENDBRANCH  12  22
BRANCH  10  35
HETATM   35  C20 UNL     1      -6.942  47.272 -23.516  1.00  0.00     0.151 C 
HETATM   36  O1  UNL     1      -5.964  47.949 -23.786  1.00  0.00    -0.649 OA
BRANCH  35  37
HETATM   37  O2  UNL     1      -7.773  46.939 -24.526  1.00  0.00    -0.776 OA
HETATM   38  H33 UNL     1      -7.410  47.461 -25.274  1.00  0.00     0.167 HD
ENDBRANCH  35  37
ENDBRANCH  10  35
BRANCH  14  39
HETATM   39  O8  UNL     1      -7.490  49.653 -22.146  1.00  0.00    -0.395 OA
HETATM   40  H47 UNL     1      -8.169  50.348 -22.167  1.00  0.00     0.210 HD
ENDBRANCH  14  39
BRANCH   1  41
HETATM   41  C7  UNL     1      -0.385  52.308 -19.329  1.00  0.00    -0.014 C 
HETATM   42  C8  UNL     1       0.471  53.376 -20.015  1.00  0.00     0.010 C 
BRANCH  41  43
HETATM   43  C6  UNL     1       0.398  51.617 -18.179  1.00  0.00     0.008 C 
BRANCH  43  44
HETATM   44  C5  UNL     1       1.241  52.496 -17.241  1.00  0.00     0.028 C 
BRANCH  44  45
HETATM   45  C4  UNL     1       1.788  51.787 -16.032  1.00  0.00    -0.025 C 
HETATM   46  C2  UNL     1       3.031  51.894 -15.523  1.00  0.00    -0.091 C 
HETATM   47  C1  UNL     1       3.420  51.152 -14.272  1.00  0.00     0.042 C 
HETATM   48  C3  UNL     1       4.134  52.723 -16.121  1.00  0.00     0.042 C 
ENDBRANCH  44  45
ENDBRANCH  43  44
ENDBRANCH  41  43
ENDBRANCH   1  41
TORSDOF 13
ENDMDL
MODEL 8
REMARK minimizedAffinity -7.78553104
REMARK CNNscore 0.31889239
REMARK CNNaffinity 5.46279478
REMARK  13 active torsions:
REMARK  status: ('A' for Active; 'I' for Inactive)
REMARK    1  A    between atoms: C4_4  and  C5_5 
REMARK    2  A    between atoms: C5_5  and  C6_6 
REMARK    3  A    between atoms: C6_6  and  C7_7 
REMARK    4  A    between atoms: C7_7  and  C9_9 
REMARK    5  A    between atoms: C18_18  and  C20_20 
REMARK    6  A    between atoms: C20_20  and  O2_22 
REMARK    7  A    between atoms: C21_23  and  O3_24 
REMARK    8  A    between atoms: O3_24  and  C22_25 
REMARK    9  A    between atoms: C23_27  and  C24_28 
REMARK   10  A    between atoms: C24_28  and  O5_29 
REMARK   11  A    between atoms: C25_30  and  O6_31 
REMARK   12  A    between atoms: C26_32  and  O7_33 
REMARK   13  A    between atoms: C28_35  and  O8_36 
ROOT
HETATM    1  C9  UNL     1      -7.847  46.245 -28.968  1.00  0.00    -0.002 C 
HETATM    2  C10 UNL     1      -7.214  46.675 -27.613  1.00  0.00     0.006 C 
HETATM    3  C11 UNL     1      -8.332  46.666 -26.556  1.00  0.00     0.011 C 
HETATM    4  C12 UNL     1      -9.529  45.975 -27.239  1.00  0.00    -0.032 C 
HETATM    5  C13 UNL     1      -9.316  44.440 -27.046  1.00  0.00     0.016 C 
HETATM    6  C14 UNL     1     -10.919  46.409 -26.690  1.00  0.00     0.004 C 
HETATM    7  C15 UNL     1     -11.237  45.842 -25.306  1.00  0.00     0.007 C 
HETATM    8  C16 UNL     1     -12.553  46.391 -24.767  1.00  0.00     0.007 C 
HETATM    9  C17 UNL     1     -13.808  46.067 -25.611  1.00  0.00     0.018 C 
HETATM   10  C18 UNL     1     -14.756  44.936 -25.052  1.00  0.00     0.072 C 
HETATM   11  C19 UNL     1     -15.101  45.188 -23.560  1.00  0.00     0.030 C 
HETATM   12  C21 UNL     1     -16.088  44.922 -25.888  1.00  0.00     0.146 C 
HETATM   13  C27 UNL     1     -15.937  45.376 -27.346  1.00  0.00     0.066 C 
HETATM   14  C28 UNL     1     -14.548  45.134 -27.902  1.00  0.00     0.130 C 
HETATM   15  C29 UNL     1     -13.516  45.945 -27.129  1.00  0.00    -0.001 A 
HETATM   16  C30 UNL     1     -13.093  47.229 -27.814  1.00  0.00     0.024 A 
HETATM   17  C31 UNL     1     -12.066  46.123 -27.683  1.00  0.00    -0.025 A 
HETATM   18  C32 UNL     1     -11.698  45.357 -28.957  1.00  0.00     0.011 C 
HETATM   19  C33 UNL     1     -10.336  45.676 -29.607  1.00  0.00     0.011 C 
HETATM   20  C34 UNL     1      -9.373  46.477 -28.719  1.00  0.00    -0.032 C 
HETATM   21  C35 UNL     1      -9.696  47.991 -28.907  1.00  0.00     0.016 C 
ENDROOT
BRANCH  12  22
HETATM   22  O3  UNL     1     -17.059  45.813 -25.290  1.00  0.00    -0.352 OA
BRANCH  22  23
HETATM   23  C22 UNL     1     -17.921  45.144 -24.366  1.00  0.00     0.292 C 
HETATM   24  O4  UNL     1     -18.452  43.928 -24.910  1.00  0.00    -0.348 OA
HETATM   25  C23 UNL     1     -19.870  43.895 -24.602  1.00  0.00     0.179 C 
HETATM   26  C25 UNL     1     -20.162  45.049 -23.638  1.00  0.00     0.182 C 
HETATM   27  C26 UNL     1     -19.118  46.060 -24.065  1.00  0.00     0.204 C 
BRANCH  25  28
HETATM   28  C24 UNL     1     -20.211  42.512 -24.061  1.00  0.00     0.198 C 
BRANCH  28  29
HETATM   29  O5  UNL     1     -21.522  42.535 -23.489  1.00  0.00    -0.398 OA
HETATM   30  H39 UNL     1     -22.081  42.978 -24.154  1.00  0.00     0.209 HD
ENDBRANCH  28  29
ENDBRANCH  25  28
BRANCH  26  31
HETATM   31  O6  UNL     1     -19.947  44.678 -22.275  1.00  0.00    -0.390 OA
HETATM   32  H41 UNL     1     -20.386  45.350 -21.722  1.00  0.00     0.210 HD
ENDBRANCH  26  31
BRANCH  27  33
HETATM   33  O7  UNL     1     -19.565  46.745 -25.244  1.00  0.00    -0.388 OA
HETATM   34  H43 UNL     1     -18.759  46.868 -25.788  1.00  0.00     0.210 HD
ENDBRANCH  27  33
ENDBRANCH  22  23
ENDBRANCH  12  22
BRANCH  10  35
HETATM   35  C20 UNL     1     -14.090  43.554 -25.038  1.00  0.00     0.151 C 
HETATM   36  O1  UNL     1     -13.010  43.258 -24.555  1.00  0.00    -0.649 OA
BRANCH  35  37
HETATM   37  O2  UNL     1     -14.874  42.550 -25.483  1.00  0.00    -0.776 OA
HETATM   38  H33 UNL     1     -14.283  41.771 -25.398  1.00  0.00     0.167 HD
ENDBRANCH  35  37
ENDBRANCH  10  35
BRANCH  14  39
HETATM   39  O8  UNL     1     -14.220  43.753 -27.830  1.00  0.00    -0.395 OA
HETATM   40  H47 UNL     1     -14.696  43.315 -28.554  1.00  0.00     0.210 HD
ENDBRANCH  14  39
BRANCH   1  41
HETATM   41  C7  UNL     1      -7.153  46.911 -30.188  1.00  0.00    -0.014 C 
HETATM   42  C8  UNL     1      -7.450  46.178 -31.499  1.00  0.00     0.010 C 
BRANCH  41  43
HETATM   43  C6  UNL     1      -5.625  47.106 -29.989  1.00  0.00     0.008 C 
BRANCH  43  44
HETATM   44  C5  UNL     1      -5.140  48.383 -29.284  1.00  0.00     0.028 C 
BRANCH  44  45
HETATM   45  C4  UNL     1      -4.354  48.149 -28.023  1.00  0.00    -0.025 C 
HETATM   46  C2  UNL     1      -3.544  49.026 -27.399  1.00  0.00    -0.091 C 
HETATM   47  C1  UNL     1      -2.855  48.659 -26.111  1.00  0.00     0.042 C 
HETATM   48  C3  UNL     1      -3.235  50.411 -27.894  1.00  0.00     0.042 C 
ENDBRANCH  44  45
ENDBRANCH  43  44
ENDBRANCH  41  43
ENDBRANCH   1  41
TORSDOF 13
ENDMDL
MODEL 9
REMARK minimizedAffinity -7.55618238
REMARK CNNscore 0.310801148
REMARK CNNaffinity 6.44361305
REMARK  13 active torsions:
REMARK  status: ('A' for Active; 'I' for Inactive)
REMARK    1  A    between atoms: C4_4  and  C5_5 
REMARK    2  A    between atoms: C5_5  and  C6_6 
REMARK    3  A    between atoms: C6_6  and  C7_7 
REMARK    4  A    between atoms: C7_7  and  C9_9 
REMARK    5  A    between atoms: C18_18  and  C20_20 
REMARK    6  A    between atoms: C20_20  and  O2_22 
REMARK    7  A    between atoms: C21_23  and  O3_24 
REMARK    8  A    between atoms: O3_24  and  C22_25 
REMARK    9  A    between atoms: C23_27  and  C24_28 
REMARK   10  A    between atoms: C24_28  and  O5_29 
REMARK   11  A    between atoms: C25_30  and  O6_31 
REMARK   12  A    between atoms: C26_32  and  O7_33 
REMARK   13  A    between atoms: C28_35  and  O8_36 
ROOT
HETATM    1  C9  UNL     1      -1.856  51.424 -19.821  1.00  0.00    -0.002 C 
HETATM    2  C10 UNL     1      -1.043  51.828 -21.084  1.00  0.00     0.006 C 
HETATM    3  C11 UNL     1      -1.715  51.167 -22.299  1.00  0.00     0.011 C 
HETATM    4  C12 UNL     1      -3.054  50.613 -21.771  1.00  0.00    -0.032 C 
HETATM    5  C13 UNL     1      -4.071  51.796 -21.837  1.00  0.00     0.016 C 
HETATM    6  C14 UNL     1      -3.593  49.381 -22.554  1.00  0.00     0.004 C 
HETATM    7  C15 UNL     1      -4.152  49.728 -23.934  1.00  0.00     0.007 C 
HETATM    8  C16 UNL     1      -4.557  48.475 -24.702  1.00  0.00     0.007 C 
HETATM    9  C17 UNL     1      -5.663  47.616 -24.046  1.00  0.00     0.018 C 
HETATM   10  C18 UNL     1      -7.104  47.728 -24.677  1.00  0.00     0.072 C 
HETATM   11  C19 UNL     1      -7.052  47.540 -26.217  1.00  0.00     0.030 C 
HETATM   12  C21 UNL     1      -8.025  46.613 -24.058  1.00  0.00     0.146 C 
HETATM   13  C27 UNL     1      -7.663  46.203 -22.625  1.00  0.00     0.066 C 
HETATM   14  C28 UNL     1      -6.979  47.310 -21.846  1.00  0.00     0.130 C 
HETATM   15  C29 UNL     1      -5.651  47.676 -22.497  1.00  0.00    -0.001 A 
HETATM   16  C30 UNL     1      -4.441  47.053 -21.831  1.00  0.00     0.024 A 
HETATM   17  C31 UNL     1      -4.608  48.555 -21.735  1.00  0.00    -0.025 A 
HETATM   18  C32 UNL     1      -5.024  49.126 -20.377  1.00  0.00     0.011 C 
HETATM   19  C33 UNL     1      -3.936  49.834 -19.543  1.00  0.00     0.011 C 
HETATM   20  C34 UNL     1      -2.654  50.173 -20.317  1.00  0.00    -0.032 C 
HETATM   21  C35 UNL     1      -1.722  48.923 -20.271  1.00  0.00     0.016 C 
ENDROOT
BRANCH  12  22
HETATM   22  O3  UNL     1      -7.942  45.405 -24.852  1.00  0.00    -0.352 OA
BRANCH  22  23
HETATM   23  C22 UNL     1      -9.229  44.881 -25.188  1.00  0.00     0.292 C 
HETATM   24  O4  UNL     1      -9.517  43.667 -24.479  1.00  0.00    -0.348 OA
HETATM   25  C23 UNL     1     -10.073  42.727 -25.435  1.00  0.00     0.179 C 
HETATM   26  C25 UNL     1     -10.330  43.487 -26.739  1.00  0.00     0.182 C 
HETATM   27  C26 UNL     1      -9.242  44.538 -26.686  1.00  0.00     0.204 C 
BRANCH  25  28
HETATM   28  C24 UNL     1     -11.311  42.089 -24.815  1.00  0.00     0.198 C 
BRANCH  28  29
HETATM   29  O5  UNL     1     -11.077  40.692 -24.616  1.00  0.00    -0.398 OA
HETATM   30  H39 UNL     1     -10.203  40.639 -24.187  1.00  0.00     0.209 HD
ENDBRANCH  28  29
ENDBRANCH  25  28
BRANCH  26  31
HETATM   31  O6  UNL     1     -11.612  44.119 -26.748  1.00  0.00    -0.390 OA
HETATM   32  H41 UNL     1     -11.809  44.355 -27.673  1.00  0.00     0.210 HD
ENDBRANCH  26  31
BRANCH  27  33
HETATM   33  O7  UNL     1      -7.995  43.962 -27.103  1.00  0.00    -0.388 OA
HETATM   34  H43 UNL     1      -7.319  44.371 -26.524  1.00  0.00     0.210 HD
ENDBRANCH  27  33
ENDBRANCH  22  23
ENDBRANCH  12  22
BRANCH  10  35
HETATM   35  C20 UNL     1      -7.723  49.122 -24.505  1.00  0.00     0.151 C 
HETATM   36  O1  UNL     1      -8.908  49.407 -24.488  1.00  0.00    -0.649 OA
BRANCH  35  37
HETATM   37  O2  UNL     1      -6.839  50.092 -24.191  1.00  0.00    -0.776 OA
HETATM   38  H33 UNL     1      -7.415  50.885 -24.126  1.00  0.00     0.167 HD
ENDBRANCH  35  37
ENDBRANCH  10  35
BRANCH  14  39
HETATM   39  O8  UNL     1      -7.812  48.459 -21.784  1.00  0.00    -0.395 OA
HETATM   40  H47 UNL     1      -8.494  48.274 -21.118  1.00  0.00     0.210 HD
ENDBRANCH  14  39
BRANCH   1  41
HETATM   41  C7  UNL     1      -0.970  51.319 -18.550  1.00  0.00    -0.014 C 
HETATM   42  C8  UNL     1      -1.796  51.121 -17.276  1.00  0.00     0.010 C 
BRANCH  41  43
HETATM   43  C6  UNL     1       0.019  52.507 -18.397  1.00  0.00     0.008 C 
BRANCH  43  44
HETATM   44  C5  UNL     1       1.383  52.239 -17.741  1.00  0.00     0.028 C 
BRANCH  44  45
HETATM   45  C4  UNL     1       1.425  52.465 -16.254  1.00  0.00    -0.025 C 
HETATM   46  C2  UNL     1       1.320  51.530 -15.289  1.00  0.00    -0.091 C 
HETATM   47  C1  UNL     1       1.428  51.907 -13.835  1.00  0.00     0.042 C 
HETATM   48  C3  UNL     1       1.083  50.066 -15.535  1.00  0.00     0.042 C 
ENDBRANCH  44  45
ENDBRANCH  43  44
ENDBRANCH  41  43
ENDBRANCH   1  41
TORSDOF 13
ENDMDL
