MODEL 1
REMARK minimizedAffinity -9.73887348
REMARK  11 active torsions:
REMARK  status: ('A' for Active; 'I' for Inactive)
REMARK    1  A    between atoms: C2_2  and  C27_32 
REMARK    2  A    between atoms: C3_3  and  C4_4 
REMARK    3  A    between atoms: C4_4  and  C5_5 
REMARK    4  A    between atoms: C5_5  and  C6_6 
REMARK    5  A    between atoms: C6_6  and  C8_8 
REMARK    6  A    between atoms: C10_10  and  O1_11 
REMARK    7  A    between atoms: C11_12  and  O2_13 
REMARK    8  A    between atoms: C21_23  and  O3_24 
REMARK    9  A    between atoms: C24_27  and  O4_28 
REMARK   10  A    between atoms: C26_30  and  O5_31 
REMARK   11  A    between atoms: C27_32  and  O6_33 
ROOT
HETATM    1  C8  UNL     1      -2.060  49.165 -21.386  1.00  0.00     0.003 C 
HETATM    2  C9  UNL     1      -2.408  48.232 -22.550  1.00  0.00     0.041 C 
HETATM    3  C10 UNL     1      -2.380  49.169 -23.748  1.00  0.00     0.156 C 
HETATM    4  C11 UNL     1      -3.201  50.386 -23.265  1.00  0.00     0.122 C 
HETATM    5  C12 UNL     1      -2.868  50.492 -21.702  1.00  0.00    -0.003 C 
HETATM    6  C13 UNL     1      -4.161  50.641 -20.882  1.00  0.00     0.019 C 
HETATM    7  C14 UNL     1      -1.963  51.715 -21.398  1.00  0.00     0.013 C 
HETATM    8  C15 UNL     1      -0.954  51.997 -22.507  1.00  0.00     0.009 C 
HETATM    9  C16 UNL     1      -1.602  52.398 -23.851  1.00  0.00     0.032 C 
HETATM   10  C17 UNL     1      -0.563  52.456 -25.060  1.00  0.00    -0.031 C 
HETATM   11  C18 UNL     1      -0.258  53.973 -25.279  1.00  0.00     0.016 C 
HETATM   12  C19 UNL     1       0.802  51.754 -24.787  1.00  0.00     0.012 C 
HETATM   13  C20 UNL     1       1.772  51.802 -25.973  1.00  0.00     0.032 C 
HETATM   14  C21 UNL     1       1.147  51.301 -27.272  1.00  0.00     0.118 C 
HETATM   15  C22 UNL     1      -0.212  51.940 -27.558  1.00  0.00     0.039 C 
HETATM   16  C23 UNL     1      -1.143  51.800 -26.343  1.00  0.00     0.025 C 
HETATM   17  C24 UNL     1      -2.576  52.266 -26.588  1.00  0.00     0.126 C 
HETATM   18  C25 UNL     1      -3.469  51.590 -25.557  1.00  0.00     0.073 C 
HETATM   19  C26 UNL     1      -2.998  51.714 -24.086  1.00  0.00     0.099 C 
ENDROOT
BRANCH   1  20
HETATM   20  C6  UNL     1      -2.066  48.417 -20.016  1.00  0.00    -0.013 C 
HETATM   21  C7  UNL     1      -3.156  47.371 -19.800  1.00  0.00     0.010 C 
BRANCH  20  22
HETATM   22  C5  UNL     1      -1.785  49.326 -18.790  1.00  0.00     0.008 C 
BRANCH  22  23
HETATM   23  C4  UNL     1      -0.429  50.023 -18.637  1.00  0.00     0.028 C 
BRANCH  23  24
HETATM   24  C3  UNL     1       0.135  50.009 -17.243  1.00  0.00    -0.022 C 
HETATM   25  C2  UNL     1       0.799  51.006 -16.621  1.00  0.00    -0.064 C 
HETATM   26  C1  UNL     1       1.282  50.832 -15.203  1.00  0.00     0.045 C 
BRANCH  25  27
HETATM   27  C27 UNL     1       1.115  52.345 -17.230  1.00  0.00     0.197 C 
BRANCH  27  28
HETATM   28  O6  UNL     1       1.495  53.243 -16.199  1.00  0.00    -0.397 OA
HETATM   29  H46 UNL     1       2.244  52.830 -15.736  1.00  0.00     0.209 HD
ENDBRANCH  27  28
ENDBRANCH  25  27
ENDBRANCH  23  24
ENDBRANCH  22  23
ENDBRANCH  20  22
ENDBRANCH   1  20
BRANCH   3  30
HETATM   30  O1  UNL     1      -2.960  48.510 -24.861  1.00  0.00    -0.392 OA
HETATM   31  H17 UNL     1      -3.926  48.547 -24.695  1.00  0.00     0.210 HD
ENDBRANCH   3  30
BRANCH   4  32
HETATM   32  O2  UNL     1      -4.594  49.997 -23.433  1.00  0.00    -0.383 OA
HETATM   33  H18 UNL     1      -5.092  50.843 -23.433  1.00  0.00     0.210 HD
ENDBRANCH   4  32
BRANCH  19  34
HETATM   34  O5  UNL     1      -4.027  52.616 -23.545  1.00  0.00    -0.386 OA
HETATM   35  H43 UNL     1      -3.672  53.117 -22.794  1.00  0.00     0.210 HD
ENDBRANCH  19  34
BRANCH  17  36
HETATM   36  O4  UNL     1      -3.007  51.875 -27.890  1.00  0.00    -0.395 OA
HETATM   37  H40 UNL     1      -3.944  52.119 -27.977  1.00  0.00     0.210 HD
ENDBRANCH  17  36
BRANCH  14  38
HETATM   38  O3  UNL     1       2.043  51.576 -28.342  1.00  0.00    -0.396 OA
HETATM   39  H35 UNL     1       1.634  51.231 -29.156  1.00  0.00     0.210 HD
ENDBRANCH  14  38
TORSDOF 11
ENDMDL
MODEL 2
REMARK minimizedAffinity -9.73686218
REMARK  11 active torsions:
REMARK  status: ('A' for Active; 'I' for Inactive)
REMARK    1  A    between atoms: C2_2  and  C27_32 
REMARK    2  A    between atoms: C3_3  and  C4_4 
REMARK    3  A    between atoms: C4_4  and  C5_5 
REMARK    4  A    between atoms: C5_5  and  C6_6 
REMARK    5  A    between atoms: C6_6  and  C8_8 
REMARK    6  A    between atoms: C10_10  and  O1_11 
REMARK    7  A    between atoms: C11_12  and  O2_13 
REMARK    8  A    between atoms: C21_23  and  O3_24 
REMARK    9  A    between atoms: C24_27  and  O4_28 
REMARK   10  A    between atoms: C26_30  and  O5_31 
REMARK   11  A    between atoms: C27_32  and  O6_33 
ROOT
HETATM    1  C8  UNL     1      -2.277  51.101 -22.780  1.00  0.00     0.003 C 
HETATM    2  C9  UNL     1      -3.419  52.115 -22.901  1.00  0.00     0.041 C 
HETATM    3  C10 UNL     1      -4.647  51.224 -23.000  1.00  0.00     0.156 C 
HETATM    4  C11 UNL     1      -4.237  50.170 -24.053  1.00  0.00     0.122 C 
HETATM    5  C12 UNL     1      -2.668  49.959 -23.809  1.00  0.00    -0.003 C 
HETATM    6  C13 UNL     1      -1.899  50.033 -25.139  1.00  0.00     0.019 C 
HETATM    7  C14 UNL     1      -2.377  48.580 -23.162  1.00  0.00     0.013 C 
HETATM    8  C15 UNL     1      -3.459  48.144 -22.179  1.00  0.00     0.009 C 
HETATM    9  C16 UNL     1      -4.838  47.911 -22.836  1.00  0.00     0.032 C 
HETATM   10  C17 UNL     1      -6.012  47.693 -21.778  1.00  0.00    -0.031 C 
HETATM   11  C18 UNL     1      -6.275  46.152 -21.754  1.00  0.00     0.016 C 
HETATM   12  C19 UNL     1      -5.668  48.117 -20.318  1.00  0.00     0.012 C 
HETATM   13  C20 UNL     1      -6.821  47.922 -19.327  1.00  0.00     0.032 C 
HETATM   14  C21 UNL     1      -8.122  48.567 -19.795  1.00  0.00     0.118 C 
HETATM   15  C22 UNL     1      -8.477  48.204 -21.237  1.00  0.00     0.039 C 
HETATM   16  C23 UNL     1      -7.291  48.482 -22.173  1.00  0.00     0.025 C 
HETATM   17  C24 UNL     1      -7.601  48.302 -23.657  1.00  0.00     0.126 C 
HETATM   18  C25 UNL     1      -6.578  49.104 -24.449  1.00  0.00     0.073 C 
HETATM   19  C26 UNL     1      -5.097  48.851 -24.069  1.00  0.00     0.099 C 
ENDROOT
BRANCH   1  20
HETATM   20  C6  UNL     1      -0.883  51.798 -22.702  1.00  0.00    -0.013 C 
HETATM   21  C7  UNL     1      -0.306  52.044 -21.312  1.00  0.00     0.010 C 
BRANCH  20  22
HETATM   22  C5  UNL     1      -0.700  52.973 -23.700  1.00  0.00     0.008 C 
BRANCH  22  23
HETATM   23  C4  UNL     1       0.562  53.066 -24.565  1.00  0.00     0.028 C 
BRANCH  23  24
HETATM   24  C3  UNL     1       0.352  52.766 -26.023  1.00  0.00    -0.022 C 
HETATM   25  C2  UNL     1       1.141  52.022 -26.826  1.00  0.00    -0.064 C 
HETATM   26  C1  UNL     1       0.771  51.803 -28.271  1.00  0.00     0.045 C 
BRANCH  25  27
HETATM   27  C27 UNL     1       2.417  51.348 -26.397  1.00  0.00     0.197 C 
BRANCH  27  28
HETATM   28  O6  UNL     1       3.384  51.493 -27.427  1.00  0.00    -0.397 OA
HETATM   29  H46 UNL     1       3.473  52.449 -27.588  1.00  0.00     0.209 HD
ENDBRANCH  27  28
ENDBRANCH  25  27
ENDBRANCH  23  24
ENDBRANCH  22  23
ENDBRANCH  20  22
ENDBRANCH   1  20
BRANCH   3  30
HETATM   30  O1  UNL     1      -5.756  52.012 -23.402  1.00  0.00    -0.392 OA
HETATM   31  H17 UNL     1      -5.625  52.153 -24.363  1.00  0.00     0.210 HD
ENDBRANCH   3  30
BRANCH   4  32
HETATM   32  O2  UNL     1      -4.438  50.819 -25.341  1.00  0.00    -0.383 OA
HETATM   33  H18 UNL     1      -4.486  50.082 -25.987  1.00  0.00     0.210 HD
ENDBRANCH   4  32
BRANCH  19  34
HETATM   34  O5  UNL     1      -4.624  48.144 -25.269  1.00  0.00    -0.386 OA
HETATM   35  H43 UNL     1      -3.879  47.565 -25.044  1.00  0.00     0.210 HD
ENDBRANCH  19  34
BRANCH  17  36
HETATM   36  O4  UNL     1      -8.902  48.803 -23.954  1.00  0.00    -0.395 OA
HETATM   37  H40 UNL     1      -9.030  48.743 -24.916  1.00  0.00     0.210 HD
ENDBRANCH  17  36
BRANCH  14  38
HETATM   38  O3  UNL     1      -9.170  48.159 -18.923  1.00  0.00    -0.396 OA
HETATM   39  H35 UNL     1      -9.985  48.598 -19.227  1.00  0.00     0.210 HD
ENDBRANCH  14  38
TORSDOF 11
ENDMDL
MODEL 3
REMARK minimizedAffinity -9.72529793
REMARK  11 active torsions:
REMARK  status: ('A' for Active; 'I' for Inactive)
REMARK    1  A    between atoms: C2_2  and  C27_32 
REMARK    2  A    between atoms: C3_3  and  C4_4 
REMARK    3  A    between atoms: C4_4  and  C5_5 
REMARK    4  A    between atoms: C5_5  and  C6_6 
REMARK    5  A    between atoms: C6_6  and  C8_8 
REMARK    6  A    between atoms: C10_10  and  O1_11 
REMARK    7  A    between atoms: C11_12  and  O2_13 
REMARK    8  A    between atoms: C21_23  and  O3_24 
REMARK    9  A    between atoms: C24_27  and  O4_28 
REMARK   10  A    between atoms: C26_30  and  O5_31 
REMARK   11  A    between atoms: C27_32  and  O6_33 
ROOT
HETATM    1  C8  UNL     1      -2.015  51.445 -24.474  1.00  0.00     0.003 C 
HETATM    2  C9  UNL     1      -2.765  52.517 -23.678  1.00  0.00     0.041 C 
HETATM    3  C10 UNL     1      -3.809  51.705 -22.927  1.00  0.00     0.156 C 
HETATM    4  C11 UNL     1      -4.401  50.788 -24.022  1.00  0.00     0.122 C 
HETATM    5  C12 UNL     1      -3.160  50.474 -24.985  1.00  0.00    -0.003 C 
HETATM    6  C13 UNL     1      -3.550  50.695 -26.457  1.00  0.00     0.019 C 
HETATM    7  C14 UNL     1      -2.681  49.008 -24.830  1.00  0.00     0.013 C 
HETATM    8  C15 UNL     1      -2.802  48.491 -23.400  1.00  0.00     0.009 C 
HETATM    9  C16 UNL     1      -4.258  48.413 -22.888  1.00  0.00     0.032 C 
HETATM   10  C17 UNL     1      -4.361  48.106 -21.326  1.00  0.00    -0.031 C 
HETATM   11  C18 UNL     1      -4.727  46.590 -21.219  1.00  0.00     0.016 C 
HETATM   12  C19 UNL     1      -3.038  48.310 -20.527  1.00  0.00     0.012 C 
HETATM   13  C20 UNL     1      -3.171  48.033 -19.025  1.00  0.00     0.032 C 
HETATM   14  C21 UNL     1      -4.325  48.795 -18.381  1.00  0.00     0.118 C 
HETATM   15  C22 UNL     1      -5.635  48.650 -19.155  1.00  0.00     0.039 C 
HETATM   16  C23 UNL     1      -5.429  48.999 -20.637  1.00  0.00     0.025 C 
HETATM   17  C24 UNL     1      -6.714  49.039 -21.461  1.00  0.00     0.126 C 
HETATM   18  C25 UNL     1      -6.453  49.894 -22.693  1.00  0.00     0.073 C 
HETATM   19  C26 UNL     1      -5.184  49.525 -23.502  1.00  0.00     0.099 C 
ENDROOT
BRANCH   1  20
HETATM   20  C6  UNL     1      -0.896  52.060 -25.371  1.00  0.00    -0.013 C 
HETATM   21  C7  UNL     1       0.123  51.096 -25.971  1.00  0.00     0.010 C 
BRANCH  20  22
HETATM   22  C5  UNL     1      -0.296  53.385 -24.826  1.00  0.00     0.008 C 
BRANCH  22  23
HETATM   23  C4  UNL     1       0.819  53.355 -23.775  1.00  0.00     0.028 C 
BRANCH  23  24
HETATM   24  C3  UNL     1       0.471  52.630 -22.505  1.00  0.00    -0.022 C 
HETATM   25  C2  UNL     1       0.790  52.991 -21.244  1.00  0.00    -0.064 C 
HETATM   26  C1  UNL     1       0.341  52.154 -20.074  1.00  0.00     0.045 C 
BRANCH  25  27
HETATM   27  C27 UNL     1       1.583  54.214 -20.872  1.00  0.00     0.197 C 
BRANCH  27  28
HETATM   28  O6  UNL     1       1.833  54.977 -22.043  1.00  0.00    -0.397 OA
HETATM   29  H46 UNL     1       0.964  55.170 -22.436  1.00  0.00     0.209 HD
ENDBRANCH  27  28
ENDBRANCH  25  27
ENDBRANCH  23  24
ENDBRANCH  22  23
ENDBRANCH  20  22
ENDBRANCH   1  20
BRANCH   3  30
HETATM   30  O1  UNL     1      -4.763  52.591 -22.365  1.00  0.00    -0.392 OA
HETATM   31  H17 UNL     1      -5.331  52.856 -23.119  1.00  0.00     0.210 HD
ENDBRANCH   3  30
BRANCH   4  32
HETATM   32  O2  UNL     1      -5.363  51.617 -24.733  1.00  0.00    -0.383 OA
HETATM   33  H18 UNL     1      -5.947  50.979 -25.197  1.00  0.00     0.210 HD
ENDBRANCH   4  32
BRANCH  19  34
HETATM   34  O5  UNL     1      -5.790  48.969 -24.721  1.00  0.00    -0.386 OA
HETATM   35  H43 UNL     1      -5.187  48.330 -25.134  1.00  0.00     0.210 HD
ENDBRANCH  19  34
BRANCH  17  36
HETATM   36  O4  UNL     1      -7.766  49.635 -20.707  1.00  0.00    -0.395 OA
HETATM   37  H40 UNL     1      -8.541  49.713 -21.290  1.00  0.00     0.210 HD
ENDBRANCH  17  36
BRANCH  14  38
HETATM   38  O3  UNL     1      -4.496  48.319 -17.051  1.00  0.00    -0.396 OA
HETATM   39  H35 UNL     1      -5.222  48.833 -16.653  1.00  0.00     0.210 HD
ENDBRANCH  14  38
TORSDOF 11
ENDMDL
MODEL 4
REMARK minimizedAffinity -9.59689999
REMARK  11 active torsions:
REMARK  status: ('A' for Active; 'I' for Inactive)
REMARK    1  A    between atoms: C2_2  and  C27_32 
REMARK    2  A    between atoms: C3_3  and  C4_4 
REMARK    3  A    between atoms: C4_4  and  C5_5 
REMARK    4  A    between atoms: C5_5  and  C6_6 
REMARK    5  A    between atoms: C6_6  and  C8_8 
REMARK    6  A    between atoms: C10_10  and  O1_11 
REMARK    7  A    between atoms: C11_12  and  O2_13 
REMARK    8  A    between atoms: C21_23  and  O3_24 
REMARK    9  A    between atoms: C24_27  and  O4_28 
REMARK   10  A    between atoms: C26_30  and  O5_31 
REMARK   11  A    between atoms: C27_32  and  O6_33 
ROOT
HETATM    1  C8  UNL     1      -1.754  50.971 -22.185  1.00  0.00     0.003 C 
HETATM    2  C9  UNL     1      -1.920  51.275 -20.694  1.00  0.00     0.041 C 
HETATM    3  C10 UNL     1      -3.192  50.521 -20.340  1.00  0.00     0.156 C 
HETATM    4  C11 UNL     1      -4.165  50.914 -21.475  1.00  0.00     0.122 C 
HETATM    5  C12 UNL     1      -3.227  51.064 -22.764  1.00  0.00    -0.003 C 
HETATM    6  C13 UNL     1      -3.523  52.383 -23.497  1.00  0.00     0.019 C 
HETATM    7  C14 UNL     1      -3.448  49.898 -23.763  1.00  0.00     0.013 C 
HETATM    8  C15 UNL     1      -3.742  48.571 -23.072  1.00  0.00     0.009 C 
HETATM    9  C16 UNL     1      -5.062  48.566 -22.269  1.00  0.00     0.032 C 
HETATM   10  C17 UNL     1      -5.243  47.268 -21.360  1.00  0.00    -0.031 C 
HETATM   11  C18 UNL     1      -6.244  46.349 -22.132  1.00  0.00     0.016 C 
HETATM   12  C19 UNL     1      -3.943  46.436 -21.137  1.00  0.00     0.012 C 
HETATM   13  C20 UNL     1      -4.138  45.209 -20.239  1.00  0.00     0.032 C 
HETATM   14  C21 UNL     1      -4.810  45.546 -18.910  1.00  0.00     0.118 C 
HETATM   15  C22 UNL     1      -6.071  46.393 -19.083  1.00  0.00     0.039 C 
HETATM   16  C23 UNL     1      -5.777  47.630 -19.946  1.00  0.00     0.025 C 
HETATM   17  C24 UNL     1      -6.934  48.621 -20.044  1.00  0.00     0.126 C 
HETATM   18  C25 UNL     1      -6.358  49.977 -20.430  1.00  0.00     0.073 C 
HETATM   19  C26 UNL     1      -5.413  49.972 -21.659  1.00  0.00     0.099 C 
ENDROOT
BRANCH   1  20
HETATM   20  C6  UNL     1      -0.506  51.687 -22.791  1.00  0.00    -0.013 C 
HETATM   21  C7  UNL     1       0.516  52.253 -21.810  1.00  0.00     0.010 C 
BRANCH  20  22
HETATM   22  C5  UNL     1      -0.822  52.605 -24.003  1.00  0.00     0.008 C 
BRANCH  22  23
HETATM   23  C4  UNL     1       0.314  53.194 -24.846  1.00  0.00     0.028 C 
BRANCH  23  24
HETATM   24  C3  UNL     1       0.257  52.854 -26.309  1.00  0.00    -0.022 C 
HETATM   25  C2  UNL     1       1.107  52.063 -26.997  1.00  0.00    -0.064 C 
HETATM   26  C1  UNL     1       0.892  51.808 -28.467  1.00  0.00     0.045 C 
BRANCH  25  27
HETATM   27  C27 UNL     1       2.306  51.368 -26.410  1.00  0.00     0.197 C 
BRANCH  27  28
HETATM   28  O6  UNL     1       3.402  51.506 -27.302  1.00  0.00    -0.397 OA
HETATM   29  H46 UNL     1       3.524  52.461 -27.443  1.00  0.00     0.209 HD
ENDBRANCH  27  28
ENDBRANCH  25  27
ENDBRANCH  23  24
ENDBRANCH  22  23
ENDBRANCH  20  22
ENDBRANCH   1  20
BRANCH   3  30
HETATM   30  O1  UNL     1      -3.632  50.938 -19.057  1.00  0.00    -0.392 OA
HETATM   31  H17 UNL     1      -4.045  51.814 -19.209  1.00  0.00     0.210 HD
ENDBRANCH   3  30
BRANCH   4  32
HETATM   32  O2  UNL     1      -4.679  52.224 -21.100  1.00  0.00    -0.383 OA
HETATM   33  H18 UNL     1      -5.500  52.329 -21.626  1.00  0.00     0.210 HD
ENDBRANCH   4  32
BRANCH  19  34
HETATM   34  O5  UNL     1      -6.242  50.684 -22.643  1.00  0.00    -0.386 OA
HETATM   35  H43 UNL     1      -6.001  50.413 -23.542  1.00  0.00     0.210 HD
ENDBRANCH  19  34
BRANCH  17  36
HETATM   36  O4  UNL     1      -7.585  48.746 -18.782  1.00  0.00    -0.395 OA
HETATM   37  H40 UNL     1      -8.261  49.441 -18.865  1.00  0.00     0.210 HD
ENDBRANCH  17  36
BRANCH  14  38
HETATM   38  O3  UNL     1      -5.133  44.331 -18.244  1.00  0.00    -0.396 OA
HETATM   39  H35 UNL     1      -5.541  44.570 -17.392  1.00  0.00     0.210 HD
ENDBRANCH  14  38
TORSDOF 11
ENDMDL
MODEL 5
REMARK minimizedAffinity -9.39503288
REMARK  11 active torsions:
REMARK  status: ('A' for Active; 'I' for Inactive)
REMARK    1  A    between atoms: C2_2  and  C27_32 
REMARK    2  A    between atoms: C3_3  and  C4_4 
REMARK    3  A    between atoms: C4_4  and  C5_5 
REMARK    4  A    between atoms: C5_5  and  C6_6 
REMARK    5  A    between atoms: C6_6  and  C8_8 
REMARK    6  A    between atoms: C10_10  and  O1_11 
REMARK    7  A    between atoms: C11_12  and  O2_13 
REMARK    8  A    between atoms: C21_23  and  O3_24 
REMARK    9  A    between atoms: C24_27  and  O4_28 
REMARK   10  A    between atoms: C26_30  and  O5_31 
REMARK   11  A    between atoms: C27_32  and  O6_33 
ROOT
HETATM    1  C8  UNL     1       6.515  67.460 -34.753  1.00  0.00     0.003 C 
HETATM    2  C9  UNL     1       5.776  66.813 -33.578  1.00  0.00     0.041 C 
HETATM    3  C10 UNL     1       6.107  65.338 -33.748  1.00  0.00     0.156 C 
HETATM    4  C11 UNL     1       5.847  65.087 -35.251  1.00  0.00     0.122 C 
HETATM    5  C12 UNL     1       6.271  66.460 -35.959  1.00  0.00    -0.003 C 
HETATM    6  C13 UNL     1       5.179  66.923 -36.937  1.00  0.00     0.019 C 
HETATM    7  C14 UNL     1       7.592  66.301 -36.754  1.00  0.00     0.013 C 
HETATM    8  C15 UNL     1       8.577  65.347 -36.087  1.00  0.00     0.009 C 
HETATM    9  C16 UNL     1       8.071  63.889 -36.003  1.00  0.00     0.032 C 
HETATM   10  C17 UNL     1       8.991  62.952 -35.097  1.00  0.00    -0.031 C 
HETATM   11  C18 UNL     1       9.849  62.113 -36.097  1.00  0.00     0.016 C 
HETATM   12  C19 UNL     1       9.988  63.711 -34.169  1.00  0.00     0.012 C 
HETATM   13  C20 UNL     1      10.842  62.789 -33.291  1.00  0.00     0.032 C 
HETATM   14  C21 UNL     1      10.009  61.786 -32.499  1.00  0.00     0.118 C 
HETATM   15  C22 UNL     1       8.992  61.045 -33.367  1.00  0.00     0.039 C 
HETATM   16  C23 UNL     1       8.140  62.040 -34.171  1.00  0.00     0.025 C 
HETATM   17  C24 UNL     1       6.990  61.404 -34.947  1.00  0.00     0.126 C 
HETATM   18  C25 UNL     1       5.956  62.487 -35.221  1.00  0.00     0.073 C 
HETATM   19  C26 UNL     1       6.509  63.791 -35.850  1.00  0.00     0.099 C 
ENDROOT
BRANCH   1  20
HETATM   20  C6  UNL     1       6.285  69.003 -34.808  1.00  0.00    -0.013 C 
HETATM   21  C7  UNL     1       5.231  69.515 -35.785  1.00  0.00     0.010 C 
BRANCH  20  22
HETATM   22  C5  UNL     1       7.589  69.845 -34.756  1.00  0.00     0.008 C 
BRANCH  22  23
HETATM   23  C4  UNL     1       8.335  70.039 -33.432  1.00  0.00     0.028 C 
BRANCH  23  24
HETATM   24  C3  UNL     1       7.610  70.876 -32.415  1.00  0.00    -0.022 C 
HETATM   25  C2  UNL     1       6.863  70.438 -31.380  1.00  0.00    -0.064 C 
HETATM   26  C1  UNL     1       6.217  71.419 -30.434  1.00  0.00     0.045 C 
BRANCH  25  27
HETATM   27  C27 UNL     1       6.602  68.991 -31.055  1.00  0.00     0.197 C 
BRANCH  27  28
HETATM   28  O6  UNL     1       5.577  68.916 -30.075  1.00  0.00    -0.397 OA
HETATM   29  H46 UNL     1       4.809  69.386 -30.443  1.00  0.00     0.209 HD
ENDBRANCH  27  28
ENDBRANCH  25  27
ENDBRANCH  23  24
ENDBRANCH  22  23
ENDBRANCH  20  22
ENDBRANCH   1  20
BRANCH   3  30
HETATM   30  O1  UNL     1       5.263  64.576 -32.900  1.00  0.00    -0.392 OA
HETATM   31  H17 UNL     1       4.396  64.564 -33.359  1.00  0.00     0.210 HD
ENDBRANCH   3  30
BRANCH   4  32
HETATM   32  O2  UNL     1       4.406  64.914 -35.364  1.00  0.00    -0.383 OA
HETATM   33  H18 UNL     1       4.276  64.456 -36.222  1.00  0.00     0.210 HD
ENDBRANCH   4  32
BRANCH  19  34
HETATM   34  O5  UNL     1       5.939  63.705 -37.203  1.00  0.00    -0.386 OA
HETATM   35  H43 UNL     1       6.496  64.188 -37.833  1.00  0.00     0.210 HD
ENDBRANCH  19  34
BRANCH  17  36
HETATM   36  O4  UNL     1       6.379  60.376 -34.171  1.00  0.00    -0.395 OA
HETATM   37  H40 UNL     1       5.606  60.052 -34.665  1.00  0.00     0.210 HD
ENDBRANCH  17  36
BRANCH  14  38
HETATM   38  O3  UNL     1      10.889  60.851 -31.884  1.00  0.00    -0.396 OA
HETATM   39  H35 UNL     1      10.339  60.234 -31.369  1.00  0.00     0.210 HD
ENDBRANCH  14  38
TORSDOF 11
ENDMDL
MODEL 6
REMARK minimizedAffinity -9.16659832
REMARK  11 active torsions:
REMARK  status: ('A' for Active; 'I' for Inactive)
REMARK    1  A    between atoms: C2_2  and  C27_32 
REMARK    2  A    between atoms: C3_3  and  C4_4 
REMARK    3  A    between atoms: C4_4  and  C5_5 
REMARK    4  A    between atoms: C5_5  and  C6_6 
REMARK    5  A    between atoms: C6_6  and  C8_8 
REMARK    6  A    between atoms: C10_10  and  O1_11 
REMARK    7  A    between atoms: C11_12  and  O2_13 
REMARK    8  A    between atoms: C21_23  and  O3_24 
REMARK    9  A    between atoms: C24_27  and  O4_28 
REMARK   10  A    between atoms: C26_30  and  O5_31 
REMARK   11  A    between atoms: C27_32  and  O6_33 
ROOT
HETATM    1  C8  UNL     1      -5.577  49.747 -24.052  1.00  0.00     0.003 C 
HETATM    2  C9  UNL     1      -5.640  51.114 -23.363  1.00  0.00     0.041 C 
HETATM    3  C10 UNL     1      -4.193  51.578 -23.410  1.00  0.00     0.156 C 
HETATM    4  C11 UNL     1      -3.406  50.338 -22.927  1.00  0.00     0.122 C 
HETATM    5  C12 UNL     1      -4.244  49.096 -23.492  1.00  0.00    -0.003 C 
HETATM    6  C13 UNL     1      -4.481  48.055 -22.384  1.00  0.00     0.019 C 
HETATM    7  C14 UNL     1      -3.500  48.395 -24.658  1.00  0.00     0.013 C 
HETATM    8  C15 UNL     1      -2.722  49.369 -25.537  1.00  0.00     0.009 C 
HETATM    9  C16 UNL     1      -1.569  50.087 -24.800  1.00  0.00     0.032 C 
HETATM   10  C17 UNL     1      -0.919  51.271 -25.649  1.00  0.00    -0.031 C 
HETATM   11  C18 UNL     1       0.417  50.694 -26.219  1.00  0.00     0.016 C 
HETATM   12  C19 UNL     1      -1.765  51.746 -26.869  1.00  0.00     0.012 C 
HETATM   13  C20 UNL     1      -1.130  52.901 -27.651  1.00  0.00     0.032 C 
HETATM   14  C21 UNL     1      -0.740  54.078 -26.761  1.00  0.00     0.118 C 
HETATM   15  C22 UNL     1       0.062  53.649 -25.533  1.00  0.00     0.039 C 
HETATM   16  C23 UNL     1      -0.668  52.530 -24.774  1.00  0.00     0.025 C 
HETATM   17  C24 UNL     1      -0.024  52.145 -23.444  1.00  0.00     0.126 C 
HETATM   18  C25 UNL     1      -1.089  51.473 -22.587  1.00  0.00     0.073 C 
HETATM   19  C26 UNL     1      -1.871  50.327 -23.276  1.00  0.00     0.099 C 
ENDROOT
BRANCH   1  20
HETATM   20  C6  UNL     1      -6.971  49.047 -24.088  1.00  0.00    -0.013 C 
HETATM   21  C7  UNL     1      -7.854  49.191 -22.852  1.00  0.00     0.010 C 
BRANCH  20  22
HETATM   22  C5  UNL     1      -6.956  47.626 -24.714  1.00  0.00     0.008 C 
BRANCH  22  23
HETATM   23  C4  UNL     1      -7.499  47.397 -26.129  1.00  0.00     0.028 C 
BRANCH  23  24
HETATM   24  C3  UNL     1      -6.480  47.536 -27.226  1.00  0.00    -0.022 C 
HETATM   25  C2  UNL     1      -6.713  47.815 -28.525  1.00  0.00    -0.064 C 
HETATM   26  C1  UNL     1      -5.566  47.941 -29.497  1.00  0.00     0.045 C 
BRANCH  25  27
HETATM   27  C27 UNL     1      -8.073  48.033 -29.131  1.00  0.00     0.197 C 
BRANCH  27  28
HETATM   28  O6  UNL     1      -8.486  49.366 -28.872  1.00  0.00    -0.397 OA
HETATM   29  H46 UNL     1      -7.792  49.945 -29.233  1.00  0.00     0.209 HD
ENDBRANCH  27  28
ENDBRANCH  25  27
ENDBRANCH  23  24
ENDBRANCH  22  23
ENDBRANCH  20  22
ENDBRANCH   1  20
BRANCH   3  30
HETATM   30  O1  UNL     1      -4.042  52.702 -22.557  1.00  0.00    -0.392 OA
HETATM   31  H17 UNL     1      -4.023  52.325 -21.652  1.00  0.00     0.210 HD
ENDBRANCH   3  30
BRANCH   4  32
HETATM   32  O2  UNL     1      -3.507  50.365 -21.475  1.00  0.00    -0.383 OA
HETATM   33  H18 UNL     1      -2.775  49.791 -21.163  1.00  0.00     0.210 HD
ENDBRANCH   4  32
BRANCH  19  34
HETATM   34  O5  UNL     1      -1.357  49.163 -22.537  1.00  0.00    -0.386 OA
HETATM   35  H43 UNL     1      -1.411  48.367 -23.088  1.00  0.00     0.210 HD
ENDBRANCH  19  34
BRANCH  17  36
HETATM   36  O4  UNL     1       0.440  53.308 -22.764  1.00  0.00    -0.395 OA
HETATM   37  H40 UNL     1       0.770  53.030 -21.892  1.00  0.00     0.210 HD
ENDBRANCH  17  36
BRANCH  14  38
HETATM   38  O3  UNL     1       0.020  54.999 -27.535  1.00  0.00    -0.396 OA
HETATM   39  H35 UNL     1       0.241  55.749 -26.954  1.00  0.00     0.210 HD
ENDBRANCH  14  38
TORSDOF 11
ENDMDL
MODEL 7
REMARK minimizedAffinity -9.03161335
REMARK  11 active torsions:
REMARK  status: ('A' for Active; 'I' for Inactive)
REMARK    1  A    between atoms: C2_2  and  C27_32 
REMARK    2  A    between atoms: C3_3  and  C4_4 
REMARK    3  A    between atoms: C4_4  and  C5_5 
REMARK    4  A    between atoms: C5_5  and  C6_6 
REMARK    5  A    between atoms: C6_6  and  C8_8 
REMARK    6  A    between atoms: C10_10  and  O1_11 
REMARK    7  A    between atoms: C11_12  and  O2_13 
REMARK    8  A    between atoms: C21_23  and  O3_24 
REMARK    9  A    between atoms: C24_27  and  O4_28 
REMARK   10  A    between atoms: C26_30  and  O5_31 
REMARK   11  A    between atoms: C27_32  and  O6_33 
ROOT
HETATM    1  C8  UNL     1      -3.542  50.414 -25.323  1.00  0.00     0.003 C 
HETATM    2  C9  UNL     1      -4.199  51.698 -24.807  1.00  0.00     0.041 C 
HETATM    3  C10 UNL     1      -3.859  51.675 -23.325  1.00  0.00     0.156 C 
HETATM    4  C11 UNL     1      -4.206  50.228 -22.904  1.00  0.00     0.122 C 
HETATM    5  C12 UNL     1      -3.844  49.346 -24.191  1.00  0.00    -0.003 C 
HETATM    6  C13 UNL     1      -5.000  48.391 -24.533  1.00  0.00     0.019 C 
HETATM    7  C14 UNL     1      -2.571  48.494 -23.952  1.00  0.00     0.013 C 
HETATM    8  C15 UNL     1      -1.535  49.202 -23.086  1.00  0.00     0.009 C 
HETATM    9  C16 UNL     1      -2.015  49.480 -21.644  1.00  0.00     0.032 C 
HETATM   10  C17 UNL     1      -1.029  50.428 -20.823  1.00  0.00    -0.031 C 
HETATM   11  C18 UNL     1      -0.221  49.478 -19.881  1.00  0.00     0.016 C 
HETATM   12  C19 UNL     1       0.012  51.201 -21.688  1.00  0.00     0.012 C 
HETATM   13  C20 UNL     1       0.930  52.124 -20.878  1.00  0.00     0.032 C 
HETATM   14  C21 UNL     1       0.160  53.074 -19.965  1.00  0.00     0.118 C 
HETATM   15  C22 UNL     1      -0.897  52.358 -19.123  1.00  0.00     0.039 C 
HETATM   16  C23 UNL     1      -1.809  51.501 -20.015  1.00  0.00     0.025 C 
HETATM   17  C24 UNL     1      -2.995  50.874 -19.287  1.00  0.00     0.126 C 
HETATM   18  C25 UNL     1      -4.059  50.544 -20.324  1.00  0.00     0.073 C 
HETATM   19  C26 UNL     1      -3.563  49.740 -21.553  1.00  0.00     0.099 C 
ENDROOT
BRANCH   1  20
HETATM   20  C6  UNL     1      -3.796  50.200 -26.848  1.00  0.00    -0.013 C 
HETATM   21  C7  UNL     1      -3.786  48.763 -27.360  1.00  0.00     0.010 C 
BRANCH  20  22
HETATM   22  C5  UNL     1      -3.073  51.223 -27.765  1.00  0.00     0.008 C 
BRANCH  22  23
HETATM   23  C4  UNL     1      -2.023  52.177 -27.187  1.00  0.00     0.028 C 
BRANCH  23  24
HETATM   24  C3  UNL     1      -0.636  51.605 -27.087  1.00  0.00    -0.022 C 
HETATM   25  C2  UNL     1       0.366  52.026 -26.288  1.00  0.00    -0.064 C 
HETATM   26  C1  UNL     1       1.699  51.321 -26.298  1.00  0.00     0.045 C 
BRANCH  25  27
HETATM   27  C27 UNL     1       0.278  53.186 -25.333  1.00  0.00     0.197 C 
BRANCH  27  28
HETATM   28  O6  UNL     1       0.275  54.396 -26.075  1.00  0.00    -0.397 OA
HETATM   29  H46 UNL     1      -0.470  54.335 -26.698  1.00  0.00     0.209 HD
ENDBRANCH  27  28
ENDBRANCH  25  27
ENDBRANCH  23  24
ENDBRANCH  22  23
ENDBRANCH  20  22
ENDBRANCH   1  20
BRANCH   3  30
HETATM   30  O1  UNL     1      -4.640  52.653 -22.658  1.00  0.00    -0.392 OA
HETATM   31  H17 UNL     1      -5.532  52.253 -22.588  1.00  0.00     0.210 HD
ENDBRANCH   3  30
BRANCH   4  32
HETATM   32  O2  UNL     1      -5.649  50.224 -22.709  1.00  0.00    -0.383 OA
HETATM   33  H18 UNL     1      -5.824  49.433 -22.156  1.00  0.00     0.210 HD
ENDBRANCH   4  32
BRANCH  19  34
HETATM   34  O5  UNL     1      -4.213  48.443 -21.310  1.00  0.00    -0.386 OA
HETATM   35  H43 UNL     1      -3.701  47.729 -21.723  1.00  0.00     0.210 HD
ENDBRANCH  19  34
BRANCH  17  36
HETATM   36  O4  UNL     1      -3.544  51.797 -18.349  1.00  0.00    -0.395 OA
HETATM   37  H40 UNL     1      -4.340  51.391 -17.966  1.00  0.00     0.210 HD
ENDBRANCH  17  36
BRANCH  14  38
HETATM   38  O3  UNL     1       1.088  53.734 -19.112  1.00  0.00    -0.396 OA
HETATM   39  H35 UNL     1       0.579  54.349 -18.553  1.00  0.00     0.210 HD
ENDBRANCH  14  38
TORSDOF 11
ENDMDL
MODEL 8
REMARK minimizedAffinity -8.92235088
REMARK  11 active torsions:
REMARK  status: ('A' for Active; 'I' for Inactive)
REMARK    1  A    between atoms: C2_2  and  C27_32 
REMARK    2  A    between atoms: C3_3  and  C4_4 
REMARK    3  A    between atoms: C4_4  and  C5_5 
REMARK    4  A    between atoms: C5_5  and  C6_6 
REMARK    5  A    between atoms: C6_6  and  C8_8 
REMARK    6  A    between atoms: C10_10  and  O1_11 
REMARK    7  A    between atoms: C11_12  and  O2_13 
REMARK    8  A    between atoms: C21_23  and  O3_24 
REMARK    9  A    between atoms: C24_27  and  O4_28 
REMARK   10  A    between atoms: C26_30  and  O5_31 
REMARK   11  A    between atoms: C27_32  and  O6_33 
ROOT
HETATM    1  C8  UNL     1      -1.425  49.403 -19.303  1.00  0.00     0.003 C 
HETATM    2  C9  UNL     1      -1.067  48.098 -20.020  1.00  0.00     0.041 C 
HETATM    3  C10 UNL     1      -1.629  48.321 -21.416  1.00  0.00     0.156 C 
HETATM    4  C11 UNL     1      -3.051  48.862 -21.144  1.00  0.00     0.122 C 
HETATM    5  C12 UNL     1      -2.893  49.728 -19.806  1.00  0.00    -0.003 C 
HETATM    6  C13 UNL     1      -3.991  49.362 -18.793  1.00  0.00     0.019 C 
HETATM    7  C14 UNL     1      -2.998  51.247 -20.100  1.00  0.00     0.013 C 
HETATM    8  C15 UNL     1      -2.390  51.636 -21.444  1.00  0.00     0.009 C 
HETATM    9  C16 UNL     1      -3.119  51.018 -22.659  1.00  0.00     0.032 C 
HETATM   10  C17 UNL     1      -2.341  51.229 -24.035  1.00  0.00    -0.031 C 
HETATM   11  C18 UNL     1      -3.084  52.395 -24.763  1.00  0.00     0.016 C 
HETATM   12  C19 UNL     1      -0.851  51.663 -23.888  1.00  0.00     0.012 C 
HETATM   13  C20 UNL     1      -0.119  51.833 -25.224  1.00  0.00     0.032 C 
HETATM   14  C21 UNL     1      -0.250  50.614 -26.132  1.00  0.00     0.118 C 
HETATM   15  C22 UNL     1      -1.694  50.134 -26.274  1.00  0.00     0.039 C 
HETATM   16  C23 UNL     1      -2.336  49.934 -24.893  1.00  0.00     0.025 C 
HETATM   17  C24 UNL     1      -3.726  49.303 -24.928  1.00  0.00     0.126 C 
HETATM   18  C25 UNL     1      -3.991  48.679 -23.565  1.00  0.00     0.073 C 
HETATM   19  C26 UNL     1      -3.738  49.607 -22.349  1.00  0.00     0.099 C 
ENDROOT
BRANCH   1  20
HETATM   20  C6  UNL     1      -0.972  49.391 -17.810  1.00  0.00    -0.013 C 
HETATM   21  C7  UNL     1      -1.564  48.309 -16.911  1.00  0.00     0.010 C 
BRANCH  20  22
HETATM   22  C5  UNL     1      -0.880  50.798 -17.158  1.00  0.00     0.008 C 
BRANCH  22  23
HETATM   23  C4  UNL     1       0.462  51.535 -17.094  1.00  0.00     0.028 C 
BRANCH  23  24
HETATM   24  C3  UNL     1       1.224  51.350 -15.811  1.00  0.00    -0.022 C 
HETATM   25  C2  UNL     1       2.432  51.863 -15.498  1.00  0.00    -0.064 C 
HETATM   26  C1  UNL     1       3.049  51.594 -14.149  1.00  0.00     0.045 C 
BRANCH  25  27
HETATM   27  C27 UNL     1       3.265  52.727 -16.406  1.00  0.00     0.197 C 
BRANCH  27  28
HETATM   28  O6  UNL     1       4.622  52.323 -16.312  1.00  0.00    -0.397 OA
HETATM   29  H46 UNL     1       4.644  51.375 -16.534  1.00  0.00     0.209 HD
ENDBRANCH  27  28
ENDBRANCH  25  27
ENDBRANCH  23  24
ENDBRANCH  22  23
ENDBRANCH  20  22
ENDBRANCH   1  20
BRANCH   3  30
HETATM   30  O1  UNL     1      -1.625  47.086 -22.115  1.00  0.00    -0.392 OA
HETATM   31  H17 UNL     1      -2.390  46.592 -21.750  1.00  0.00     0.210 HD
ENDBRANCH   3  30
BRANCH   4  32
HETATM   32  O2  UNL     1      -3.859  47.684 -20.861  1.00  0.00    -0.383 OA
HETATM   33  H18 UNL     1      -4.785  47.978 -21.000  1.00  0.00     0.210 HD
ENDBRANCH   4  32
BRANCH  19  34
HETATM   34  O5  UNL     1      -5.116  49.824 -21.880  1.00  0.00    -0.386 OA
HETATM   35  H43 UNL     1      -5.182  50.673 -21.417  1.00  0.00     0.210 HD
ENDBRANCH  19  34
BRANCH  17  36
HETATM   36  O4  UNL     1      -3.779  48.277 -25.916  1.00  0.00    -0.395 OA
HETATM   37  H40 UNL     1      -4.650  47.850 -25.853  1.00  0.00     0.210 HD
ENDBRANCH  17  36
BRANCH  14  38
HETATM   38  O3  UNL     1       0.277  50.944 -27.412  1.00  0.00    -0.396 OA
HETATM   39  H35 UNL     1       0.202  50.147 -27.968  1.00  0.00     0.210 HD
ENDBRANCH  14  38
TORSDOF 11
ENDMDL
MODEL 9
REMARK minimizedAffinity -8.88929844
REMARK  11 active torsions:
REMARK  status: ('A' for Active; 'I' for Inactive)
REMARK    1  A    between atoms: C2_2  and  C27_32 
REMARK    2  A    between atoms: C3_3  and  C4_4 
REMARK    3  A    between atoms: C4_4  and  C5_5 
REMARK    4  A    between atoms: C5_5  and  C6_6 
REMARK    5  A    between atoms: C6_6  and  C8_8 
REMARK    6  A    between atoms: C10_10  and  O1_11 
REMARK    7  A    between atoms: C11_12  and  O2_13 
REMARK    8  A    between atoms: C21_23  and  O3_24 
REMARK    9  A    between atoms: C24_27  and  O4_28 
REMARK   10  A    between atoms: C26_30  and  O5_31 
REMARK   11  A    between atoms: C27_32  and  O6_33 
ROOT
HETATM    1  C8  UNL     1       6.256  67.492 -35.348  1.00  0.00     0.003 C 
HETATM    2  C9  UNL     1       5.540  66.978 -34.095  1.00  0.00     0.041 C 
HETATM    3  C10 UNL     1       5.858  65.491 -34.115  1.00  0.00     0.156 C 
HETATM    4  C11 UNL     1       5.563  65.085 -35.577  1.00  0.00     0.122 C 
HETATM    5  C12 UNL     1       5.979  66.371 -36.435  1.00  0.00    -0.003 C 
HETATM    6  C13 UNL     1       4.868  66.736 -37.434  1.00  0.00     0.019 C 
HETATM    7  C14 UNL     1       7.282  66.118 -37.237  1.00  0.00     0.013 C 
HETATM    8  C15 UNL     1       8.276  65.232 -36.494  1.00  0.00     0.009 C 
HETATM    9  C16 UNL     1       7.763  63.795 -36.245  1.00  0.00     0.032 C 
HETATM   10  C17 UNL     1       8.698  62.953 -35.264  1.00  0.00    -0.031 C 
HETATM   11  C18 UNL     1       9.529  62.005 -36.188  1.00  0.00     0.016 C 
HETATM   12  C19 UNL     1       9.720  63.798 -34.444  1.00  0.00     0.012 C 
HETATM   13  C20 UNL     1      10.587  62.968 -33.491  1.00  0.00     0.032 C 
HETATM   14  C21 UNL     1       9.767  62.061 -32.579  1.00  0.00     0.118 C 
HETATM   15  C22 UNL     1       8.727  61.240 -33.342  1.00  0.00     0.039 C 
HETATM   16  C23 UNL     1       7.863  62.151 -34.228  1.00  0.00     0.025 C 
HETATM   17  C24 UNL     1       6.692  61.445 -34.908  1.00  0.00     0.126 C 
HETATM   18  C25 UNL     1       5.658  62.501 -35.273  1.00  0.00     0.073 C 
HETATM   19  C26 UNL     1       6.205  63.726 -36.049  1.00  0.00     0.099 C 
ENDROOT
BRANCH   1  20
HETATM   20  C6  UNL     1       6.034  69.021 -35.561  1.00  0.00    -0.013 C 
HETATM   21  C7  UNL     1       6.388  69.945 -34.400  1.00  0.00     0.010 C 
BRANCH  20  22
HETATM   22  C5  UNL     1       4.713  69.379 -36.296  1.00  0.00     0.008 C 
BRANCH  22  23
HETATM   23  C4  UNL     1       3.363  69.203 -35.593  1.00  0.00     0.028 C 
BRANCH  23  24
HETATM   24  C3  UNL     1       2.216  69.931 -36.237  1.00  0.00    -0.022 C 
HETATM   25  C2  UNL     1       1.012  69.423 -36.573  1.00  0.00    -0.064 C 
HETATM   26  C1  UNL     1      -0.042  70.303 -37.196  1.00  0.00     0.045 C 
BRANCH  25  27
HETATM   27  C27 UNL     1       0.591  67.992 -36.369  1.00  0.00     0.197 C 
BRANCH  27  28
HETATM   28  O6  UNL     1      -0.251  67.602 -37.443  1.00  0.00    -0.397 OA
HETATM   29  H46 UNL     1       0.254  67.756 -38.260  1.00  0.00     0.209 HD
ENDBRANCH  27  28
ENDBRANCH  25  27
ENDBRANCH  23  24
ENDBRANCH  22  23
ENDBRANCH  20  22
ENDBRANCH   1  20
BRANCH   3  30
HETATM   30  O1  UNL     1       5.029  64.831 -33.173  1.00  0.00    -0.392 OA
HETATM   31  H17 UNL     1       4.152  64.776 -33.609  1.00  0.00     0.210 HD
ENDBRANCH   3  30
BRANCH   4  32
HETATM   32  O2  UNL     1       4.119  64.912 -35.640  1.00  0.00    -0.383 OA
HETATM   33  H18 UNL     1       3.968  64.366 -36.441  1.00  0.00     0.210 HD
ENDBRANCH   4  32
BRANCH  19  34
HETATM   34  O5  UNL     1       5.604  63.502 -37.372  1.00  0.00    -0.386 OA
HETATM   35  H43 UNL     1       6.150  63.911 -38.062  1.00  0.00     0.210 HD
ENDBRANCH  19  34
BRANCH  17  36
HETATM   36  O4  UNL     1       6.093  60.510 -34.014  1.00  0.00    -0.395 OA
HETATM   37  H40 UNL     1       5.307  60.142 -34.454  1.00  0.00     0.210 HD
ENDBRANCH  17  36
BRANCH  14  38
HETATM   38  O3  UNL     1      10.655  61.190 -31.888  1.00  0.00    -0.396 OA
HETATM   39  H35 UNL     1      10.113  60.635 -31.298  1.00  0.00     0.210 HD
ENDBRANCH  14  38
TORSDOF 11
ENDMDL
