MODEL 1
REMARK minimizedAffinity -7.20962477
REMARK CNNscore 0.143750325
REMARK CNNaffinity 6.90854788
REMARK  9 active torsions:
REMARK  status: ('A' for Active; 'I' for Inactive)
REMARK    1  A    between atoms: C13_13  and  S1_14 
REMARK    2  A    between atoms: C22_26  and  C23_27 
REMARK    3  A    between atoms: C23_27  and  O4_28 
REMARK    4  A    between atoms: C29_34  and  O5_35 
REMARK    5  A    between atoms: C41_48  and  C42_49 
REMARK    6  A    between atoms: C41_48  and  N1_57 
REMARK    7  A    between atoms: C42_49  and  C43_50 
REMARK    8  A    between atoms: C43_50  and  C44_51 
REMARK    9  A    between atoms: C44_51  and  O7_52 
REMARK       I    between atoms: C49_59  and  N2_60 
REMARK       I    between atoms: C49_59  and  N3_61 
ROOT
HETATM    1  C1  UNL     1       2.379  14.624  19.377  1.00  0.00     0.010 C 
HETATM    2  C2  UNL     1       1.892  13.374  18.649  1.00  0.00    -0.010 C 
HETATM    3  C3  UNL     1       2.820  13.146  17.420  1.00  0.00     0.009 C 
HETATM    4  C4  UNL     1       2.129  12.586  16.175  1.00  0.00     0.039 C 
HETATM    5  C5  UNL     1       1.053  11.608  16.548  1.00  0.00    -0.049 C 
HETATM    6  C6  UNL     1       0.816  10.473  15.770  1.00  0.00     0.044 C 
HETATM    7  C7  UNL     1      -0.254   9.645  16.090  1.00  0.00     0.072 C 
HETATM    8  C8  UNL     1      -0.915   9.794  17.304  1.00  0.00     0.037 C 
HETATM    9  C9  UNL     1      -0.699  10.946  18.068  1.00  0.00     0.011 C 
HETATM   10  C10 UNL     1       0.209  11.920  17.640  1.00  0.00    -0.047 C 
HETATM   11  C11 UNL     1       0.380  13.332  18.240  1.00  0.00     0.024 C 
HETATM   12  C12 UNL     1      -0.634  13.751  19.338  1.00  0.00     0.033 C 
HETATM   13  C13 UNL     1      -1.640  14.920  19.048  1.00  0.00     0.139 C 
HETATM   14  C14 UNL     1      -2.860  14.607  18.104  1.00  0.00     0.038 C 
HETATM   15  C15 UNL     1      -4.072  15.456  18.484  1.00  0.00    -0.014 C 
HETATM   16  C16 UNL     1      -4.489  16.477  17.707  1.00  0.00    -0.050 C 
HETATM   17  C17 UNL     1      -3.695  16.819  16.480  1.00  0.00     0.042 C 
HETATM   18  C18 UNL     1      -3.648  15.513  15.710  1.00  0.00     0.001 C 
HETATM   19  C19 UNL     1      -5.101  14.956  15.436  1.00  0.00     0.037 C 
HETATM   20  C20 UNL     1      -6.273  15.975  15.540  1.00  0.00     0.123 C 
HETATM   21  C21 UNL     1      -7.548  15.501  14.792  1.00  0.00     0.039 C 
HETATM   22  C22 UNL     1      -8.567  14.533  15.461  1.00  0.00     0.023 C 
HETATM   23  C24 UNL     1      -9.718  15.234  16.239  1.00  0.00     0.101 C 
HETATM   24  C25 UNL     1      -9.298  15.904  17.475  1.00  0.00    -0.101 C 
HETATM   25  C26 UNL     1      -8.757  16.433  18.409  1.00  0.00    -0.066 C 
HETATM   26  C27 UNL     1      -7.875  17.008  19.383  1.00  0.00     0.029 A 
HETATM   27  C28 UNL     1      -8.394  17.280  20.655  1.00  0.00     0.057 A 
HETATM   28  C29 UNL     1      -7.582  17.837  21.636  1.00  0.00     0.067 A 
HETATM   29  C30 UNL     1      -6.255  18.142  21.370  1.00  0.00     0.037 A 
HETATM   30  C31 UNL     1      -5.731  17.879  20.103  1.00  0.00     0.014 A 
HETATM   31  C32 UNL     1      -6.517  17.287  19.088  1.00  0.00    -0.006 A 
HETATM   32  C33 UNL     1      -5.870  17.071  17.712  1.00  0.00     0.185 C 
HETATM   33  O6  UNL     1      -6.652  16.191  16.893  1.00  0.00    -0.371 OA
HETATM   34  C34 UNL     1      -2.685  14.545  16.514  1.00  0.00     0.032 C 
HETATM   35  C35 UNL     1      -2.745  13.150  15.878  1.00  0.00    -0.055 C 
HETATM   36  C36 UNL     1      -3.597  12.138  16.338  1.00  0.00     0.001 C 
HETATM   37  C37 UNL     1      -3.509  10.840  15.829  1.00  0.00     0.096 A 
HETATM   38  C38 UNL     1      -2.552  10.511  14.853  1.00  0.00     0.086 A 
HETATM   39  C39 UNL     1      -1.844  11.571  14.256  1.00  0.00     0.004 C 
HETATM   40  C40 UNL     1      -1.930  12.869  14.774  1.00  0.00     0.005 C 
HETATM   41  C41 UNL     1      -2.106   9.028  14.656  1.00  0.00     0.167 C 
HETATM   42  O8  UNL     1      -0.702   8.809  15.096  1.00  0.00    -0.318 OA
HETATM   43 NA1  UNL     1      -3.344  12.685  16.087  1.00  0.00    -0.348 Na
ATOM     44 1HA1 UNL     1      -3.206  13.526  16.648  1.00  0.00     0.104 HD
ATOM     45 2HA1 UNL     1      -3.695  13.642  16.129  1.00  0.00     0.104 HD
ENDROOT
BRANCH  41  46
HETATM   46  C42 UNL     1      -2.076   8.686  13.132  1.00  0.00     0.067 C 
BRANCH  46  47
HETATM   47  C43 UNL     1      -0.682   8.770  12.484  1.00  0.00     0.042 C 
BRANCH  47  48
HETATM   48  C44 UNL     1      -0.163   7.421  11.976  1.00  0.00     0.058 C 
HETATM   49  C45 UNL     1       1.226   7.099  12.537  1.00  0.00     0.038 C 
HETATM   50  C46 UNL     1       1.802   6.054  11.584  1.00  0.00     0.003 C 
HETATM   51  C47 UNL     1       1.057   6.221  10.261  1.00  0.00     0.003 C 
HETATM   52  C48 UNL     1       0.068   7.369  10.465  1.00  0.00     0.038 C 
BRANCH  48  53
HETATM   53  O7  UNL     1      -1.087   6.403  12.361  1.00  0.00    -0.390 OA
HETATM   54  H46 UNL     1      -0.720   5.536  12.125  1.00  0.00     0.210 HD
ENDBRANCH  48  53
ENDBRANCH  47  48
ENDBRANCH  46  47
ENDBRANCH  41  46
BRANCH  41  55
HETATM   55  N1  UNL     1      -3.096   8.098  15.257  1.00  0.00    -0.338 N 
HETATM   56  C49 UNL     1      -2.776   6.902  15.559  1.00  0.00     0.124 C 
HETATM   57  N2  UNL     1      -3.696   6.073  16.100  1.00  0.00    -0.279 NA
HETATM   58  N3  UNL     1      -1.606   6.238  15.419  1.00  0.00    -0.279 NA
HETATM   59  H55 UNL     1      -3.662   5.150  15.687  1.00  0.00     0.126 HD
HETATM   60  H56 UNL     1      -4.623   6.479  16.021  1.00  0.00     0.126 HD
HETATM   61  H57 UNL     1      -1.376   5.710  16.254  1.00  0.00     0.126 HD
HETATM   62  H58 UNL     1      -0.838   6.875  15.204  1.00  0.00     0.126 HD
ATOM     63  H1  UNL     1      -4.047   8.422  15.430  1.00  0.00     0.164 HD
ENDBRANCH  41  55
BRANCH  13  64
HETATM   64  S1  UNL     1      -0.827  16.516  18.840  1.00  0.00     0.106 S 
HETATM   65  O1  UNL     1      -1.900  17.481  19.071  1.00  0.00    -0.595 OA
HETATM   66  O2  UNL     1      -0.354  16.536  17.458  1.00  0.00    -0.595 OA
HETATM   67  O3  UNL     1       0.228  16.527  19.850  1.00  0.00    -0.595 OA
ENDBRANCH  13  64
BRANCH  22  68
HETATM   68  C23 UNL     1      -7.933  13.385  16.253  1.00  0.00     0.169 C 
BRANCH  68  69
HETATM   69  O4  UNL     1      -7.690  13.799  17.599  1.00  0.00    -0.400 OA
HETATM   70  H29 UNL     1      -8.554  13.831  18.042  1.00  0.00     0.209 HD
ENDBRANCH  68  69
ENDBRANCH  22  68
BRANCH  28  71
HETATM   71  O5  UNL     1      -8.131  18.077  22.862  1.00  0.00    -0.361 OA
HETATM   72  H33 UNL     1      -7.435  18.454  23.427  1.00  0.00     0.217 HD
ENDBRANCH  28  71
TORSDOF 9
ENDMDL
MODEL 2
REMARK minimizedAffinity -7.47245312
REMARK CNNscore 0.131496638
REMARK CNNaffinity 6.87680054
REMARK  9 active torsions:
REMARK  status: ('A' for Active; 'I' for Inactive)
REMARK    1  A    between atoms: C13_13  and  S1_14 
REMARK    2  A    between atoms: C22_26  and  C23_27 
REMARK    3  A    between atoms: C23_27  and  O4_28 
REMARK    4  A    between atoms: C29_34  and  O5_35 
REMARK    5  A    between atoms: C41_48  and  C42_49 
REMARK    6  A    between atoms: C41_48  and  N1_57 
REMARK    7  A    between atoms: C42_49  and  C43_50 
REMARK    8  A    between atoms: C43_50  and  C44_51 
REMARK    9  A    between atoms: C44_51  and  O7_52 
REMARK       I    between atoms: C49_59  and  N2_60 
REMARK       I    between atoms: C49_59  and  N3_61 
ROOT
HETATM    1  C1  UNL     1     -13.397  -8.554  33.628  1.00  0.00     0.010 C 
HETATM    2  C2  UNL     1     -14.050  -7.357  32.942  1.00  0.00    -0.010 C 
HETATM    3  C3  UNL     1     -15.409  -7.084  33.651  1.00  0.00     0.009 C 
HETATM    4  C4  UNL     1     -16.536  -6.599  32.736  1.00  0.00     0.039 C 
HETATM    5  C5  UNL     1     -16.008  -5.696  31.659  1.00  0.00    -0.049 C 
HETATM    6  C6  UNL     1     -16.747  -4.596  31.221  1.00  0.00     0.044 C 
HETATM    7  C7  UNL     1     -16.272  -3.843  30.154  1.00  0.00     0.072 C 
HETATM    8  C8  UNL     1     -14.969  -4.018  29.700  1.00  0.00     0.037 C 
HETATM    9  C9  UNL     1     -14.240  -5.137  30.117  1.00  0.00     0.011 C 
HETATM   10  C10 UNL     1     -14.797  -6.049  31.020  1.00  0.00    -0.047 C 
HETATM   11  C11 UNL     1     -14.220  -7.433  31.387  1.00  0.00     0.024 C 
HETATM   12  C12 UNL     1     -12.976  -7.905  30.588  1.00  0.00     0.033 C 
HETATM   13  C13 UNL     1     -13.099  -9.150  29.640  1.00  0.00     0.139 C 
HETATM   14  C14 UNL     1     -13.845  -8.945  28.270  1.00  0.00     0.038 C 
HETATM   15  C15 UNL     1     -13.277  -9.874  27.198  1.00  0.00    -0.014 C 
HETATM   16  C16 UNL     1     -13.973 -10.937  26.744  1.00  0.00    -0.050 C 
HETATM   17  C17 UNL     1     -15.306 -11.242  27.364  1.00  0.00     0.042 C 
HETATM   18  C18 UNL     1     -16.082  -9.951  27.193  1.00  0.00     0.001 C 
HETATM   19  C19 UNL     1     -16.133  -9.507  25.678  1.00  0.00     0.037 C 
HETATM   20  C20 UNL     1     -15.841 -10.607  24.616  1.00  0.00     0.123 C 
HETATM   21  C21 UNL     1     -16.387 -10.242  23.209  1.00  0.00     0.039 C 
HETATM   22  C22 UNL     1     -15.575  -9.339  22.235  1.00  0.00     0.023 C 
HETATM   23  C24 UNL     1     -14.624 -10.108  21.273  1.00  0.00     0.101 C 
HETATM   24  C25 UNL     1     -13.463 -10.723  21.927  1.00  0.00    -0.101 C 
HETATM   25  C26 UNL     1     -12.621 -11.193  22.644  1.00  0.00    -0.066 C 
HETATM   26  C27 UNL     1     -11.790 -11.684  23.706  1.00  0.00     0.029 A 
HETATM   27  C28 UNL     1     -10.451 -11.970  23.410  1.00  0.00     0.057 A 
HETATM   28  C29 UNL     1      -9.604 -12.448  24.403  1.00  0.00     0.067 A 
HETATM   29  C30 UNL     1     -10.069 -12.659  25.693  1.00  0.00     0.037 A 
HETATM   30  C31 UNL     1     -11.404 -12.382  25.995  1.00  0.00     0.014 A 
HETATM   31  C32 UNL     1     -12.290 -11.868  25.020  1.00  0.00    -0.006 A 
HETATM   32  C33 UNL     1     -13.750 -11.630  25.430  1.00  0.00     0.185 C 
HETATM   33  O6  UNL     1     -14.445 -10.826  24.467  1.00  0.00    -0.371 OA
HETATM   34  C34 UNL     1     -15.444  -8.900  28.193  1.00  0.00     0.032 C 
HETATM   35  C35 UNL     1     -16.072  -7.525  27.931  1.00  0.00    -0.055 C 
HETATM   36  C36 UNL     1     -15.493  -6.570  27.086  1.00  0.00     0.001 C 
HETATM   37  C37 UNL     1     -16.018  -5.278  26.996  1.00  0.00     0.096 A 
HETATM   38  C38 UNL     1     -17.132  -4.899  27.765  1.00  0.00     0.086 A 
HETATM   39  C39 UNL     1     -17.825  -5.914  28.450  1.00  0.00     0.004 C 
HETATM   40  C40 UNL     1     -17.291  -7.205  28.543  1.00  0.00     0.005 C 
HETATM   41  C41 UNL     1     -17.407  -3.390  28.062  1.00  0.00     0.167 C 
HETATM   42  O8  UNL     1     -17.190  -3.061  29.497  1.00  0.00    -0.318 OA
HETATM   43 NA1  UNL     1     -15.776  -7.101  27.338  1.00  0.00    -0.348 Na
ATOM     44 1HA1 UNL     1     -15.238  -7.919  27.624  1.00  0.00     0.104 HD
ATOM     45 2HA1 UNL     1     -15.674  -8.080  27.070  1.00  0.00     0.104 HD
ENDROOT
BRANCH  41  46
HETATM   46  C42 UNL     1     -18.919  -3.075  27.832  1.00  0.00     0.067 C 
BRANCH  46  47
HETATM   47  C43 UNL     1     -19.343  -3.014  26.354  1.00  0.00     0.042 C 
BRANCH  47  48
HETATM   48  C44 UNL     1     -20.307  -4.134  25.949  1.00  0.00     0.058 C 
HETATM   49  C45 UNL     1     -19.607  -5.214  25.117  1.00  0.00     0.038 C 
HETATM   50  C46 UNL     1     -20.733  -5.936  24.383  1.00  0.00     0.003 C 
HETATM   51  C47 UNL     1     -21.907  -4.961  24.329  1.00  0.00     0.003 C 
HETATM   52  C48 UNL     1     -21.438  -3.682  25.025  1.00  0.00     0.038 C 
BRANCH  48  53
HETATM   53  O7  UNL     1     -20.852  -4.716  27.134  1.00  0.00    -0.390 OA
HETATM   54  H46 UNL     1     -21.391  -5.486  26.890  1.00  0.00     0.210 HD
ENDBRANCH  48  53
ENDBRANCH  47  48
ENDBRANCH  46  47
ENDBRANCH  41  46
BRANCH  41  55
HETATM   55  N1  UNL     1     -16.666  -2.524  27.109  1.00  0.00    -0.338 N 
HETATM   56  C49 UNL     1     -16.445  -1.297  27.371  1.00  0.00     0.124 C 
HETATM   57  N2  UNL     1     -15.774  -0.528  26.485  1.00  0.00    -0.279 NA
HETATM   58  N3  UNL     1     -16.791  -0.545  28.441  1.00  0.00    -0.279 NA
HETATM   59  H55 UNL     1     -16.204   0.380  26.371  1.00  0.00     0.126 HD
HETATM   60  H56 UNL     1     -15.689  -1.010  25.596  1.00  0.00     0.126 HD
HETATM   61  H57 UNL     1     -16.017   0.027  28.759  1.00  0.00     0.126 HD
HETATM   62  H58 UNL     1     -17.120  -1.125  29.214  1.00  0.00     0.126 HD
ATOM     63  H1  UNL     1     -16.330  -2.919  26.231  1.00  0.00     0.164 HD
ENDBRANCH  41  55
BRANCH  13  64
HETATM   64  S1  UNL     1     -13.419 -10.686  30.529  1.00  0.00     0.106 S 
HETATM   65  O1  UNL     1     -14.869 -10.679  30.716  1.00  0.00    -0.595 OA
HETATM   66  O2  UNL     1     -12.698 -10.562  31.794  1.00  0.00    -0.595 OA
HETATM   67  O3  UNL     1     -12.925 -11.735  29.642  1.00  0.00    -0.595 OA
ENDBRANCH  13  64
BRANCH  22  68
HETATM   68  C23 UNL     1     -14.899  -8.134  22.895  1.00  0.00     0.169 C 
BRANCH  68  69
HETATM   69  O4  UNL     1     -13.568  -8.477  23.287  1.00  0.00    -0.400 OA
HETATM   70  H29 UNL     1     -13.039  -8.522  22.474  1.00  0.00     0.209 HD
ENDBRANCH  68  69
ENDBRANCH  22  68
BRANCH  28  71
HETATM   71  O5  UNL     1      -8.306 -12.705  24.068  1.00  0.00    -0.361 OA
HETATM   72  H33 UNL     1      -7.853 -13.020  24.869  1.00  0.00     0.217 HD
ENDBRANCH  28  71
TORSDOF 9
ENDMDL
MODEL 3
REMARK minimizedAffinity -9.44943237
REMARK CNNscore 0.114881448
REMARK CNNaffinity 6.76871538
REMARK  9 active torsions:
REMARK  status: ('A' for Active; 'I' for Inactive)
REMARK    1  A    between atoms: C13_13  and  S1_14 
REMARK    2  A    between atoms: C22_26  and  C23_27 
REMARK    3  A    between atoms: C23_27  and  O4_28 
REMARK    4  A    between atoms: C29_34  and  O5_35 
REMARK    5  A    between atoms: C41_48  and  C42_49 
REMARK    6  A    between atoms: C41_48  and  N1_57 
REMARK    7  A    between atoms: C42_49  and  C43_50 
REMARK    8  A    between atoms: C43_50  and  C44_51 
REMARK    9  A    between atoms: C44_51  and  O7_52 
REMARK       I    between atoms: C49_59  and  N2_60 
REMARK       I    between atoms: C49_59  and  N3_61 
ROOT
HETATM    1  C1  UNL     1      -6.099  14.298  16.460  1.00  0.00     0.010 C 
HETATM    2  C2  UNL     1      -4.961  13.375  16.888  1.00  0.00    -0.010 C 
HETATM    3  C3  UNL     1      -4.784  13.520  18.429  1.00  0.00     0.009 C 
HETATM    4  C4  UNL     1      -3.342  13.427  18.932  1.00  0.00     0.039 C 
HETATM    5  C5  UNL     1      -2.556  12.427  18.134  1.00  0.00    -0.049 C 
HETATM    6  C6  UNL     1      -1.596  11.619  18.746  1.00  0.00     0.044 C 
HETATM    7  C7  UNL     1      -0.818  10.778  17.959  1.00  0.00     0.072 C 
HETATM    8  C8  UNL     1      -1.158  10.552  16.629  1.00  0.00     0.037 C 
HETATM    9  C9  UNL     1      -2.098  11.383  16.009  1.00  0.00     0.011 C 
HETATM   10  C10 UNL     1      -2.727  12.403  16.730  1.00  0.00    -0.047 C 
HETATM   11  C11 UNL     1      -3.595  13.533  16.138  1.00  0.00     0.024 C 
HETATM   12  C12 UNL     1      -3.674  13.615  14.591  1.00  0.00     0.033 C 
HETATM   13  C13 UNL     1      -3.058  14.857  13.855  1.00  0.00     0.139 C 
HETATM   14  C14 UNL     1      -1.490  14.921  13.733  1.00  0.00     0.038 C 
HETATM   15  C15 UNL     1      -1.074  15.652  12.457  1.00  0.00    -0.014 C 
HETATM   16  C16 UNL     1      -0.533  16.887  12.496  1.00  0.00    -0.050 C 
HETATM   17  C17 UNL     1      -0.405  17.576  13.824  1.00  0.00     0.042 C 
HETATM   18  C18 UNL     1       0.388  16.591  14.661  1.00  0.00     0.001 C 
HETATM   19  C19 UNL     1       1.755  16.216  13.966  1.00  0.00     0.037 C 
HETATM   20  C20 UNL     1       2.277  17.195  12.873  1.00  0.00     0.123 C 
HETATM   21  C21 UNL     1       3.800  17.045  12.612  1.00  0.00     0.039 C 
HETATM   22  C22 UNL     1       4.353  15.957  11.645  1.00  0.00     0.023 C 
HETATM   23  C24 UNL     1       4.507  16.415  10.167  1.00  0.00     0.101 C 
HETATM   24  C25 UNL     1       3.238  16.628   9.460  1.00  0.00    -0.101 C 
HETATM   25  C26 UNL     1       2.112  16.800   9.075  1.00  0.00    -0.066 C 
HETATM   26  C27 UNL     1       0.702  16.988   8.888  1.00  0.00     0.029 A 
HETATM   27  C28 UNL     1       0.192  16.852   7.591  1.00  0.00     0.057 A 
HETATM   28  C29 UNL     1      -1.167  17.024   7.355  1.00  0.00     0.067 A 
HETATM   29  C30 UNL     1      -2.034  17.342   8.391  1.00  0.00     0.037 A 
HETATM   30  C31 UNL     1      -1.531  17.484   9.686  1.00  0.00     0.014 A 
HETATM   31  C32 UNL     1      -0.160  17.289   9.971  1.00  0.00    -0.006 A 
HETATM   32  C33 UNL     1       0.311  17.505  11.417  1.00  0.00     0.185 C 
HETATM   33  O6  UNL     1       1.627  16.975  11.628  1.00  0.00    -0.371 OA
HETATM   34  C34 UNL     1      -0.579  15.373  14.970  1.00  0.00     0.032 C 
HETATM   35  C35 UNL     1       0.228  14.265  15.659  1.00  0.00    -0.055 C 
HETATM   36  C36 UNL     1       0.806  13.196  14.963  1.00  0.00     0.001 C 
HETATM   37  C37 UNL     1       1.399  12.132  15.646  1.00  0.00     0.096 A 
HETATM   38  C38 UNL     1       1.418  12.098  17.051  1.00  0.00     0.086 A 
HETATM   39  C39 UNL     1       1.021  13.264  17.734  1.00  0.00     0.004 C 
HETATM   40  C40 UNL     1       0.420  14.324  17.046  1.00  0.00     0.005 C 
HETATM   41  C41 UNL     1       1.600  10.743  17.805  1.00  0.00     0.167 C 
HETATM   42  O8  UNL     1       0.357  10.332  18.513  1.00  0.00    -0.318 OA
HETATM   43 NA1  UNL     1       0.645  13.784  15.198  1.00  0.00    -0.348 Na
ATOM     44 1HA1 UNL     1      -0.029  14.389  14.729  1.00  0.00     0.104 HD
ATOM     45 2HA1 UNL     1       0.629  14.689  14.728  1.00  0.00     0.104 HD
ENDROOT
BRANCH  41  46
HETATM   46  C42 UNL     1       2.644  10.914  18.954  1.00  0.00     0.067 C 
BRANCH  46  47
HETATM   47  C43 UNL     1       2.037  10.976  20.367  1.00  0.00     0.042 C 
BRANCH  47  48
HETATM   48  C44 UNL     1       2.861  10.224  21.417  1.00  0.00     0.058 C 
HETATM   49  C45 UNL     1       2.159   8.943  21.881  1.00  0.00     0.038 C 
HETATM   50  C46 UNL     1       2.800   8.609  23.226  1.00  0.00     0.003 C 
HETATM   51  C47 UNL     1       3.379   9.916  23.764  1.00  0.00     0.003 C 
HETATM   52  C48 UNL     1       3.054  10.991  22.727  1.00  0.00     0.038 C 
BRANCH  48  53
HETATM   53  O7  UNL     1       4.132   9.901  20.853  1.00  0.00    -0.390 OA
HETATM   54  H46 UNL     1       4.624   9.344  21.479  1.00  0.00     0.210 HD
ENDBRANCH  48  53
ENDBRANCH  47  48
ENDBRANCH  46  47
ENDBRANCH  41  46
BRANCH  41  55
HETATM   55  N1  UNL     1       2.166   9.711  16.898  1.00  0.00    -0.338 N 
HETATM   56  C49 UNL     1       3.391   9.743  16.548  1.00  0.00     0.124 C 
HETATM   57  N2  UNL     1       3.881   8.796  15.718  1.00  0.00    -0.279 NA
HETATM   58  N3  UNL     1       4.375  10.619  16.855  1.00  0.00    -0.279 NA
HETATM   59  H55 UNL     1       4.473   9.193  15.001  1.00  0.00     0.126 HD
HETATM   60  H56 UNL     1       3.122   8.257  15.314  1.00  0.00     0.126 HD
HETATM   61  H57 UNL     1       5.237  10.141  17.094  1.00  0.00     0.126 HD
HETATM   62  H58 UNL     1       4.104  11.229  17.629  1.00  0.00     0.126 HD
ATOM     63  H1  UNL     1       1.564   8.965  16.551  1.00  0.00     0.164 HD
ENDBRANCH  41  55
BRANCH  13  64
HETATM   64  S1  UNL     1      -3.918  16.397  14.228  1.00  0.00     0.106 S 
HETATM   65  O1  UNL     1      -3.274  16.862  15.455  1.00  0.00    -0.595 OA
HETATM   66  O2  UNL     1      -5.313  16.023  14.443  1.00  0.00    -0.595 OA
HETATM   67  O3  UNL     1      -3.682  17.243  13.061  1.00  0.00    -0.595 OA
ENDBRANCH  13  64
BRANCH  22  68
HETATM   68  C23 UNL     1       3.677  14.588  11.773  1.00  0.00     0.169 C 
BRANCH  68  69
HETATM   69  O4  UNL     1       4.666  13.556  11.776  1.00  0.00    -0.400 OA
HETATM   70  H29 UNL     1       5.105  13.591  12.641  1.00  0.00     0.209 HD
ENDBRANCH  68  69
ENDBRANCH  22  68
BRANCH  28  71
HETATM   71  O5  UNL     1      -1.619  16.876   6.075  1.00  0.00    -0.361 OA
HETATM   72  H33 UNL     1      -2.581  17.018   6.085  1.00  0.00     0.217 HD
ENDBRANCH  28  71
TORSDOF 9
ENDMDL
MODEL 4
REMARK minimizedAffinity -7.20575953
REMARK CNNscore 0.114744008
REMARK CNNaffinity 6.7182312
REMARK  9 active torsions:
REMARK  status: ('A' for Active; 'I' for Inactive)
REMARK    1  A    between atoms: C13_13  and  S1_14 
REMARK    2  A    between atoms: C22_26  and  C23_27 
REMARK    3  A    between atoms: C23_27  and  O4_28 
REMARK    4  A    between atoms: C29_34  and  O5_35 
REMARK    5  A    between atoms: C41_48  and  C42_49 
REMARK    6  A    between atoms: C41_48  and  N1_57 
REMARK    7  A    between atoms: C42_49  and  C43_50 
REMARK    8  A    between atoms: C43_50  and  C44_51 
REMARK    9  A    between atoms: C44_51  and  O7_52 
REMARK       I    between atoms: C49_59  and  N2_60 
REMARK       I    between atoms: C49_59  and  N3_61 
ROOT
HETATM    1  C1  UNL     1       2.808  18.622  14.829  1.00  0.00     0.010 C 
HETATM    2  C2  UNL     1       1.832  17.454  14.712  1.00  0.00    -0.010 C 
HETATM    3  C3  UNL     1       0.389  18.038  14.702  1.00  0.00     0.009 C 
HETATM    4  C4  UNL     1      -0.665  17.184  15.410  1.00  0.00     0.039 C 
HETATM    5  C5  UNL     1      -0.401  15.720  15.206  1.00  0.00    -0.049 C 
HETATM    6  C6  UNL     1      -1.454  14.818  15.046  1.00  0.00     0.044 C 
HETATM    7  C7  UNL     1      -1.174  13.459  14.960  1.00  0.00     0.072 C 
HETATM    8  C8  UNL     1       0.134  13.024  14.777  1.00  0.00     0.037 C 
HETATM    9  C9  UNL     1       1.190  13.923  14.967  1.00  0.00     0.011 C 
HETATM   10  C10 UNL     1       0.933  15.259  15.293  1.00  0.00    -0.047 C 
HETATM   11  C11 UNL     1       1.975  16.298  15.759  1.00  0.00     0.024 C 
HETATM   12  C12 UNL     1       3.416  15.778  16.007  1.00  0.00     0.033 C 
HETATM   13  C13 UNL     1       3.999  15.796  17.464  1.00  0.00     0.139 C 
HETATM   14  C14 UNL     1       3.480  14.697  18.464  1.00  0.00     0.038 C 
HETATM   15  C15 UNL     1       4.563  14.331  19.478  1.00  0.00    -0.014 C 
HETATM   16  C16 UNL     1       4.475  14.708  20.771  1.00  0.00    -0.050 C 
HETATM   17  C17 UNL     1       3.318  15.566  21.194  1.00  0.00     0.042 C 
HETATM   18  C18 UNL     1       2.105  14.765  20.761  1.00  0.00     0.001 C 
HETATM   19  C19 UNL     1       2.126  13.312  21.381  1.00  0.00     0.037 C 
HETATM   20  C20 UNL     1       3.034  13.094  22.626  1.00  0.00     0.123 C 
HETATM   21  C21 UNL     1       2.630  11.843  23.452  1.00  0.00     0.039 C 
HETATM   22  C22 UNL     1       3.129  10.420  23.063  1.00  0.00     0.023 C 
HETATM   23  C24 UNL     1       4.464   9.991  23.737  1.00  0.00     0.101 C 
HETATM   24  C25 UNL     1       5.648  10.714  23.256  1.00  0.00    -0.101 C 
HETATM   25  C26 UNL     1       6.477  11.444  22.781  1.00  0.00    -0.066 C 
HETATM   26  C27 UNL     1       7.245  12.459  22.120  1.00  0.00     0.029 A 
HETATM   27  C28 UNL     1       8.606  12.210  21.902  1.00  0.00     0.057 A 
HETATM   28  C29 UNL     1       9.396  13.161  21.266  1.00  0.00     0.067 A 
HETATM   29  C30 UNL     1       8.856  14.369  20.848  1.00  0.00     0.037 A 
HETATM   30  C31 UNL     1       7.501  14.627  21.067  1.00  0.00     0.014 A 
HETATM   31  C32 UNL     1       6.659  13.674  21.684  1.00  0.00    -0.006 A 
HETATM   32  C33 UNL     1       5.191  14.057  21.921  1.00  0.00     0.185 C 
HETATM   33  O6  UNL     1       4.392  12.913  22.251  1.00  0.00    -0.371 OA
HETATM   34  C34 UNL     1       2.054  14.833  19.179  1.00  0.00     0.032 C 
HETATM   35  C35 UNL     1       0.952  13.889  18.680  1.00  0.00    -0.055 C 
HETATM   36  C36 UNL     1       1.200  12.570  18.281  1.00  0.00     0.001 C 
HETATM   37  C37 UNL     1       0.197  11.797  17.690  1.00  0.00     0.096 A 
HETATM   38  C38 UNL     1      -1.085  12.330  17.467  1.00  0.00     0.086 A 
HETATM   39  C39 UNL     1      -1.381  13.576  18.051  1.00  0.00     0.004 C 
HETATM   40  C40 UNL     1      -0.370  14.349  18.634  1.00  0.00     0.005 C 
HETATM   41  C41 UNL     1      -2.024  11.698  16.391  1.00  0.00     0.167 C 
HETATM   42  O8  UNL     1      -2.214  12.600  15.223  1.00  0.00    -0.318 OA
HETATM   43 NA1  UNL     1       1.134  13.126  18.615  1.00  0.00    -0.348 Na
ATOM     44 1HA1 UNL     1       1.913  13.767  18.763  1.00  0.00     0.104 HD
ATOM     45 2HA1 UNL     1       1.688  13.489  19.391  1.00  0.00     0.104 HD
ENDROOT
BRANCH  41  46
HETATM   46  C42 UNL     1      -3.463  11.538  16.976  1.00  0.00     0.067 C 
BRANCH  46  47
HETATM   47  C43 UNL     1      -4.556  12.302  16.207  1.00  0.00     0.042 C 
BRANCH  47  48
HETATM   48  C44 UNL     1      -5.143  13.480  16.992  1.00  0.00     0.058 C 
HETATM   49  C45 UNL     1      -5.050  13.257  18.505  1.00  0.00     0.038 C 
HETATM   50  C46 UNL     1      -6.090  14.200  19.106  1.00  0.00     0.003 C 
HETATM   51  C47 UNL     1      -7.104  14.483  17.999  1.00  0.00     0.003 C 
HETATM   52  C48 UNL     1      -6.643  13.689  16.777  1.00  0.00     0.038 C 
BRANCH  48  53
HETATM   53  O7  UNL     1      -4.432  14.666  16.634  1.00  0.00    -0.390 OA
HETATM   54  H46 UNL     1      -4.735  15.398  17.195  1.00  0.00     0.210 HD
ENDBRANCH  48  53
ENDBRANCH  47  48
ENDBRANCH  46  47
ENDBRANCH  41  46
BRANCH  41  55
HETATM   55  N1  UNL     1      -1.576  10.324  16.046  1.00  0.00    -0.338 N 
HETATM   56  C49 UNL     1      -1.967   9.316  16.719  1.00  0.00     0.124 C 
HETATM   57  N2  UNL     1      -1.541   8.076  16.389  1.00  0.00    -0.279 NA
HETATM   58  N3  UNL     1      -2.779   9.235  17.798  1.00  0.00    -0.279 NA
HETATM   59  H55 UNL     1      -1.280   7.538  17.204  1.00  0.00     0.126 HD
HETATM   60  H56 UNL     1      -0.777   8.134  15.724  1.00  0.00     0.126 HD
HETATM   61  H57 UNL     1      -3.453   8.483  17.701  1.00  0.00     0.126 HD
HETATM   62  H58 UNL     1      -3.277  10.112  17.958  1.00  0.00     0.126 HD
ATOM     63  H1  UNL     1      -0.944  10.186  15.257  1.00  0.00     0.164 HD
ENDBRANCH  41  55
BRANCH  13  64
HETATM   64  S1  UNL     1       4.222  17.462  18.116  1.00  0.00     0.106 S 
HETATM   65  O1  UNL     1       5.214  17.287  19.174  1.00  0.00    -0.595 OA
HETATM   66  O2  UNL     1       2.916  17.854  18.641  1.00  0.00    -0.595 OA
HETATM   67  O3  UNL     1       4.684  18.246  16.973  1.00  0.00    -0.595 OA
ENDBRANCH  13  64
BRANCH  22  68
HETATM   68  C23 UNL     1       3.103  10.123  21.561  1.00  0.00     0.169 C 
BRANCH  68  69
HETATM   69  O4  UNL     1       4.428  10.186  21.029  1.00  0.00    -0.400 OA
HETATM   70  H29 UNL     1       4.891   9.390  21.335  1.00  0.00     0.209 HD
ENDBRANCH  68  69
ENDBRANCH  22  68
BRANCH  28  71
HETATM   71  O5  UNL     1      10.715  12.871  21.070  1.00  0.00    -0.361 OA
HETATM   72  H33 UNL     1      11.117  13.627  20.609  1.00  0.00     0.217 HD
ENDBRANCH  28  71
TORSDOF 9
ENDMDL
MODEL 5
REMARK minimizedAffinity -7.15601015
REMARK CNNscore 0.110527307
REMARK CNNaffinity 6.79381943
REMARK  9 active torsions:
REMARK  status: ('A' for Active; 'I' for Inactive)
REMARK    1  A    between atoms: C13_13  and  S1_14 
REMARK    2  A    between atoms: C22_26  and  C23_27 
REMARK    3  A    between atoms: C23_27  and  O4_28 
REMARK    4  A    between atoms: C29_34  and  O5_35 
REMARK    5  A    between atoms: C41_48  and  C42_49 
REMARK    6  A    between atoms: C41_48  and  N1_57 
REMARK    7  A    between atoms: C42_49  and  C43_50 
REMARK    8  A    between atoms: C43_50  and  C44_51 
REMARK    9  A    between atoms: C44_51  and  O7_52 
REMARK       I    between atoms: C49_59  and  N2_60 
REMARK       I    between atoms: C49_59  and  N3_61 
ROOT
HETATM    1  C1  UNL     1       1.157  14.152  -2.431  1.00  0.00     0.010 C 
HETATM    2  C2  UNL     1       2.389  14.885  -1.907  1.00  0.00    -0.010 C 
HETATM    3  C3  UNL     1       3.602  13.914  -2.011  1.00  0.00     0.009 C 
HETATM    4  C4  UNL     1       4.630  14.031  -0.883  1.00  0.00     0.039 C 
HETATM    5  C5  UNL     1       4.793  15.458  -0.447  1.00  0.00    -0.049 C 
HETATM    6  C6  UNL     1       6.042  15.953  -0.069  1.00  0.00     0.044 C 
HETATM    7  C7  UNL     1       6.135  17.249   0.425  1.00  0.00     0.072 C 
HETATM    8  C8  UNL     1       5.059  18.122   0.306  1.00  0.00     0.037 C 
HETATM    9  C9  UNL     1       3.801  17.619  -0.043  1.00  0.00     0.011 C 
HETATM   10  C10 UNL     1       3.633  16.258  -0.316  1.00  0.00    -0.047 C 
HETATM   11  C11 UNL     1       2.286  15.522  -0.480  1.00  0.00     0.024 C 
HETATM   12  C12 UNL     1       1.002  16.345  -0.192  1.00  0.00     0.033 C 
HETATM   13  C13 UNL     1       0.098  15.955   1.029  1.00  0.00     0.139 C 
HETATM   14  C14 UNL     1       0.613  16.344   2.464  1.00  0.00     0.038 C 
HETATM   15  C15 UNL     1      -0.558  16.620   3.406  1.00  0.00    -0.014 C 
HETATM   16  C16 UNL     1      -0.882  15.765   4.398  1.00  0.00    -0.050 C 
HETATM   17  C17 UNL     1      -0.111  14.484   4.526  1.00  0.00     0.042 C 
HETATM   18  C18 UNL     1       1.330  14.946   4.633  1.00  0.00     0.001 C 
HETATM   19  C19 UNL     1       1.519  15.964   5.826  1.00  0.00     0.037 C 
HETATM   20  C20 UNL     1       0.418  15.965   6.927  1.00  0.00     0.123 C 
HETATM   21  C21 UNL     1       0.906  16.592   8.261  1.00  0.00     0.039 C 
HETATM   22  C22 UNL     1       0.883  18.132   8.489  1.00  0.00     0.023 C 
HETATM   23  C24 UNL     1      -0.428  18.676   9.127  1.00  0.00     0.101 C 
HETATM   24  C25 UNL     1      -1.600  18.627   8.246  1.00  0.00    -0.101 C 
HETATM   25  C26 UNL     1      -2.442  18.453   7.405  1.00  0.00    -0.066 C 
HETATM   26  C27 UNL     1      -3.254  18.086   6.281  1.00  0.00     0.029 A 
HETATM   27  C28 UNL     1      -4.417  18.830   6.043  1.00  0.00     0.057 A 
HETATM   28  C29 UNL     1      -5.238  18.515   4.967  1.00  0.00     0.067 A 
HETATM   29  C30 UNL     1      -4.927  17.459   4.121  1.00  0.00     0.037 A 
HETATM   30  C31 UNL     1      -3.773  16.709   4.355  1.00  0.00     0.014 A 
HETATM   31  C32 UNL     1      -2.898  17.016   5.422  1.00  0.00    -0.006 A 
HETATM   32  C33 UNL     1      -1.672  16.114   5.628  1.00  0.00     0.185 C 
HETATM   33  O6  UNL     1      -0.721  16.711   6.520  1.00  0.00    -0.371 OA
HETATM   34  C34 UNL     1       1.745  15.484   3.202  1.00  0.00     0.032 C 
HETATM   35  C35 UNL     1       3.132  16.131   3.301  1.00  0.00    -0.055 C 
HETATM   36  C36 UNL     1       3.321  17.504   3.503  1.00  0.00     0.001 C 
HETATM   37  C37 UNL     1       4.597  18.071   3.433  1.00  0.00     0.096 A 
HETATM   38  C38 UNL     1       5.722  17.279   3.143  1.00  0.00     0.086 A 
HETATM   39  C39 UNL     1       5.551  15.882   3.144  1.00  0.00     0.004 C 
HETATM   40  C40 UNL     1       4.271  15.320   3.206  1.00  0.00     0.005 C 
HETATM   41  C41 UNL     1       7.020  17.934   2.573  1.00  0.00     0.167 C 
HETATM   42  O8  UNL     1       7.259  17.548   1.157  1.00  0.00    -0.318 OA
HETATM   43 NA1  UNL     1       3.166  16.873   3.561  1.00  0.00    -0.348 Na
ATOM     44 1HA1 UNL     1       2.240  16.518   3.320  1.00  0.00     0.104 HD
ATOM     45 2HA1 UNL     1       2.368  16.441   4.027  1.00  0.00     0.104 HD
ENDROOT
BRANCH  41  46
HETATM   46  C42 UNL     1       8.268  17.375   3.328  1.00  0.00     0.067 C 
BRANCH  46  47
HETATM   47  C43 UNL     1       7.944  16.345   4.425  1.00  0.00     0.042 C 
BRANCH  47  48
HETATM   48  C44 UNL     1       9.154  15.973   5.288  1.00  0.00     0.058 C 
HETATM   49  C45 UNL     1       9.247  14.460   5.515  1.00  0.00     0.038 C 
HETATM   50  C46 UNL     1      10.128  14.302   6.752  1.00  0.00     0.003 C 
HETATM   51  C47 UNL     1      10.037  15.621   7.516  1.00  0.00     0.003 C 
HETATM   52  C48 UNL     1       9.096  16.521   6.715  1.00  0.00     0.038 C 
BRANCH  48  53
HETATM   53  O7  UNL     1      10.337  16.437   4.638  1.00  0.00    -0.390 OA
HETATM   54  H46 UNL     1      11.113  16.124   5.131  1.00  0.00     0.210 HD
ENDBRANCH  48  53
ENDBRANCH  47  48
ENDBRANCH  46  47
ENDBRANCH  41  46
BRANCH  41  55
HETATM   55  N1  UNL     1       7.022  19.399   2.824  1.00  0.00    -0.338 N 
HETATM   56  C49 UNL     1       8.059  19.988   3.273  1.00  0.00     0.124 C 
HETATM   57  N2  UNL     1       8.035  21.320   3.499  1.00  0.00    -0.279 NA
HETATM   58  N3  UNL     1       9.275  19.501   3.612  1.00  0.00    -0.279 NA
HETATM   59  H55 UNL     1       8.470  21.562   4.379  1.00  0.00     0.126 HD
HETATM   60  H56 UNL     1       7.082  21.666   3.452  1.00  0.00     0.126 HD
HETATM   61  H57 UNL     1      10.022  20.084   3.252  1.00  0.00     0.126 HD
HETATM   62  H58 UNL     1       9.402  18.546   3.274  1.00  0.00     0.126 HD
ATOM     63  H1  UNL     1       6.180  19.941   2.634  1.00  0.00     0.164 HD
ENDBRANCH  41  55
BRANCH  13  64
HETATM   64  S1  UNL     1      -0.681  14.339   0.845  1.00  0.00     0.106 S 
HETATM   65  O1  UNL     1       0.219  13.440   1.565  1.00  0.00    -0.595 OA
HETATM   66  O2  UNL     1      -0.694  14.073  -0.591  1.00  0.00    -0.595 OA
HETATM   67  O3  UNL     1      -1.999  14.494   1.453  1.00  0.00    -0.595 OA
ENDBRANCH  13  64
BRANCH  22  68
HETATM   68  C23 UNL     1       1.345  18.962   7.288  1.00  0.00     0.169 C 
BRANCH  68  69
HETATM   69  O4  UNL     1       2.525  19.694   7.627  1.00  0.00    -0.400 OA
HETATM   70  H29 UNL     1       3.253  19.052   7.660  1.00  0.00     0.209 HD
ENDBRANCH  68  69
ENDBRANCH  22  68
BRANCH  28  71
HETATM   71  O5  UNL     1      -6.357  19.272   4.772  1.00  0.00    -0.361 OA
HETATM   72  H33 UNL     1      -6.809  18.930   3.981  1.00  0.00     0.217 HD
ENDBRANCH  28  71
TORSDOF 9
ENDMDL
MODEL 6
REMARK minimizedAffinity -8.39670944
REMARK CNNscore 0.101200685
REMARK CNNaffinity 6.41212606
REMARK  9 active torsions:
REMARK  status: ('A' for Active; 'I' for Inactive)
REMARK    1  A    between atoms: C13_13  and  S1_14 
REMARK    2  A    between atoms: C22_26  and  C23_27 
REMARK    3  A    between atoms: C23_27  and  O4_28 
REMARK    4  A    between atoms: C29_34  and  O5_35 
REMARK    5  A    between atoms: C41_48  and  C42_49 
REMARK    6  A    between atoms: C41_48  and  N1_57 
REMARK    7  A    between atoms: C42_49  and  C43_50 
REMARK    8  A    between atoms: C43_50  and  C44_51 
REMARK    9  A    between atoms: C44_51  and  O7_52 
REMARK       I    between atoms: C49_59  and  N2_60 
REMARK       I    between atoms: C49_59  and  N3_61 
ROOT
HETATM    1  C1  UNL     1     -16.809  15.861  18.799  1.00  0.00     0.010 C 
HETATM    2  C2  UNL     1     -15.881  15.301  19.874  1.00  0.00    -0.010 C 
HETATM    3  C3  UNL     1     -15.117  16.497  20.514  1.00  0.00     0.009 C 
HETATM    4  C4  UNL     1     -13.671  16.205  20.921  1.00  0.00     0.039 C 
HETATM    5  C5  UNL     1     -13.529  14.804  21.441  1.00  0.00    -0.049 C 
HETATM    6  C6  UNL     1     -12.662  14.517  22.497  1.00  0.00     0.044 C 
HETATM    7  C7  UNL     1     -12.481  13.194  22.883  1.00  0.00     0.072 C 
HETATM    8  C8  UNL     1     -13.334  12.204  22.408  1.00  0.00     0.037 C 
HETATM    9  C9  UNL     1     -14.181  12.485  21.330  1.00  0.00     0.011 C 
HETATM   10  C10 UNL     1     -14.205  13.764  20.763  1.00  0.00    -0.047 C 
HETATM   11  C11 UNL     1     -14.899  14.160  19.442  1.00  0.00     0.024 C 
HETATM   12  C12 UNL     1     -15.518  13.008  18.606  1.00  0.00     0.033 C 
HETATM   13  C13 UNL     1     -14.912  12.669  17.199  1.00  0.00     0.139 C 
HETATM   14  C14 UNL     1     -13.543  11.894  17.169  1.00  0.00     0.038 C 
HETATM   15  C15 UNL     1     -13.450  11.005  15.930  1.00  0.00    -0.014 C 
HETATM   16  C16 UNL     1     -12.626  11.307  14.905  1.00  0.00    -0.050 C 
HETATM   17  C17 UNL     1     -11.840  12.585  14.966  1.00  0.00     0.042 C 
HETATM   18  C18 UNL     1     -11.086  12.477  16.277  1.00  0.00     0.001 C 
HETATM   19  C19 UNL     1     -10.223  11.156  16.335  1.00  0.00     0.037 C 
HETATM   20  C20 UNL     1      -9.902  10.467  14.976  1.00  0.00     0.123 C 
HETATM   21  C21 UNL     1      -8.681   9.512  15.061  1.00  0.00     0.039 C 
HETATM   22  C22 UNL     1      -8.833   8.046  15.563  1.00  0.00     0.023 C 
HETATM   23  C24 UNL     1      -9.119   7.001  14.446  1.00  0.00     0.101 C 
HETATM   24  C25 UNL     1     -10.454   7.104  13.844  1.00  0.00    -0.101 C 
HETATM   25  C26 UNL     1     -11.554   7.380  13.444  1.00  0.00    -0.066 C 
HETATM   26  C27 UNL     1     -12.829   7.946  13.112  1.00  0.00     0.029 A 
HETATM   27  C28 UNL     1     -13.799   7.096  12.564  1.00  0.00     0.057 A 
HETATM   28  C29 UNL     1     -15.051   7.594  12.224  1.00  0.00     0.067 A 
HETATM   29  C30 UNL     1     -15.357   8.935  12.411  1.00  0.00     0.037 A 
HETATM   30  C31 UNL     1     -14.394   9.790  12.951  1.00  0.00     0.014 A 
HETATM   31  C32 UNL     1     -13.119   9.315  13.335  1.00  0.00    -0.006 A 
HETATM   32  C33 UNL     1     -12.109  10.334  13.883  1.00  0.00     0.185 C 
HETATM   33  O6  UNL     1     -10.999   9.686  14.520  1.00  0.00    -0.371 OA
HETATM   34  C34 UNL     1     -12.155  12.647  17.434  1.00  0.00     0.032 C 
HETATM   35  C35 UNL     1     -11.475  12.365  18.779  1.00  0.00    -0.055 C 
HETATM   36  C36 UNL     1     -11.500  11.109  19.398  1.00  0.00     0.001 C 
HETATM   37  C37 UNL     1     -11.001  10.936  20.692  1.00  0.00     0.096 A 
HETATM   38  C38 UNL     1     -10.475  12.022  21.412  1.00  0.00     0.086 A 
HETATM   39  C39 UNL     1     -10.269  13.226  20.713  1.00  0.00     0.004 C 
HETATM   40  C40 UNL     1     -10.777  13.397  19.420  1.00  0.00     0.005 C 
HETATM   41  C41 UNL     1     -10.393  11.968  22.971  1.00  0.00     0.167 C 
HETATM   42  O8  UNL     1     -11.348  12.915  23.608  1.00  0.00    -0.318 OA
HETATM   43 NA1  UNL     1     -11.401  11.612  18.994  1.00  0.00    -0.348 Na
ATOM     44 1HA1 UNL     1     -12.015  11.799  18.201  1.00  0.00     0.104 HD
ATOM     45 2HA1 UNL     1     -11.349  11.626  17.976  1.00  0.00     0.104 HD
ENDROOT
BRANCH  41  46
HETATM   46  C42 UNL     1      -8.994  12.476  23.443  1.00  0.00     0.067 C 
BRANCH  46  47
HETATM   47  C43 UNL     1      -8.963  13.951  23.884  1.00  0.00     0.042 C 
BRANCH  47  48
HETATM   48  C44 UNL     1      -7.778  14.734  23.308  1.00  0.00     0.058 C 
HETATM   49  C45 UNL     1      -6.756  13.808  22.639  1.00  0.00     0.038 C 
HETATM   50  C46 UNL     1      -5.463  14.618  22.594  1.00  0.00     0.003 C 
HETATM   51  C47 UNL     1      -5.580  15.677  23.689  1.00  0.00     0.003 C 
HETATM   52  C48 UNL     1      -6.935  15.456  24.361  1.00  0.00     0.038 C 
BRANCH  48  53
HETATM   53  O7  UNL     1      -8.274  15.674  22.355  1.00  0.00    -0.390 OA
HETATM   54  H46 UNL     1      -7.523  16.108  21.919  1.00  0.00     0.210 HD
ENDBRANCH  48  53
ENDBRANCH  47  48
ENDBRANCH  46  47
ENDBRANCH  41  46
BRANCH  41  55
HETATM   55  N1  UNL     1     -10.496  10.567  23.453  1.00  0.00    -0.338 N 
HETATM   56  C49 UNL     1     -11.221  10.269  24.458  1.00  0.00     0.124 C 
HETATM   57  N2  UNL     1     -11.294   8.987  24.882  1.00  0.00    -0.279 NA
HETATM   58  N3  UNL     1     -11.982  11.047  25.261  1.00  0.00    -0.279 NA
HETATM   59  H55 UNL     1     -11.235   8.918  25.888  1.00  0.00     0.126 HD
HETATM   60  H56 UNL     1     -10.578   8.428  24.430  1.00  0.00     0.126 HD
HETATM   61  H57 UNL     1     -12.889  10.628  25.435  1.00  0.00     0.126 HD
HETATM   62  H58 UNL     1     -12.114  11.978  24.863  1.00  0.00     0.126 HD
ATOM     63  H1  UNL     1      -9.978   9.832  22.972  1.00  0.00     0.164 HD
ENDBRANCH  41  55
BRANCH  13  64
HETATM   64  S1  UNL     1     -15.133  13.994  15.996  1.00  0.00     0.106 S 
HETATM   65  O1  UNL     1     -15.012  13.313  14.709  1.00  0.00    -0.595 OA
HETATM   66  O2  UNL     1     -14.033  14.925  16.235  1.00  0.00    -0.595 OA
HETATM   67  O3  UNL     1     -16.462  14.530  16.279  1.00  0.00    -0.595 OA
ENDBRANCH  13  64
BRANCH  22  68
HETATM   68  C23 UNL     1      -9.750   7.879  16.778  1.00  0.00     0.169 C 
BRANCH  68  69
HETATM   69  O4  UNL     1     -11.078   8.290  16.445  1.00  0.00    -0.400 OA
HETATM   70  H29 UNL     1     -11.451   7.598  15.876  1.00  0.00     0.209 HD
ENDBRANCH  68  69
ENDBRANCH  22  68
BRANCH  28  71
HETATM   71  O5  UNL     1     -15.965   6.726  11.700  1.00  0.00    -0.361 OA
HETATM   72  H33 UNL     1     -16.781   7.227  11.529  1.00  0.00     0.217 HD
ENDBRANCH  28  71
TORSDOF 9
ENDMDL
MODEL 7
REMARK minimizedAffinity -8.32300949
REMARK CNNscore 0.0866063386
REMARK CNNaffinity 6.49596548
REMARK  9 active torsions:
REMARK  status: ('A' for Active; 'I' for Inactive)
REMARK    1  A    between atoms: C13_13  and  S1_14 
REMARK    2  A    between atoms: C22_26  and  C23_27 
REMARK    3  A    between atoms: C23_27  and  O4_28 
REMARK    4  A    between atoms: C29_34  and  O5_35 
REMARK    5  A    between atoms: C41_48  and  C42_49 
REMARK    6  A    between atoms: C41_48  and  N1_57 
REMARK    7  A    between atoms: C42_49  and  C43_50 
REMARK    8  A    between atoms: C43_50  and  C44_51 
REMARK    9  A    between atoms: C44_51  and  O7_52 
REMARK       I    between atoms: C49_59  and  N2_60 
REMARK       I    between atoms: C49_59  and  N3_61 
ROOT
HETATM    1  C1  UNL     1      -7.966  14.691  18.308  1.00  0.00     0.010 C 
HETATM    2  C2  UNL     1      -6.769  13.750  18.415  1.00  0.00    -0.010 C 
HETATM    3  C3  UNL     1      -6.298  13.744  19.899  1.00  0.00     0.009 C 
HETATM    4  C4  UNL     1      -4.786  13.626  20.104  1.00  0.00     0.039 C 
HETATM    5  C5  UNL     1      -4.170  12.724  19.074  1.00  0.00    -0.049 C 
HETATM    6  C6  UNL     1      -3.113  11.876  19.406  1.00  0.00     0.044 C 
HETATM    7  C7  UNL     1      -2.503  11.130  18.404  1.00  0.00     0.072 C 
HETATM    8  C8  UNL     1      -3.093  11.032  17.148  1.00  0.00     0.037 C 
HETATM    9  C9  UNL     1      -4.133  11.903  16.807  1.00  0.00     0.011 C 
HETATM   10  C10 UNL     1      -4.609  12.836  17.734  1.00  0.00    -0.047 C 
HETATM   11  C11 UNL     1      -5.573  14.005  17.436  1.00  0.00     0.024 C 
HETATM   12  C12 UNL     1      -5.947  14.238  15.949  1.00  0.00     0.033 C 
HETATM   13  C13 UNL     1      -5.482  15.557  15.237  1.00  0.00     0.139 C 
HETATM   14  C14 UNL     1      -3.967  15.660  14.824  1.00  0.00     0.038 C 
HETATM   15  C15 UNL     1      -3.803  16.520  13.572  1.00  0.00    -0.014 C 
HETATM   16  C16 UNL     1      -3.261  17.755  13.631  1.00  0.00    -0.050 C 
HETATM   17  C17 UNL     1      -2.879  18.311  14.971  1.00  0.00     0.042 C 
HETATM   18  C18 UNL     1      -1.942  17.261  15.538  1.00  0.00     0.001 C 
HETATM   19  C19 UNL     1      -0.734  16.981  14.558  1.00  0.00     0.037 C 
HETATM   20  C20 UNL     1      -0.431  18.071  13.490  1.00  0.00     0.123 C 
HETATM   21  C21 UNL     1       1.012  17.975  12.928  1.00  0.00     0.039 C 
HETATM   22  C22 UNL     1       1.366  16.997  11.768  1.00  0.00     0.023 C 
HETATM   23  C24 UNL     1       1.234  17.602  10.341  1.00  0.00     0.101 C 
HETATM   24  C25 UNL     1      -0.146  17.862   9.916  1.00  0.00    -0.101 C 
HETATM   25  C26 UNL     1      -1.325  18.052   9.775  1.00  0.00    -0.066 C 
HETATM   26  C27 UNL     1      -2.744  18.234   9.881  1.00  0.00     0.029 A 
HETATM   27  C28 UNL     1      -3.496  18.219   8.699  1.00  0.00     0.057 A 
HETATM   28  C29 UNL     1      -4.874  18.390   8.747  1.00  0.00     0.067 A 
HETATM   29  C30 UNL     1      -5.524  18.588   9.957  1.00  0.00     0.037 A 
HETATM   30  C31 UNL     1      -4.781  18.610  11.139  1.00  0.00     0.014 A 
HETATM   31  C32 UNL     1      -3.381  18.411  11.135  1.00  0.00    -0.006 A 
HETATM   32  C33 UNL     1      -2.640  18.491  12.477  1.00  0.00     0.185 C 
HETATM   33  O6  UNL     1      -1.309  17.965  12.377  1.00  0.00    -0.371 OA
HETATM   34  C34 UNL     1      -2.834  16.003  15.902  1.00  0.00     0.032 C 
HETATM   35  C35 UNL     1      -1.912  14.846  16.308  1.00  0.00    -0.055 C 
HETATM   36  C36 UNL     1      -1.482  13.861  15.410  1.00  0.00     0.001 C 
HETATM   37  C37 UNL     1      -0.770  12.744  15.856  1.00  0.00     0.096 A 
HETATM   38  C38 UNL     1      -0.481  12.572  17.221  1.00  0.00     0.086 A 
HETATM   39  C39 UNL     1      -0.737  13.657  18.081  1.00  0.00     0.004 C 
HETATM   40  C40 UNL     1      -1.456  14.770  17.631  1.00  0.00     0.005 C 
HETATM   41  C41 UNL     1      -0.161  11.151  17.786  1.00  0.00     0.167 C 
HETATM   42  O8  UNL     1      -1.244  10.651  18.674  1.00  0.00    -0.318 OA
HETATM   43 NA1  UNL     1      -1.592  14.419  15.729  1.00  0.00    -0.348 Na
ATOM     44 1HA1 UNL     1      -2.343  15.056  15.462  1.00  0.00     0.104 HD
ATOM     45 2HA1 UNL     1      -1.697  15.366  15.365  1.00  0.00     0.104 HD
ENDROOT
BRANCH  41  46
HETATM   46  C42 UNL     1       1.086  11.226  18.724  1.00  0.00     0.067 C 
BRANCH  46  47
HETATM   47  C43 UNL     1       0.841  10.716  20.156  1.00  0.00     0.042 C 
BRANCH  47  48
HETATM   48  C44 UNL     1       2.128  10.344  20.898  1.00  0.00     0.058 C 
HETATM   49  C45 UNL     1       1.901   9.197  21.889  1.00  0.00     0.038 C 
HETATM   50  C46 UNL     1       3.063   9.293  22.874  1.00  0.00     0.003 C 
HETATM   51  C47 UNL     1       3.565  10.734  22.809  1.00  0.00     0.003 C 
HETATM   52  C48 UNL     1       2.677  11.455  21.795  1.00  0.00     0.038 C 
BRANCH  48  53
HETATM   53  O7  UNL     1       3.114   9.963  19.938  1.00  0.00    -0.390 OA
HETATM   54  H46 UNL     1       3.901   9.637  20.405  1.00  0.00     0.210 HD
ENDBRANCH  48  53
ENDBRANCH  47  48
ENDBRANCH  46  47
ENDBRANCH  41  46
BRANCH  41  55
HETATM   55  N1  UNL     1       0.218  10.224  16.688  1.00  0.00    -0.338 N 
HETATM   56  C49 UNL     1       1.402  10.210  16.218  1.00  0.00     0.124 C 
HETATM   57  N2  UNL     1       1.720   9.362  15.215  1.00  0.00    -0.279 NA
HETATM   58  N3  UNL     1       2.489  10.949  16.538  1.00  0.00    -0.279 NA
HETATM   59  H55 UNL     1       2.278   9.812  14.502  1.00  0.00     0.126 HD
HETATM   60  H56 UNL     1       0.879   8.952  14.822  1.00  0.00     0.126 HD
HETATM   61  H57 UNL     1       3.320  10.374  16.614  1.00  0.00     0.126 HD
HETATM   62  H58 UNL     1       2.351  11.456  17.413  1.00  0.00     0.126 HD
ATOM     63  H1  UNL     1      -0.482   9.589  16.305  1.00  0.00     0.164 HD
ENDBRANCH  41  55
BRANCH  13  64
HETATM   64  S1  UNL     1      -6.250  17.038  15.921  1.00  0.00     0.106 S 
HETATM   65  O1  UNL     1      -7.624  16.620  16.190  1.00  0.00    -0.595 OA
HETATM   66  O2  UNL     1      -6.175  18.041  14.862  1.00  0.00    -0.595 OA
HETATM   67  O3  UNL     1      -5.464  17.344  17.113  1.00  0.00    -0.595 OA
ENDBRANCH  13  64
BRANCH  22  68
HETATM   68  C23 UNL     1       0.725  15.611  11.885  1.00  0.00     0.169 C 
BRANCH  68  69
HETATM   69  O4  UNL     1       1.443  14.821  12.835  1.00  0.00    -0.400 OA
HETATM   70  H29 UNL     1       1.219  15.168  13.714  1.00  0.00     0.209 HD
ENDBRANCH  68  69
ENDBRANCH  22  68
BRANCH  28  71
HETATM   71  O5  UNL     1      -5.564  18.362   7.570  1.00  0.00    -0.361 OA
HETATM   72  H33 UNL     1      -6.506  18.486   7.778  1.00  0.00     0.217 HD
ENDBRANCH  28  71
TORSDOF 9
ENDMDL
MODEL 8
REMARK minimizedAffinity -8.02362251
REMARK CNNscore 0.0839806646
REMARK CNNaffinity 6.15238523
REMARK  9 active torsions:
REMARK  status: ('A' for Active; 'I' for Inactive)
REMARK    1  A    between atoms: C13_13  and  S1_14 
REMARK    2  A    between atoms: C22_26  and  C23_27 
REMARK    3  A    between atoms: C23_27  and  O4_28 
REMARK    4  A    between atoms: C29_34  and  O5_35 
REMARK    5  A    between atoms: C41_48  and  C42_49 
REMARK    6  A    between atoms: C41_48  and  N1_57 
REMARK    7  A    between atoms: C42_49  and  C43_50 
REMARK    8  A    between atoms: C43_50  and  C44_51 
REMARK    9  A    between atoms: C44_51  and  O7_52 
REMARK       I    between atoms: C49_59  and  N2_60 
REMARK       I    between atoms: C49_59  and  N3_61 
ROOT
HETATM    1  C1  UNL     1       4.791  13.375  21.181  1.00  0.00     0.010 C 
HETATM    2  C2  UNL     1       4.512  12.403  20.037  1.00  0.00    -0.010 C 
HETATM    3  C3  UNL     1       5.597  12.630  18.944  1.00  0.00     0.009 C 
HETATM    4  C4  UNL     1       5.114  12.467  17.501  1.00  0.00     0.039 C 
HETATM    5  C5  UNL     1       4.098  11.367  17.393  1.00  0.00    -0.049 C 
HETATM    6  C6  UNL     1       4.062  10.533  16.274  1.00  0.00     0.044 C 
HETATM    7  C7  UNL     1       3.045   9.593  16.163  1.00  0.00     0.072 C 
HETATM    8  C8  UNL     1       2.232   9.309  17.256  1.00  0.00     0.037 C 
HETATM    9  C9  UNL     1       2.248  10.164  18.364  1.00  0.00     0.011 C 
HETATM   10  C10 UNL     1       3.105  11.268  18.395  1.00  0.00    -0.047 C 
HETATM   11  C11 UNL     1       3.070  12.418  19.425  1.00  0.00     0.024 C 
HETATM   12  C12 UNL     1       1.898  12.409  20.442  1.00  0.00     0.033 C 
HETATM   13  C13 UNL     1       0.829  13.557  20.391  1.00  0.00     0.139 C 
HETATM   14  C14 UNL     1      -0.235  13.503  19.233  1.00  0.00     0.038 C 
HETATM   15  C15 UNL     1      -1.558  14.122  19.683  1.00  0.00    -0.014 C 
HETATM   16  C16 UNL     1      -1.974  15.317  19.212  1.00  0.00    -0.050 C 
HETATM   17  C17 UNL     1      -1.075  16.076  18.279  1.00  0.00     0.042 C 
HETATM   18  C18 UNL     1      -0.815  15.091  17.156  1.00  0.00     0.001 C 
HETATM   19  C19 UNL     1      -2.166  14.579  16.517  1.00  0.00     0.037 C 
HETATM   20  C20 UNL     1      -3.432  15.449  16.766  1.00  0.00     0.123 C 
HETATM   21  C21 UNL     1      -4.559  15.177  15.733  1.00  0.00     0.039 C 
HETATM   22  C22 UNL     1      -5.556  13.995  15.914  1.00  0.00     0.023 C 
HETATM   23  C24 UNL     1      -6.852  14.349  16.699  1.00  0.00     0.101 C 
HETATM   24  C25 UNL     1      -6.646  14.606  18.129  1.00  0.00    -0.101 C 
HETATM   25  C26 UNL     1      -6.271  14.832  19.249  1.00  0.00    -0.066 C 
HETATM   26  C27 UNL     1      -5.569  15.107  20.470  1.00  0.00     0.029 A 
HETATM   27  C28 UNL     1      -6.259  14.928  21.675  1.00  0.00     0.057 A 
HETATM   28  C29 UNL     1      -5.626  15.180  22.886  1.00  0.00     0.067 A 
HETATM   29  C30 UNL     1      -4.310  15.621  22.921  1.00  0.00     0.037 A 
HETATM   30  C31 UNL     1      -3.617  15.807  21.723  1.00  0.00     0.014 A 
HETATM   31  C32 UNL     1      -4.218  15.534  20.473  1.00  0.00    -0.006 A 
HETATM   32  C33 UNL     1      -3.395  15.806  19.206  1.00  0.00     0.185 C 
HETATM   33  O6  UNL     1      -3.988  15.199  18.050  1.00  0.00    -0.371 OA
HETATM   34  C34 UNL     1       0.133  13.966  17.745  1.00  0.00     0.032 C 
HETATM   35  C35 UNL     1       0.279  12.849  16.704  1.00  0.00    -0.055 C 
HETATM   36  C36 UNL     1      -0.523  11.701  16.698  1.00  0.00     0.001 C 
HETATM   37  C37 UNL     1      -0.254  10.641  15.828  1.00  0.00     0.096 A 
HETATM   38  C38 UNL     1       0.839  10.694  14.945  1.00  0.00     0.086 A 
HETATM   39  C39 UNL     1       1.510  11.924  14.816  1.00  0.00     0.004 C 
HETATM   40  C40 UNL     1       1.243  12.980  15.695  1.00  0.00     0.005 C 
HETATM   41  C41 UNL     1       1.442   9.378  14.359  1.00  0.00     0.167 C 
HETATM   42  O8  UNL     1       2.798   9.100  14.905  1.00  0.00    -0.318 OA
HETATM   43 NA1  UNL     1      -0.295  12.311  16.669  1.00  0.00    -0.348 Na
ATOM     44 1HA1 UNL     1      -0.303  12.932  17.479  1.00  0.00     0.104 HD
ATOM     45 2HA1 UNL     1      -0.736  13.185  16.957  1.00  0.00     0.104 HD
ENDROOT
BRANCH  41  46
HETATM   46  C42 UNL     1       1.685   9.547  12.826  1.00  0.00     0.067 C 
BRANCH  46  47
HETATM   47  C43 UNL     1       3.075   9.093  12.344  1.00  0.00     0.042 C 
BRANCH  47  48
HETATM   48  C44 UNL     1       3.030   7.876  11.414  1.00  0.00     0.058 C 
HETATM   49  C45 UNL     1       3.817   8.119  10.121  1.00  0.00     0.038 C 
HETATM   50  C46 UNL     1       3.269   7.095   9.130  1.00  0.00     0.003 C 
HETATM   51  C47 UNL     1       1.875   6.717   9.627  1.00  0.00     0.003 C 
HETATM   52  C48 UNL     1       1.632   7.537  10.894  1.00  0.00     0.038 C 
BRANCH  48  53
HETATM   53  O7  UNL     1       3.575   6.753  12.107  1.00  0.00    -0.390 OA
HETATM   54  H46 UNL     1       3.636   6.002  11.494  1.00  0.00     0.210 HD
ENDBRANCH  48  53
ENDBRANCH  47  48
ENDBRANCH  46  47
ENDBRANCH  41  46
BRANCH  41  55
HETATM   55  N1  UNL     1       0.479   8.255  14.492  1.00  0.00    -0.338 N 
HETATM   56  C49 UNL     1       0.883   7.054  14.625  1.00  0.00     0.124 C 
HETATM   57  N2  UNL     1      -0.013   6.048  14.738  1.00  0.00    -0.279 NA
HETATM   58  N3  UNL     1       2.135   6.541  14.660  1.00  0.00    -0.279 NA
HETATM   59  H55 UNL     1       0.243   5.249  14.174  1.00  0.00     0.126 HD
HETATM   60  H56 UNL     1      -0.943   6.380  14.506  1.00  0.00     0.126 HD
HETATM   61  H57 UNL     1       2.237   5.861  15.406  1.00  0.00     0.126 HD
HETATM   62  H58 UNL     1       2.835   7.274  14.778  1.00  0.00     0.126 HD
ATOM     63  H1  UNL     1      -0.522   8.449  14.477  1.00  0.00     0.164 HD
ENDBRANCH  41  55
BRANCH  13  64
HETATM   64  S1  UNL     1       1.508  15.174  20.810  1.00  0.00     0.106 S 
HETATM   65  O1  UNL     1       2.081  15.643  19.550  1.00  0.00    -0.595 OA
HETATM   66  O2  UNL     1       2.531  14.918  21.821  1.00  0.00    -0.595 OA
HETATM   67  O3  UNL     1       0.360  15.944  21.281  1.00  0.00    -0.595 OA
ENDBRANCH  13  64
BRANCH  22  68
HETATM   68  C23 UNL     1      -4.915  12.688  16.390  1.00  0.00     0.169 C 
BRANCH  68  69
HETATM   69  O4  UNL     1      -4.315  12.010  15.284  1.00  0.00    -0.400 OA
HETATM   70  H29 UNL     1      -3.509  12.502  15.057  1.00  0.00     0.209 HD
ENDBRANCH  68  69
ENDBRANCH  22  68
BRANCH  28  71
HETATM   71  O5  UNL     1      -6.337  14.984  24.034  1.00  0.00    -0.361 OA
HETATM   72  H33 UNL     1      -5.751  15.194  24.782  1.00  0.00     0.217 HD
ENDBRANCH  28  71
TORSDOF 9
ENDMDL
MODEL 9
REMARK minimizedAffinity -7.76838112
REMARK CNNscore 0.0821765438
REMARK CNNaffinity 5.2048378
REMARK  9 active torsions:
REMARK  status: ('A' for Active; 'I' for Inactive)
REMARK    1  A    between atoms: C13_13  and  S1_14 
REMARK    2  A    between atoms: C22_26  and  C23_27 
REMARK    3  A    between atoms: C23_27  and  O4_28 
REMARK    4  A    between atoms: C29_34  and  O5_35 
REMARK    5  A    between atoms: C41_48  and  C42_49 
REMARK    6  A    between atoms: C41_48  and  N1_57 
REMARK    7  A    between atoms: C42_49  and  C43_50 
REMARK    8  A    between atoms: C43_50  and  C44_51 
REMARK    9  A    between atoms: C44_51  and  O7_52 
REMARK       I    between atoms: C49_59  and  N2_60 
REMARK       I    between atoms: C49_59  and  N3_61 
ROOT
HETATM    1  C1  UNL     1      -2.021  18.389  20.400  1.00  0.00     0.010 C 
HETATM    2  C2  UNL     1      -1.815  17.194  19.472  1.00  0.00    -0.010 C 
HETATM    3  C3  UNL     1      -3.040  16.247  19.637  1.00  0.00     0.009 C 
HETATM    4  C4  UNL     1      -2.728  14.753  19.537  1.00  0.00     0.039 C 
HETATM    5  C5  UNL     1      -1.656  14.492  18.519  1.00  0.00    -0.049 C 
HETATM    6  C6  UNL     1      -1.697  13.355  17.710  1.00  0.00     0.044 C 
HETATM    7  C7  UNL     1      -0.635  13.096  16.851  1.00  0.00     0.072 C 
HETATM    8  C8  UNL     1       0.324  14.074  16.610  1.00  0.00     0.037 C 
HETATM    9  C9  UNL     1       0.383  15.199  17.441  1.00  0.00     0.011 C 
HETATM   10  C10 UNL     1      -0.542  15.364  18.476  1.00  0.00    -0.047 C 
HETATM   11  C11 UNL     1      -0.465  16.412  19.607  1.00  0.00     0.024 C 
HETATM   12  C12 UNL     1       0.821  17.279  19.668  1.00  0.00     0.033 C 
HETATM   13  C13 UNL     1       1.789  17.130  20.894  1.00  0.00     0.139 C 
HETATM   14  C14 UNL     1       2.704  15.851  20.942  1.00  0.00     0.038 C 
HETATM   15  C15 UNL     1       4.024  16.153  21.650  1.00  0.00    -0.014 C 
HETATM   16  C16 UNL     1       4.291  15.668  22.881  1.00  0.00    -0.050 C 
HETATM   17  C17 UNL     1       3.231  14.873  23.587  1.00  0.00     0.042 C 
HETATM   18  C18 UNL     1       2.907  13.762  22.606  1.00  0.00     0.001 C 
HETATM   19  C19 UNL     1       4.203  12.951  22.209  1.00  0.00     0.037 C 
HETATM   20  C20 UNL     1       5.424  13.068  23.167  1.00  0.00     0.123 C 
HETATM   21  C21 UNL     1       6.432  11.899  23.000  1.00  0.00     0.039 C 
HETATM   22  C22 UNL     1       7.527  11.926  21.893  1.00  0.00     0.023 C 
HETATM   23  C24 UNL     1       8.880  12.557  22.329  1.00  0.00     0.101 C 
HETATM   24  C25 UNL     1       8.834  14.008  22.544  1.00  0.00    -0.101 C 
HETATM   25  C26 UNL     1       8.584  15.170  22.722  1.00  0.00    -0.066 C 
HETATM   26  C27 UNL     1       8.019  16.474  22.920  1.00  0.00     0.029 A 
HETATM   27  C28 UNL     1       8.864  17.582  22.772  1.00  0.00     0.057 A 
HETATM   28  C29 UNL     1       8.367  18.867  22.953  1.00  0.00     0.067 A 
HETATM   29  C30 UNL     1       7.037  19.073  23.293  1.00  0.00     0.037 A 
HETATM   30  C31 UNL     1       6.191  17.974  23.449  1.00  0.00     0.014 A 
HETATM   31  C32 UNL     1       6.651  16.653  23.245  1.00  0.00    -0.006 A 
HETATM   32  C33 UNL     1       5.661  15.503  23.476  1.00  0.00     0.185 C 
HETATM   33  O6  UNL     1       6.150  14.267  22.936  1.00  0.00    -0.371 OA
HETATM   34  C34 UNL     1       2.124  14.432  21.402  1.00  0.00     0.032 C 
HETATM   35  C35 UNL     1       1.932  13.386  20.296  1.00  0.00    -0.055 C 
HETATM   36  C36 UNL     1       2.808  13.252  19.212  1.00  0.00     0.001 C 
HETATM   37  C37 UNL     1       2.512  12.391  18.151  1.00  0.00     0.096 A 
HETATM   38  C38 UNL     1       1.318  11.650  18.137  1.00  0.00     0.086 A 
HETATM   39  C39 UNL     1       0.549  11.636  19.316  1.00  0.00     0.004 C 
HETATM   40  C40 UNL     1       0.845  12.505  20.372  1.00  0.00     0.005 C 
HETATM   41  C41 UNL     1       0.744  11.106  16.791  1.00  0.00     0.167 C 
HETATM   42  O8  UNL     1      -0.510  11.804  16.402  1.00  0.00    -0.318 OA
HETATM   43 NA1  UNL     1       2.535  13.267  19.804  1.00  0.00    -0.348 Na
ATOM     44 1HA1 UNL     1       2.597  14.086  20.409  1.00  0.00     0.104 HD
ATOM     45 2HA1 UNL     1       2.943  13.523  20.703  1.00  0.00     0.104 HD
ENDROOT
BRANCH  41  46
HETATM   46  C42 UNL     1       0.303   9.618  16.968  1.00  0.00     0.067 C 
BRANCH  46  47
HETATM   47  C43 UNL     1      -1.220   9.396  16.956  1.00  0.00     0.042 C 
BRANCH  47  48
HETATM   48  C44 UNL     1      -1.651   8.171  16.144  1.00  0.00     0.058 C 
HETATM   49  C45 UNL     1      -0.445   7.367  15.645  1.00  0.00     0.038 C 
HETATM   50  C46 UNL     1      -0.979   6.539  14.480  1.00  0.00     0.003 C 
HETATM   51  C47 UNL     1      -2.225   7.263  13.973  1.00  0.00     0.003 C 
HETATM   52  C48 UNL     1      -2.386   8.508  14.846  1.00  0.00     0.038 C 
BRANCH  48  53
HETATM   53  O7  UNL     1      -2.474   7.345  16.968  1.00  0.00    -0.390 OA
HETATM   54  H46 UNL     1      -2.674   6.522  16.492  1.00  0.00     0.210 HD
ENDBRANCH  48  53
ENDBRANCH  47  48
ENDBRANCH  46  47
ENDBRANCH  41  46
BRANCH  41  55
HETATM   55  N1  UNL     1       1.796  11.090  15.741  1.00  0.00    -0.338 N 
HETATM   56  C49 UNL     1       1.510  10.829  14.527  1.00  0.00     0.124 C 
HETATM   57  N2  UNL     1       2.485  10.815  13.591  1.00  0.00    -0.279 NA
HETATM   58  N3  UNL     1       0.328  10.520  13.944  1.00  0.00    -0.279 NA
HETATM   59  H55 UNL     1       2.398  10.025  12.967  1.00  0.00     0.126 HD
HETATM   60  H56 UNL     1       3.397  10.837  14.035  1.00  0.00     0.126 HD
HETATM   61  H57 UNL     1       0.198  11.030  13.077  1.00  0.00     0.126 HD
HETATM   62  H58 UNL     1      -0.457  10.713  14.567  1.00  0.00     0.126 HD
ATOM     63  H1  UNL     1       2.762  11.293  15.997  1.00  0.00     0.164 HD
ENDBRANCH  41  55
BRANCH  13  64
HETATM   64  S1  UNL     1       1.052  17.672  22.447  1.00  0.00     0.106 S 
HETATM   65  O1  UNL     1       0.287  18.859  22.069  1.00  0.00    -0.595 OA
HETATM   66  O2  UNL     1       2.177  17.995  23.322  1.00  0.00    -0.595 OA
HETATM   67  O3  UNL     1       0.240  16.540  22.885  1.00  0.00    -0.595 OA
ENDBRANCH  13  64
BRANCH  22  68
HETATM   68  C23 UNL     1       7.046  12.439  20.533  1.00  0.00     0.169 C 
BRANCH  68  69
HETATM   69  O4  UNL     1       6.190  11.472  19.922  1.00  0.00    -0.400 OA
HETATM   70  H29 UNL     1       5.347  11.500  20.403  1.00  0.00     0.209 HD
ENDBRANCH  68  69
ENDBRANCH  22  68
BRANCH  28  71
HETATM   71  O5  UNL     1       9.226  19.915  22.791  1.00  0.00    -0.361 OA
HETATM   72  H33 UNL     1       8.724  20.734  22.943  1.00  0.00     0.217 HD
ENDBRANCH  28  71
TORSDOF 9
ENDMDL
