MODEL 1
REMARK minimizedAffinity -9.45401764
REMARK  9 active torsions:
REMARK  status: ('A' for Active; 'I' for Inactive)
REMARK    1  A    between atoms: C2_2  and  C3_3 
REMARK    2  A    between atoms: C2_2  and  C9_12 
REMARK    3  A    between atoms: C3_3  and  C4_4 
REMARK    4  A    between atoms: C4_4  and  C5_5 
REMARK    5  A    between atoms: C5_5  and  O1_6 
REMARK    6  A    between atoms: C5_5  and  C6_7 
REMARK    7  A    between atoms: C6_7  and  O2_9 
REMARK    8  A    between atoms: C6_7  and  C8_10 
REMARK    9  A    between atoms: C8_10  and  O3_11 
ROOT
HETATM    1  C9  UNL     1      -0.181  50.897 -20.913  1.00  0.00    -0.002 C 
HETATM    2  C10 UNL     1      -0.545  51.486 -19.519  1.00  0.00     0.007 C 
HETATM    3  C11 UNL     1      -1.707  50.644 -18.960  1.00  0.00     0.015 C 
HETATM    4  C12 UNL     1      -2.459  50.176 -20.219  1.00  0.00    -0.013 C 
HETATM    5  C13 UNL     1      -3.303  51.399 -20.704  1.00  0.00     0.021 C 
HETATM    6  C14 UNL     1      -3.480  49.041 -20.093  1.00  0.00    -0.070 C 
HETATM    7  C15 UNL     1      -4.263  48.923 -19.004  1.00  0.00    -0.022 C 
HETATM    8  C16 UNL     1      -5.501  48.083 -18.977  1.00  0.00     0.034 C 
HETATM    9  C17 UNL     1      -6.095  47.975 -20.399  1.00  0.00     0.013 C 
HETATM   10  C18 UNL     1      -7.566  47.424 -20.432  1.00  0.00     0.018 C 
HETATM   11  C19 UNL     1      -8.511  48.471 -19.785  1.00  0.00     0.023 C 
HETATM   12  C20 UNL     1      -7.794  46.098 -19.689  1.00  0.00     0.023 C 
HETATM   13  C21 UNL     1      -8.013  47.238 -21.892  1.00  0.00     0.135 C 
HETATM   14  O4  UNL     1      -9.163  47.485 -22.263  1.00  0.00    -0.297 OA
HETATM   15  C22 UNL     1      -7.033  46.617 -22.857  1.00  0.00     0.080 C 
HETATM   16  C23 UNL     1      -5.681  47.310 -22.792  1.00  0.00     0.017 C 
HETATM   17  C24 UNL     1      -5.053  47.325 -21.377  1.00  0.00    -0.031 C 
HETATM   18  C25 UNL     1      -4.700  45.861 -20.988  1.00  0.00     0.016 C 
HETATM   19  C26 UNL     1      -3.667  48.133 -21.320  1.00  0.00     0.024 C 
HETATM   20  C27 UNL     1      -3.211  48.823 -22.627  1.00  0.00     0.010 C 
HETATM   21  C28 UNL     1      -1.815  49.510 -22.575  1.00  0.00     0.011 C 
HETATM   22  C29 UNL     1      -1.269  49.777 -21.158  1.00  0.00    -0.029 C 
HETATM   23  C30 UNL     1      -0.527  48.467 -20.685  1.00  0.00     0.016 C 
ENDROOT
BRANCH   1  24
HETATM   24  C2  UNL     1       0.226  51.963 -21.972  1.00  0.00    -0.014 C 
HETATM   25  C1  UNL     1       1.077  53.133 -21.476  1.00  0.00     0.010 C 
BRANCH  24  26
HETATM   26  C3  UNL     1      -0.951  52.506 -22.826  1.00  0.00     0.007 C 
BRANCH  26  27
HETATM   27  C4  UNL     1      -0.749  52.342 -24.339  1.00  0.00     0.035 C 
BRANCH  27  28
HETATM   28  C5  UNL     1       0.710  52.442 -24.830  1.00  0.00     0.154 C 
BRANCH  28  29
HETATM   29  O1  UNL     1       1.089  53.832 -24.858  1.00  0.00    -0.392 OA
HETATM   30  H10 UNL     1       0.928  54.193 -23.967  1.00  0.00     0.210 HD
ENDBRANCH  28  29
BRANCH  28  31
HETATM   31  C6  UNL     1       1.026  51.836 -26.228  1.00  0.00     0.101 C 
HETATM   32  C7  UNL     1      -0.039  50.835 -26.679  1.00  0.00     0.051 C 
BRANCH  31  33
HETATM   33  O2  UNL     1       1.085  52.894 -27.200  1.00  0.00    -0.385 OA
HETATM   34  H14 UNL     1       1.555  53.624 -26.751  1.00  0.00     0.210 HD
ENDBRANCH  31  33
BRANCH  31  35
HETATM   35  C8  UNL     1       2.415  51.153 -26.215  1.00  0.00     0.204 C 
BRANCH  35  36
HETATM   36  O3  UNL     1       3.224  51.558 -27.316  1.00  0.00    -0.398 OA
HETATM   37  H17 UNL     1       3.423  50.754 -27.831  1.00  0.00     0.209 HD
ENDBRANCH  35  36
ENDBRANCH  31  35
ENDBRANCH  28  31
ENDBRANCH  27  28
ENDBRANCH  26  27
ENDBRANCH  24  26
ENDBRANCH   1  24
TORSDOF 9
ENDMDL
MODEL 2
REMARK minimizedAffinity -9.4298563
REMARK  9 active torsions:
REMARK  status: ('A' for Active; 'I' for Inactive)
REMARK    1  A    between atoms: C2_2  and  C3_3 
REMARK    2  A    between atoms: C2_2  and  C9_12 
REMARK    3  A    between atoms: C3_3  and  C4_4 
REMARK    4  A    between atoms: C4_4  and  C5_5 
REMARK    5  A    between atoms: C5_5  and  O1_6 
REMARK    6  A    between atoms: C5_5  and  C6_7 
REMARK    7  A    between atoms: C6_7  and  O2_9 
REMARK    8  A    between atoms: C6_7  and  C8_10 
REMARK    9  A    between atoms: C8_10  and  O3_11 
ROOT
HETATM    1  C9  UNL     1      -0.924  51.637 -22.148  1.00  0.00    -0.002 C 
HETATM    2  C10 UNL     1       0.507  52.241 -22.037  1.00  0.00     0.007 C 
HETATM    3  C11 UNL     1       1.045  51.875 -20.641  1.00  0.00     0.015 C 
HETATM    4  C12 UNL     1      -0.220  51.802 -19.768  1.00  0.00    -0.013 C 
HETATM    5  C13 UNL     1      -0.622  53.279 -19.455  1.00  0.00     0.021 C 
HETATM    6  C14 UNL     1      -0.132  51.137 -18.390  1.00  0.00    -0.070 C 
HETATM    7  C15 UNL     1       0.966  51.264 -17.622  1.00  0.00    -0.022 C 
HETATM    8  C16 UNL     1       0.975  50.960 -16.157  1.00  0.00     0.034 C 
HETATM    9  C17 UNL     1      -0.437  51.168 -15.567  1.00  0.00     0.013 C 
HETATM   10  C18 UNL     1      -0.468  51.222 -13.997  1.00  0.00     0.018 C 
HETATM   11  C19 UNL     1       0.254  52.512 -13.523  1.00  0.00     0.023 C 
HETATM   12  C20 UNL     1       0.209  50.043 -13.279  1.00  0.00     0.023 C 
HETATM   13  C21 UNL     1      -1.925  51.303 -13.513  1.00  0.00     0.135 C 
HETATM   14  O4  UNL     1      -2.258  51.991 -12.545  1.00  0.00    -0.297 OA
HETATM   15  C22 UNL     1      -2.942  50.412 -14.182  1.00  0.00     0.080 C 
HETATM   16  C23 UNL     1      -2.870  50.531 -15.696  1.00  0.00     0.017 C 
HETATM   17  C24 UNL     1      -1.470  50.226 -16.282  1.00  0.00    -0.031 C 
HETATM   18  C25 UNL     1      -1.167  48.719 -16.048  1.00  0.00     0.016 C 
HETATM   19  C26 UNL     1      -1.401  50.439 -17.872  1.00  0.00     0.024 C 
HETATM   20  C27 UNL     1      -2.679  50.976 -18.557  1.00  0.00     0.010 C 
HETATM   21  C28 UNL     1      -2.621  51.075 -20.109  1.00  0.00     0.011 C 
HETATM   22  C29 UNL     1      -1.204  51.032 -20.715  1.00  0.00    -0.029 C 
HETATM   23  C30 UNL     1      -0.817  49.514 -20.900  1.00  0.00     0.016 C 
ENDROOT
BRANCH   1  24
HETATM   24  C2  UNL     1      -1.934  52.526 -22.932  1.00  0.00    -0.014 C 
HETATM   25  C1  UNL     1      -3.408  52.123 -22.853  1.00  0.00     0.010 C 
BRANCH  24  26
HETATM   26  C3  UNL     1      -1.549  52.789 -24.412  1.00  0.00     0.007 C 
BRANCH  26  27
HETATM   27  C4  UNL     1      -0.037  52.919 -24.648  1.00  0.00     0.035 C 
BRANCH  27  28
HETATM   28  C5  UNL     1       0.394  53.106 -26.117  1.00  0.00     0.154 C 
BRANCH  28  29
HETATM   29  O1  UNL     1      -0.730  53.612 -26.863  1.00  0.00    -0.392 OA
HETATM   30  H10 UNL     1      -1.032  54.424 -26.414  1.00  0.00     0.210 HD
ENDBRANCH  28  29
BRANCH  28  31
HETATM   31  C6  UNL     1       0.929  51.848 -26.861  1.00  0.00     0.101 C 
HETATM   32  C7  UNL     1       0.006  50.640 -26.692  1.00  0.00     0.051 C 
BRANCH  31  33
HETATM   33  O2  UNL     1       1.034  52.139 -28.266  1.00  0.00    -0.385 OA
HETATM   34  H14 UNL     1       1.388  53.049 -28.310  1.00  0.00     0.210 HD
ENDBRANCH  31  33
BRANCH  31  35
HETATM   35  C8  UNL     1       2.351  51.495 -26.362  1.00  0.00     0.204 C 
BRANCH  35  36
HETATM   36  O3  UNL     1       3.308  51.504 -27.418  1.00  0.00    -0.398 OA
HETATM   37  H17 UNL     1       3.679  50.604 -27.471  1.00  0.00     0.209 HD
ENDBRANCH  35  36
ENDBRANCH  31  35
ENDBRANCH  28  31
ENDBRANCH  27  28
ENDBRANCH  26  27
ENDBRANCH  24  26
ENDBRANCH   1  24
TORSDOF 9
ENDMDL
MODEL 3
REMARK minimizedAffinity -9.3244648
REMARK  9 active torsions:
REMARK  status: ('A' for Active; 'I' for Inactive)
REMARK    1  A    between atoms: C2_2  and  C3_3 
REMARK    2  A    between atoms: C2_2  and  C9_12 
REMARK    3  A    between atoms: C3_3  and  C4_4 
REMARK    4  A    between atoms: C4_4  and  C5_5 
REMARK    5  A    between atoms: C5_5  and  O1_6 
REMARK    6  A    between atoms: C5_5  and  C6_7 
REMARK    7  A    between atoms: C6_7  and  O2_9 
REMARK    8  A    between atoms: C6_7  and  C8_10 
REMARK    9  A    between atoms: C8_10  and  O3_11 
ROOT
HETATM    1  C9  UNL     1      -2.395  51.718 -22.379  1.00  0.00    -0.002 C 
HETATM    2  C10 UNL     1      -3.108  52.475 -23.538  1.00  0.00     0.007 C 
HETATM    3  C11 UNL     1      -4.509  51.855 -23.690  1.00  0.00     0.015 C 
HETATM    4  C12 UNL     1      -4.313  50.393 -23.247  1.00  0.00    -0.013 C 
HETATM    5  C13 UNL     1      -3.631  49.661 -24.448  1.00  0.00     0.021 C 
HETATM    6  C14 UNL     1      -5.549  49.541 -22.940  1.00  0.00    -0.070 C 
HETATM    7  C15 UNL     1      -6.683  49.671 -23.653  1.00  0.00    -0.022 C 
HETATM    8  C16 UNL     1      -7.771  48.644 -23.648  1.00  0.00     0.034 C 
HETATM    9  C17 UNL     1      -7.179  47.251 -23.344  1.00  0.00     0.013 C 
HETATM   10  C18 UNL     1      -8.156  46.062 -23.660  1.00  0.00     0.018 C 
HETATM   11  C19 UNL     1      -8.365  45.976 -25.196  1.00  0.00     0.023 C 
HETATM   12  C20 UNL     1      -9.553  46.165 -23.025  1.00  0.00     0.023 C 
HETATM   13  C21 UNL     1      -7.521  44.738 -23.204  1.00  0.00     0.135 C 
HETATM   14  O4  UNL     1      -7.646  43.693 -23.849  1.00  0.00    -0.297 OA
HETATM   15  C22 UNL     1      -6.829  44.710 -21.864  1.00  0.00     0.080 C 
HETATM   16  C23 UNL     1      -5.839  45.857 -21.729  1.00  0.00     0.017 C 
HETATM   17  C24 UNL     1      -6.469  47.255 -21.943  1.00  0.00    -0.031 C 
HETATM   18  C25 UNL     1      -7.457  47.524 -20.773  1.00  0.00     0.016 C 
HETATM   19  C26 UNL     1      -5.388  48.440 -21.877  1.00  0.00     0.024 C 
HETATM   20  C27 UNL     1      -3.910  48.023 -21.694  1.00  0.00     0.010 C 
HETATM   21  C28 UNL     1      -2.896  49.192 -21.528  1.00  0.00     0.011 C 
HETATM   22  C29 UNL     1      -3.410  50.574 -21.979  1.00  0.00    -0.029 C 
HETATM   23  C30 UNL     1      -4.183  51.209 -20.759  1.00  0.00     0.016 C 
ENDROOT
BRANCH   1  24
HETATM   24  C2  UNL     1      -0.871  51.493 -22.603  1.00  0.00    -0.014 C 
HETATM   25  C1  UNL     1      -0.057  51.046 -21.387  1.00  0.00     0.010 C 
BRANCH  24  26
HETATM   26  C3  UNL     1      -0.142  52.667 -23.309  1.00  0.00     0.007 C 
BRANCH  26  27
HETATM   27  C4  UNL     1      -0.516  52.831 -24.790  1.00  0.00     0.035 C 
BRANCH  27  28
HETATM   28  C5  UNL     1       0.670  53.010 -25.759  1.00  0.00     0.154 C 
BRANCH  28  29
HETATM   29  O1  UNL     1       0.395  54.135 -26.616  1.00  0.00    -0.392 OA
HETATM   30  H10 UNL     1       0.215  54.900 -26.038  1.00  0.00     0.210 HD
ENDBRANCH  28  29
BRANCH  28  31
HETATM   31  C6  UNL     1       1.027  51.798 -26.668  1.00  0.00     0.101 C 
HETATM   32  C7  UNL     1       0.046  50.637 -26.495  1.00  0.00     0.051 C 
BRANCH  31  33
HETATM   33  O2  UNL     1       0.991  52.213 -28.044  1.00  0.00    -0.385 OA
HETATM   34  H14 UNL     1       1.400  53.100 -28.052  1.00  0.00     0.210 HD
ENDBRANCH  31  33
BRANCH  31  35
HETATM   35  C8  UNL     1       2.468  51.315 -26.376  1.00  0.00     0.204 C 
BRANCH  35  36
HETATM   36  O3  UNL     1       3.343  51.540 -27.478  1.00  0.00    -0.398 OA
HETATM   37  H17 UNL     1       3.676  50.667 -27.758  1.00  0.00     0.209 HD
ENDBRANCH  35  36
ENDBRANCH  31  35
ENDBRANCH  28  31
ENDBRANCH  27  28
ENDBRANCH  26  27
ENDBRANCH  24  26
ENDBRANCH   1  24
TORSDOF 9
ENDMDL
MODEL 4
REMARK minimizedAffinity -9.14674568
REMARK  9 active torsions:
REMARK  status: ('A' for Active; 'I' for Inactive)
REMARK    1  A    between atoms: C2_2  and  C3_3 
REMARK    2  A    between atoms: C2_2  and  C9_12 
REMARK    3  A    between atoms: C3_3  and  C4_4 
REMARK    4  A    between atoms: C4_4  and  C5_5 
REMARK    5  A    between atoms: C5_5  and  O1_6 
REMARK    6  A    between atoms: C5_5  and  C6_7 
REMARK    7  A    between atoms: C6_7  and  O2_9 
REMARK    8  A    between atoms: C6_7  and  C8_10 
REMARK    9  A    between atoms: C8_10  and  O3_11 
ROOT
HETATM    1  C9  UNL     1      -1.057  50.464 -18.002  1.00  0.00    -0.002 C 
HETATM    2  C10 UNL     1       0.098  51.440 -18.368  1.00  0.00     0.007 C 
HETATM    3  C11 UNL     1      -0.186  51.968 -19.786  1.00  0.00     0.015 C 
HETATM    4  C12 UNL     1      -0.944  50.812 -20.463  1.00  0.00    -0.013 C 
HETATM    5  C13 UNL     1       0.135  49.750 -20.850  1.00  0.00     0.021 C 
HETATM    6  C14 UNL     1      -1.692  51.082 -21.773  1.00  0.00    -0.070 C 
HETATM    7  C15 UNL     1      -1.200  51.930 -22.696  1.00  0.00    -0.022 C 
HETATM    8  C16 UNL     1      -1.678  51.956 -24.114  1.00  0.00     0.034 C 
HETATM    9  C17 UNL     1      -2.211  50.564 -24.516  1.00  0.00     0.013 C 
HETATM   10  C18 UNL     1      -2.405  50.381 -26.065  1.00  0.00     0.018 C 
HETATM   11  C19 UNL     1      -1.013  50.385 -26.751  1.00  0.00     0.023 C 
HETATM   12  C20 UNL     1      -3.248  51.463 -26.760  1.00  0.00     0.023 C 
HETATM   13  C21 UNL     1      -3.056  49.016 -26.344  1.00  0.00     0.135 C 
HETATM   14  O4  UNL     1      -2.738  48.324 -27.315  1.00  0.00    -0.297 OA
HETATM   15  C22 UNL     1      -4.200  48.584 -25.461  1.00  0.00     0.080 C 
HETATM   16  C23 UNL     1      -3.842  48.718 -23.989  1.00  0.00     0.017 C 
HETATM   17  C24 UNL     1      -3.400  50.145 -23.581  1.00  0.00    -0.031 C 
HETATM   18  C25 UNL     1      -4.629  51.088 -23.716  1.00  0.00     0.016 C 
HETATM   19  C26 UNL     1      -2.950  50.240 -22.042  1.00  0.00     0.024 C 
HETATM   20  C27 UNL     1      -2.948  48.920 -21.236  1.00  0.00     0.010 C 
HETATM   21  C28 UNL     1      -2.609  49.054 -19.723  1.00  0.00     0.011 C 
HETATM   22  C29 UNL     1      -1.925  50.376 -19.321  1.00  0.00    -0.029 C 
HETATM   23  C30 UNL     1      -3.065  51.434 -19.054  1.00  0.00     0.016 C 
ENDROOT
BRANCH   1  24
HETATM   24  C2  UNL     1      -0.611  49.227 -17.169  1.00  0.00    -0.014 C 
HETATM   25  C1  UNL     1      -1.722  48.396 -16.524  1.00  0.00     0.010 C 
BRANCH  24  26
HETATM   26  C3  UNL     1       0.491  49.522 -16.117  1.00  0.00     0.007 C 
BRANCH  26  27
HETATM   27  C4  UNL     1       0.828  51.013 -15.969  1.00  0.00     0.035 C 
BRANCH  27  28
HETATM   28  C5  UNL     1       1.266  51.459 -14.559  1.00  0.00     0.154 C 
BRANCH  28  29
HETATM   29  O1  UNL     1       0.631  52.717 -14.260  1.00  0.00    -0.392 OA
HETATM   30  H10 UNL     1      -0.329  52.589 -14.372  1.00  0.00     0.210 HD
ENDBRANCH  28  29
BRANCH  28  31
HETATM   31  C6  UNL     1       2.794  51.629 -14.317  1.00  0.00     0.101 C 
HETATM   32  C7  UNL     1       3.522  52.149 -15.558  1.00  0.00     0.051 C 
BRANCH  31  33
HETATM   33  O2  UNL     1       3.001  52.571 -13.250  1.00  0.00    -0.385 OA
HETATM   34  H14 UNL     1       2.316  52.355 -12.586  1.00  0.00     0.210 HD
ENDBRANCH  31  33
BRANCH  31  35
HETATM   35  C8  UNL     1       3.418  50.287 -13.866  1.00  0.00     0.204 C 
BRANCH  35  36
HETATM   36  O3  UNL     1       3.113  49.981 -12.508  1.00  0.00    -0.398 OA
HETATM   37  H17 UNL     1       3.963  49.925 -12.033  1.00  0.00     0.209 HD
ENDBRANCH  35  36
ENDBRANCH  31  35
ENDBRANCH  28  31
ENDBRANCH  27  28
ENDBRANCH  26  27
ENDBRANCH  24  26
ENDBRANCH   1  24
TORSDOF 9
ENDMDL
MODEL 5
REMARK minimizedAffinity -9.04822731
REMARK  9 active torsions:
REMARK  status: ('A' for Active; 'I' for Inactive)
REMARK    1  A    between atoms: C2_2  and  C3_3 
REMARK    2  A    between atoms: C2_2  and  C9_12 
REMARK    3  A    between atoms: C3_3  and  C4_4 
REMARK    4  A    between atoms: C4_4  and  C5_5 
REMARK    5  A    between atoms: C5_5  and  O1_6 
REMARK    6  A    between atoms: C5_5  and  C6_7 
REMARK    7  A    between atoms: C6_7  and  O2_9 
REMARK    8  A    between atoms: C6_7  and  C8_10 
REMARK    9  A    between atoms: C8_10  and  O3_11 
ROOT
HETATM    1  C9  UNL     1      -2.375  50.510 -22.269  1.00  0.00    -0.002 C 
HETATM    2  C10 UNL     1      -3.288  51.479 -21.464  1.00  0.00     0.007 C 
HETATM    3  C11 UNL     1      -4.735  50.977 -21.625  1.00  0.00     0.015 C 
HETATM    4  C12 UNL     1      -4.740  50.312 -23.013  1.00  0.00    -0.013 C 
HETATM    5  C13 UNL     1      -4.808  51.476 -24.054  1.00  0.00     0.021 C 
HETATM    6  C14 UNL     1      -5.910  49.399 -23.393  1.00  0.00    -0.070 C 
HETATM    7  C15 UNL     1      -7.167  49.671 -22.995  1.00  0.00    -0.022 C 
HETATM    8  C16 UNL     1      -8.374  49.045 -23.620  1.00  0.00     0.034 C 
HETATM    9  C17 UNL     1      -8.069  48.662 -25.085  1.00  0.00     0.013 C 
HETATM   10  C18 UNL     1      -9.348  48.330 -25.934  1.00  0.00     0.018 C 
HETATM   11  C19 UNL     1     -10.178  49.628 -26.124  1.00  0.00     0.023 C 
HETATM   12  C20 UNL     1     -10.294  47.281 -25.326  1.00  0.00     0.023 C 
HETATM   13  C21 UNL     1      -8.927  47.841 -27.330  1.00  0.00     0.135 C 
HETATM   14  O4  UNL     1      -9.556  48.143 -28.348  1.00  0.00    -0.297 OA
HETATM   15  C22 UNL     1      -7.780  46.866 -27.421  1.00  0.00     0.080 C 
HETATM   16  C23 UNL     1      -6.574  47.359 -26.637  1.00  0.00     0.017 C 
HETATM   17  C24 UNL     1      -6.873  47.647 -25.145  1.00  0.00    -0.031 C 
HETATM   18  C25 UNL     1      -7.200  46.296 -24.448  1.00  0.00     0.016 C 
HETATM   19  C26 UNL     1      -5.605  48.243 -24.361  1.00  0.00     0.024 C 
HETATM   20  C27 UNL     1      -4.332  48.507 -25.197  1.00  0.00     0.010 C 
HETATM   21  C28 UNL     1      -3.086  48.985 -24.396  1.00  0.00     0.011 C 
HETATM   22  C29 UNL     1      -3.384  49.526 -22.983  1.00  0.00    -0.029 C 
HETATM   23  C30 UNL     1      -3.412  48.290 -22.003  1.00  0.00     0.016 C 
ENDROOT
BRANCH   1  24
HETATM   24  C2  UNL     1      -1.180  51.205 -22.986  1.00  0.00    -0.014 C 
HETATM   25  C1  UNL     1       0.054  51.503 -22.132  1.00  0.00     0.010 C 
BRANCH  24  26
HETATM   26  C3  UNL     1      -1.563  52.469 -23.800  1.00  0.00     0.007 C 
BRANCH  26  27
HETATM   27  C4  UNL     1      -1.567  52.253 -25.320  1.00  0.00     0.035 C 
BRANCH  27  28
HETATM   28  C5  UNL     1      -0.188  52.333 -26.008  1.00  0.00     0.154 C 
BRANCH  28  29
HETATM   29  O1  UNL     1       0.499  53.501 -25.519  1.00  0.00    -0.392 OA
HETATM   30  H10 UNL     1       0.526  53.433 -24.546  1.00  0.00     0.210 HD
ENDBRANCH  28  29
BRANCH  28  31
HETATM   31  C6  UNL     1      -0.179  52.393 -27.563  1.00  0.00     0.101 C 
HETATM   32  C7  UNL     1       1.136  51.881 -28.153  1.00  0.00     0.051 C 
BRANCH  31  33
HETATM   33  O2  UNL     1      -1.246  51.575 -28.073  1.00  0.00    -0.385 OA
HETATM   34  H14 UNL     1      -2.003  51.747 -27.478  1.00  0.00     0.210 HD
ENDBRANCH  31  33
BRANCH  31  35
HETATM   35  C8  UNL     1      -0.443  53.839 -28.046  1.00  0.00     0.204 C 
BRANCH  35  36
HETATM   36  O3  UNL     1      -1.818  54.063 -28.347  1.00  0.00    -0.398 OA
HETATM   37  H17 UNL     1      -1.865  54.306 -29.291  1.00  0.00     0.209 HD
ENDBRANCH  35  36
ENDBRANCH  31  35
ENDBRANCH  28  31
ENDBRANCH  27  28
ENDBRANCH  26  27
ENDBRANCH  24  26
ENDBRANCH   1  24
TORSDOF 9
ENDMDL
MODEL 6
REMARK minimizedAffinity -9.03362179
REMARK  9 active torsions:
REMARK  status: ('A' for Active; 'I' for Inactive)
REMARK    1  A    between atoms: C2_2  and  C3_3 
REMARK    2  A    between atoms: C2_2  and  C9_12 
REMARK    3  A    between atoms: C3_3  and  C4_4 
REMARK    4  A    between atoms: C4_4  and  C5_5 
REMARK    5  A    between atoms: C5_5  and  O1_6 
REMARK    6  A    between atoms: C5_5  and  C6_7 
REMARK    7  A    between atoms: C6_7  and  O2_9 
REMARK    8  A    between atoms: C6_7  and  C8_10 
REMARK    9  A    between atoms: C8_10  and  O3_11 
ROOT
HETATM    1  C9  UNL     1      -0.467  50.577 -21.164  1.00  0.00    -0.002 C 
HETATM    2  C10 UNL     1      -0.791  51.312 -19.831  1.00  0.00     0.007 C 
HETATM    3  C11 UNL     1      -1.947  50.547 -19.161  1.00  0.00     0.015 C 
HETATM    4  C12 UNL     1      -2.733  49.959 -20.347  1.00  0.00    -0.013 C 
HETATM    5  C13 UNL     1      -3.577  51.134 -20.936  1.00  0.00     0.021 C 
HETATM    6  C14 UNL     1      -3.761  48.855 -20.079  1.00  0.00    -0.070 C 
HETATM    7  C15 UNL     1      -4.518  48.859 -18.966  1.00  0.00    -0.022 C 
HETATM    8  C16 UNL     1      -5.762  48.041 -18.823  1.00  0.00     0.034 C 
HETATM    9  C17 UNL     1      -6.392  47.793 -20.211  1.00  0.00     0.013 C 
HETATM   10  C18 UNL     1      -7.868  47.258 -20.153  1.00  0.00     0.018 C 
HETATM   11  C19 UNL     1      -8.788  48.378 -19.596  1.00  0.00     0.023 C 
HETATM   12  C20 UNL     1      -8.090  46.019 -19.270  1.00  0.00     0.023 C 
HETATM   13  C21 UNL     1      -8.352  46.926 -21.574  1.00  0.00     0.135 C 
HETATM   14  O4  UNL     1      -9.509  47.147 -21.942  1.00  0.00    -0.297 OA
HETATM   15  C22 UNL     1      -7.402  46.197 -22.492  1.00  0.00     0.080 C 
HETATM   16  C23 UNL     1      -6.042  46.878 -22.531  1.00  0.00     0.017 C 
HETATM   17  C24 UNL     1      -5.380  47.033 -21.140  1.00  0.00    -0.031 C 
HETATM   18  C25 UNL     1      -5.031  45.613 -20.610  1.00  0.00     0.016 C 
HETATM   19  C26 UNL     1      -3.985  47.826 -21.200  1.00  0.00     0.024 C 
HETATM   20  C27 UNL     1      -3.555  48.371 -22.582  1.00  0.00     0.010 C 
HETATM   21  C28 UNL     1      -2.152  49.044 -22.635  1.00  0.00     0.011 C 
HETATM   22  C29 UNL     1      -1.570  49.450 -21.266  1.00  0.00    -0.029 C 
HETATM   23  C30 UNL     1      -0.829  48.188 -20.677  1.00  0.00     0.016 C 
ENDROOT
BRANCH   1  24
HETATM   24  C2  UNL     1      -0.076  51.523 -22.338  1.00  0.00    -0.014 C 
HETATM   25  C1  UNL     1       0.555  52.864 -21.958  1.00  0.00     0.010 C 
BRANCH  24  26
HETATM   26  C3  UNL     1      -1.202  51.758 -23.379  1.00  0.00     0.007 C 
BRANCH  26  27
HETATM   27  C4  UNL     1      -0.777  51.483 -24.829  1.00  0.00     0.035 C 
BRANCH  27  28
HETATM   28  C5  UNL     1      -1.038  52.630 -25.828  1.00  0.00     0.154 C 
BRANCH  28  29
HETATM   29  O1  UNL     1      -2.457  52.869 -25.889  1.00  0.00    -0.392 OA
HETATM   30  H10 UNL     1      -2.761  53.038 -24.978  1.00  0.00     0.210 HD
ENDBRANCH  28  29
BRANCH  28  31
HETATM   31  C6  UNL     1      -0.527  52.426 -27.284  1.00  0.00     0.101 C 
HETATM   32  C7  UNL     1       0.872  51.808 -27.325  1.00  0.00     0.051 C 
BRANCH  31  33
HETATM   33  O2  UNL     1      -1.425  51.544 -27.980  1.00  0.00    -0.385 OA
HETATM   34  H14 UNL     1      -2.320  51.821 -27.699  1.00  0.00     0.210 HD
ENDBRANCH  31  33
BRANCH  31  35
HETATM   35  C8  UNL     1      -0.528  53.772 -28.046  1.00  0.00     0.204 C 
BRANCH  35  36
HETATM   36  O3  UNL     1      -1.843  54.179 -28.416  1.00  0.00    -0.398 OA
HETATM   37  H17 UNL     1      -1.859  54.236 -29.389  1.00  0.00     0.209 HD
ENDBRANCH  35  36
ENDBRANCH  31  35
ENDBRANCH  28  31
ENDBRANCH  27  28
ENDBRANCH  26  27
ENDBRANCH  24  26
ENDBRANCH   1  24
TORSDOF 9
ENDMDL
MODEL 7
REMARK minimizedAffinity -8.71835423
REMARK  9 active torsions:
REMARK  status: ('A' for Active; 'I' for Inactive)
REMARK    1  A    between atoms: C2_2  and  C3_3 
REMARK    2  A    between atoms: C2_2  and  C9_12 
REMARK    3  A    between atoms: C3_3  and  C4_4 
REMARK    4  A    between atoms: C4_4  and  C5_5 
REMARK    5  A    between atoms: C5_5  and  O1_6 
REMARK    6  A    between atoms: C5_5  and  C6_7 
REMARK    7  A    between atoms: C6_7  and  O2_9 
REMARK    8  A    between atoms: C6_7  and  C8_10 
REMARK    9  A    between atoms: C8_10  and  O3_11 
ROOT
HETATM    1  C9  UNL     1      -1.920  51.258 -23.001  1.00  0.00    -0.002 C 
HETATM    2  C10 UNL     1      -1.951  50.305 -24.231  1.00  0.00     0.007 C 
HETATM    3  C11 UNL     1      -3.131  49.338 -24.025  1.00  0.00     0.015 C 
HETATM    4  C12 UNL     1      -3.239  49.211 -22.495  1.00  0.00    -0.013 C 
HETATM    5  C13 UNL     1      -2.097  48.239 -22.057  1.00  0.00     0.021 C 
HETATM    6  C14 UNL     1      -4.507  48.599 -21.891  1.00  0.00    -0.070 C 
HETATM    7  C15 UNL     1      -5.150  47.583 -22.496  1.00  0.00    -0.022 C 
HETATM    8  C16 UNL     1      -6.150  46.719 -21.795  1.00  0.00     0.034 C 
HETATM    9  C17 UNL     1      -5.841  46.675 -20.282  1.00  0.00     0.013 C 
HETATM   10  C18 UNL     1      -6.597  45.534 -19.512  1.00  0.00     0.018 C 
HETATM   11  C19 UNL     1      -6.044  44.160 -19.976  1.00  0.00     0.023 C 
HETATM   12  C20 UNL     1      -8.121  45.493 -19.716  1.00  0.00     0.023 C 
HETATM   13  C21 UNL     1      -6.320  45.659 -18.004  1.00  0.00     0.135 C 
HETATM   14  O4  UNL     1      -6.166  44.672 -17.281  1.00  0.00    -0.297 OA
HETATM   15  C22 UNL     1      -6.363  47.036 -17.390  1.00  0.00     0.080 C 
HETATM   16  C23 UNL     1      -5.509  48.019 -18.178  1.00  0.00     0.017 C 
HETATM   17  C24 UNL     1      -5.895  48.122 -19.674  1.00  0.00    -0.031 C 
HETATM   18  C25 UNL     1      -7.311  48.757 -19.766  1.00  0.00     0.016 C 
HETATM   19  C26 UNL     1      -4.927  49.102 -20.499  1.00  0.00     0.024 C 
HETATM   20  C27 UNL     1      -3.741  49.722 -19.724  1.00  0.00     0.010 C 
HETATM   21  C28 UNL     1      -2.881  50.749 -20.516  1.00  0.00     0.011 C 
HETATM   22  C29 UNL     1      -3.051  50.702 -22.048  1.00  0.00    -0.029 C 
HETATM   23  C30 UNL     1      -4.287  51.612 -22.412  1.00  0.00     0.016 C 
ENDROOT
BRANCH   1  24
HETATM   24  C2  UNL     1      -0.488  51.641 -22.523  1.00  0.00    -0.014 C 
HETATM   25  C1  UNL     1      -0.392  52.495 -21.257  1.00  0.00     0.010 C 
BRANCH  24  26
HETATM   26  C3  UNL     1       0.420  52.247 -23.626  1.00  0.00     0.007 C 
BRANCH  26  27
HETATM   27  C4  UNL     1      -0.205  53.445 -24.357  1.00  0.00     0.035 C 
BRANCH  27  28
HETATM   28  C5  UNL     1       0.223  53.623 -25.828  1.00  0.00     0.154 C 
BRANCH  28  29
HETATM   29  O1  UNL     1       0.210  55.028 -26.142  1.00  0.00    -0.392 OA
HETATM   30  H10 UNL     1       0.781  55.474 -25.489  1.00  0.00     0.210 HD
ENDBRANCH  28  29
BRANCH  28  31
HETATM   31  C6  UNL     1      -0.630  52.888 -26.904  1.00  0.00     0.101 C 
HETATM   32  C7  UNL     1      -0.140  51.461 -27.154  1.00  0.00     0.051 C 
BRANCH  31  33
HETATM   33  O2  UNL     1      -1.995  52.821 -26.457  1.00  0.00    -0.385 OA
HETATM   34  H14 UNL     1      -2.173  53.693 -26.054  1.00  0.00     0.210 HD
ENDBRANCH  31  33
BRANCH  31  35
HETATM   35  C8  UNL     1      -0.623  53.686 -28.230  1.00  0.00     0.204 C 
BRANCH  35  36
HETATM   36  O3  UNL     1      -1.841  54.396 -28.435  1.00  0.00    -0.398 OA
HETATM   37  H17 UNL     1      -2.233  54.054 -29.261  1.00  0.00     0.209 HD
ENDBRANCH  35  36
ENDBRANCH  31  35
ENDBRANCH  28  31
ENDBRANCH  27  28
ENDBRANCH  26  27
ENDBRANCH  24  26
ENDBRANCH   1  24
TORSDOF 9
ENDMDL
MODEL 8
REMARK minimizedAffinity -8.62584591
REMARK  9 active torsions:
REMARK  status: ('A' for Active; 'I' for Inactive)
REMARK    1  A    between atoms: C2_2  and  C3_3 
REMARK    2  A    between atoms: C2_2  and  C9_12 
REMARK    3  A    between atoms: C3_3  and  C4_4 
REMARK    4  A    between atoms: C4_4  and  C5_5 
REMARK    5  A    between atoms: C5_5  and  O1_6 
REMARK    6  A    between atoms: C5_5  and  C6_7 
REMARK    7  A    between atoms: C6_7  and  O2_9 
REMARK    8  A    between atoms: C6_7  and  C8_10 
REMARK    9  A    between atoms: C8_10  and  O3_11 
ROOT
HETATM    1  C9  UNL     1      -4.506  48.631 -21.863  1.00  0.00    -0.002 C 
HETATM    2  C10 UNL     1      -5.321  48.127 -23.090  1.00  0.00     0.007 C 
HETATM    3  C11 UNL     1      -4.508  48.479 -24.349  1.00  0.00     0.015 C 
HETATM    4  C12 UNL     1      -3.743  49.753 -23.948  1.00  0.00    -0.013 C 
HETATM    5  C13 UNL     1      -4.773  50.926 -24.032  1.00  0.00     0.021 C 
HETATM    6  C14 UNL     1      -2.571  50.219 -24.819  1.00  0.00    -0.070 C 
HETATM    7  C15 UNL     1      -2.600  50.087 -26.158  1.00  0.00    -0.022 C 
HETATM    8  C16 UNL     1      -1.679  50.835 -27.071  1.00  0.00     0.034 C 
HETATM    9  C17 UNL     1      -1.249  52.163 -26.411  1.00  0.00     0.013 C 
HETATM   10  C18 UNL     1      -0.579  53.178 -27.406  1.00  0.00     0.018 C 
HETATM   11  C19 UNL     1      -1.648  53.671 -28.418  1.00  0.00     0.023 C 
HETATM   12  C20 UNL     1       0.593  52.622 -28.232  1.00  0.00     0.023 C 
HETATM   13  C21 UNL     1      -0.076  54.406 -26.628  1.00  0.00     0.135 C 
HETATM   14  O4  UNL     1      -0.149  55.549 -27.087  1.00  0.00    -0.297 OA
HETATM   15  C22 UNL     1       0.634  54.170 -25.319  1.00  0.00     0.080 C 
HETATM   16  C23 UNL     1      -0.170  53.251 -24.412  1.00  0.00     0.017 C 
HETATM   17  C24 UNL     1      -0.512  51.884 -25.053  1.00  0.00    -0.031 C 
HETATM   18  C25 UNL     1       0.814  51.093 -25.243  1.00  0.00     0.016 C 
HETATM   19  C26 UNL     1      -1.430  50.966 -24.108  1.00  0.00     0.024 C 
HETATM   20  C27 UNL     1      -1.890  51.589 -22.770  1.00  0.00     0.010 C 
HETATM   21  C28 UNL     1      -2.690  50.645 -21.826  1.00  0.00     0.011 C 
HETATM   22  C29 UNL     1      -3.271  49.386 -22.499  1.00  0.00    -0.029 C 
HETATM   23  C30 UNL     1      -2.146  48.280 -22.481  1.00  0.00     0.016 C 
ENDROOT
BRANCH   1  24
HETATM   24  C2  UNL     1      -5.377  49.205 -20.707  1.00  0.00    -0.014 C 
HETATM   25  C1  UNL     1      -6.637  49.972 -21.114  1.00  0.00     0.010 C 
BRANCH  24  26
HETATM   26  C3  UNL     1      -4.590  50.027 -19.652  1.00  0.00     0.007 C 
BRANCH  26  27
HETATM   27  C4  UNL     1      -3.755  49.167 -18.691  1.00  0.00     0.035 C 
BRANCH  27  28
HETATM   28  C5  UNL     1      -2.660  49.919 -17.908  1.00  0.00     0.154 C 
BRANCH  28  29
HETATM   29  O1  UNL     1      -2.754  51.322 -18.221  1.00  0.00    -0.392 OA
HETATM   30  H10 UNL     1      -3.667  51.601 -18.023  1.00  0.00     0.210 HD
ENDBRANCH  28  29
BRANCH  28  31
HETATM   31  C6  UNL     1      -1.188  49.475 -18.153  1.00  0.00     0.101 C 
HETATM   32  C7  UNL     1      -0.458  49.146 -16.849  1.00  0.00     0.051 C 
BRANCH  31  33
HETATM   33  O2  UNL     1      -1.182  48.298 -18.979  1.00  0.00    -0.385 OA
HETATM   34  H14 UNL     1      -1.873  48.457 -19.651  1.00  0.00     0.210 HD
ENDBRANCH  31  33
BRANCH  31  35
HETATM   35  C8  UNL     1      -0.417  50.574 -18.922  1.00  0.00     0.204 C 
BRANCH  35  36
HETATM   36  O3  UNL     1       0.172  51.531 -18.046  1.00  0.00    -0.398 OA
HETATM   37  H17 UNL     1      -0.220  52.397 -18.268  1.00  0.00     0.209 HD
ENDBRANCH  35  36
ENDBRANCH  31  35
ENDBRANCH  28  31
ENDBRANCH  27  28
ENDBRANCH  26  27
ENDBRANCH  24  26
ENDBRANCH   1  24
TORSDOF 9
ENDMDL
MODEL 9
REMARK minimizedAffinity -8.58829689
REMARK  9 active torsions:
REMARK  status: ('A' for Active; 'I' for Inactive)
REMARK    1  A    between atoms: C2_2  and  C3_3 
REMARK    2  A    between atoms: C2_2  and  C9_12 
REMARK    3  A    between atoms: C3_3  and  C4_4 
REMARK    4  A    between atoms: C4_4  and  C5_5 
REMARK    5  A    between atoms: C5_5  and  O1_6 
REMARK    6  A    between atoms: C5_5  and  C6_7 
REMARK    7  A    between atoms: C6_7  and  O2_9 
REMARK    8  A    between atoms: C6_7  and  C8_10 
REMARK    9  A    between atoms: C8_10  and  O3_11 
ROOT
HETATM    1  C9  UNL     1      -2.544  50.467 -22.300  1.00  0.00    -0.002 C 
HETATM    2  C10 UNL     1      -2.901  48.952 -22.319  1.00  0.00     0.007 C 
HETATM    3  C11 UNL     1      -2.862  48.459 -20.860  1.00  0.00     0.015 C 
HETATM    4  C12 UNL     1      -1.807  49.362 -20.196  1.00  0.00    -0.013 C 
HETATM    5  C13 UNL     1      -0.415  48.808 -20.640  1.00  0.00     0.021 C 
HETATM    6  C14 UNL     1      -1.725  49.404 -18.667  1.00  0.00    -0.070 C 
HETATM    7  C15 UNL     1      -1.937  48.301 -17.925  1.00  0.00    -0.022 C 
HETATM    8  C16 UNL     1      -1.521  48.190 -16.492  1.00  0.00     0.034 C 
HETATM    9  C17 UNL     1      -0.309  49.108 -16.223  1.00  0.00     0.013 C 
HETATM   10  C18 UNL     1       0.424  48.810 -14.866  1.00  0.00     0.018 C 
HETATM   11  C19 UNL     1       1.108  47.420 -14.957  1.00  0.00     0.023 C 
HETATM   12  C20 UNL     1      -0.474  48.784 -13.618  1.00  0.00     0.023 C 
HETATM   13  C21 UNL     1       1.529  49.856 -14.637  1.00  0.00     0.135 C 
HETATM   14  O4  UNL     1       2.616  49.563 -14.134  1.00  0.00    -0.297 OA
HETATM   15  C22 UNL     1       1.207  51.300 -14.932  1.00  0.00     0.080 C 
HETATM   16  C23 UNL     1       0.595  51.457 -16.316  1.00  0.00     0.017 C 
HETATM   17  C24 UNL     1      -0.676  50.601 -16.538  1.00  0.00    -0.031 C 
HETATM   18  C25 UNL     1      -1.797  51.151 -15.609  1.00  0.00     0.016 C 
HETATM   19  C26 UNL     1      -1.255  50.723 -18.031  1.00  0.00     0.024 C 
HETATM   20  C27 UNL     1      -0.442  51.587 -19.022  1.00  0.00     0.010 C 
HETATM   21  C28 UNL     1      -1.077  51.775 -20.431  1.00  0.00     0.011 C 
HETATM   22  C29 UNL     1      -2.183  50.763 -20.790  1.00  0.00    -0.029 C 
HETATM   23  C30 UNL     1      -3.541  51.328 -20.217  1.00  0.00     0.016 C 
ENDROOT
BRANCH   1  24
HETATM   24  C2  UNL     1      -1.683  50.937 -23.510  1.00  0.00    -0.014 C 
HETATM   25  C1  UNL     1      -1.445  52.443 -23.638  1.00  0.00     0.010 C 
BRANCH  24  26
HETATM   26  C3  UNL     1      -2.132  50.365 -24.881  1.00  0.00     0.007 C 
BRANCH  26  27
HETATM   27  C4  UNL     1      -1.079  50.508 -25.989  1.00  0.00     0.035 C 
BRANCH  27  28
HETATM   28  C5  UNL     1      -1.313  51.661 -26.986  1.00  0.00     0.154 C 
BRANCH  28  29
HETATM   29  O1  UNL     1      -1.978  51.133 -28.149  1.00  0.00    -0.392 OA
HETATM   30  H10 UNL     1      -2.787  50.684 -27.840  1.00  0.00     0.210 HD
ENDBRANCH  28  29
BRANCH  28  31
HETATM   31  C6  UNL     1      -0.056  52.441 -27.470  1.00  0.00     0.101 C 
HETATM   32  C7  UNL     1       1.186  52.105 -26.644  1.00  0.00     0.051 C 
BRANCH  31  33
HETATM   33  O2  UNL     1       0.212  52.098 -28.841  1.00  0.00    -0.385 OA
HETATM   34  H14 UNL     1      -0.666  52.064 -29.270  1.00  0.00     0.210 HD
ENDBRANCH  31  33
BRANCH  31  35
HETATM   35  C8  UNL     1      -0.320  53.965 -27.426  1.00  0.00     0.204 C 
BRANCH  35  36
HETATM   36  O3  UNL     1       0.212  54.569 -26.250  1.00  0.00    -0.398 OA
HETATM   37  H17 UNL     1      -0.540  54.962 -25.769  1.00  0.00     0.209 HD
ENDBRANCH  35  36
ENDBRANCH  31  35
ENDBRANCH  28  31
ENDBRANCH  27  28
ENDBRANCH  26  27
ENDBRANCH  24  26
ENDBRANCH   1  24
TORSDOF 9
ENDMDL
