MODEL 1
REMARK minimizedAffinity -7.68295717
REMARK CNNscore 0.759404957
REMARK CNNaffinity 7.10453606
REMARK  4 active torsions:
REMARK  status: ('A' for Active; 'I' for Inactive)
REMARK    1  A    between atoms: C4_4  and  C5_5 
REMARK    2  A    between atoms: C5_5  and  C6_6 
REMARK    3  A    between atoms: C6_6  and  C7_7 
REMARK    4  A    between atoms: C7_7  and  C9_9 
ROOT
HETATM    1  C9  UNL     1       5.303  55.563  -7.768  1.00  0.00    -0.002 C 
HETATM    2  C10 UNL     1       6.164  54.971  -8.886  1.00  0.00     0.007 C 
HETATM    3  C11 UNL     1       5.174  54.150  -9.685  1.00  0.00     0.015 C 
HETATM    4  C12 UNL     1       3.943  55.075  -9.865  1.00  0.00    -0.013 C 
HETATM    5  C13 UNL     1       4.190  55.937 -11.132  1.00  0.00     0.021 C 
HETATM    6  C14 UNL     1       2.653  54.271 -10.143  1.00  0.00    -0.070 C 
HETATM    7  C15 UNL     1       2.677  53.139 -10.877  1.00  0.00    -0.022 C 
HETATM    8  C16 UNL     1       1.476  52.357 -11.311  1.00  0.00     0.034 C 
HETATM    9  C17 UNL     1       0.148  53.111 -11.112  1.00  0.00     0.013 C 
HETATM   10  C18 UNL     1      -1.111  52.250 -11.489  1.00  0.00     0.018 C 
HETATM   11  C19 UNL     1      -1.022  50.764 -11.094  1.00  0.00     0.023 C 
HETATM   12  C20 UNL     1      -1.328  52.302 -13.018  1.00  0.00     0.023 C 
HETATM   13  C21 UNL     1      -2.360  52.867 -10.856  1.00  0.00     0.135 C 
HETATM   14  O1  UNL     1      -3.391  52.228 -10.656  1.00  0.00    -0.297 OA
HETATM   15  C22 UNL     1      -2.295  54.340 -10.554  1.00  0.00     0.080 C 
HETATM   16  C23 UNL     1      -1.226  54.609  -9.510  1.00  0.00     0.017 C 
HETATM   17  C24 UNL     1       0.110  53.818  -9.708  1.00  0.00    -0.031 C 
HETATM   18  C25 UNL     1       0.225  52.778  -8.561  1.00  0.00     0.016 C 
HETATM   19  C26 UNL     1       1.323  54.848  -9.660  1.00  0.00     0.024 C 
HETATM   20  C27 UNL     1       1.415  55.588  -8.305  1.00  0.00     0.010 C 
HETATM   21  C28 UNL     1       2.763  55.437  -7.615  1.00  0.00     0.011 C 
HETATM   22  C29 UNL     1       3.937  55.918  -8.503  1.00  0.00    -0.029 C 
HETATM   23  C30 UNL     1       3.794  57.437  -8.762  1.00  0.00     0.016 C 
ENDROOT
BRANCH   1  24
HETATM   24  C7  UNL     1       6.037  56.667  -6.936  1.00  0.00    -0.014 C 
HETATM   25  C8  UNL     1       5.230  57.052  -5.690  1.00  0.00     0.010 C 
BRANCH  24  26
HETATM   26  C6  UNL     1       7.473  56.217  -6.539  1.00  0.00     0.008 C 
BRANCH  26  27
HETATM   27  C5  UNL     1       8.097  56.935  -5.330  1.00  0.00     0.028 C 
BRANCH  27  28
HETATM   28  C4  UNL     1       9.531  56.552  -5.074  1.00  0.00    -0.025 C 
HETATM   29  C2  UNL     1      10.584  57.363  -4.851  1.00  0.00    -0.091 C 
HETATM   30  C1  UNL     1      11.959  56.785  -4.627  1.00  0.00     0.042 C 
HETATM   31  C3  UNL     1      10.537  58.864  -4.803  1.00  0.00     0.042 C 
ENDBRANCH  27  28
ENDBRANCH  26  27
ENDBRANCH  24  26
ENDBRANCH   1  24
TORSDOF 4
ENDMDL
MODEL 2
REMARK minimizedAffinity -7.04848766
REMARK CNNscore 0.651437521
REMARK CNNaffinity 6.78798246
REMARK  4 active torsions:
REMARK  status: ('A' for Active; 'I' for Inactive)
REMARK    1  A    between atoms: C4_4  and  C5_5 
REMARK    2  A    between atoms: C5_5  and  C6_6 
REMARK    3  A    between atoms: C6_6  and  C7_7 
REMARK    4  A    between atoms: C7_7  and  C9_9 
ROOT
HETATM    1  C9  UNL     1       3.467  55.381  -8.180  1.00  0.00    -0.002 C 
HETATM    2  C10 UNL     1       4.347  54.130  -8.224  1.00  0.00     0.007 C 
HETATM    3  C11 UNL     1       3.354  53.019  -8.492  1.00  0.00     0.015 C 
HETATM    4  C12 UNL     1       2.458  53.554  -9.638  1.00  0.00    -0.013 C 
HETATM    5  C13 UNL     1       3.156  53.198 -10.978  1.00  0.00     0.021 C 
HETATM    6  C14 UNL     1       1.084  52.847  -9.675  1.00  0.00    -0.070 C 
HETATM    7  C15 UNL     1       0.960  51.540  -9.363  1.00  0.00    -0.022 C 
HETATM    8  C16 UNL     1      -0.294  50.731  -9.487  1.00  0.00     0.034 C 
HETATM    9  C17 UNL     1      -1.399  51.431 -10.301  1.00  0.00     0.013 C 
HETATM   10  C18 UNL     1      -2.738  50.612 -10.352  1.00  0.00     0.018 C 
HETATM   11  C19 UNL     1      -3.110  49.894  -9.041  1.00  0.00     0.023 C 
HETATM   12  C20 UNL     1      -2.636  49.531 -11.451  1.00  0.00     0.023 C 
HETATM   13  C21 UNL     1      -3.886  51.537 -10.764  1.00  0.00     0.135 C 
HETATM   14  O1  UNL     1      -5.065  51.285 -10.521  1.00  0.00    -0.297 OA
HETATM   15  C22 UNL     1      -3.507  52.754 -11.564  1.00  0.00     0.080 C 
HETATM   16  C23 UNL     1      -2.627  53.669 -10.730  1.00  0.00     0.017 C 
HETATM   17  C24 UNL     1      -1.525  52.944  -9.888  1.00  0.00    -0.031 C 
HETATM   18  C25 UNL     1      -1.902  53.080  -8.388  1.00  0.00     0.016 C 
HETATM   19  C26 UNL     1      -0.122  53.637 -10.181  1.00  0.00     0.024 C 
HETATM   20  C27 UNL     1      -0.107  55.130  -9.783  1.00  0.00     0.010 C 
HETATM   21  C28 UNL     1       0.999  55.492  -8.802  1.00  0.00     0.011 C 
HETATM   22  C29 UNL     1       2.405  55.126  -9.337  1.00  0.00    -0.029 C 
HETATM   23  C30 UNL     1       2.707  55.969 -10.599  1.00  0.00     0.016 C 
ENDROOT
BRANCH   1  24
HETATM   24  C7  UNL     1       4.284  56.716  -8.167  1.00  0.00    -0.014 C 
HETATM   25  C8  UNL     1       3.494  57.844  -7.492  1.00  0.00     0.010 C 
BRANCH  24  26
HETATM   26  C6  UNL     1       5.667  56.529  -7.478  1.00  0.00     0.008 C 
BRANCH  26  27
HETATM   27  C5  UNL     1       5.711  56.803  -5.965  1.00  0.00     0.028 C 
BRANCH  27  28
HETATM   28  C4  UNL     1       6.661  57.906  -5.579  1.00  0.00    -0.025 C 
HETATM   29  C2  UNL     1       7.970  57.811  -5.271  1.00  0.00    -0.091 C 
HETATM   30  C1  UNL     1       8.756  59.040  -4.893  1.00  0.00     0.042 C 
HETATM   31  C3  UNL     1       8.774  56.542  -5.259  1.00  0.00     0.042 C 
ENDBRANCH  27  28
ENDBRANCH  26  27
ENDBRANCH  24  26
ENDBRANCH   1  24
TORSDOF 4
ENDMDL
MODEL 3
REMARK minimizedAffinity -6.91854143
REMARK CNNscore 0.577594519
REMARK CNNaffinity 6.58671951
REMARK  4 active torsions:
REMARK  status: ('A' for Active; 'I' for Inactive)
REMARK    1  A    between atoms: C4_4  and  C5_5 
REMARK    2  A    between atoms: C5_5  and  C6_6 
REMARK    3  A    between atoms: C6_6  and  C7_7 
REMARK    4  A    between atoms: C7_7  and  C9_9 
ROOT
HETATM    1  C9  UNL     1      -3.671  51.023  -9.966  1.00  0.00    -0.002 C 
HETATM    2  C10 UNL     1      -4.289  52.174 -10.763  1.00  0.00     0.007 C 
HETATM    3  C11 UNL     1      -3.194  53.220 -10.762  1.00  0.00     0.015 C 
HETATM    4  C12 UNL     1      -1.901  52.444 -11.121  1.00  0.00    -0.013 C 
HETATM    5  C13 UNL     1      -1.801  52.398 -12.669  1.00  0.00     0.021 C 
HETATM    6  C14 UNL     1      -0.632  53.180 -10.634  1.00  0.00    -0.070 C 
HETATM    7  C15 UNL     1      -0.557  54.527 -10.644  1.00  0.00    -0.022 C 
HETATM    8  C16 UNL     1       0.662  55.333 -10.317  1.00  0.00     0.034 C 
HETATM    9  C17 UNL     1       1.954  54.495 -10.254  1.00  0.00     0.013 C 
HETATM   10  C18 UNL     1       3.211  55.334  -9.826  1.00  0.00     0.018 C 
HETATM   11  C19 UNL     1       2.946  56.392  -8.738  1.00  0.00     0.023 C 
HETATM   12  C20 UNL     1       3.773  56.080 -11.057  1.00  0.00     0.023 C 
HETATM   13  C21 UNL     1       4.318  54.389  -9.352  1.00  0.00     0.135 C 
HETATM   14  O1  UNL     1       5.237  54.753  -8.620  1.00  0.00    -0.297 OA
HETATM   15  C22 UNL     1       4.275  52.987  -9.897  1.00  0.00     0.080 C 
HETATM   16  C23 UNL     1       3.014  52.286  -9.424  1.00  0.00     0.017 C 
HETATM   17  C24 UNL     1       1.714  53.154  -9.468  1.00  0.00    -0.031 C 
HETATM   18  C25 UNL     1       1.278  53.439  -8.006  1.00  0.00     0.016 C 
HETATM   19  C26 UNL     1       0.585  52.343 -10.245  1.00  0.00     0.024 C 
HETATM   20  C27 UNL     1       0.232  51.009  -9.546  1.00  0.00     0.010 C 
HETATM   21  C28 UNL     1      -1.244  50.869  -9.204  1.00  0.00     0.011 C 
HETATM   22  C29 UNL     1      -2.155  51.012 -10.448  1.00  0.00    -0.029 C 
HETATM   23  C30 UNL     1      -1.865  49.851 -11.430  1.00  0.00     0.016 C 
ENDROOT
BRANCH   1  24
HETATM   24  C7  UNL     1      -4.507  49.701 -10.032  1.00  0.00    -0.014 C 
HETATM   25  C8  UNL     1      -4.227  48.807  -8.818  1.00  0.00     0.010 C 
BRANCH  24  26
HETATM   26  C6  UNL     1      -6.029  49.999 -10.152  1.00  0.00     0.008 C 
BRANCH  26  27
HETATM   27  C5  UNL     1      -6.871  48.940 -10.884  1.00  0.00     0.028 C 
BRANCH  27  28
HETATM   28  C4  UNL     1      -8.323  48.940 -10.486  1.00  0.00    -0.025 C 
HETATM   29  C2  UNL     1      -8.956  48.104  -9.639  1.00  0.00    -0.091 C 
HETATM   30  C1  UNL     1     -10.432  48.257  -9.376  1.00  0.00     0.042 C 
HETATM   31  C3  UNL     1      -8.316  46.969  -8.890  1.00  0.00     0.042 C 
ENDBRANCH  27  28
ENDBRANCH  26  27
ENDBRANCH  24  26
ENDBRANCH   1  24
TORSDOF 4
ENDMDL
MODEL 4
REMARK minimizedAffinity -6.95346022
REMARK CNNscore 0.449921042
REMARK CNNaffinity 6.41769075
REMARK  4 active torsions:
REMARK  status: ('A' for Active; 'I' for Inactive)
REMARK    1  A    between atoms: C4_4  and  C5_5 
REMARK    2  A    between atoms: C5_5  and  C6_6 
REMARK    3  A    between atoms: C6_6  and  C7_7 
REMARK    4  A    between atoms: C7_7  and  C9_9 
ROOT
HETATM    1  C9  UNL     1       5.286  55.601  -7.805  1.00  0.00    -0.002 C 
HETATM    2  C10 UNL     1       6.148  55.058  -8.947  1.00  0.00     0.007 C 
HETATM    3  C11 UNL     1       5.169  54.231  -9.755  1.00  0.00     0.015 C 
HETATM    4  C12 UNL     1       3.913  55.128  -9.897  1.00  0.00    -0.013 C 
HETATM    5  C13 UNL     1       4.123  56.026 -11.146  1.00  0.00     0.021 C 
HETATM    6  C14 UNL     1       2.640  54.298 -10.180  1.00  0.00    -0.070 C 
HETATM    7  C15 UNL     1       2.684  53.185 -10.941  1.00  0.00    -0.022 C 
HETATM    8  C16 UNL     1       1.498  52.383 -11.379  1.00  0.00     0.034 C 
HETATM    9  C17 UNL     1       0.153  53.099 -11.148  1.00  0.00     0.013 C 
HETATM   10  C18 UNL     1      -1.088  52.215 -11.530  1.00  0.00     0.018 C 
HETATM   11  C19 UNL     1      -0.957  50.722 -11.172  1.00  0.00     0.023 C 
HETATM   12  C20 UNL     1      -1.325  52.298 -13.055  1.00  0.00     0.023 C 
HETATM   13  C21 UNL     1      -2.344  52.785 -10.868  1.00  0.00     0.135 C 
HETATM   14  O1  UNL     1      -3.357  52.115 -10.672  1.00  0.00    -0.297 OA
HETATM   15  C22 UNL     1      -2.313  54.251 -10.532  1.00  0.00     0.080 C 
HETATM   16  C23 UNL     1      -1.238  54.522  -9.493  1.00  0.00     0.017 C 
HETATM   17  C24 UNL     1       0.114  53.771  -9.726  1.00  0.00    -0.031 C 
HETATM   18  C25 UNL     1       0.270  52.708  -8.605  1.00  0.00     0.016 C 
HETATM   19  C26 UNL     1       1.302  54.829  -9.667  1.00  0.00     0.024 C 
HETATM   20  C27 UNL     1       1.392  55.539  -8.297  1.00  0.00     0.010 C 
HETATM   21  C28 UNL     1       2.751  55.407  -7.626  1.00  0.00     0.011 C 
HETATM   22  C29 UNL     1       3.903  55.938  -8.515  1.00  0.00    -0.029 C 
HETATM   23  C30 UNL     1       3.718  57.458  -8.736  1.00  0.00     0.016 C 
ENDROOT
BRANCH   1  24
HETATM   24  C7  UNL     1       6.002  56.703  -6.955  1.00  0.00    -0.014 C 
HETATM   25  C8  UNL     1       5.103  57.196  -5.815  1.00  0.00     0.010 C 
BRANCH  24  26
HETATM   26  C6  UNL     1       7.362  56.194  -6.397  1.00  0.00     0.008 C 
BRANCH  26  27
HETATM   27  C5  UNL     1       7.284  55.095  -5.323  1.00  0.00     0.028 C 
BRANCH  27  28
HETATM   28  C4  UNL     1       6.129  54.148  -5.511  1.00  0.00    -0.025 C 
HETATM   29  C2  UNL     1       6.166  52.835  -5.816  1.00  0.00    -0.091 C 
HETATM   30  C1  UNL     1       4.887  52.052  -5.978  1.00  0.00     0.042 C 
HETATM   31  C3  UNL     1       7.412  52.023  -6.029  1.00  0.00     0.042 C 
ENDBRANCH  27  28
ENDBRANCH  26  27
ENDBRANCH  24  26
ENDBRANCH   1  24
TORSDOF 4
ENDMDL
MODEL 5
REMARK minimizedAffinity -7.6108551
REMARK CNNscore 0.387077093
REMARK CNNaffinity 6.72873163
REMARK  4 active torsions:
REMARK  status: ('A' for Active; 'I' for Inactive)
REMARK    1  A    between atoms: C4_4  and  C5_5 
REMARK    2  A    between atoms: C5_5  and  C6_6 
REMARK    3  A    between atoms: C6_6  and  C7_7 
REMARK    4  A    between atoms: C7_7  and  C9_9 
ROOT
HETATM    1  C9  UNL     1       1.288  51.496 -15.427  1.00  0.00    -0.002 C 
HETATM    2  C10 UNL     1       2.815  51.457 -15.340  1.00  0.00     0.007 C 
HETATM    3  C11 UNL     1       3.102  52.112 -14.005  1.00  0.00     0.015 C 
HETATM    4  C12 UNL     1       2.107  51.451 -13.016  1.00  0.00    -0.013 C 
HETATM    5  C13 UNL     1       2.775  50.157 -12.479  1.00  0.00     0.021 C 
HETATM    6  C14 UNL     1       1.847  52.340 -11.779  1.00  0.00    -0.070 C 
HETATM    7  C15 UNL     1       2.826  53.099 -11.243  1.00  0.00    -0.022 C 
HETATM    8  C16 UNL     1       2.718  53.894  -9.979  1.00  0.00     0.034 C 
HETATM    9  C17 UNL     1       1.474  53.545  -9.139  1.00  0.00     0.013 C 
HETATM   10  C18 UNL     1       1.325  54.444  -7.859  1.00  0.00     0.018 C 
HETATM   11  C19 UNL     1       1.711  55.923  -8.056  1.00  0.00     0.023 C 
HETATM   12  C20 UNL     1       2.223  53.885  -6.733  1.00  0.00     0.023 C 
HETATM   13  C21 UNL     1      -0.114  54.363  -7.344  1.00  0.00     0.135 C 
HETATM   14  O1  UNL     1      -0.613  55.223  -6.620  1.00  0.00    -0.297 OA
HETATM   15  C22 UNL     1      -0.880  53.119  -7.703  1.00  0.00     0.080 C 
HETATM   16  C23 UNL     1      -1.063  53.039  -9.209  1.00  0.00     0.017 C 
HETATM   17  C24 UNL     1       0.199  53.420 -10.051  1.00  0.00    -0.031 C 
HETATM   18  C25 UNL     1      -0.096  54.759 -10.779  1.00  0.00     0.016 C 
HETATM   19  C26 UNL     1       0.479  52.257 -11.103  1.00  0.00     0.024 C 
HETATM   20  C27 UNL     1      -0.696  52.057 -12.087  1.00  0.00     0.010 C 
HETATM   21  C28 UNL     1      -0.297  52.174 -13.551  1.00  0.00     0.011 C 
HETATM   22  C29 UNL     1       0.825  51.180 -13.938  1.00  0.00    -0.029 C 
HETATM   23  C30 UNL     1       0.299  49.732 -13.788  1.00  0.00     0.016 C 
ENDROOT
BRANCH   1  24
HETATM   24  C7  UNL     1       0.710  50.647 -16.608  1.00  0.00    -0.014 C 
HETATM   25  C8  UNL     1      -0.085  49.443 -16.089  1.00  0.00     0.010 C 
BRANCH  24  26
HETATM   26  C6  UNL     1      -0.169  51.515 -17.554  1.00  0.00     0.008 C 
BRANCH  26  27
HETATM   27  C5  UNL     1       0.590  52.416 -18.544  1.00  0.00     0.028 C 
BRANCH  27  28
HETATM   28  C4  UNL     1       0.259  52.140 -19.987  1.00  0.00    -0.025 C 
HETATM   29  C2  UNL     1       0.565  52.881 -21.070  1.00  0.00    -0.091 C 
HETATM   30  C1  UNL     1       0.129  52.441 -22.445  1.00  0.00     0.042 C 
HETATM   31  C3  UNL     1       1.334  54.172 -21.057  1.00  0.00     0.042 C 
ENDBRANCH  27  28
ENDBRANCH  26  27
ENDBRANCH  24  26
ENDBRANCH   1  24
TORSDOF 4
ENDMDL
MODEL 6
REMARK minimizedAffinity -8.58360767
REMARK CNNscore 0.381532848
REMARK CNNaffinity 5.83646393
REMARK  4 active torsions:
REMARK  status: ('A' for Active; 'I' for Inactive)
REMARK    1  A    between atoms: C4_4  and  C5_5 
REMARK    2  A    between atoms: C5_5  and  C6_6 
REMARK    3  A    between atoms: C6_6  and  C7_7 
REMARK    4  A    between atoms: C7_7  and  C9_9 
ROOT
HETATM    1  C9  UNL     1       6.486  65.218 -36.189  1.00  0.00    -0.002 C 
HETATM    2  C10 UNL     1       7.480  65.718 -37.240  1.00  0.00     0.007 C 
HETATM    3  C11 UNL     1       6.586  66.343 -38.291  1.00  0.00     0.015 C 
HETATM    4  C12 UNL     1       5.579  67.210 -37.492  1.00  0.00    -0.013 C 
HETATM    5  C13 UNL     1       6.233  68.602 -37.277  1.00  0.00     0.021 C 
HETATM    6  C14 UNL     1       4.280  67.469 -38.288  1.00  0.00    -0.070 C 
HETATM    7  C15 UNL     1       4.301  67.636 -39.627  1.00  0.00    -0.022 C 
HETATM    8  C16 UNL     1       3.127  68.016 -40.475  1.00  0.00     0.034 C 
HETATM    9  C17 UNL     1       1.916  68.510 -39.661  1.00  0.00     0.013 C 
HETATM   10  C18 UNL     1       0.661  68.823 -40.554  1.00  0.00     0.018 C 
HETATM   11  C19 UNL     1       0.435  67.844 -41.721  1.00  0.00     0.023 C 
HETATM   12  C20 UNL     1       0.807  70.234 -41.165  1.00  0.00     0.023 C 
HETATM   13  C21 UNL     1      -0.592  68.860 -39.677  1.00  0.00     0.135 C 
HETATM   14  O1  UNL     1      -1.726  68.701 -40.127  1.00  0.00    -0.297 OA
HETATM   15  C22 UNL     1      -0.378  69.185 -38.223  1.00  0.00     0.080 C 
HETATM   16  C23 UNL     1       0.454  68.098 -37.566  1.00  0.00     0.017 C 
HETATM   17  C24 UNL     1       1.666  67.587 -38.412  1.00  0.00    -0.031 C 
HETATM   18  C25 UNL     1       1.362  66.130 -38.852  1.00  0.00     0.016 C 
HETATM   19  C26 UNL     1       2.977  67.642 -37.510  1.00  0.00     0.024 C 
HETATM   20  C27 UNL     1       2.869  66.742 -36.258  1.00  0.00     0.010 C 
HETATM   21  C28 UNL     1       3.988  65.716 -36.142  1.00  0.00     0.011 C 
HETATM   22  C29 UNL     1       5.391  66.371 -36.140  1.00  0.00    -0.029 C 
HETATM   23  C30 UNL     1       5.538  67.260 -34.881  1.00  0.00     0.016 C 
ENDROOT
BRANCH   1  24
HETATM   24  C7  UNL     1       7.169  64.750 -34.861  1.00  0.00    -0.014 C 
HETATM   25  C8  UNL     1       6.127  64.290 -33.834  1.00  0.00     0.010 C 
BRANCH  24  26
HETATM   26  C6  UNL     1       8.210  63.624 -35.125  1.00  0.00     0.008 C 
BRANCH  26  27
HETATM   27  C5  UNL     1       8.327  62.542 -34.038  1.00  0.00     0.028 C 
BRANCH  27  28
HETATM   28  C4  UNL     1       8.223  61.137 -34.571  1.00  0.00    -0.025 C 
HETATM   29  C2  UNL     1       7.111  60.425 -34.838  1.00  0.00    -0.091 C 
HETATM   30  C1  UNL     1       7.214  59.014 -35.358  1.00  0.00     0.042 C 
HETATM   31  C3  UNL     1       5.699  60.910 -34.660  1.00  0.00     0.042 C 
ENDBRANCH  27  28
ENDBRANCH  26  27
ENDBRANCH  24  26
ENDBRANCH   1  24
TORSDOF 4
ENDMDL
MODEL 7
REMARK minimizedAffinity -7.20373964
REMARK CNNscore 0.342837721
REMARK CNNaffinity 5.78864908
REMARK  4 active torsions:
REMARK  status: ('A' for Active; 'I' for Inactive)
REMARK    1  A    between atoms: C4_4  and  C5_5 
REMARK    2  A    between atoms: C5_5  and  C6_6 
REMARK    3  A    between atoms: C6_6  and  C7_7 
REMARK    4  A    between atoms: C7_7  and  C9_9 
ROOT
HETATM    1  C9  UNL     1     -12.275  46.569 -26.741  1.00  0.00    -0.002 C 
HETATM    2  C10 UNL     1     -12.948  47.727 -27.480  1.00  0.00     0.007 C 
HETATM    3  C11 UNL     1     -11.879  48.184 -28.451  1.00  0.00     0.015 C 
HETATM    4  C12 UNL     1     -11.336  46.880 -29.088  1.00  0.00    -0.013 C 
HETATM    5  C13 UNL     1     -12.240  46.544 -30.304  1.00  0.00     0.021 C 
HETATM    6  C14 UNL     1      -9.910  47.065 -29.656  1.00  0.00    -0.070 C 
HETATM    7  C15 UNL     1      -9.530  48.227 -30.227  1.00  0.00    -0.022 C 
HETATM    8  C16 UNL     1      -8.224  48.470 -30.919  1.00  0.00     0.034 C 
HETATM    9  C17 UNL     1      -7.433  47.181 -31.209  1.00  0.00     0.013 C 
HETATM   10  C18 UNL     1      -6.028  47.453 -31.856  1.00  0.00     0.018 C 
HETATM   11  C19 UNL     1      -5.285  48.683 -31.300  1.00  0.00     0.023 C 
HETATM   12  C20 UNL     1      -6.198  47.673 -33.376  1.00  0.00     0.023 C 
HETATM   13  C21 UNL     1      -5.144  46.215 -31.696  1.00  0.00     0.135 C 
HETATM   14  O1  UNL     1      -3.916  46.260 -31.751  1.00  0.00    -0.297 OA
HETATM   15  C22 UNL     1      -5.860  44.900 -31.544  1.00  0.00     0.080 C 
HETATM   16  C23 UNL     1      -6.671  44.897 -30.260  1.00  0.00     0.017 C 
HETATM   17  C24 UNL     1      -7.449  46.221 -29.963  1.00  0.00    -0.031 C 
HETATM   18  C25 UNL     1      -6.789  46.900 -28.733  1.00  0.00     0.016 C 
HETATM   19  C26 UNL     1      -8.970  45.861 -29.659  1.00  0.00     0.024 C 
HETATM   20  C27 UNL     1      -9.123  44.943 -28.424  1.00  0.00     0.010 C 
HETATM   21  C28 UNL     1     -10.038  45.510 -27.348  1.00  0.00     0.011 C 
HETATM   22  C29 UNL     1     -11.455  45.827 -27.886  1.00  0.00    -0.029 C 
HETATM   23  C30 UNL     1     -12.138  44.513 -28.333  1.00  0.00     0.016 C 
ENDROOT
BRANCH   1  24
HETATM   24  C7  UNL     1     -13.260  45.745 -25.846  1.00  0.00    -0.014 C 
HETATM   25  C8  UNL     1     -12.537  45.139 -24.637  1.00  0.00     0.010 C 
BRANCH  24  26
HETATM   26  C6  UNL     1     -14.465  46.614 -25.383  1.00  0.00     0.008 C 
BRANCH  26  27
HETATM   27  C5  UNL     1     -15.212  46.121 -24.131  1.00  0.00     0.028 C 
BRANCH  27  28
HETATM   28  C4  UNL     1     -16.606  46.675 -24.003  1.00  0.00    -0.025 C 
HETATM   29  C2  UNL     1     -17.692  46.384 -24.747  1.00  0.00    -0.091 C 
HETATM   30  C1  UNL     1     -19.011  47.060 -24.470  1.00  0.00     0.042 C 
HETATM   31  C3  UNL     1     -17.733  45.406 -25.887  1.00  0.00     0.042 C 
ENDBRANCH  27  28
ENDBRANCH  26  27
ENDBRANCH  24  26
ENDBRANCH   1  24
TORSDOF 4
ENDMDL
MODEL 8
REMARK minimizedAffinity -7.2454586
REMARK CNNscore 0.317860782
REMARK CNNaffinity 5.39951515
REMARK  4 active torsions:
REMARK  status: ('A' for Active; 'I' for Inactive)
REMARK    1  A    between atoms: C4_4  and  C5_5 
REMARK    2  A    between atoms: C5_5  and  C6_6 
REMARK    3  A    between atoms: C6_6  and  C7_7 
REMARK    4  A    between atoms: C7_7  and  C9_9 
ROOT
HETATM    1  C9  UNL     1       6.063  66.315 -37.052  1.00  0.00    -0.002 C 
HETATM    2  C10 UNL     1       6.930  66.599 -38.280  1.00  0.00     0.007 C 
HETATM    3  C11 UNL     1       5.920  67.023 -39.325  1.00  0.00     0.015 C 
HETATM    4  C12 UNL     1       4.996  68.034 -38.598  1.00  0.00    -0.013 C 
HETATM    5  C13 UNL     1       5.653  69.435 -38.722  1.00  0.00     0.021 C 
HETATM    6  C14 UNL     1       3.615  68.150 -39.282  1.00  0.00    -0.070 C 
HETATM    7  C15 UNL     1       3.488  68.063 -40.622  1.00  0.00    -0.022 C 
HETATM    8  C16 UNL     1       2.224  68.286 -41.393  1.00  0.00     0.034 C 
HETATM    9  C17 UNL     1       1.103  68.935 -40.559  1.00  0.00     0.013 C 
HETATM   10  C18 UNL     1      -0.245  69.086 -41.352  1.00  0.00     0.018 C 
HETATM   11  C19 UNL     1      -0.586  67.907 -42.283  1.00  0.00     0.023 C 
HETATM   12  C20 UNL     1      -0.184  70.356 -42.230  1.00  0.00     0.023 C 
HETATM   13  C21 UNL     1      -1.396  69.299 -40.366  1.00  0.00     0.135 C 
HETATM   14  O1  UNL     1      -2.570  69.068 -40.651  1.00  0.00    -0.297 OA
HETATM   15  C22 UNL     1      -1.029  69.890 -39.031  1.00  0.00     0.080 C 
HETATM   16  C23 UNL     1      -0.116  68.939 -38.276  1.00  0.00     0.017 C 
HETATM   17  C24 UNL     1       1.002  68.266 -39.139  1.00  0.00    -0.031 C 
HETATM   18  C25 UNL     1       0.669  66.755 -39.261  1.00  0.00     0.016 C 
HETATM   19  C26 UNL     1       2.403  68.478 -38.412  1.00  0.00     0.024 C 
HETATM   20  C27 UNL     1       2.443  67.831 -37.009  1.00  0.00     0.010 C 
HETATM   21  C28 UNL     1       3.579  66.835 -36.826  1.00  0.00     0.011 C 
HETATM   22  C29 UNL     1       4.966  67.466 -37.100  1.00  0.00    -0.029 C 
HETATM   23  C30 UNL     1       5.239  68.574 -36.055  1.00  0.00     0.016 C 
ENDROOT
BRANCH   1  24
HETATM   24  C7  UNL     1       6.892  66.099 -35.741  1.00  0.00    -0.014 C 
HETATM   25  C8  UNL     1       5.994  65.644 -34.585  1.00  0.00     0.010 C 
BRANCH  24  26
HETATM   26  C6  UNL     1       8.051  65.084 -35.965  1.00  0.00     0.008 C 
BRANCH  26  27
HETATM   27  C5  UNL     1       8.043  63.839 -35.061  1.00  0.00     0.028 C 
BRANCH  27  28
HETATM   28  C4  UNL     1       9.113  63.855 -34.002  1.00  0.00    -0.025 C 
HETATM   29  C2  UNL     1       9.865  62.828 -33.559  1.00  0.00    -0.091 C 
HETATM   30  C1  UNL     1      10.886  63.042 -32.470  1.00  0.00     0.042 C 
HETATM   31  C3  UNL     1       9.790  61.412 -34.057  1.00  0.00     0.042 C 
ENDBRANCH  27  28
ENDBRANCH  26  27
ENDBRANCH  24  26
ENDBRANCH   1  24
TORSDOF 4
ENDMDL
MODEL 9
REMARK minimizedAffinity -6.82182455
REMARK CNNscore 0.302008927
REMARK CNNaffinity 6.66976309
REMARK  4 active torsions:
REMARK  status: ('A' for Active; 'I' for Inactive)
REMARK    1  A    between atoms: C4_4  and  C5_5 
REMARK    2  A    between atoms: C5_5  and  C6_6 
REMARK    3  A    between atoms: C6_6  and  C7_7 
REMARK    4  A    between atoms: C7_7  and  C9_9 
ROOT
HETATM    1  C9  UNL     1       1.014  55.105  -9.275  1.00  0.00    -0.002 C 
HETATM    2  C10 UNL     1      -0.462  55.461  -9.090  1.00  0.00     0.007 C 
HETATM    3  C11 UNL     1      -1.147  54.671 -10.186  1.00  0.00     0.015 C 
HETATM    4  C12 UNL     1      -0.526  53.253 -10.102  1.00  0.00    -0.013 C 
HETATM    5  C13 UNL     1      -1.347  52.446  -9.062  1.00  0.00     0.021 C 
HETATM    6  C14 UNL     1      -0.658  52.485 -11.437  1.00  0.00    -0.070 C 
HETATM    7  C15 UNL     1      -1.746  52.629 -12.223  1.00  0.00    -0.022 C 
HETATM    8  C16 UNL     1      -2.032  51.842 -13.464  1.00  0.00     0.034 C 
HETATM    9  C17 UNL     1      -1.124  50.610 -13.634  1.00  0.00     0.013 C 
HETATM   10  C18 UNL     1      -1.374  49.842 -14.982  1.00  0.00     0.018 C 
HETATM   11  C19 UNL     1      -1.658  50.743 -16.199  1.00  0.00     0.023 C 
HETATM   12  C20 UNL     1      -2.590  48.903 -14.817  1.00  0.00     0.023 C 
HETATM   13  C21 UNL     1      -0.174  48.944 -15.288  1.00  0.00     0.135 C 
HETATM   14  O1  UNL     1       0.082  48.536 -16.419  1.00  0.00    -0.297 OA
HETATM   15  C22 UNL     1       0.650  48.508 -14.106  1.00  0.00     0.080 C 
HETATM   16  C23 UNL     1       1.298  49.716 -13.452  1.00  0.00     0.017 C 
HETATM   17  C24 UNL     1       0.373  50.969 -13.308  1.00  0.00    -0.031 C 
HETATM   18  C25 UNL     1       0.902  52.068 -14.268  1.00  0.00     0.016 C 
HETATM   19  C26 UNL     1       0.424  51.469 -11.797  1.00  0.00     0.024 C 
HETATM   20  C27 UNL     1       1.847  51.887 -11.362  1.00  0.00     0.010 C 
HETATM   21  C28 UNL     1       1.933  53.312 -10.834  1.00  0.00     0.011 C 
HETATM   22  C29 UNL     1       0.978  53.557  -9.640  1.00  0.00    -0.029 C 
HETATM   23  C30 UNL     1       1.410  52.668  -8.450  1.00  0.00     0.016 C 
ENDROOT
BRANCH   1  24
HETATM   24  C7  UNL     1       1.924  55.596  -8.100  1.00  0.00    -0.014 C 
HETATM   25  C8  UNL     1       2.558  54.413  -7.358  1.00  0.00     0.010 C 
BRANCH  24  26
HETATM   26  C6  UNL     1       3.022  56.577  -8.605  1.00  0.00     0.008 C 
BRANCH  26  27
HETATM   27  C5  UNL     1       3.605  56.280  -9.997  1.00  0.00     0.028 C 
BRANCH  27  28
HETATM   28  C4  UNL     1       4.741  55.292  -9.978  1.00  0.00    -0.025 C 
HETATM   29  C2  UNL     1       5.743  55.189  -9.082  1.00  0.00    -0.091 C 
HETATM   30  C1  UNL     1       6.806  54.132  -9.243  1.00  0.00     0.042 C 
HETATM   31  C3  UNL     1       5.928  56.064  -7.874  1.00  0.00     0.042 C 
ENDBRANCH  27  28
ENDBRANCH  26  27
ENDBRANCH  24  26
ENDBRANCH   1  24
TORSDOF 4
ENDMDL
