MODEL 1
REMARK minimizedAffinity -8.90446568
REMARK  9 active torsions:
REMARK  status: ('A' for Active; 'I' for Inactive)
REMARK    1  A    between atoms: C11_11  and  C13_13 
REMARK    2  A    between atoms: C13_13  and  O2_15 
REMARK    3  A    between atoms: C15_17  and  C16_18 
REMARK    4  A    between atoms: C16_18  and  C17_19 
REMARK    5  A    between atoms: C17_19  and  C18_20 
REMARK    6  A    between atoms: C19_21  and  C20_22 
REMARK    7  A    between atoms: C20_22  and  O3_23 
REMARK    8  A    between atoms: O3_23  and  C21_24 
REMARK    9  A    between atoms: C21_24  and  C22_26 
ROOT
HETATM    1  C16 UNL     1      -3.510   6.385  14.023  1.00  0.00     0.014 C 
ENDROOT
BRANCH   1   2
HETATM    2  C15 UNL     1      -2.431   7.092  13.158  1.00  0.00     0.022 C 
HETATM    3  C2  UNL     1      -2.534   8.615  13.106  1.00  0.00    -0.084 C 
HETATM    4  C1  UNL     1      -3.287   9.399  13.896  1.00  0.00     0.014 C 
HETATM    5  C3  UNL     1      -1.626   9.227  12.072  1.00  0.00     0.034 C 
HETATM    6  C4  UNL     1      -0.180   8.904  12.421  1.00  0.00     0.011 C 
HETATM    7  C5  UNL     1       0.114   7.390  12.571  1.00  0.00     0.012 C 
HETATM    8  C6  UNL     1      -0.945   6.676  13.516  1.00  0.00    -0.032 C 
HETATM    9  C11 UNL     1       0.455   6.605  11.229  1.00  0.00     0.049 C 
HETATM   10  C7  UNL     1      -0.635   7.062  14.990  1.00  0.00     0.016 C 
HETATM   11  C8  UNL     1      -0.715   5.151  13.404  1.00  0.00     0.010 C 
HETATM   12  C9  UNL     1      -1.011   4.599  12.017  1.00  0.00     0.002 C 
HETATM   13  C10 UNL     1      -0.599   5.528  10.876  1.00  0.00     0.020 C 
HETATM   14  C12 UNL     1       0.597   7.498   9.972  1.00  0.00     0.026 C 
BRANCH   9  15
HETATM   15  C13 UNL     1       1.873   6.004  11.401  1.00  0.00     0.267 C 
HETATM   16  O1  UNL     1       2.691   6.425  12.215  1.00  0.00    -0.264 OA
BRANCH  15  17
HETATM   17  O2  UNL     1       2.105   4.951  10.571  1.00  0.00    -0.326 OA
HETATM   18  C14 UNL     1       3.240   5.102   9.719  1.00  0.00     0.213 C 
ENDBRANCH  15  17
ENDBRANCH   9  15
ENDBRANCH   1   2
BRANCH   1  19
HETATM   19  C17 UNL     1      -4.930   6.573  13.462  1.00  0.00     0.042 C 
BRANCH  19  20
HETATM   20  C18 UNL     1      -5.984   6.297  14.484  1.00  0.00    -0.024 A 
HETATM   21  C19 UNL     1      -7.326   6.013  14.270  1.00  0.00     0.083 A 
HETATM   22  O5  UNL     1      -7.960   5.818  15.463  1.00  0.00    -0.324 OA
HETATM   23  C28 UNL     1      -7.032   5.966  16.440  1.00  0.00     0.143 A 
HETATM   24  C29 UNL     1      -5.806   6.262  15.897  1.00  0.00     0.034 A 
BRANCH  21  25
HETATM   25  C20 UNL     1      -8.182   5.905  13.057  1.00  0.00     0.244 C 
BRANCH  25  26
HETATM   26  O3  UNL     1      -7.542   4.977  12.170  1.00  0.00    -0.311 OA
BRANCH  26  27
HETATM   27  C21 UNL     1      -7.630   3.668  12.499  1.00  0.00     0.293 C 
HETATM   28  O4  UNL     1      -8.603   3.101  12.971  1.00  0.00    -0.259 OA
BRANCH  27  29
HETATM   29  C22 UNL     1      -6.351   2.972  12.180  1.00  0.00     0.039 A 
HETATM   30  C23 UNL     1      -5.147   3.645  12.438  1.00  0.00     0.019 A 
HETATM   31  C24 UNL     1      -3.922   3.026  12.170  1.00  0.00     0.025 A 
HETATM   32  C25 UNL     1      -3.895   1.736  11.641  1.00  0.00     0.034 A 
HETATM   33 CL1  UNL     1      -2.389   0.978  11.304  1.00  0.00    -0.084 Cl
HETATM   34  C26 UNL     1      -5.085   1.059  11.375  1.00  0.00     0.025 A 
HETATM   35  C27 UNL     1      -6.311   1.674  11.646  1.00  0.00     0.019 A 
ENDBRANCH  27  29
ENDBRANCH  26  27
ENDBRANCH  25  26
ENDBRANCH  21  25
ENDBRANCH  19  20
ENDBRANCH   1  19
TORSDOF 9
ENDMDL
MODEL 2
REMARK minimizedAffinity -8.82936287
REMARK  9 active torsions:
REMARK  status: ('A' for Active; 'I' for Inactive)
REMARK    1  A    between atoms: C11_11  and  C13_13 
REMARK    2  A    between atoms: C13_13  and  O2_15 
REMARK    3  A    between atoms: C15_17  and  C16_18 
REMARK    4  A    between atoms: C16_18  and  C17_19 
REMARK    5  A    between atoms: C17_19  and  C18_20 
REMARK    6  A    between atoms: C19_21  and  C20_22 
REMARK    7  A    between atoms: C20_22  and  O3_23 
REMARK    8  A    between atoms: O3_23  and  C21_24 
REMARK    9  A    between atoms: C21_24  and  C22_26 
ROOT
HETATM    1  C16 UNL     1      -3.630   5.669  13.939  1.00  0.00     0.014 C 
ENDROOT
BRANCH   1   2
HETATM    2  C15 UNL     1      -2.669   6.608  13.158  1.00  0.00     0.022 C 
HETATM    3  C2  UNL     1      -3.095   8.073  13.101  1.00  0.00    -0.084 C 
HETATM    4  C1  UNL     1      -4.055   8.662  13.835  1.00  0.00     0.014 C 
HETATM    5  C3  UNL     1      -2.268   8.885  12.139  1.00  0.00     0.034 C 
HETATM    6  C4  UNL     1      -0.816   8.875  12.594  1.00  0.00     0.011 C 
HETATM    7  C5  UNL     1      -0.213   7.458  12.763  1.00  0.00     0.012 C 
HETATM    8  C6  UNL     1      -1.158   6.516  13.625  1.00  0.00    -0.032 C 
HETATM    9  C11 UNL     1       0.387   6.789  11.449  1.00  0.00     0.049 C 
HETATM   10  C7  UNL     1      -1.046   6.933  15.119  1.00  0.00     0.016 C 
HETATM   11  C8  UNL     1      -0.596   5.078  13.528  1.00  0.00     0.010 C 
HETATM   12  C9  UNL     1      -0.665   4.500  12.122  1.00  0.00     0.002 C 
HETATM   13  C10 UNL     1      -0.382   5.516  11.017  1.00  0.00     0.020 C 
HETATM   14  C12 UNL     1       0.422   7.713  10.207  1.00  0.00     0.026 C 
BRANCH   9  15
HETATM   15  C13 UNL     1       1.885   6.505  11.725  1.00  0.00     0.267 C 
HETATM   16  O1  UNL     1       2.537   7.097  12.580  1.00  0.00    -0.264 OA
BRANCH  15  17
HETATM   17  O2  UNL     1       2.389   5.519  10.936  1.00  0.00    -0.326 OA
HETATM   18  C14 UNL     1       3.592   5.863  10.248  1.00  0.00     0.213 C 
ENDBRANCH  15  17
ENDBRANCH   9  15
ENDBRANCH   1   2
BRANCH   1  19
HETATM   19  C17 UNL     1      -4.977   5.479  13.223  1.00  0.00     0.042 C 
BRANCH  19  20
HETATM   20  C18 UNL     1      -5.086   4.140  12.567  1.00  0.00    -0.024 A 
HETATM   21  C19 UNL     1      -6.217   3.347  12.430  1.00  0.00     0.083 A 
HETATM   22  O5  UNL     1      -5.904   2.196  11.766  1.00  0.00    -0.324 OA
HETATM   23  C28 UNL     1      -4.582   2.249  11.469  1.00  0.00     0.143 A 
HETATM   24  C29 UNL     1      -4.032   3.417  11.937  1.00  0.00     0.034 A 
BRANCH  21  25
HETATM   25  C20 UNL     1      -7.635   3.481  12.861  1.00  0.00     0.244 C 
BRANCH  25  26
HETATM   26  O3  UNL     1      -7.765   4.761  13.495  1.00  0.00    -0.311 OA
BRANCH  26  27
HETATM   27  C21 UNL     1      -8.567   5.660  12.879  1.00  0.00     0.293 C 
HETATM   28  O4  UNL     1      -8.828   5.706  11.687  1.00  0.00    -0.259 OA
BRANCH  27  29
HETATM   29  C22 UNL     1      -9.132   6.611  13.878  1.00  0.00     0.039 A 
HETATM   30  C23 UNL     1      -8.256   7.204  14.800  1.00  0.00     0.019 A 
HETATM   31  C24 UNL     1      -8.738   8.114  15.746  1.00  0.00     0.025 A 
HETATM   32  C25 UNL     1     -10.096   8.432  15.777  1.00  0.00     0.034 A 
HETATM   33 CL1  UNL     1     -10.690   9.545  16.945  1.00  0.00    -0.084 Cl
HETATM   34  C26 UNL     1     -10.977   7.846  14.870  1.00  0.00     0.025 A 
HETATM   35  C27 UNL     1     -10.497   6.938  13.921  1.00  0.00     0.019 A 
ENDBRANCH  27  29
ENDBRANCH  26  27
ENDBRANCH  25  26
ENDBRANCH  21  25
ENDBRANCH  19  20
ENDBRANCH   1  19
TORSDOF 9
ENDMDL
MODEL 3
REMARK minimizedAffinity -8.78706646
REMARK  9 active torsions:
REMARK  status: ('A' for Active; 'I' for Inactive)
REMARK    1  A    between atoms: C11_11  and  C13_13 
REMARK    2  A    between atoms: C13_13  and  O2_15 
REMARK    3  A    between atoms: C15_17  and  C16_18 
REMARK    4  A    between atoms: C16_18  and  C17_19 
REMARK    5  A    between atoms: C17_19  and  C18_20 
REMARK    6  A    between atoms: C19_21  and  C20_22 
REMARK    7  A    between atoms: C20_22  and  O3_23 
REMARK    8  A    between atoms: O3_23  and  C21_24 
REMARK    9  A    between atoms: C21_24  and  C22_26 
ROOT
HETATM    1  C16 UNL     1      -2.809   5.348  13.230  1.00  0.00     0.014 C 
ENDROOT
BRANCH   1   2
HETATM    2  C15 UNL     1      -1.864   6.473  12.725  1.00  0.00     0.022 C 
HETATM    3  C2  UNL     1      -2.441   7.886  12.789  1.00  0.00    -0.084 C 
HETATM    4  C1  UNL     1      -3.553   8.274  13.438  1.00  0.00     0.014 C 
HETATM    5  C3  UNL     1      -1.588   8.898  12.071  1.00  0.00     0.034 C 
HETATM    6  C4  UNL     1      -0.219   8.962  12.734  1.00  0.00     0.011 C 
HETATM    7  C5  UNL     1       0.511   7.597  12.813  1.00  0.00     0.012 C 
HETATM    8  C6  UNL     1      -0.430   6.459  13.399  1.00  0.00    -0.032 C 
HETATM    9  C11 UNL     1       1.356   7.178  11.530  1.00  0.00     0.049 C 
HETATM   10  C7  UNL     1      -0.570   6.672  14.933  1.00  0.00     0.016 C 
HETATM   11  C8  UNL     1       0.299   5.109  13.208  1.00  0.00     0.010 C 
HETATM   12  C9  UNL     1       0.488   4.729  11.747  1.00  0.00     0.002 C 
HETATM   13  C10 UNL     1       0.802   5.912  10.832  1.00  0.00     0.020 C 
HETATM   14  C12 UNL     1       1.455   8.267  10.433  1.00  0.00     0.026 C 
BRANCH   9  15
HETATM   15  C13 UNL     1       2.825   7.001  11.990  1.00  0.00     0.267 C 
HETATM   16  O1  UNL     1       3.268   7.475  13.033  1.00  0.00    -0.264 OA
BRANCH  15  17
HETATM   17  O2  UNL     1       3.561   6.248  11.129  1.00  0.00    -0.326 OA
HETATM   18  C14 UNL     1       4.890   6.721  10.909  1.00  0.00     0.213 C 
ENDBRANCH  15  17
ENDBRANCH   9  15
ENDBRANCH   1   2
BRANCH   1  19
HETATM   19  C17 UNL     1      -3.719   4.803  12.117  1.00  0.00     0.042 C 
BRANCH  19  20
HETATM   20  C18 UNL     1      -3.482   3.351  11.853  1.00  0.00    -0.024 A 
HETATM   21  C19 UNL     1      -4.428   2.352  11.670  1.00  0.00     0.083 A 
HETATM   22  O5  UNL     1      -3.809   1.155  11.449  1.00  0.00    -0.324 OA
HETATM   23  C28 UNL     1      -2.473   1.381  11.481  1.00  0.00     0.143 A 
HETATM   24  C29 UNL     1      -2.217   2.708  11.726  1.00  0.00     0.034 A 
BRANCH  21  25
HETATM   25  C20 UNL     1      -5.916   2.317  11.687  1.00  0.00     0.244 C 
BRANCH  25  26
HETATM   26  O3  UNL     1      -6.353   3.380  12.546  1.00  0.00    -0.311 OA
BRANCH  26  27
HETATM   27  C21 UNL     1      -7.637   3.326  12.967  1.00  0.00     0.293 C 
HETATM   28  O4  UNL     1      -8.444   2.440  12.730  1.00  0.00    -0.259 OA
BRANCH  27  29
HETATM   29  C22 UNL     1      -7.951   4.515  13.809  1.00  0.00     0.039 A 
HETATM   30  C23 UNL     1      -8.739   5.534  13.251  1.00  0.00     0.019 A 
HETATM   31  C24 UNL     1      -9.073   6.662  14.007  1.00  0.00     0.025 A 
HETATM   32  C25 UNL     1      -8.618   6.778  15.321  1.00  0.00     0.034 A 
HETATM   33 CL1  UNL     1      -9.022   8.168  16.249  1.00  0.00    -0.084 Cl
HETATM   34  C26 UNL     1      -7.831   5.776  15.885  1.00  0.00     0.025 A 
HETATM   35  C27 UNL     1      -7.499   4.645  15.132  1.00  0.00     0.019 A 
ENDBRANCH  27  29
ENDBRANCH  26  27
ENDBRANCH  25  26
ENDBRANCH  21  25
ENDBRANCH  19  20
ENDBRANCH   1  19
TORSDOF 9
ENDMDL
MODEL 4
REMARK minimizedAffinity -8.75361919
REMARK  9 active torsions:
REMARK  status: ('A' for Active; 'I' for Inactive)
REMARK    1  A    between atoms: C11_11  and  C13_13 
REMARK    2  A    between atoms: C13_13  and  O2_15 
REMARK    3  A    between atoms: C15_17  and  C16_18 
REMARK    4  A    between atoms: C16_18  and  C17_19 
REMARK    5  A    between atoms: C17_19  and  C18_20 
REMARK    6  A    between atoms: C19_21  and  C20_22 
REMARK    7  A    between atoms: C20_22  and  O3_23 
REMARK    8  A    between atoms: O3_23  and  C21_24 
REMARK    9  A    between atoms: C21_24  and  C22_26 
ROOT
HETATM    1  C16 UNL     1      -3.743   5.305  13.369  1.00  0.00     0.014 C 
ENDROOT
BRANCH   1   2
HETATM    2  C15 UNL     1      -2.753   6.401  12.885  1.00  0.00     0.022 C 
HETATM    3  C2  UNL     1      -3.255   7.837  13.019  1.00  0.00    -0.084 C 
HETATM    4  C1  UNL     1      -4.330   8.253  13.711  1.00  0.00     0.014 C 
HETATM    5  C3  UNL     1      -2.368   8.833  12.321  1.00  0.00     0.034 C 
HETATM    6  C4  UNL     1      -0.983   8.801  12.951  1.00  0.00     0.011 C 
HETATM    7  C5  UNL     1      -0.322   7.399  12.957  1.00  0.00     0.012 C 
HETATM    8  C6  UNL     1      -1.306   6.287  13.521  1.00  0.00    -0.032 C 
HETATM    9  C11 UNL     1       0.470   6.991  11.638  1.00  0.00     0.049 C 
HETATM   10  C7  UNL     1      -1.400   6.444  15.066  1.00  0.00     0.016 C 
HETATM   11  C8  UNL     1      -0.652   4.910  13.258  1.00  0.00     0.010 C 
HETATM   12  C9  UNL     1      -0.516   4.582  11.779  1.00  0.00     0.002 C 
HETATM   13  C10 UNL     1      -0.163   5.784  10.905  1.00  0.00     0.020 C 
HETATM   14  C12 UNL     1       0.600   8.117  10.583  1.00  0.00     0.026 C 
BRANCH   9  15
HETATM   15  C13 UNL     1       1.938   6.721  12.054  1.00  0.00     0.267 C 
HETATM   16  O1  UNL     1       2.446   7.175  13.076  1.00  0.00    -0.264 OA
BRANCH  15  17
HETATM   17  O2  UNL     1       2.595   5.912  11.179  1.00  0.00    -0.326 OA
HETATM   18  C14 UNL     1       3.895   6.367  10.806  1.00  0.00     0.213 C 
ENDBRANCH  15  17
ENDBRANCH   9  15
ENDBRANCH   1   2
BRANCH   1  19
HETATM   19  C17 UNL     1      -4.451   4.597  12.201  1.00  0.00     0.042 C 
BRANCH  19  20
HETATM   20  C18 UNL     1      -5.714   3.924  12.630  1.00  0.00    -0.024 A 
HETATM   21  C19 UNL     1      -6.663   4.385  13.533  1.00  0.00     0.083 A 
HETATM   22  O5  UNL     1      -7.676   3.478  13.652  1.00  0.00    -0.324 OA
HETATM   23  C28 UNL     1      -7.388   2.443  12.826  1.00  0.00     0.143 A 
HETATM   24  C29 UNL     1      -6.198   2.663  12.177  1.00  0.00     0.034 A 
BRANCH  21  25
HETATM   25  C20 UNL     1      -6.783   5.604  14.377  1.00  0.00     0.244 C 
BRANCH  25  26
HETATM   26  O3  UNL     1      -8.111   5.612  14.921  1.00  0.00    -0.311 OA
BRANCH  26  27
HETATM   27  C21 UNL     1      -8.494   6.741  15.561  1.00  0.00     0.293 C 
HETATM   28  O4  UNL     1      -8.052   7.163  16.619  1.00  0.00    -0.259 OA
BRANCH  27  29
HETATM   29  C22 UNL     1      -9.545   7.445  14.773  1.00  0.00     0.039 A 
HETATM   30  C23 UNL     1      -9.802   8.793  15.065  1.00  0.00     0.019 A 
HETATM   31  C24 UNL     1     -10.769   9.500  14.342  1.00  0.00     0.025 A 
HETATM   32  C25 UNL     1     -11.484   8.861  13.329  1.00  0.00     0.034 A 
HETATM   33 CL1  UNL     1     -12.678   9.727  12.446  1.00  0.00    -0.084 Cl
HETATM   34  C26 UNL     1     -11.243   7.520  13.033  1.00  0.00     0.025 A 
HETATM   35  C27 UNL     1     -10.274   6.813  13.752  1.00  0.00     0.019 A 
ENDBRANCH  27  29
ENDBRANCH  26  27
ENDBRANCH  25  26
ENDBRANCH  21  25
ENDBRANCH  19  20
ENDBRANCH   1  19
TORSDOF 9
ENDMDL
MODEL 5
REMARK minimizedAffinity -8.63764763
REMARK  9 active torsions:
REMARK  status: ('A' for Active; 'I' for Inactive)
REMARK    1  A    between atoms: C11_11  and  C13_13 
REMARK    2  A    between atoms: C13_13  and  O2_15 
REMARK    3  A    between atoms: C15_17  and  C16_18 
REMARK    4  A    between atoms: C16_18  and  C17_19 
REMARK    5  A    between atoms: C17_19  and  C18_20 
REMARK    6  A    between atoms: C19_21  and  C20_22 
REMARK    7  A    between atoms: C20_22  and  O3_23 
REMARK    8  A    between atoms: O3_23  and  C21_24 
REMARK    9  A    between atoms: C21_24  and  C22_26 
ROOT
HETATM    1  C16 UNL     1      -0.936   8.878  12.337  1.00  0.00     0.014 C 
ENDROOT
BRANCH   1   2
HETATM    2  C15 UNL     1       0.567   8.663  12.007  1.00  0.00     0.022 C 
HETATM    3  C2  UNL     1       1.542   9.084  13.105  1.00  0.00    -0.084 C 
HETATM    4  C1  UNL     1       1.238   9.388  14.378  1.00  0.00     0.014 C 
HETATM    5  C3  UNL     1       2.976   9.081  12.645  1.00  0.00     0.034 C 
HETATM    6  C4  UNL     1       3.370   7.668  12.238  1.00  0.00     0.011 C 
HETATM    7  C5  UNL     1       2.454   7.041  11.157  1.00  0.00     0.012 C 
HETATM    8  C6  UNL     1       0.917   7.193  11.527  1.00  0.00    -0.032 C 
HETATM    9  C11 UNL     1       2.819   7.380   9.645  1.00  0.00     0.049 C 
HETATM   10  C7  UNL     1       0.575   6.180  12.657  1.00  0.00     0.016 C 
HETATM   11  C8  UNL     1       0.095   6.765  10.289  1.00  0.00     0.010 C 
HETATM   12  C9  UNL     1       0.289   7.683   9.092  1.00  0.00     0.002 C 
HETATM   13  C10 UNL     1       1.718   8.199   8.929  1.00  0.00     0.020 C 
HETATM   14  C12 UNL     1       4.137   8.171   9.457  1.00  0.00     0.026 C 
BRANCH   9  15
HETATM   15  C13 UNL     1       3.106   6.034   8.933  1.00  0.00     0.267 C 
HETATM   16  O1  UNL     1       2.581   5.706   7.872  1.00  0.00    -0.264 OA
BRANCH  15  17
HETATM   17  O2  UNL     1       4.013   5.268   9.597  1.00  0.00    -0.326 OA
HETATM   18  C14 UNL     1       4.060   3.904   9.180  1.00  0.00     0.213 C 
ENDBRANCH  15  17
ENDBRANCH   9  15
ENDBRANCH   1   2
BRANCH   1  19
HETATM   19  C17 UNL     1      -1.469   7.846  13.344  1.00  0.00     0.042 C 
BRANCH  19  20
HETATM   20  C18 UNL     1      -2.381   8.461  14.356  1.00  0.00    -0.024 A 
HETATM   21  C19 UNL     1      -3.288   7.820  15.188  1.00  0.00     0.083 A 
HETATM   22  O5  UNL     1      -3.930   8.734  15.974  1.00  0.00    -0.324 OA
HETATM   23  C28 UNL     1      -3.434   9.955  15.657  1.00  0.00     0.143 A 
HETATM   24  C29 UNL     1      -2.484   9.847  14.672  1.00  0.00     0.034 A 
BRANCH  21  25
HETATM   25  C20 UNL     1      -3.702   6.403  15.374  1.00  0.00     0.244 C 
BRANCH  25  26
HETATM   26  O3  UNL     1      -5.114   6.340  15.127  1.00  0.00    -0.311 OA
BRANCH  26  27
HETATM   27  C21 UNL     1      -5.509   6.490  13.842  1.00  0.00     0.293 C 
HETATM   28  O4  UNL     1      -5.698   7.546  13.257  1.00  0.00    -0.259 OA
BRANCH  27  29
HETATM   29  C22 UNL     1      -5.668   5.157  13.195  1.00  0.00     0.039 A 
HETATM   30  C23 UNL     1      -4.555   4.591  12.555  1.00  0.00     0.019 A 
HETATM   31  C24 UNL     1      -4.652   3.335  11.949  1.00  0.00     0.025 A 
HETATM   32  C25 UNL     1      -5.862   2.641  11.976  1.00  0.00     0.034 A 
HETATM   33 CL1  UNL     1      -5.984   1.100  11.224  1.00  0.00    -0.084 Cl
HETATM   34  C26 UNL     1      -6.977   3.194  12.604  1.00  0.00     0.025 A 
HETATM   35  C27 UNL     1      -6.881   4.448  13.215  1.00  0.00     0.019 A 
ENDBRANCH  27  29
ENDBRANCH  26  27
ENDBRANCH  25  26
ENDBRANCH  21  25
ENDBRANCH  19  20
ENDBRANCH   1  19
TORSDOF 9
ENDMDL
MODEL 6
REMARK minimizedAffinity -8.61086082
REMARK  9 active torsions:
REMARK  status: ('A' for Active; 'I' for Inactive)
REMARK    1  A    between atoms: C11_11  and  C13_13 
REMARK    2  A    between atoms: C13_13  and  O2_15 
REMARK    3  A    between atoms: C15_17  and  C16_18 
REMARK    4  A    between atoms: C16_18  and  C17_19 
REMARK    5  A    between atoms: C17_19  and  C18_20 
REMARK    6  A    between atoms: C19_21  and  C20_22 
REMARK    7  A    between atoms: C20_22  and  O3_23 
REMARK    8  A    between atoms: O3_23  and  C21_24 
REMARK    9  A    between atoms: C21_24  and  C22_26 
ROOT
HETATM    1  C16 UNL     1      -1.789   7.651  13.107  1.00  0.00     0.014 C 
ENDROOT
BRANCH   1   2
HETATM    2  C15 UNL     1      -0.244   7.778  12.992  1.00  0.00     0.022 C 
HETATM    3  C2  UNL     1       0.476   8.155  14.285  1.00  0.00    -0.084 C 
HETATM    4  C1  UNL     1      -0.042   8.154  15.526  1.00  0.00     0.014 C 
HETATM    5  C3  UNL     1       1.925   8.499  14.067  1.00  0.00     0.034 C 
HETATM    6  C4  UNL     1       2.651   7.284  13.508  1.00  0.00     0.011 C 
HETATM    7  C5  UNL     1       2.029   6.715  12.208  1.00  0.00     0.012 C 
HETATM    8  C6  UNL     1       0.459   6.514  12.347  1.00  0.00    -0.032 C 
HETATM    9  C11 UNL     1       2.503   7.394  10.848  1.00  0.00     0.049 C 
HETATM   10  C7  UNL     1       0.196   5.261  13.230  1.00  0.00     0.016 C 
HETATM   11  C8  UNL     1      -0.093   6.184  10.940  1.00  0.00     0.010 C 
HETATM   12  C9  UNL     1       0.056   7.331   9.952  1.00  0.00     0.002 C 
HETATM   13  C10 UNL     1       1.355   8.120  10.106  1.00  0.00     0.020 C 
HETATM   14  C12 UNL     1       3.641   8.432  11.003  1.00  0.00     0.026 C 
BRANCH   9  15
HETATM   15  C13 UNL     1       3.150   6.281   9.986  1.00  0.00     0.267 C 
HETATM   16  O1  UNL     1       4.303   5.889  10.143  1.00  0.00    -0.264 OA
BRANCH  15  17
HETATM   17  O2  UNL     1       2.299   5.773   9.054  1.00  0.00    -0.326 OA
HETATM   18  C14 UNL     1       2.733   5.928   7.703  1.00  0.00     0.213 C 
ENDBRANCH  15  17
ENDBRANCH   9  15
ENDBRANCH   1   2
BRANCH   1  19
HETATM   19  C17 UNL     1      -2.506   8.995  12.894  1.00  0.00     0.042 C 
BRANCH  19  20
HETATM   20  C18 UNL     1      -3.415   9.337  14.030  1.00  0.00    -0.024 A 
HETATM   21  C19 UNL     1      -4.687   8.844  14.283  1.00  0.00     0.083 A 
HETATM   22  O5  UNL     1      -5.188   9.402  15.423  1.00  0.00    -0.324 OA
HETATM   23  C28 UNL     1      -4.243  10.244  15.908  1.00  0.00     0.143 A 
HETATM   24  C29 UNL     1      -3.138  10.244  15.094  1.00  0.00     0.034 A 
BRANCH  21  25
HETATM   25  C20 UNL     1      -5.586   7.887  13.581  1.00  0.00     0.244 C 
BRANCH  25  26
HETATM   26  O3  UNL     1      -5.781   6.769  14.459  1.00  0.00    -0.311 OA
BRANCH  26  27
HETATM   27  C21 UNL     1      -6.951   6.102  14.336  1.00  0.00     0.293 C 
HETATM   28  O4  UNL     1      -8.038   6.455  14.766  1.00  0.00    -0.259 OA
BRANCH  27  29
HETATM   29  C22 UNL     1      -6.746   4.847  13.559  1.00  0.00     0.039 A 
HETATM   30  C23 UNL     1      -5.571   4.719  12.801  1.00  0.00     0.019 A 
HETATM   31  C24 UNL     1      -5.327   3.553  12.069  1.00  0.00     0.025 A 
HETATM   32  C25 UNL     1      -6.257   2.513  12.087  1.00  0.00     0.034 A 
HETATM   33 CL1  UNL     1      -5.961   1.083  11.180  1.00  0.00    -0.084 Cl
HETATM   34  C26 UNL     1      -7.430   2.630  12.831  1.00  0.00     0.025 A 
HETATM   35  C27 UNL     1      -7.674   3.793  13.567  1.00  0.00     0.019 A 
ENDBRANCH  27  29
ENDBRANCH  26  27
ENDBRANCH  25  26
ENDBRANCH  21  25
ENDBRANCH  19  20
ENDBRANCH   1  19
TORSDOF 9
ENDMDL
MODEL 7
REMARK minimizedAffinity -8.54532623
REMARK  9 active torsions:
REMARK  status: ('A' for Active; 'I' for Inactive)
REMARK    1  A    between atoms: C11_11  and  C13_13 
REMARK    2  A    between atoms: C13_13  and  O2_15 
REMARK    3  A    between atoms: C15_17  and  C16_18 
REMARK    4  A    between atoms: C16_18  and  C17_19 
REMARK    5  A    between atoms: C17_19  and  C18_20 
REMARK    6  A    between atoms: C19_21  and  C20_22 
REMARK    7  A    between atoms: C20_22  and  O3_23 
REMARK    8  A    between atoms: O3_23  and  C21_24 
REMARK    9  A    between atoms: C21_24  and  C22_26 
ROOT
HETATM    1  C16 UNL     1     -10.928   8.088  15.620  1.00  0.00     0.014 C 
ENDROOT
BRANCH   1   2
HETATM    2  C15 UNL     1     -12.080   8.792  14.851  1.00  0.00     0.022 C 
HETATM    3  C2  UNL     1     -11.802  10.238  14.443  1.00  0.00    -0.084 C 
HETATM    4  C1  UNL     1     -10.615  10.868  14.468  1.00  0.00     0.014 C 
HETATM    5  C3  UNL     1     -13.026  10.943  13.922  1.00  0.00     0.034 C 
HETATM    6  C4  UNL     1     -13.522  10.231  12.672  1.00  0.00     0.011 C 
HETATM    7  C5  UNL     1     -13.812   8.722  12.874  1.00  0.00     0.012 C 
HETATM    8  C6  UNL     1     -12.604   7.982  13.594  1.00  0.00    -0.032 C 
HETATM    9  C11 UNL     1     -15.256   8.353  13.432  1.00  0.00     0.049 C 
HETATM   10  C7  UNL     1     -11.449   7.803  12.568  1.00  0.00     0.016 C 
HETATM   11  C8  UNL     1     -13.085   6.560  13.966  1.00  0.00     0.010 C 
HETATM   12  C9  UNL     1     -14.203   6.555  14.998  1.00  0.00     0.002 C 
HETATM   13  C10 UNL     1     -15.210   7.692  14.831  1.00  0.00     0.020 C 
HETATM   14  C12 UNL     1     -16.231   9.551  13.554  1.00  0.00     0.026 C 
BRANCH   9  15
HETATM   15  C13 UNL     1     -15.935   7.447  12.375  1.00  0.00     0.267 C 
HETATM   16  O1  UNL     1     -15.682   7.501  11.175  1.00  0.00    -0.264 OA
BRANCH  15  17
HETATM   17  O2  UNL     1     -16.823   6.573  12.922  1.00  0.00    -0.326 OA
HETATM   18  C14 UNL     1     -18.164   6.712  12.451  1.00  0.00     0.213 C 
ENDBRANCH  15  17
ENDBRANCH   9  15
ENDBRANCH   1   2
BRANCH   1  19
HETATM   19  C17 UNL     1      -9.547   8.392  15.016  1.00  0.00     0.042 C 
BRANCH  19  20
HETATM   20  C18 UNL     1      -8.552   7.316  15.307  1.00  0.00    -0.024 A 
HETATM   21  C19 UNL     1      -8.242   6.209  14.529  1.00  0.00     0.083 A 
HETATM   22  O5  UNL     1      -7.276   5.463  15.141  1.00  0.00    -0.324 OA
HETATM   23  C28 UNL     1      -6.959   6.087  16.301  1.00  0.00     0.143 A 
HETATM   24  C29 UNL     1      -7.711   7.226  16.453  1.00  0.00     0.034 A 
BRANCH  21  25
HETATM   25  C20 UNL     1      -8.742   5.681  13.231  1.00  0.00     0.244 C 
BRANCH  25  26
HETATM   26  O3  UNL     1      -7.640   5.023  12.590  1.00  0.00    -0.311 OA
BRANCH  26  27
HETATM   27  C21 UNL     1      -7.651   3.670  12.608  1.00  0.00     0.293 C 
HETATM   28  O4  UNL     1      -8.611   2.954  12.848  1.00  0.00    -0.259 OA
BRANCH  27  29
HETATM   29  C22 UNL     1      -6.301   3.142  12.265  1.00  0.00     0.039 A 
HETATM   30  C23 UNL     1      -5.180   3.923  12.587  1.00  0.00     0.019 A 
HETATM   31  C24 UNL     1      -3.892   3.462  12.298  1.00  0.00     0.025 A 
HETATM   32  C25 UNL     1      -3.719   2.222  11.683  1.00  0.00     0.034 A 
HETATM   33 CL1  UNL     1      -2.135   1.658  11.321  1.00  0.00    -0.084 Cl
HETATM   34  C26 UNL     1      -4.824   1.438  11.353  1.00  0.00     0.025 A 
HETATM   35  C27 UNL     1      -6.112   1.896  11.644  1.00  0.00     0.019 A 
ENDBRANCH  27  29
ENDBRANCH  26  27
ENDBRANCH  25  26
ENDBRANCH  21  25
ENDBRANCH  19  20
ENDBRANCH   1  19
TORSDOF 9
ENDMDL
MODEL 8
REMARK minimizedAffinity -8.3537817
REMARK  9 active torsions:
REMARK  status: ('A' for Active; 'I' for Inactive)
REMARK    1  A    between atoms: C11_11  and  C13_13 
REMARK    2  A    between atoms: C13_13  and  O2_15 
REMARK    3  A    between atoms: C15_17  and  C16_18 
REMARK    4  A    between atoms: C16_18  and  C17_19 
REMARK    5  A    between atoms: C17_19  and  C18_20 
REMARK    6  A    between atoms: C19_21  and  C20_22 
REMARK    7  A    between atoms: C20_22  and  O3_23 
REMARK    8  A    between atoms: O3_23  and  C21_24 
REMARK    9  A    between atoms: C21_24  and  C22_26 
ROOT
HETATM    1  C16 UNL     1      -0.898   7.197  12.547  1.00  0.00     0.014 C 
ENDROOT
BRANCH   1   2
HETATM    2  C15 UNL     1      -2.217   6.377  12.593  1.00  0.00     0.022 C 
HETATM    3  C2  UNL     1      -2.145   4.993  11.953  1.00  0.00    -0.084 C 
HETATM    4  C1  UNL     1      -1.035   4.334  11.579  1.00  0.00     0.014 C 
HETATM    5  C3  UNL     1      -3.497   4.346  11.809  1.00  0.00     0.034 C 
HETATM    6  C4  UNL     1      -4.110   4.151  13.189  1.00  0.00     0.011 C 
HETATM    7  C5  UNL     1      -4.219   5.452  14.023  1.00  0.00     0.012 C 
HETATM    8  C6  UNL     1      -2.849   6.256  14.041  1.00  0.00    -0.032 C 
HETATM    9  C11 UNL     1      -5.517   6.339  13.775  1.00  0.00     0.049 C 
HETATM   10  C7  UNL     1      -1.855   5.524  14.986  1.00  0.00     0.016 C 
HETATM   11  C8  UNL     1      -3.128   7.636  14.681  1.00  0.00     0.010 C 
HETATM   12  C9  UNL     1      -4.067   8.503  13.855  1.00  0.00     0.002 C 
HETATM   13  C10 UNL     1      -5.192   7.727  13.173  1.00  0.00     0.020 C 
HETATM   14  C12 UNL     1      -6.571   5.699  12.838  1.00  0.00     0.026 C 
BRANCH   9  15
HETATM   15  C13 UNL     1      -6.262   6.446  15.129  1.00  0.00     0.267 C 
HETATM   16  O1  UNL     1      -5.834   5.965  16.175  1.00  0.00    -0.264 OA
BRANCH  15  17
HETATM   17  O2  UNL     1      -7.425   7.145  15.039  1.00  0.00    -0.326 OA
HETATM   18  C14 UNL     1      -8.096   7.351  16.282  1.00  0.00     0.213 C 
ENDBRANCH  15  17
ENDBRANCH   9  15
ENDBRANCH   1   2
BRANCH   1  19
HETATM   19  C17 UNL     1       0.300   6.415  13.113  1.00  0.00     0.042 C 
BRANCH  19  20
HETATM   20  C18 UNL     1       1.136   7.245  14.032  1.00  0.00    -0.024 A 
HETATM   21  C19 UNL     1       2.242   8.020  13.712  1.00  0.00     0.083 A 
HETATM   22  O5  UNL     1       2.727   8.630  14.833  1.00  0.00    -0.324 OA
HETATM   23  C28 UNL     1       1.934   8.258  15.868  1.00  0.00     0.143 A 
HETATM   24  C29 UNL     1       0.946   7.410  15.434  1.00  0.00     0.034 A 
BRANCH  21  25
HETATM   25  C20 UNL     1       2.989   8.292  12.453  1.00  0.00     0.244 C 
BRANCH  25  26
HETATM   26  O3  UNL     1       3.872   7.182  12.239  1.00  0.00    -0.311 OA
BRANCH  26  27
HETATM   27  C21 UNL     1       4.695   7.264  11.168  1.00  0.00     0.293 C 
HETATM   28  O4  UNL     1       5.915   7.288  11.188  1.00  0.00    -0.259 OA
BRANCH  27  29
HETATM   29  C22 UNL     1       3.896   7.301   9.910  1.00  0.00     0.039 A 
HETATM   30  C23 UNL     1       3.275   6.117   9.483  1.00  0.00     0.019 A 
HETATM   31  C24 UNL     1       2.502   6.106   8.318  1.00  0.00     0.025 A 
HETATM   32  C25 UNL     1       2.350   7.275   7.573  1.00  0.00     0.034 A 
HETATM   33 CL1  UNL     1       1.406   7.261   6.136  1.00  0.00    -0.084 Cl
HETATM   34  C26 UNL     1       2.966   8.457   7.983  1.00  0.00     0.025 A 
HETATM   35  C27 UNL     1       3.735   8.471   9.150  1.00  0.00     0.019 A 
ENDBRANCH  27  29
ENDBRANCH  26  27
ENDBRANCH  25  26
ENDBRANCH  21  25
ENDBRANCH  19  20
ENDBRANCH   1  19
TORSDOF 9
ENDMDL
MODEL 9
REMARK minimizedAffinity -8.18013191
REMARK  9 active torsions:
REMARK  status: ('A' for Active; 'I' for Inactive)
REMARK    1  A    between atoms: C11_11  and  C13_13 
REMARK    2  A    between atoms: C13_13  and  O2_15 
REMARK    3  A    between atoms: C15_17  and  C16_18 
REMARK    4  A    between atoms: C16_18  and  C17_19 
REMARK    5  A    between atoms: C17_19  and  C18_20 
REMARK    6  A    between atoms: C19_21  and  C20_22 
REMARK    7  A    between atoms: C20_22  and  O3_23 
REMARK    8  A    between atoms: O3_23  and  C21_24 
REMARK    9  A    between atoms: C21_24  and  C22_26 
ROOT
HETATM    1  C16 UNL     1      -5.169   7.910  13.633  1.00  0.00     0.014 C 
ENDROOT
BRANCH   1   2
HETATM    2  C15 UNL     1      -3.835   8.531  14.131  1.00  0.00     0.022 C 
HETATM    3  C2  UNL     1      -3.983   9.690  15.114  1.00  0.00    -0.084 C 
HETATM    4  C1  UNL     1      -5.102  10.061  15.759  1.00  0.00     0.014 C 
HETATM    5  C3  UNL     1      -2.683  10.405  15.374  1.00  0.00     0.034 C 
HETATM    6  C4  UNL     1      -1.692   9.434  15.999  1.00  0.00     0.011 C 
HETATM    7  C5  UNL     1      -1.447   8.153  15.162  1.00  0.00     0.012 C 
HETATM    8  C6  UNL     1      -2.810   7.472  14.714  1.00  0.00    -0.032 C 
HETATM    9  C11 UNL     1      -0.341   8.260  14.022  1.00  0.00     0.049 C 
HETATM   10  C7  UNL     1      -3.439   6.761  15.946  1.00  0.00     0.016 C 
HETATM   11  C8  UNL     1      -2.463   6.362  13.695  1.00  0.00     0.010 C 
HETATM   12  C9  UNL     1      -1.864   6.898  12.403  1.00  0.00     0.002 C 
HETATM   13  C10 UNL     1      -0.925   8.087  12.599  1.00  0.00     0.020 C 
HETATM   14  C12 UNL     1       0.448   9.592  14.005  1.00  0.00     0.026 C 
BRANCH   9  15
HETATM   15  C13 UNL     1       0.748   7.205  14.343  1.00  0.00     0.267 C 
HETATM   16  O1  UNL     1       1.176   6.404  13.516  1.00  0.00    -0.264 OA
BRANCH  15  17
HETATM   17  O2  UNL     1       1.191   7.276  15.627  1.00  0.00    -0.326 OA
HETATM   18  C14 UNL     1       2.607   7.393  15.763  1.00  0.00     0.213 C 
ENDBRANCH  15  17
ENDBRANCH   9  15
ENDBRANCH   1   2
BRANCH   1  19
HETATM   19  C17 UNL     1      -5.594   6.688  14.465  1.00  0.00     0.042 C 
BRANCH  19  20
HETATM   20  C18 UNL     1      -6.985   6.820  14.996  1.00  0.00    -0.024 A 
HETATM   21  C19 UNL     1      -8.175   6.502  14.358  1.00  0.00     0.083 A 
HETATM   22  O5  UNL     1      -9.233   6.764  15.181  1.00  0.00    -0.324 OA
HETATM   23  C28 UNL     1      -8.728   7.241  16.344  1.00  0.00     0.143 A 
HETATM   24  C29 UNL     1      -7.358   7.298  16.286  1.00  0.00     0.034 A 
BRANCH  21  25
HETATM   25  C20 UNL     1      -8.520   5.976  13.009  1.00  0.00     0.244 C 
BRANCH  25  26
HETATM   26  O3  UNL     1      -7.398   5.205  12.557  1.00  0.00    -0.311 OA
BRANCH  26  27
HETATM   27  C21 UNL     1      -7.509   3.860  12.662  1.00  0.00     0.293 C 
HETATM   28  O4  UNL     1      -8.515   3.234  12.956  1.00  0.00    -0.259 OA
BRANCH  27  29
HETATM   29  C22 UNL     1      -6.206   3.212  12.340  1.00  0.00     0.039 A 
HETATM   30  C23 UNL     1      -6.226   1.954  11.718  1.00  0.00     0.019 A 
HETATM   31  C24 UNL     1      -5.029   1.314  11.382  1.00  0.00     0.025 A 
HETATM   32  C25 UNL     1      -3.808   1.926  11.669  1.00  0.00     0.034 A 
HETATM   33 CL1  UNL     1      -2.336   1.136  11.263  1.00  0.00    -0.084 Cl
HETATM   34  C26 UNL     1      -3.775   3.173  12.291  1.00  0.00     0.025 A 
HETATM   35  C27 UNL     1      -4.970   3.817  12.624  1.00  0.00     0.019 A 
ENDBRANCH  27  29
ENDBRANCH  26  27
ENDBRANCH  25  26
ENDBRANCH  21  25
ENDBRANCH  19  20
ENDBRANCH   1  19
TORSDOF 9
ENDMDL
