MODEL 1
REMARK minimizedAffinity -10.0261135
REMARK  7 active torsions:
REMARK  status: ('A' for Active; 'I' for Inactive)
REMARK    1  A    between atoms: C4_4  and  C5_5 
REMARK    2  A    between atoms: C5_5  and  O1_6 
REMARK    3  A    between atoms: C5_5  and  C6_7 
REMARK    4  A    between atoms: C6_7  and  C7_8 
REMARK    5  A    between atoms: C7_8  and  C8_10 
REMARK    6  A    between atoms: C8_10  and  C10_12 
REMARK    7  A    between atoms: C18_20  and  O3_21 
ROOT
HETATM    1  C10 UNL     1      -0.460   6.875  13.297  1.00  0.00     0.008 C 
HETATM    2  C11 UNL     1      -1.443   8.029  13.009  1.00  0.00     0.007 C 
HETATM    3  C12 UNL     1      -2.803   7.806  13.673  1.00  0.00     0.006 C 
HETATM    4  C13 UNL     1      -3.449   6.450  13.308  1.00  0.00     0.003 C 
HETATM    5  C14 UNL     1      -4.931   6.253  13.867  1.00  0.00    -0.035 C 
HETATM    6  C15 UNL     1      -4.968   6.265  15.412  1.00  0.00     0.016 C 
HETATM    7  C16 UNL     1      -5.823   7.434  13.371  1.00  0.00     0.012 C 
HETATM    8  C17 UNL     1      -7.322   7.220  13.570  1.00  0.00     0.033 C 
HETATM    9  C18 UNL     1      -7.809   5.920  12.941  1.00  0.00     0.126 C 
HETATM   10  C19 UNL     1      -7.031   4.657  13.417  1.00  0.00    -0.017 C 
HETATM   11  C20 UNL     1      -7.476   3.479  12.504  1.00  0.00     0.018 C 
HETATM   12  C21 UNL     1      -7.422   4.248  14.852  1.00  0.00     0.018 C 
HETATM   13  C22 UNL     1      -5.491   4.926  13.227  1.00  0.00     0.004 C 
HETATM   14  C23 UNL     1      -4.584   3.723  13.549  1.00  0.00     0.007 C 
HETATM   15  C24 UNL     1      -3.156   3.935  13.029  1.00  0.00     0.011 C 
HETATM   16  C25 UNL     1      -2.454   5.231  13.526  1.00  0.00    -0.029 C 
HETATM   17  C26 UNL     1      -2.131   5.030  15.041  1.00  0.00     0.016 C 
HETATM   18  C27 UNL     1      -1.055   5.525  12.714  1.00  0.00     0.002 C 
HETATM   19  C28 UNL     1      -1.294   5.576  11.187  1.00  0.00     0.190 C 
HETATM   20  O4  UNL     1      -1.113   4.255  10.674  1.00  0.00    -0.321 OA
HETATM   21  C29 UNL     1      -0.396   3.518  11.559  1.00  0.00     0.259 C 
HETATM   22  O5  UNL     1      -0.037   2.370  11.362  1.00  0.00    -0.265 OA
HETATM   23  C30 UNL     1      -0.074   4.338  12.770  1.00  0.00     0.124 C 
ENDROOT
BRANCH   1  24
HETATM   24  C8  UNL     1       1.016   7.336  13.002  1.00  0.00     0.056 C 
HETATM   25  C9  UNL     1       1.415   8.702  13.542  1.00  0.00     0.018 C 
BRANCH  24  26
HETATM   26  C7  UNL     1       1.402   7.150  11.518  1.00  0.00     0.133 C 
HETATM   27  O2  UNL     1       0.958   7.896  10.641  1.00  0.00    -0.297 OA
BRANCH  26  28
HETATM   28  C6  UNL     1       2.310   5.998  11.118  1.00  0.00     0.114 C 
BRANCH  28  29
HETATM   29  C5  UNL     1       3.273   6.319   9.977  1.00  0.00     0.148 C 
BRANCH  29  30
HETATM   30  C4  UNL     1       2.651   6.285   8.609  1.00  0.00     0.007 C 
HETATM   31  C2  UNL     1       2.527   7.289   7.719  1.00  0.00    -0.089 C 
HETATM   32  C1  UNL     1       3.005   8.702   7.914  1.00  0.00     0.042 C 
HETATM   33  C3  UNL     1       1.851   7.052   6.392  1.00  0.00     0.042 C 
ENDBRANCH  29  30
BRANCH  29  34
HETATM   34  O1  UNL     1       4.359   5.397   9.983  1.00  0.00    -0.391 OA
HETATM   35  H9  UNL     1       4.930   5.639   9.231  1.00  0.00     0.210 HD
ENDBRANCH  29  34
ENDBRANCH  28  29
ENDBRANCH  26  28
ENDBRANCH  24  26
ENDBRANCH   1  24
BRANCH   9  36
HETATM   36  O3  UNL     1      -9.212   5.796  13.172  1.00  0.00    -0.395 OA
HETATM   37  H30 UNL     1      -9.370   5.854  14.128  1.00  0.00     0.210 HD
ENDBRANCH   9  36
TORSDOF 7
ENDMDL
MODEL 2
REMARK minimizedAffinity -9.32349873
REMARK  7 active torsions:
REMARK  status: ('A' for Active; 'I' for Inactive)
REMARK    1  A    between atoms: C4_4  and  C5_5 
REMARK    2  A    between atoms: C5_5  and  O1_6 
REMARK    3  A    between atoms: C5_5  and  C6_7 
REMARK    4  A    between atoms: C6_7  and  C7_8 
REMARK    5  A    between atoms: C7_8  and  C8_10 
REMARK    6  A    between atoms: C8_10  and  C10_12 
REMARK    7  A    between atoms: C18_20  and  O3_21 
ROOT
HETATM    1  C10 UNL     1      -1.957   8.435  14.546  1.00  0.00     0.008 C 
HETATM    2  C11 UNL     1      -2.442   9.038  13.212  1.00  0.00     0.007 C 
HETATM    3  C12 UNL     1      -1.816   8.339  12.003  1.00  0.00     0.006 C 
HETATM    4  C13 UNL     1      -0.272   8.308  12.044  1.00  0.00     0.003 C 
HETATM    5  C14 UNL     1       0.413   7.718  10.729  1.00  0.00    -0.035 C 
HETATM    6  C15 UNL     1       0.029   6.238  10.497  1.00  0.00     0.016 C 
HETATM    7  C16 UNL     1      -0.084   8.527   9.490  1.00  0.00     0.012 C 
HETATM    8  C17 UNL     1       0.713   8.277   8.212  1.00  0.00     0.033 C 
HETATM    9  C18 UNL     1       2.207   8.515   8.406  1.00  0.00     0.126 C 
HETATM   10  C19 UNL     1       2.830   7.702   9.579  1.00  0.00    -0.017 C 
HETATM   11  C20 UNL     1       4.270   8.247   9.794  1.00  0.00     0.018 C 
HETATM   12  C21 UNL     1       2.992   6.211   9.223  1.00  0.00     0.018 C 
HETATM   13  C22 UNL     1       1.964   7.958  10.871  1.00  0.00     0.004 C 
HETATM   14  C23 UNL     1       2.517   7.310  12.154  1.00  0.00     0.007 C 
HETATM   15  C24 UNL     1       1.834   7.867  13.409  1.00  0.00     0.011 C 
HETATM   16  C25 UNL     1       0.282   7.755  13.427  1.00  0.00    -0.029 C 
HETATM   17  C26 UNL     1      -0.070   6.244  13.612  1.00  0.00     0.016 C 
HETATM   18  C27 UNL     1      -0.385   8.615  14.659  1.00  0.00     0.002 C 
HETATM   19  C28 UNL     1       0.062  10.095  14.614  1.00  0.00     0.190 C 
HETATM   20  O4  UNL     1       1.248  10.215  15.401  1.00  0.00    -0.321 OA
HETATM   21  C29 UNL     1       1.342   9.158  16.246  1.00  0.00     0.259 C 
HETATM   22  O5  UNL     1       2.221   9.023  17.080  1.00  0.00    -0.265 OA
HETATM   23  C30 UNL     1       0.188   8.227  16.035  1.00  0.00     0.124 C 
ENDROOT
BRANCH   1  24
HETATM   24  C8  UNL     1      -2.933   8.847  15.711  1.00  0.00     0.056 C 
HETATM   25  C9  UNL     1      -2.358   8.799  17.119  1.00  0.00     0.018 C 
BRANCH  24  26
HETATM   26  C7  UNL     1      -4.302   8.140  15.606  1.00  0.00     0.133 C 
HETATM   27  O2  UNL     1      -5.358   8.758  15.775  1.00  0.00    -0.297 OA
BRANCH  26  28
HETATM   28  C6  UNL     1      -4.356   6.645  15.336  1.00  0.00     0.114 C 
BRANCH  28  29
HETATM   29  C5  UNL     1      -5.235   6.247  14.153  1.00  0.00     0.148 C 
BRANCH  29  30
HETATM   30  C4  UNL     1      -4.696   5.111  13.330  1.00  0.00     0.007 C 
HETATM   31  C2  UNL     1      -5.377   4.125  12.713  1.00  0.00    -0.089 C 
HETATM   32  C1  UNL     1      -6.871   3.951  12.717  1.00  0.00     0.042 C 
HETATM   33  C3  UNL     1      -4.641   3.059  11.941  1.00  0.00     0.042 C 
ENDBRANCH  29  30
BRANCH  29  34
HETATM   34  O1  UNL     1      -5.419   7.362  13.286  1.00  0.00    -0.391 OA
HETATM   35  H9  UNL     1      -5.972   7.048  12.548  1.00  0.00     0.210 HD
ENDBRANCH  29  34
ENDBRANCH  28  29
ENDBRANCH  26  28
ENDBRANCH  24  26
ENDBRANCH   1  24
BRANCH   9  36
HETATM   36  O3  UNL     1       2.876   8.260   7.171  1.00  0.00    -0.395 OA
HETATM   37  H30 UNL     1       2.655   7.359   6.885  1.00  0.00     0.210 HD
ENDBRANCH   9  36
TORSDOF 7
ENDMDL
MODEL 3
REMARK minimizedAffinity -9.25560665
REMARK  7 active torsions:
REMARK  status: ('A' for Active; 'I' for Inactive)
REMARK    1  A    between atoms: C4_4  and  C5_5 
REMARK    2  A    between atoms: C5_5  and  O1_6 
REMARK    3  A    between atoms: C5_5  and  C6_7 
REMARK    4  A    between atoms: C6_7  and  C7_8 
REMARK    5  A    between atoms: C7_8  and  C8_10 
REMARK    6  A    between atoms: C8_10  and  C10_12 
REMARK    7  A    between atoms: C18_20  and  O3_21 
ROOT
HETATM    1  C10 UNL     1      -0.770   7.663  13.775  1.00  0.00     0.008 C 
HETATM    2  C11 UNL     1       0.189   7.970  14.945  1.00  0.00     0.007 C 
HETATM    3  C12 UNL     1       1.523   8.539  14.461  1.00  0.00     0.006 C 
HETATM    4  C13 UNL     1       2.227   7.648  13.413  1.00  0.00     0.003 C 
HETATM    5  C14 UNL     1       3.688   8.141  13.000  1.00  0.00    -0.035 C 
HETATM    6  C15 UNL     1       3.654   9.531  12.325  1.00  0.00     0.016 C 
HETATM    7  C16 UNL     1       4.564   8.269  14.285  1.00  0.00     0.012 C 
HETATM    8  C17 UNL     1       6.058   8.434  14.017  1.00  0.00     0.033 C 
HETATM    9  C18 UNL     1       6.614   7.321  13.135  1.00  0.00     0.126 C 
HETATM   10  C19 UNL     1       5.855   7.145  11.786  1.00  0.00    -0.017 C 
HETATM   11  C20 UNL     1       6.378   5.831  11.140  1.00  0.00     0.018 C 
HETATM   12  C21 UNL     1       6.193   8.270  10.786  1.00  0.00     0.018 C 
HETATM   13  C22 UNL     1       4.317   7.011  12.099  1.00  0.00     0.004 C 
HETATM   14  C23 UNL     1       3.435   6.717  10.871  1.00  0.00     0.007 C 
HETATM   15  C24 UNL     1       2.026   6.268  11.281  1.00  0.00     0.011 C 
HETATM   16  C25 UNL     1       1.262   7.248  12.216  1.00  0.00    -0.029 C 
HETATM   17  C26 UNL     1       0.877   8.498  11.361  1.00  0.00     0.016 C 
HETATM   18  C27 UNL     1      -0.108   6.576  12.829  1.00  0.00     0.002 C 
HETATM   19  C28 UNL     1       0.199   5.244  13.555  1.00  0.00     0.190 C 
HETATM   20  O4  UNL     1       0.083   4.190  12.598  1.00  0.00    -0.321 OA
HETATM   21  C29 UNL     1      -0.650   4.617  11.539  1.00  0.00     0.259 C 
HETATM   22  O5  UNL     1      -0.964   3.913  10.594  1.00  0.00    -0.265 OA
HETATM   23  C30 UNL     1      -1.052   6.046  11.733  1.00  0.00     0.124 C 
ENDROOT
BRANCH   1  24
HETATM   24  C8  UNL     1      -2.245   7.523  14.308  1.00  0.00     0.056 C 
HETATM   25  C9  UNL     1      -2.507   8.054  15.710  1.00  0.00     0.018 C 
BRANCH  24  26
HETATM   26  C7  UNL     1      -2.811   6.100  14.098  1.00  0.00     0.133 C 
HETATM   27  O2  UNL     1      -2.477   5.163  14.827  1.00  0.00    -0.297 OA
BRANCH  26  28
HETATM   28  C6  UNL     1      -3.762   5.836  12.943  1.00  0.00     0.114 C 
BRANCH  28  29
HETATM   29  C5  UNL     1      -4.928   4.910  13.283  1.00  0.00     0.148 C 
BRANCH  29  30
HETATM   30  C4  UNL     1      -5.071   3.725  12.369  1.00  0.00     0.007 C 
HETATM   31  C2  UNL     1      -6.101   2.861  12.270  1.00  0.00    -0.089 C 
HETATM   32  C1  UNL     1      -7.368   2.906  13.079  1.00  0.00     0.042 C 
HETATM   33  C3  UNL     1      -6.043   1.717  11.289  1.00  0.00     0.042 C 
ENDBRANCH  29  30
BRANCH  29  34
HETATM   34  O1  UNL     1      -6.152   5.636  13.247  1.00  0.00    -0.391 OA
HETATM   35  H9  UNL     1      -6.858   4.997  13.457  1.00  0.00     0.210 HD
ENDBRANCH  29  34
ENDBRANCH  28  29
ENDBRANCH  26  28
ENDBRANCH  24  26
ENDBRANCH   1  24
BRANCH   9  36
HETATM   36  O3  UNL     1       8.008   7.550  12.932  1.00  0.00    -0.395 OA
HETATM   37  H30 UNL     1       8.121   8.439  12.561  1.00  0.00     0.210 HD
ENDBRANCH   9  36
TORSDOF 7
ENDMDL
MODEL 4
REMARK minimizedAffinity -9.24530029
REMARK  7 active torsions:
REMARK  status: ('A' for Active; 'I' for Inactive)
REMARK    1  A    between atoms: C4_4  and  C5_5 
REMARK    2  A    between atoms: C5_5  and  O1_6 
REMARK    3  A    between atoms: C5_5  and  C6_7 
REMARK    4  A    between atoms: C6_7  and  C7_8 
REMARK    5  A    between atoms: C7_8  and  C8_10 
REMARK    6  A    between atoms: C8_10  and  C10_12 
REMARK    7  A    between atoms: C18_20  and  O3_21 
ROOT
HETATM    1  C10 UNL     1      -1.776   7.525  14.698  1.00  0.00     0.008 C 
HETATM    2  C11 UNL     1      -0.410   7.542  15.414  1.00  0.00     0.007 C 
HETATM    3  C12 UNL     1       0.714   8.027  14.497  1.00  0.00     0.006 C 
HETATM    4  C13 UNL     1       0.814   7.233  13.175  1.00  0.00     0.003 C 
HETATM    5  C14 UNL     1       2.067   7.617  12.264  1.00  0.00    -0.035 C 
HETATM    6  C15 UNL     1       2.004   9.090  11.796  1.00  0.00     0.016 C 
HETATM    7  C16 UNL     1       3.374   7.451  13.101  1.00  0.00     0.012 C 
HETATM    8  C17 UNL     1       4.659   7.488  12.278  1.00  0.00     0.033 C 
HETATM    9  C18 UNL     1       4.651   6.468  11.145  1.00  0.00     0.126 C 
HETATM   10  C19 UNL     1       3.419   6.584  10.199  1.00  0.00    -0.017 C 
HETATM   11  C20 UNL     1       3.437   5.333   9.275  1.00  0.00     0.018 C 
HETATM   12  C21 UNL     1       3.528   7.803   9.261  1.00  0.00     0.018 C 
HETATM   13  C22 UNL     1       2.115   6.575  11.084  1.00  0.00     0.004 C 
HETATM   14  C23 UNL     1       0.798   6.571  10.286  1.00  0.00     0.007 C 
HETATM   15  C24 UNL     1      -0.402   6.224  11.176  1.00  0.00     0.011 C 
HETATM   16  C25 UNL     1      -0.585   7.129  12.428  1.00  0.00    -0.029 C 
HETATM   17  C26 UNL     1      -1.058   8.529  11.921  1.00  0.00     0.016 C 
HETATM   18  C27 UNL     1      -1.708   6.528  13.467  1.00  0.00     0.002 C 
HETATM   19  C28 UNL     1      -1.369   5.076  13.879  1.00  0.00     0.190 C 
HETATM   20  O4  UNL     1      -2.008   4.199  12.950  1.00  0.00    -0.321 OA
HETATM   21  C29 UNL     1      -3.009   4.860  12.317  1.00  0.00     0.259 C 
HETATM   22  O5  UNL     1      -3.767   4.347  11.512  1.00  0.00    -0.265 OA
HETATM   23  C30 UNL     1      -3.070   6.279  12.792  1.00  0.00     0.124 C 
ENDROOT
BRANCH   1  24
HETATM   24  C8  UNL     1      -2.940   7.470  15.757  1.00  0.00     0.056 C 
HETATM   25  C9  UNL     1      -3.682   6.146  15.873  1.00  0.00     0.018 C 
BRANCH  24  26
HETATM   26  C7  UNL     1      -3.897   8.677  15.640  1.00  0.00     0.133 C 
HETATM   27  O2  UNL     1      -3.854   9.611  16.447  1.00  0.00    -0.297 OA
BRANCH  26  28
HETATM   28  C6  UNL     1      -4.944   8.699  14.539  1.00  0.00     0.114 C 
BRANCH  28  29
HETATM   29  C5  UNL     1      -6.303   8.133  14.948  1.00  0.00     0.148 C 
BRANCH  29  30
HETATM   30  C4  UNL     1      -6.817   7.041  14.053  1.00  0.00     0.007 C 
HETATM   31  C2  UNL     1      -7.302   5.831  14.398  1.00  0.00    -0.089 C 
HETATM   32  C1  UNL     1      -7.438   5.306  15.801  1.00  0.00     0.042 C 
HETATM   33  C3  UNL     1      -7.758   4.862  13.337  1.00  0.00     0.042 C 
ENDBRANCH  29  30
BRANCH  29  34
HETATM   34  O1  UNL     1      -7.276   9.172  14.969  1.00  0.00    -0.391 OA
HETATM   35  H9  UNL     1      -8.120   8.753  15.221  1.00  0.00     0.210 HD
ENDBRANCH  29  34
ENDBRANCH  28  29
ENDBRANCH  26  28
ENDBRANCH  24  26
ENDBRANCH   1  24
BRANCH   9  36
HETATM   36  O3  UNL     1       5.881   6.568  10.428  1.00  0.00    -0.395 OA
HETATM   37  H30 UNL     1       5.986   7.486  10.130  1.00  0.00     0.210 HD
ENDBRANCH   9  36
TORSDOF 7
ENDMDL
MODEL 5
REMARK minimizedAffinity -9.20824432
REMARK  7 active torsions:
REMARK  status: ('A' for Active; 'I' for Inactive)
REMARK    1  A    between atoms: C4_4  and  C5_5 
REMARK    2  A    between atoms: C5_5  and  O1_6 
REMARK    3  A    between atoms: C5_5  and  C6_7 
REMARK    4  A    between atoms: C6_7  and  C7_8 
REMARK    5  A    between atoms: C7_8  and  C8_10 
REMARK    6  A    between atoms: C8_10  and  C10_12 
REMARK    7  A    between atoms: C18_20  and  O3_21 
ROOT
HETATM    1  C10 UNL     1      -1.929   6.224  13.012  1.00  0.00     0.008 C 
HETATM    2  C11 UNL     1      -1.159   6.869  14.183  1.00  0.00     0.007 C 
HETATM    3  C12 UNL     1       0.039   7.689  13.702  1.00  0.00     0.006 C 
HETATM    4  C13 UNL     1       1.009   6.889  12.804  1.00  0.00     0.003 C 
HETATM    5  C14 UNL     1       2.343   7.671  12.408  1.00  0.00    -0.035 C 
HETATM    6  C15 UNL     1       2.039   8.936  11.573  1.00  0.00     0.016 C 
HETATM    7  C16 UNL     1       3.065   8.136  13.711  1.00  0.00     0.012 C 
HETATM    8  C17 UNL     1       4.496   8.625  13.500  1.00  0.00     0.033 C 
HETATM    9  C18 UNL     1       5.360   7.593  12.784  1.00  0.00     0.126 C 
HETATM   10  C19 UNL     1       4.768   7.103  11.430  1.00  0.00    -0.017 C 
HETATM   11  C20 UNL     1       5.628   5.893  10.969  1.00  0.00     0.018 C 
HETATM   12  C21 UNL     1       4.910   8.167  10.322  1.00  0.00     0.018 C 
HETATM   13  C22 UNL     1       3.283   6.638  11.679  1.00  0.00     0.004 C 
HETATM   14  C23 UNL     1       2.590   6.017  10.453  1.00  0.00     0.007 C 
HETATM   15  C24 UNL     1       1.296   5.289  10.841  1.00  0.00     0.011 C 
HETATM   16  C25 UNL     1       0.257   6.149  11.615  1.00  0.00    -0.029 C 
HETATM   17  C26 UNL     1      -0.341   7.176  10.601  1.00  0.00     0.016 C 
HETATM   18  C27 UNL     1      -0.962   5.236  12.234  1.00  0.00     0.002 C 
HETATM   19  C28 UNL     1      -0.412   4.098  13.126  1.00  0.00     0.190 C 
HETATM   20  O4  UNL     1      -0.207   2.954  12.295  1.00  0.00    -0.321 OA
HETATM   21  C29 UNL     1      -0.936   3.082  11.159  1.00  0.00     0.259 C 
HETATM   22  O5  UNL     1      -1.005   2.230  10.289  1.00  0.00    -0.265 OA
HETATM   23  C30 UNL     1      -1.672   4.386  11.163  1.00  0.00     0.124 C 
ENDROOT
BRANCH   1  24
HETATM   24  C8  UNL     1      -3.367   5.791  13.483  1.00  0.00     0.056 C 
HETATM   25  C9  UNL     1      -4.081   4.768  12.612  1.00  0.00     0.018 C 
BRANCH  24  26
HETATM   26  C7  UNL     1      -4.261   7.003  13.827  1.00  0.00     0.133 C 
HETATM   27  O2  UNL     1      -4.443   7.917  13.017  1.00  0.00    -0.297 OA
BRANCH  26  28
HETATM   28  C6  UNL     1      -4.894   7.101  15.206  1.00  0.00     0.114 C 
BRANCH  28  29
HETATM   29  C5  UNL     1      -6.081   6.165  15.424  1.00  0.00     0.148 C 
BRANCH  29  30
HETATM   30  C4  UNL     1      -7.145   6.250  14.365  1.00  0.00     0.007 C 
HETATM   31  C2  UNL     1      -7.718   5.248  13.668  1.00  0.00    -0.089 C 
HETATM   32  C1  UNL     1      -7.404   3.785  13.813  1.00  0.00     0.042 C 
HETATM   33  C3  UNL     1      -8.767   5.548  12.627  1.00  0.00     0.042 C 
ENDBRANCH  29  30
BRANCH  29  34
HETATM   34  O1  UNL     1      -6.694   6.441  16.679  1.00  0.00    -0.391 OA
HETATM   35  H9  UNL     1      -7.448   5.828  16.757  1.00  0.00     0.210 HD
ENDBRANCH  29  34
ENDBRANCH  28  29
ENDBRANCH  26  28
ENDBRANCH  24  26
ENDBRANCH   1  24
BRANCH   9  36
HETATM   36  O3  UNL     1       6.675   8.126  12.626  1.00  0.00    -0.395 OA
HETATM   37  H30 UNL     1       6.606   8.974  12.158  1.00  0.00     0.210 HD
ENDBRANCH   9  36
TORSDOF 7
ENDMDL
MODEL 6
REMARK minimizedAffinity -9.11295891
REMARK  7 active torsions:
REMARK  status: ('A' for Active; 'I' for Inactive)
REMARK    1  A    between atoms: C4_4  and  C5_5 
REMARK    2  A    between atoms: C5_5  and  O1_6 
REMARK    3  A    between atoms: C5_5  and  C6_7 
REMARK    4  A    between atoms: C6_7  and  C7_8 
REMARK    5  A    between atoms: C7_8  and  C8_10 
REMARK    6  A    between atoms: C8_10  and  C10_12 
REMARK    7  A    between atoms: C18_20  and  O3_21 
ROOT
HETATM    1  C10 UNL     1      -0.187   6.898  12.506  1.00  0.00     0.008 C 
HETATM    2  C11 UNL     1       0.302   8.325  12.186  1.00  0.00     0.007 C 
HETATM    3  C12 UNL     1       0.605   9.127  13.453  1.00  0.00     0.006 C 
HETATM    4  C13 UNL     1      -0.579   9.179  14.444  1.00  0.00     0.003 C 
HETATM    5  C14 UNL     1      -0.345  10.130  15.705  1.00  0.00    -0.035 C 
HETATM    6  C15 UNL     1       0.835   9.644  16.578  1.00  0.00     0.016 C 
HETATM    7  C16 UNL     1       0.009  11.564  15.202  1.00  0.00     0.012 C 
HETATM    8  C17 UNL     1      -0.041  12.642  16.282  1.00  0.00     0.033 C 
HETATM    9  C18 UNL     1      -1.384  12.676  17.003  1.00  0.00     0.126 C 
HETATM   10  C19 UNL     1      -1.810  11.307  17.610  1.00  0.00    -0.017 C 
HETATM   11  C20 UNL     1      -3.286  11.457  18.075  1.00  0.00     0.018 C 
HETATM   12  C21 UNL     1      -1.002  10.963  18.877  1.00  0.00     0.018 C 
HETATM   13  C22 UNL     1      -1.715  10.215  16.478  1.00  0.00     0.004 C 
HETATM   14  C23 UNL     1      -2.214   8.818  16.890  1.00  0.00     0.007 C 
HETATM   15  C24 UNL     1      -2.412   7.906  15.672  1.00  0.00     0.011 C 
HETATM   16  C25 UNL     1      -1.164   7.736  14.759  1.00  0.00    -0.029 C 
HETATM   17  C26 UNL     1      -0.131   6.867  15.545  1.00  0.00     0.016 C 
HETATM   18  C27 UNL     1      -1.532   6.983  13.345  1.00  0.00     0.002 C 
HETATM   19  C28 UNL     1      -2.668   7.719  12.597  1.00  0.00     0.190 C 
HETATM   20  O4  UNL     1      -3.908   7.151  13.023  1.00  0.00    -0.321 OA
HETATM   21  C29 UNL     1      -3.685   5.929  13.567  1.00  0.00     0.259 C 
HETATM   22  O5  UNL     1      -4.565   5.184  13.964  1.00  0.00    -0.265 OA
HETATM   23  C30 UNL     1      -2.220   5.621  13.557  1.00  0.00     0.124 C 
ENDROOT
BRANCH   1  24
HETATM   24  C8  UNL     1      -0.051   5.981  11.234  1.00  0.00     0.056 C 
HETATM   25  C9  UNL     1      -1.172   4.977  11.004  1.00  0.00     0.018 C 
BRANCH  24  26
HETATM   26  C7  UNL     1       1.350   5.341  11.120  1.00  0.00     0.133 C 
HETATM   27  O2  UNL     1       1.492   4.118  11.037  1.00  0.00    -0.297 OA
BRANCH  26  28
HETATM   28  C6  UNL     1       2.585   6.227  11.157  1.00  0.00     0.114 C 
BRANCH  28  29
HETATM   29  C5  UNL     1       3.460   6.145   9.909  1.00  0.00     0.148 C 
BRANCH  29  30
HETATM   30  C4  UNL     1       2.703   6.197   8.612  1.00  0.00     0.007 C 
HETATM   31  C2  UNL     1       2.510   7.251   7.794  1.00  0.00    -0.089 C 
HETATM   32  C1  UNL     1       3.033   8.643   8.016  1.00  0.00     0.042 C 
HETATM   33  C3  UNL     1       1.697   7.098   6.533  1.00  0.00     0.042 C 
ENDBRANCH  29  30
BRANCH  29  34
HETATM   34  O1  UNL     1       4.215   4.937   9.923  1.00  0.00    -0.391 OA
HETATM   35  H9  UNL     1       4.741   4.932   9.102  1.00  0.00     0.210 HD
ENDBRANCH  29  34
ENDBRANCH  28  29
ENDBRANCH  26  28
ENDBRANCH  24  26
ENDBRANCH   1  24
BRANCH   9  36
HETATM   36  O3  UNL     1      -1.347  13.705  17.992  1.00  0.00    -0.395 OA
HETATM   37  H30 UNL     1      -0.590  13.540  18.577  1.00  0.00     0.210 HD
ENDBRANCH   9  36
TORSDOF 7
ENDMDL
MODEL 7
REMARK minimizedAffinity -8.90165424
REMARK  7 active torsions:
REMARK  status: ('A' for Active; 'I' for Inactive)
REMARK    1  A    between atoms: C4_4  and  C5_5 
REMARK    2  A    between atoms: C5_5  and  O1_6 
REMARK    3  A    between atoms: C5_5  and  C6_7 
REMARK    4  A    between atoms: C6_7  and  C7_8 
REMARK    5  A    between atoms: C7_8  and  C8_10 
REMARK    6  A    between atoms: C8_10  and  C10_12 
REMARK    7  A    between atoms: C18_20  and  O3_21 
ROOT
HETATM    1  C10 UNL     1      -2.785   5.521  13.295  1.00  0.00     0.008 C 
HETATM    2  C11 UNL     1      -3.188   5.515  14.784  1.00  0.00     0.007 C 
HETATM    3  C12 UNL     1      -3.356   6.930  15.341  1.00  0.00     0.006 C 
HETATM    4  C13 UNL     1      -2.114   7.824  15.129  1.00  0.00     0.003 C 
HETATM    5  C14 UNL     1      -2.202   9.257  15.828  1.00  0.00    -0.035 C 
HETATM    6  C15 UNL     1      -3.359  10.105  15.252  1.00  0.00     0.016 C 
HETATM    7  C16 UNL     1      -2.481   9.063  17.351  1.00  0.00     0.012 C 
HETATM    8  C17 UNL     1      -2.288  10.321  18.194  1.00  0.00     0.033 C 
HETATM    9  C18 UNL     1      -0.906  10.936  18.007  1.00  0.00     0.126 C 
HETATM   10  C19 UNL     1      -0.543  11.238  16.523  1.00  0.00    -0.017 C 
HETATM   11  C20 UNL     1       0.966  11.614  16.491  1.00  0.00     0.018 C 
HETATM   12  C21 UNL     1      -1.296  12.473  15.987  1.00  0.00     0.018 C 
HETATM   13  C22 UNL     1      -0.785   9.929  15.680  1.00  0.00     0.004 C 
HETATM   14  C23 UNL     1      -0.364  10.030  14.202  1.00  0.00     0.007 C 
HETATM   15  C24 UNL     1      -0.306   8.650  13.534  1.00  0.00     0.011 C 
HETATM   16  C25 UNL     1      -1.616   7.815  13.620  1.00  0.00    -0.029 C 
HETATM   17  C26 UNL     1      -2.660   8.494  12.677  1.00  0.00     0.016 C 
HETATM   18  C27 UNL     1      -1.390   6.260  13.136  1.00  0.00     0.002 C 
HETATM   19  C28 UNL     1      -0.250   5.585  13.935  1.00  0.00     0.190 C 
HETATM   20  O4  UNL     1       0.969   5.803  13.223  1.00  0.00    -0.321 OA
HETATM   21  C29 UNL     1       0.691   6.120  11.934  1.00  0.00     0.259 C 
HETATM   22  O5  UNL     1       1.537   6.302  11.076  1.00  0.00    -0.265 OA
HETATM   23  C30 UNL     1      -0.790   6.158  11.721  1.00  0.00     0.124 C 
ENDROOT
BRANCH   1  24
HETATM   24  C8  UNL     1      -3.064   4.111  12.654  1.00  0.00     0.056 C 
HETATM   25  C9  UNL     1      -2.071   3.643  11.600  1.00  0.00     0.018 C 
BRANCH  24  26
HETATM   26  C7  UNL     1      -4.531   3.955  12.196  1.00  0.00     0.133 C 
HETATM   27  O2  UNL     1      -4.822   3.312  11.184  1.00  0.00    -0.297 OA
BRANCH  26  28
HETATM   28  C6  UNL     1      -5.637   4.643  12.979  1.00  0.00     0.114 C 
BRANCH  28  29
HETATM   29  C5  UNL     1      -7.048   4.186  12.614  1.00  0.00     0.148 C 
BRANCH  29  30
HETATM   30  C4  UNL     1      -8.148   5.008  13.226  1.00  0.00     0.007 C 
HETATM   31  C2  UNL     1      -9.018   5.836  12.614  1.00  0.00    -0.089 C 
HETATM   32  C1  UNL     1      -9.074   6.117  11.138  1.00  0.00     0.042 C 
HETATM   33  C3  UNL     1     -10.047   6.589  13.418  1.00  0.00     0.042 C 
ENDBRANCH  29  30
BRANCH  29  34
HETATM   34  O1  UNL     1      -7.241   2.834  13.016  1.00  0.00    -0.391 OA
HETATM   35  H9  UNL     1      -8.156   2.602  12.772  1.00  0.00     0.210 HD
ENDBRANCH  29  34
ENDBRANCH  28  29
ENDBRANCH  26  28
ENDBRANCH  24  26
ENDBRANCH   1  24
BRANCH   9  36
HETATM   36  O3  UNL     1      -0.809  12.103  18.824  1.00  0.00    -0.395 OA
HETATM   37  H30 UNL     1      -1.539  12.699  18.592  1.00  0.00     0.210 HD
ENDBRANCH   9  36
TORSDOF 7
ENDMDL
MODEL 8
REMARK minimizedAffinity -8.86232567
REMARK  7 active torsions:
REMARK  status: ('A' for Active; 'I' for Inactive)
REMARK    1  A    between atoms: C4_4  and  C5_5 
REMARK    2  A    between atoms: C5_5  and  O1_6 
REMARK    3  A    between atoms: C5_5  and  C6_7 
REMARK    4  A    between atoms: C6_7  and  C7_8 
REMARK    5  A    between atoms: C7_8  and  C8_10 
REMARK    6  A    between atoms: C8_10  and  C10_12 
REMARK    7  A    between atoms: C18_20  and  O3_21 
ROOT
HETATM    1  C10 UNL     1      -5.047   5.528  13.985  1.00  0.00     0.008 C 
HETATM    2  C11 UNL     1      -4.640   4.971  12.606  1.00  0.00     0.007 C 
HETATM    3  C12 UNL     1      -3.126   4.785  12.484  1.00  0.00     0.006 C 
HETATM    4  C13 UNL     1      -2.324   6.068  12.799  1.00  0.00     0.003 C 
HETATM    5  C14 UNL     1      -0.754   5.946  12.537  1.00  0.00    -0.035 C 
HETATM    6  C15 UNL     1      -0.102   4.880  13.448  1.00  0.00     0.016 C 
HETATM    7  C16 UNL     1      -0.517   5.503  11.060  1.00  0.00     0.012 C 
HETATM    8  C17 UNL     1       0.927   5.642  10.583  1.00  0.00     0.033 C 
HETATM    9  C18 UNL     1       1.469   7.053  10.781  1.00  0.00     0.126 C 
HETATM   10  C19 UNL     1       1.347   7.578  12.242  1.00  0.00    -0.017 C 
HETATM   11  C20 UNL     1       1.702   9.091  12.212  1.00  0.00     0.018 C 
HETATM   12  C21 UNL     1       2.382   6.920  13.177  1.00  0.00     0.018 C 
HETATM   13  C22 UNL     1      -0.146   7.390  12.711  1.00  0.00     0.004 C 
HETATM   14  C23 UNL     1      -0.459   7.966  14.104  1.00  0.00     0.007 C 
HETATM   15  C24 UNL     1      -1.970   8.055  14.353  1.00  0.00     0.011 C 
HETATM   16  C25 UNL     1      -2.751   6.721  14.183  1.00  0.00    -0.029 C 
HETATM   17  C26 UNL     1      -2.363   5.801  15.384  1.00  0.00     0.016 C 
HETATM   18  C27 UNL     1      -4.379   6.953  14.190  1.00  0.00     0.002 C 
HETATM   19  C28 UNL     1      -4.802   7.982  13.116  1.00  0.00     0.190 C 
HETATM   20  O4  UNL     1      -4.788   9.275  13.723  1.00  0.00    -0.321 OA
HETATM   21  C29 UNL     1      -4.843   9.144  15.072  1.00  0.00     0.259 C 
HETATM   22  O5  UNL     1      -4.905  10.080  15.850  1.00  0.00    -0.265 OA
HETATM   23  C30 UNL     1      -4.869   7.694  15.448  1.00  0.00     0.124 C 
ENDROOT
BRANCH   1  24
HETATM   24  C8  UNL     1      -6.581   5.279  14.237  1.00  0.00     0.056 C 
HETATM   25  C9  UNL     1      -7.005   5.106  15.689  1.00  0.00     0.018 C 
BRANCH  24  26
HETATM   26  C7  UNL     1      -7.155   4.179  13.317  1.00  0.00     0.133 C 
HETATM   27  O2  UNL     1      -6.547   3.122  13.125  1.00  0.00    -0.297 OA
BRANCH  26  28
HETATM   28  C6  UNL     1      -8.471   4.417  12.595  1.00  0.00     0.114 C 
BRANCH  28  29
HETATM   29  C5  UNL     1      -8.812   5.888  12.370  1.00  0.00     0.148 C 
BRANCH  29  30
HETATM   30  C4  UNL     1      -9.997   6.380  13.152  1.00  0.00     0.007 C 
HETATM   31  C2  UNL     1     -10.025   7.278  14.157  1.00  0.00    -0.089 C 
HETATM   32  C1  UNL     1      -8.835   8.003  14.723  1.00  0.00     0.042 C 
HETATM   33  C3  UNL     1     -11.329   7.628  14.829  1.00  0.00     0.042 C 
ENDBRANCH  29  30
BRANCH  29  34
HETATM   34  O1  UNL     1      -9.075   6.121  10.990  1.00  0.00    -0.391 OA
HETATM   35  H9  UNL     1      -9.299   7.066  10.908  1.00  0.00     0.210 HD
ENDBRANCH  29  34
ENDBRANCH  28  29
ENDBRANCH  26  28
ENDBRANCH  24  26
ENDBRANCH   1  24
BRANCH   9  36
HETATM   36  O3  UNL     1       2.817   7.096  10.313  1.00  0.00    -0.395 OA
HETATM   37  H30 UNL     1       3.324   6.412  10.779  1.00  0.00     0.210 HD
ENDBRANCH   9  36
TORSDOF 7
ENDMDL
MODEL 9
REMARK minimizedAffinity -8.83677864
REMARK  7 active torsions:
REMARK  status: ('A' for Active; 'I' for Inactive)
REMARK    1  A    between atoms: C4_4  and  C5_5 
REMARK    2  A    between atoms: C5_5  and  O1_6 
REMARK    3  A    between atoms: C5_5  and  C6_7 
REMARK    4  A    between atoms: C6_7  and  C7_8 
REMARK    5  A    between atoms: C7_8  and  C8_10 
REMARK    6  A    between atoms: C8_10  and  C10_12 
REMARK    7  A    between atoms: C18_20  and  O3_21 
ROOT
HETATM    1  C10 UNL     1      -0.146   7.989  13.722  1.00  0.00     0.008 C 
HETATM    2  C11 UNL     1      -1.306   8.996  13.574  1.00  0.00     0.007 C 
HETATM    3  C12 UNL     1      -2.626   8.436  14.105  1.00  0.00     0.006 C 
HETATM    4  C13 UNL     1      -3.015   7.079  13.476  1.00  0.00     0.003 C 
HETATM    5  C14 UNL     1      -4.457   6.541  13.899  1.00  0.00    -0.035 C 
HETATM    6  C15 UNL     1      -4.543   6.271  15.419  1.00  0.00     0.016 C 
HETATM    7  C16 UNL     1      -5.524   7.627  13.559  1.00  0.00     0.012 C 
HETATM    8  C17 UNL     1      -6.968   7.135  13.625  1.00  0.00     0.033 C 
HETATM    9  C18 UNL     1      -7.201   5.906  12.754  1.00  0.00     0.126 C 
HETATM   10  C19 UNL     1      -6.231   4.725  13.055  1.00  0.00    -0.017 C 
HETATM   11  C20 UNL     1      -6.435   3.672  11.929  1.00  0.00     0.018 C 
HETATM   12  C21 UNL     1      -6.589   4.008  14.372  1.00  0.00     0.018 C 
HETATM   13  C22 UNL     1      -4.756   5.276  13.010  1.00  0.00     0.004 C 
HETATM   14  C23 UNL     1      -3.664   4.203  13.177  1.00  0.00     0.007 C 
HETATM   15  C24 UNL     1      -2.279   4.738  12.790  1.00  0.00     0.011 C 
HETATM   16  C25 UNL     1      -1.829   6.023  13.543  1.00  0.00    -0.029 C 
HETATM   17  C26 UNL     1      -1.524   5.611  15.019  1.00  0.00     0.016 C 
HETATM   18  C27 UNL     1      -0.478   6.685  12.881  1.00  0.00     0.002 C 
HETATM   19  C28 UNL     1      -0.674   6.968  11.373  1.00  0.00     0.190 C 
HETATM   20  O4  UNL     1      -0.250   5.809  10.654  1.00  0.00    -0.321 OA
HETATM   21  C29 UNL     1       0.557   5.055  11.443  1.00  0.00     0.259 C 
HETATM   22  O5  UNL     1       1.116   4.036  11.077  1.00  0.00    -0.265 OA
HETATM   23  C30 UNL     1       0.692   5.687  12.794  1.00  0.00     0.124 C 
ENDROOT
BRANCH   1  24
HETATM   24  C8  UNL     1       1.235   8.734  13.601  1.00  0.00     0.056 C 
HETATM   25  C9  UNL     1       1.855   8.783  12.212  1.00  0.00     0.018 C 
BRANCH  24  26
HETATM   26  C7  UNL     1       2.241   8.282  14.683  1.00  0.00     0.133 C 
HETATM   27  O2  UNL     1       1.997   7.328  15.427  1.00  0.00    -0.297 OA
BRANCH  26  28
HETATM   28  C6  UNL     1       3.539   9.052  14.868  1.00  0.00     0.114 C 
BRANCH  28  29
HETATM   29  C5  UNL     1       4.802   8.226  14.636  1.00  0.00     0.148 C 
BRANCH  29  30
HETATM   30  C4  UNL     1       4.917   7.636  13.259  1.00  0.00     0.007 C 
HETATM   31  C2  UNL     1       6.033   7.343  12.562  1.00  0.00    -0.089 C 
HETATM   32  C1  UNL     1       7.446   7.550  13.035  1.00  0.00     0.042 C 
HETATM   33  C3  UNL     1       5.933   6.764  11.173  1.00  0.00     0.042 C 
ENDBRANCH  29  30
BRANCH  29  34
HETATM   34  O1  UNL     1       4.864   7.156  15.574  1.00  0.00    -0.391 OA
HETATM   35  H9  UNL     1       5.677   6.659  15.371  1.00  0.00     0.210 HD
ENDBRANCH  29  34
ENDBRANCH  28  29
ENDBRANCH  26  28
ENDBRANCH  24  26
ENDBRANCH   1  24
BRANCH   9  36
HETATM   36  O3  UNL     1      -8.568   5.512  12.874  1.00  0.00    -0.395 OA
HETATM   37  H30 UNL     1      -8.764   5.371  13.814  1.00  0.00     0.210 HD
ENDBRANCH   9  36
TORSDOF 7
ENDMDL
