MODEL 1
REMARK minimizedAffinity -8.65425777
REMARK  10 active torsions:
REMARK  status: ('A' for Active; 'I' for Inactive)
REMARK    1  A    between atoms: C5_5  and  C6_6 
REMARK    2  A    between atoms: C6_6  and  C8_8 
REMARK    3  A    between atoms: C8_8  and  O1_9 
REMARK    4  A    between atoms: C15_17  and  O3_18 
REMARK    5  A    between atoms: C18_21  and  O4_23 
REMARK    6  A    between atoms: O4_23  and  C20_24 
REMARK    7  A    between atoms: C20_24  and  C21_26 
REMARK    8  A    between atoms: C21_26  and  C22_27 
REMARK    9  A    between atoms: C21_26  and  O6_29 
REMARK   10  A    between atoms: O6_29  and  C24_30 
ROOT
HETATM    1  C1  UNL     1      -5.204  46.246 -21.559  1.00  0.00     0.015 C 
HETATM    2  C2  UNL     1      -5.137  47.495 -22.048  1.00  0.00    -0.082 C 
HETATM    3  C3  UNL     1      -6.376  48.215 -22.508  1.00  0.00     0.034 C 
HETATM    4  C4  UNL     1      -6.097  49.337 -23.505  1.00  0.00     0.010 C 
HETATM    5  C5  UNL     1      -4.882  49.115 -24.426  1.00  0.00    -0.001 C 
HETATM    6  C9  UNL     1      -3.573  48.822 -23.634  1.00  0.00     0.033 C 
HETATM    7  C10 UNL     1      -2.739  50.034 -23.198  1.00  0.00     0.162 C 
HETATM    8  O2  UNL     1      -3.539  50.554 -22.128  1.00  0.00    -0.376 OA
HETATM    9  C11 UNL     1      -3.711  49.448 -21.236  1.00  0.00     0.134 C 
HETATM   10  C12 UNL     1      -2.486  49.438 -20.284  1.00  0.00     0.068 C 
HETATM   11  C13 UNL     1      -2.085  50.844 -19.844  1.00  0.00    -0.059 C 
HETATM   12  C14 UNL     1      -2.854  51.508 -18.959  1.00  0.00     0.017 C 
HETATM   13  C15 UNL     1      -0.805  51.471 -20.377  1.00  0.00     0.146 C 
HETATM   14  C16 UNL     1      -0.472  51.497 -21.889  1.00  0.00     0.039 C 
HETATM   15  C17 UNL     1      -1.491  52.177 -22.838  1.00  0.00     0.044 C 
HETATM   16  C18 UNL     1      -2.120  51.230 -23.946  1.00  0.00     0.093 C 
HETATM   17  C19 UNL     1      -3.090  52.090 -24.761  1.00  0.00     0.049 C 
HETATM   18  C26 UNL     1      -3.824  48.225 -22.194  1.00  0.00     0.050 C 
ENDROOT
BRANCH  16  19
HETATM   19  O4  UNL     1      -0.970  50.837 -24.746  1.00  0.00    -0.306 OA
BRANCH  19  20
HETATM   20  C20 UNL     1      -0.914  51.097 -26.075  1.00  0.00     0.289 C 
HETATM   21  O5  UNL     1      -1.533  50.488 -26.937  1.00  0.00    -0.262 OA
BRANCH  20  22
HETATM   22  C21 UNL     1       0.098  52.212 -26.379  1.00  0.00     0.231 C 
BRANCH  22  23
HETATM   23  C22 UNL     1       1.437  51.881 -25.705  1.00  0.00     0.038 C 
HETATM   24  C23 UNL     1       2.539  51.502 -26.688  1.00  0.00     0.008 C 
ENDBRANCH  22  23
BRANCH  22  25
HETATM   25  O6  UNL     1      -0.295  53.528 -25.965  1.00  0.00    -0.306 OA
BRANCH  25  26
HETATM   26  C24 UNL     1      -0.159  54.489 -26.918  1.00  0.00     0.255 C 
HETATM   27  C25 UNL     1      -0.455  53.919 -28.271  1.00  0.00     0.126 C 
HETATM   28  O7  UNL     1       0.177  55.646 -26.710  1.00  0.00    -0.266 OA
ENDBRANCH  25  26
ENDBRANCH  22  25
ENDBRANCH  20  22
ENDBRANCH  19  20
ENDBRANCH  16  19
BRANCH   5  29
HETATM   29  C6  UNL     1      -5.117  48.100 -25.600  1.00  0.00     0.010 C 
HETATM   30  C7  UNL     1      -6.580  47.785 -25.928  1.00  0.00     0.012 C 
BRANCH  29  31
HETATM   31  C8  UNL     1      -4.352  48.517 -26.872  1.00  0.00     0.168 C 
BRANCH  31  32
HETATM   32  O1  UNL     1      -5.227  48.642 -27.989  1.00  0.00    -0.400 OA
HETATM   33  H14 UNL     1      -5.805  49.405 -27.831  1.00  0.00     0.209 HD
ENDBRANCH  31  32
ENDBRANCH  29  31
ENDBRANCH   5  29
BRANCH  13  34
HETATM   34  O3  UNL     1       0.275  50.778 -19.739  1.00  0.00    -0.391 OA
HETATM   35  H23 UNL     1       0.065  50.754 -18.790  1.00  0.00     0.210 HD
ENDBRANCH  13  34
TORSDOF 10
ENDMDL
MODEL 2
REMARK minimizedAffinity -8.44280243
REMARK  10 active torsions:
REMARK  status: ('A' for Active; 'I' for Inactive)
REMARK    1  A    between atoms: C5_5  and  C6_6 
REMARK    2  A    between atoms: C6_6  and  C8_8 
REMARK    3  A    between atoms: C8_8  and  O1_9 
REMARK    4  A    between atoms: C15_17  and  O3_18 
REMARK    5  A    between atoms: C18_21  and  O4_23 
REMARK    6  A    between atoms: O4_23  and  C20_24 
REMARK    7  A    between atoms: C20_24  and  C21_26 
REMARK    8  A    between atoms: C21_26  and  C22_27 
REMARK    9  A    between atoms: C21_26  and  O6_29 
REMARK   10  A    between atoms: O6_29  and  C24_30 
ROOT
HETATM    1  C1  UNL     1      -3.126  46.591 -21.241  1.00  0.00     0.015 C 
HETATM    2  C2  UNL     1      -3.380  47.807 -21.752  1.00  0.00    -0.082 C 
HETATM    3  C3  UNL     1      -4.788  48.331 -21.841  1.00  0.00     0.034 C 
HETATM    4  C4  UNL     1      -4.971  49.417 -22.898  1.00  0.00     0.010 C 
HETATM    5  C5  UNL     1      -4.055  49.299 -24.132  1.00  0.00    -0.001 C 
HETATM    6  C9  UNL     1      -2.546  49.226 -23.755  1.00  0.00     0.033 C 
HETATM    7  C10 UNL     1      -1.801  50.560 -23.609  1.00  0.00     0.162 C 
HETATM    8  O2  UNL     1      -2.323  51.036 -22.362  1.00  0.00    -0.376 OA
HETATM    9  C11 UNL     1      -2.071  49.973 -21.436  1.00  0.00     0.134 C 
HETATM   10  C12 UNL     1      -0.635  50.179 -20.888  1.00  0.00     0.068 C 
HETATM   11  C13 UNL     1      -0.327  51.650 -20.614  1.00  0.00    -0.059 C 
HETATM   12  C14 UNL     1      -0.893  52.261 -19.554  1.00  0.00     0.017 C 
HETATM   13  C15 UNL     1       0.642  52.404 -21.513  1.00  0.00     0.146 C 
HETATM   14  C16 UNL     1       0.517  52.381 -23.056  1.00  0.00     0.039 C 
HETATM   15  C17 UNL     1      -0.818  52.864 -23.675  1.00  0.00     0.044 C 
HETATM   16  C18 UNL     1      -1.600  51.778 -24.530  1.00  0.00     0.093 C 
HETATM   17  C19 UNL     1      -2.876  52.455 -25.040  1.00  0.00     0.049 C 
HETATM   18  C26 UNL     1      -2.282  48.690 -22.293  1.00  0.00     0.050 C 
ENDROOT
BRANCH  16  19
HETATM   19  O4  UNL     1      -0.687  51.490 -25.625  1.00  0.00    -0.306 OA
BRANCH  19  20
HETATM   20  C20 UNL     1      -1.102  51.520 -26.915  1.00  0.00     0.289 C 
HETATM   21  O5  UNL     1      -2.261  51.390 -27.284  1.00  0.00    -0.262 OA
BRANCH  20  22
HETATM   22  C21 UNL     1       0.088  51.658 -27.877  1.00  0.00     0.231 C 
BRANCH  22  23
HETATM   23  C22 UNL     1       1.377  51.247 -27.152  1.00  0.00     0.038 C 
HETATM   24  C23 UNL     1       2.636  51.881 -27.733  1.00  0.00     0.008 C 
ENDBRANCH  22  23
BRANCH  22  25
HETATM   25  O6  UNL     1       0.286  52.968 -28.425  1.00  0.00    -0.306 OA
BRANCH  25  26
HETATM   26  C24 UNL     1      -0.302  53.974 -27.721  1.00  0.00     0.255 C 
HETATM   27  C25 UNL     1      -1.527  54.455 -28.436  1.00  0.00     0.126 C 
HETATM   28  O7  UNL     1       0.115  54.436 -26.669  1.00  0.00    -0.266 OA
ENDBRANCH  25  26
ENDBRANCH  22  25
ENDBRANCH  20  22
ENDBRANCH  19  20
ENDBRANCH  16  19
BRANCH   5  29
HETATM   29  C6  UNL     1      -4.473  48.192 -25.164  1.00  0.00     0.010 C 
HETATM   30  C7  UNL     1      -5.977  48.057 -25.425  1.00  0.00     0.012 C 
BRANCH  29  31
HETATM   31  C8  UNL     1      -3.701  48.334 -26.491  1.00  0.00     0.168 C 
BRANCH  31  32
HETATM   32  O1  UNL     1      -4.244  49.371 -27.302  1.00  0.00    -0.400 OA
HETATM   33  H14 UNL     1      -4.064  50.218 -26.862  1.00  0.00     0.209 HD
ENDBRANCH  31  32
ENDBRANCH  29  31
ENDBRANCH   5  29
BRANCH  13  34
HETATM   34  O3  UNL     1       1.947  51.896 -21.208  1.00  0.00    -0.391 OA
HETATM   35  H23 UNL     1       2.026  51.903 -20.238  1.00  0.00     0.210 HD
ENDBRANCH  13  34
TORSDOF 10
ENDMDL
MODEL 3
REMARK minimizedAffinity -8.1022625
REMARK  10 active torsions:
REMARK  status: ('A' for Active; 'I' for Inactive)
REMARK    1  A    between atoms: C5_5  and  C6_6 
REMARK    2  A    between atoms: C6_6  and  C8_8 
REMARK    3  A    between atoms: C8_8  and  O1_9 
REMARK    4  A    between atoms: C15_17  and  O3_18 
REMARK    5  A    between atoms: C18_21  and  O4_23 
REMARK    6  A    between atoms: O4_23  and  C20_24 
REMARK    7  A    between atoms: C20_24  and  C21_26 
REMARK    8  A    between atoms: C21_26  and  C22_27 
REMARK    9  A    between atoms: C21_26  and  O6_29 
REMARK   10  A    between atoms: O6_29  and  C24_30 
ROOT
HETATM    1  C1  UNL     1      -3.458  48.310 -27.780  1.00  0.00     0.015 C 
HETATM    2  C2  UNL     1      -3.272  49.375 -26.983  1.00  0.00    -0.082 C 
HETATM    3  C3  UNL     1      -3.261  50.771 -27.545  1.00  0.00     0.034 C 
HETATM    4  C4  UNL     1      -2.518  51.776 -26.669  1.00  0.00     0.010 C 
HETATM    5  C5  UNL     1      -1.338  51.204 -25.860  1.00  0.00    -0.001 C 
HETATM    6  C9  UNL     1      -1.750  49.989 -24.976  1.00  0.00     0.033 C 
HETATM    7  C10 UNL     1      -2.273  50.301 -23.567  1.00  0.00     0.162 C 
HETATM    8  O2  UNL     1      -3.577  50.819 -23.862  1.00  0.00    -0.376 OA
HETATM    9  C11 UNL     1      -4.202  49.797 -24.646  1.00  0.00     0.134 C 
HETATM   10  C12 UNL     1      -4.849  48.795 -23.653  1.00  0.00     0.068 C 
HETATM   11  C13 UNL     1      -5.512  49.501 -22.471  1.00  0.00    -0.059 C 
HETATM   12  C14 UNL     1      -6.668  50.167 -22.659  1.00  0.00     0.017 C 
HETATM   13  C15 UNL     1      -4.886  49.415 -21.087  1.00  0.00     0.146 C 
HETATM   14  C16 UNL     1      -3.386  49.717 -20.845  1.00  0.00     0.039 C 
HETATM   15  C17 UNL     1      -2.856  51.110 -21.268  1.00  0.00     0.044 C 
HETATM   16  C18 UNL     1      -1.713  51.092 -22.370  1.00  0.00     0.093 C 
HETATM   17  C19 UNL     1      -1.342  52.553 -22.642  1.00  0.00     0.049 C 
HETATM   18  C26 UNL     1      -3.030  49.228 -25.500  1.00  0.00     0.050 C 
ENDROOT
BRANCH  16  19
HETATM   19  O4  UNL     1      -0.622  50.389 -21.713  1.00  0.00    -0.306 OA
BRANCH  19  20
HETATM   20  C20 UNL     1      -0.763  49.877 -20.466  1.00  0.00     0.289 C 
HETATM   21  O5  UNL     1      -1.324  48.824 -20.198  1.00  0.00    -0.262 OA
BRANCH  20  22
HETATM   22  C21 UNL     1      -0.195  50.834 -19.407  1.00  0.00     0.231 C 
BRANCH  22  23
HETATM   23  C22 UNL     1      -0.941  50.625 -18.082  1.00  0.00     0.038 C 
HETATM   24  C23 UNL     1      -0.122  49.889 -17.027  1.00  0.00     0.008 C 
ENDBRANCH  22  23
BRANCH  22  25
HETATM   25  O6  UNL     1      -0.262  52.227 -19.740  1.00  0.00    -0.306 OA
BRANCH  25  26
HETATM   26  C24 UNL     1       0.848  52.943 -19.413  1.00  0.00     0.255 C 
HETATM   27  C25 UNL     1       1.222  53.856 -20.538  1.00  0.00     0.126 C 
HETATM   28  O7  UNL     1       1.467  52.845 -18.362  1.00  0.00    -0.266 OA
ENDBRANCH  25  26
ENDBRANCH  22  25
ENDBRANCH  20  22
ENDBRANCH  19  20
ENDBRANCH  16  19
BRANCH   5  29
HETATM   29  C6  UNL     1      -0.035  50.931 -26.691  1.00  0.00     0.010 C 
HETATM   30  C7  UNL     1       0.052  51.636 -28.048  1.00  0.00     0.012 C 
BRANCH  29  31
HETATM   31  C8  UNL     1       1.235  51.196 -25.858  1.00  0.00     0.168 C 
BRANCH  31  32
HETATM   32  O1  UNL     1       2.374  51.386 -26.690  1.00  0.00    -0.400 OA
HETATM   33  H14 UNL     1       2.257  52.223 -27.169  1.00  0.00     0.209 HD
ENDBRANCH  31  32
ENDBRANCH  29  31
ENDBRANCH   5  29
BRANCH  13  34
HETATM   34  O3  UNL     1      -5.105  48.074 -20.631  1.00  0.00    -0.391 OA
HETATM   35  H23 UNL     1      -6.045  47.880 -20.788  1.00  0.00     0.210 HD
ENDBRANCH  13  34
TORSDOF 10
ENDMDL
MODEL 4
REMARK minimizedAffinity -8.00715637
REMARK  10 active torsions:
REMARK  status: ('A' for Active; 'I' for Inactive)
REMARK    1  A    between atoms: C5_5  and  C6_6 
REMARK    2  A    between atoms: C6_6  and  C8_8 
REMARK    3  A    between atoms: C8_8  and  O1_9 
REMARK    4  A    between atoms: C15_17  and  O3_18 
REMARK    5  A    between atoms: C18_21  and  O4_23 
REMARK    6  A    between atoms: O4_23  and  C20_24 
REMARK    7  A    between atoms: C20_24  and  C21_26 
REMARK    8  A    between atoms: C21_26  and  C22_27 
REMARK    9  A    between atoms: C21_26  and  O6_29 
REMARK   10  A    between atoms: O6_29  and  C24_30 
ROOT
HETATM    1  C1  UNL     1       0.121  53.597 -24.984  1.00  0.00     0.015 C 
HETATM    2  C2  UNL     1      -0.448  52.401 -24.756  1.00  0.00    -0.082 C 
HETATM    3  C3  UNL     1      -0.048  51.189 -25.553  1.00  0.00     0.034 C 
HETATM    4  C4  UNL     1      -1.112  50.095 -25.578  1.00  0.00     0.010 C 
HETATM    5  C5  UNL     1      -2.569  50.588 -25.504  1.00  0.00    -0.001 C 
HETATM    6  C9  UNL     1      -2.831  51.504 -24.271  1.00  0.00     0.033 C 
HETATM    7  C10 UNL     1      -3.236  50.810 -22.964  1.00  0.00     0.162 C 
HETATM    8  O2  UNL     1      -1.989  50.233 -22.556  1.00  0.00    -0.376 OA
HETATM    9  C11 UNL     1      -1.075  51.334 -22.526  1.00  0.00     0.134 C 
HETATM   10  C12 UNL     1      -1.202  51.991 -21.127  1.00  0.00     0.068 C 
HETATM   11  C13 UNL     1      -1.339  50.955 -20.012  1.00  0.00    -0.059 C 
HETATM   12  C14 UNL     1      -0.266  50.226 -19.648  1.00  0.00     0.017 C 
HETATM   13  C15 UNL     1      -2.671  50.780 -19.297  1.00  0.00     0.146 C 
HETATM   14  C16 UNL     1      -4.000  50.601 -20.071  1.00  0.00     0.039 C 
HETATM   15  C17 UNL     1      -4.098  49.418 -21.066  1.00  0.00     0.044 C 
HETATM   16  C18 UNL     1      -4.357  49.826 -22.579  1.00  0.00     0.093 C 
HETATM   17  C19 UNL     1      -4.415  48.523 -23.382  1.00  0.00     0.049 C 
HETATM   18  C26 UNL     1      -1.534  52.218 -23.724  1.00  0.00     0.050 C 
ENDROOT
BRANCH  16  19
HETATM   19  O4  UNL     1      -5.660  50.472 -22.536  1.00  0.00    -0.306 OA
BRANCH  19  20
HETATM   20  C20 UNL     1      -6.697  49.923 -21.858  1.00  0.00     0.289 C 
HETATM   21  O5  UNL     1      -6.824  49.931 -20.641  1.00  0.00    -0.262 OA
BRANCH  20  22
HETATM   22  C21 UNL     1      -7.667  49.209 -22.812  1.00  0.00     0.231 C 
BRANCH  22  23
HETATM   23  C22 UNL     1      -7.761  47.726 -22.424  1.00  0.00     0.038 C 
HETATM   24  C23 UNL     1      -9.027  47.374 -21.652  1.00  0.00     0.008 C 
ENDBRANCH  22  23
BRANCH  22  25
HETATM   25  O6  UNL     1      -7.326  49.284 -24.203  1.00  0.00    -0.306 OA
BRANCH  25  26
HETATM   26  C24 UNL     1      -8.242  48.730 -25.042  1.00  0.00     0.255 C 
HETATM   27  C25 UNL     1      -7.637  47.572 -25.774  1.00  0.00     0.126 C 
HETATM   28  O7  UNL     1      -9.388  49.128 -25.199  1.00  0.00    -0.266 OA
ENDBRANCH  25  26
ENDBRANCH  22  25
ENDBRANCH  20  22
ENDBRANCH  19  20
ENDBRANCH  16  19
BRANCH   5  29
HETATM   29  C6  UNL     1      -3.132  51.197 -26.837  1.00  0.00     0.010 C 
HETATM   30  C7  UNL     1      -2.345  52.376 -27.417  1.00  0.00     0.012 C 
BRANCH  29  31
HETATM   31  C8  UNL     1      -3.350  50.110 -27.909  1.00  0.00     0.168 C 
BRANCH  31  32
HETATM   32  O1  UNL     1      -3.562  50.681 -29.195  1.00  0.00    -0.400 OA
HETATM   33  H14 UNL     1      -2.730  51.092 -29.479  1.00  0.00     0.209 HD
ENDBRANCH  31  32
ENDBRANCH  29  31
ENDBRANCH   5  29
BRANCH  13  34
HETATM   34  O3  UNL     1      -2.838  51.941 -18.473  1.00  0.00    -0.391 OA
HETATM   35  H23 UNL     1      -2.002  52.059 -17.991  1.00  0.00     0.210 HD
ENDBRANCH  13  34
TORSDOF 10
ENDMDL
MODEL 5
REMARK minimizedAffinity -7.96338463
REMARK  10 active torsions:
REMARK  status: ('A' for Active; 'I' for Inactive)
REMARK    1  A    between atoms: C5_5  and  C6_6 
REMARK    2  A    between atoms: C6_6  and  C8_8 
REMARK    3  A    between atoms: C8_8  and  O1_9 
REMARK    4  A    between atoms: C15_17  and  O3_18 
REMARK    5  A    between atoms: C18_21  and  O4_23 
REMARK    6  A    between atoms: O4_23  and  C20_24 
REMARK    7  A    between atoms: C20_24  and  C21_26 
REMARK    8  A    between atoms: C21_26  and  C22_27 
REMARK    9  A    between atoms: C21_26  and  O6_29 
REMARK   10  A    between atoms: O6_29  and  C24_30 
ROOT
HETATM    1  C1  UNL     1      -3.464  48.194 -27.748  1.00  0.00     0.015 C 
HETATM    2  C2  UNL     1      -3.341  49.292 -26.984  1.00  0.00    -0.082 C 
HETATM    3  C3  UNL     1      -3.366  50.668 -27.595  1.00  0.00     0.034 C 
HETATM    4  C4  UNL     1      -2.687  51.731 -26.736  1.00  0.00     0.010 C 
HETATM    5  C5  UNL     1      -1.511  51.232 -25.874  1.00  0.00    -0.001 C 
HETATM    6  C9  UNL     1      -1.902  50.034 -24.959  1.00  0.00     0.033 C 
HETATM    7  C10 UNL     1      -2.477  50.374 -23.578  1.00  0.00     0.162 C 
HETATM    8  O2  UNL     1      -3.791  50.831 -23.927  1.00  0.00    -0.376 OA
HETATM    9  C11 UNL     1      -4.354  49.759 -24.690  1.00  0.00     0.134 C 
HETATM   10  C12 UNL     1      -4.991  48.768 -23.681  1.00  0.00     0.068 C 
HETATM   11  C13 UNL     1      -5.714  49.488 -22.544  1.00  0.00    -0.059 C 
HETATM   12  C14 UNL     1      -6.888  50.102 -22.787  1.00  0.00     0.017 C 
HETATM   13  C15 UNL     1      -5.126  49.474 -21.141  1.00  0.00     0.146 C 
HETATM   14  C16 UNL     1      -3.646  49.842 -20.868  1.00  0.00     0.039 C 
HETATM   15  C17 UNL     1      -3.157  51.238 -21.326  1.00  0.00     0.044 C 
HETATM   16  C18 UNL     1      -1.982  51.226 -22.394  1.00  0.00     0.093 C 
HETATM   17  C19 UNL     1      -1.658  52.690 -22.707  1.00  0.00     0.049 C 
HETATM   18  C26 UNL     1      -3.137  49.207 -25.491  1.00  0.00     0.050 C 
ENDROOT
BRANCH  16  19
HETATM   19  O4  UNL     1      -0.885  50.589 -21.683  1.00  0.00    -0.306 OA
BRANCH  19  20
HETATM   20  C20 UNL     1       0.140  51.313 -21.172  1.00  0.00     0.289 C 
HETATM   21  O5  UNL     1       1.213  51.500 -21.728  1.00  0.00    -0.262 OA
BRANCH  20  22
HETATM   22  C21 UNL     1      -0.185  51.811 -19.755  1.00  0.00     0.231 C 
BRANCH  22  23
HETATM   23  C22 UNL     1       0.796  52.928 -19.372  1.00  0.00     0.038 C 
HETATM   24  C23 UNL     1       0.689  54.166 -20.256  1.00  0.00     0.008 C 
ENDBRANCH  22  23
BRANCH  22  25
HETATM   25  O6  UNL     1      -0.141  50.811 -18.729  1.00  0.00    -0.306 OA
BRANCH  25  26
HETATM   26  C24 UNL     1      -1.336  50.559 -18.129  1.00  0.00     0.255 C 
HETATM   27  C25 UNL     1      -1.491  49.091 -17.883  1.00  0.00     0.126 C 
HETATM   28  O7  UNL     1      -2.177  51.403 -17.849  1.00  0.00    -0.266 OA
ENDBRANCH  25  26
ENDBRANCH  22  25
ENDBRANCH  20  22
ENDBRANCH  19  20
ENDBRANCH  16  19
BRANCH   5  29
HETATM   29  C6  UNL     1      -0.174  50.981 -26.659  1.00  0.00     0.010 C 
HETATM   30  C7  UNL     1      -0.077  51.637 -28.040  1.00  0.00     0.012 C 
BRANCH  29  31
HETATM   31  C8  UNL     1       1.060  51.330 -25.803  1.00  0.00     0.168 C 
BRANCH  31  32
HETATM   32  O1  UNL     1       1.948  52.199 -26.498  1.00  0.00    -0.400 OA
HETATM   33  H14 UNL     1       1.508  53.059 -26.595  1.00  0.00     0.209 HD
ENDBRANCH  31  32
ENDBRANCH  29  31
ENDBRANCH   5  29
BRANCH  13  34
HETATM   34  O3  UNL     1      -5.308  48.142 -20.643  1.00  0.00    -0.391 OA
HETATM   35  H23 UNL     1      -6.235  47.907 -20.820  1.00  0.00     0.210 HD
ENDBRANCH  13  34
TORSDOF 10
ENDMDL
MODEL 6
REMARK minimizedAffinity -7.8981986
REMARK  10 active torsions:
REMARK  status: ('A' for Active; 'I' for Inactive)
REMARK    1  A    between atoms: C5_5  and  C6_6 
REMARK    2  A    between atoms: C6_6  and  C8_8 
REMARK    3  A    between atoms: C8_8  and  O1_9 
REMARK    4  A    between atoms: C15_17  and  O3_18 
REMARK    5  A    between atoms: C18_21  and  O4_23 
REMARK    6  A    between atoms: O4_23  and  C20_24 
REMARK    7  A    between atoms: C20_24  and  C21_26 
REMARK    8  A    between atoms: C21_26  and  C22_27 
REMARK    9  A    between atoms: C21_26  and  O6_29 
REMARK   10  A    between atoms: O6_29  and  C24_30 
ROOT
HETATM    1  C1  UNL     1      -3.007  48.141 -27.144  1.00  0.00     0.015 C 
HETATM    2  C2  UNL     1      -3.272  49.164 -26.314  1.00  0.00    -0.082 C 
HETATM    3  C3  UNL     1      -3.370  50.574 -26.830  1.00  0.00     0.034 C 
HETATM    4  C4  UNL     1      -3.125  51.634 -25.759  1.00  0.00     0.010 C 
HETATM    5  C5  UNL     1      -2.145  51.231 -24.641  1.00  0.00    -0.001 C 
HETATM    6  C9  UNL     1      -2.552  49.903 -23.936  1.00  0.00     0.033 C 
HETATM    7  C10 UNL     1      -3.513  50.015 -22.745  1.00  0.00     0.162 C 
HETATM    8  O2  UNL     1      -4.749  50.306 -23.411  1.00  0.00    -0.376 OA
HETATM    9  C11 UNL     1      -4.907  49.244 -24.358  1.00  0.00     0.134 C 
HETATM   10  C12 UNL     1      -5.607  48.075 -23.617  1.00  0.00     0.068 C 
HETATM   11  C13 UNL     1      -6.710  48.563 -22.680  1.00  0.00    -0.059 C 
HETATM   12  C14 UNL     1      -7.868  49.018 -23.197  1.00  0.00     0.017 C 
HETATM   13  C15 UNL     1      -6.511  48.496 -21.173  1.00  0.00     0.146 C 
HETATM   14  C16 UNL     1      -5.236  49.048 -20.489  1.00  0.00     0.039 C 
HETATM   15  C17 UNL     1      -4.887  50.540 -20.716  1.00  0.00     0.044 C 
HETATM   16  C18 UNL     1      -3.492  50.808 -21.425  1.00  0.00     0.093 C 
HETATM   17  C19 UNL     1      -3.350  52.328 -21.555  1.00  0.00     0.049 C 
HETATM   18  C26 UNL     1      -3.450  48.960 -24.829  1.00  0.00     0.050 C 
ENDROOT
BRANCH  16  19
HETATM   19  O4  UNL     1      -2.525  50.272 -20.481  1.00  0.00    -0.306 OA
BRANCH  19  20
HETATM   20  C20 UNL     1      -2.095  50.999 -19.422  1.00  0.00     0.289 C 
HETATM   21  O5  UNL     1      -2.812  51.664 -18.688  1.00  0.00    -0.262 OA
BRANCH  20  22
HETATM   22  C21 UNL     1      -0.564  50.953 -19.303  1.00  0.00     0.231 C 
BRANCH  22  23
HETATM   23  C22 UNL     1      -0.178  50.293 -17.971  1.00  0.00     0.038 C 
HETATM   24  C23 UNL     1       0.487  51.247 -16.985  1.00  0.00     0.008 C 
ENDBRANCH  22  23
BRANCH  22  25
HETATM   25  O6  UNL     1       0.097  52.223 -19.377  1.00  0.00    -0.306 OA
BRANCH  25  26
HETATM   26  C24 UNL     1       0.583  52.540 -20.608  1.00  0.00     0.255 C 
HETATM   27  C25 UNL     1       1.037  53.966 -20.632  1.00  0.00     0.126 C 
HETATM   28  O7  UNL     1       0.625  51.781 -21.567  1.00  0.00    -0.266 OA
ENDBRANCH  25  26
ENDBRANCH  22  25
ENDBRANCH  20  22
ENDBRANCH  19  20
ENDBRANCH  16  19
BRANCH   5  29
HETATM   29  C6  UNL     1      -0.629  51.259 -25.047  1.00  0.00     0.010 C 
HETATM   30  C7  UNL     1      -0.315  50.838 -26.486  1.00  0.00     0.012 C 
BRANCH  29  31
HETATM   31  C8  UNL     1       0.020  52.620 -24.725  1.00  0.00     0.168 C 
BRANCH  31  32
HETATM   32  O1  UNL     1      -0.572  53.671 -25.480  1.00  0.00    -0.400 OA
HETATM   33  H14 UNL     1      -1.482  53.791 -25.163  1.00  0.00     0.209 HD
ENDBRANCH  31  32
ENDBRANCH  29  31
ENDBRANCH   5  29
BRANCH  13  34
HETATM   34  O3  UNL     1      -6.588  47.109 -20.820  1.00  0.00    -0.391 OA
HETATM   35  H23 UNL     1      -7.384  46.758 -21.254  1.00  0.00     0.210 HD
ENDBRANCH  13  34
TORSDOF 10
ENDMDL
MODEL 7
REMARK minimizedAffinity -7.72477579
REMARK  10 active torsions:
REMARK  status: ('A' for Active; 'I' for Inactive)
REMARK    1  A    between atoms: C5_5  and  C6_6 
REMARK    2  A    between atoms: C6_6  and  C8_8 
REMARK    3  A    between atoms: C8_8  and  O1_9 
REMARK    4  A    between atoms: C15_17  and  O3_18 
REMARK    5  A    between atoms: C18_21  and  O4_23 
REMARK    6  A    between atoms: O4_23  and  C20_24 
REMARK    7  A    between atoms: C20_24  and  C21_26 
REMARK    8  A    between atoms: C21_26  and  C22_27 
REMARK    9  A    between atoms: C21_26  and  O6_29 
REMARK   10  A    between atoms: O6_29  and  C24_30 
ROOT
HETATM    1  C1  UNL     1      -2.935  48.236 -27.150  1.00  0.00     0.015 C 
HETATM    2  C2  UNL     1      -3.253  49.243 -26.321  1.00  0.00    -0.082 C 
HETATM    3  C3  UNL     1      -3.376  50.655 -26.827  1.00  0.00     0.034 C 
HETATM    4  C4  UNL     1      -3.191  51.713 -25.742  1.00  0.00     0.010 C 
HETATM    5  C5  UNL     1      -2.232  51.327 -24.600  1.00  0.00    -0.001 C 
HETATM    6  C9  UNL     1      -2.621  49.982 -23.917  1.00  0.00     0.033 C 
HETATM    7  C10 UNL     1      -3.618  50.057 -22.753  1.00  0.00     0.162 C 
HETATM    8  O2  UNL     1      -4.842  50.319 -23.451  1.00  0.00    -0.376 OA
HETATM    9  C11 UNL     1      -4.944  49.261 -24.411  1.00  0.00     0.134 C 
HETATM   10  C12 UNL     1      -5.631  48.066 -23.699  1.00  0.00     0.068 C 
HETATM   11  C13 UNL     1      -6.773  48.516 -22.790  1.00  0.00    -0.059 C 
HETATM   12  C14 UNL     1      -7.928  48.943 -23.336  1.00  0.00     0.017 C 
HETATM   13  C15 UNL     1      -6.614  48.441 -21.278  1.00  0.00     0.146 C 
HETATM   14  C16 UNL     1      -5.375  49.023 -20.554  1.00  0.00     0.039 C 
HETATM   15  C17 UNL     1      -5.063  50.526 -20.760  1.00  0.00     0.044 C 
HETATM   16  C18 UNL     1      -3.656  50.839 -21.427  1.00  0.00     0.093 C 
HETATM   17  C19 UNL     1      -3.553  52.363 -21.541  1.00  0.00     0.049 C 
HETATM   18  C26 UNL     1      -3.466  49.022 -24.843  1.00  0.00     0.050 C 
ENDROOT
BRANCH  16  19
HETATM   19  O4  UNL     1      -2.701  50.322 -20.460  1.00  0.00    -0.306 OA
BRANCH  19  20
HETATM   20  C20 UNL     1      -2.212  51.101 -19.465  1.00  0.00     0.289 C 
HETATM   21  O5  UNL     1      -2.881  51.844 -18.760  1.00  0.00    -0.262 OA
BRANCH  20  22
HETATM   22  C21 UNL     1      -0.681  50.999 -19.383  1.00  0.00     0.231 C 
BRANCH  22  23
HETATM   23  C22 UNL     1      -0.118  50.676 -20.774  1.00  0.00     0.038 C 
HETATM   24  C23 UNL     1       0.557  51.862 -21.453  1.00  0.00     0.008 C 
ENDBRANCH  22  23
BRANCH  22  25
HETATM   25  O6  UNL     1      -0.180  50.020 -18.463  1.00  0.00    -0.306 OA
BRANCH  25  26
HETATM   26  C24 UNL     1       0.221  50.521 -17.263  1.00  0.00     0.255 C 
HETATM   27  C25 UNL     1       0.312  49.422 -16.250  1.00  0.00     0.126 C 
HETATM   28  O7  UNL     1       0.454  51.699 -17.033  1.00  0.00    -0.266 OA
ENDBRANCH  25  26
ENDBRANCH  22  25
ENDBRANCH  20  22
ENDBRANCH  19  20
ENDBRANCH  16  19
BRANCH   5  29
HETATM   29  C6  UNL     1      -0.706  51.401 -24.963  1.00  0.00     0.010 C 
HETATM   30  C7  UNL     1      -0.295  50.706 -26.264  1.00  0.00     0.012 C 
BRANCH  29  31
HETATM   31  C8  UNL     1      -0.186  52.852 -24.933  1.00  0.00     0.168 C 
BRANCH  31  32
HETATM   32  O1  UNL     1       1.060  52.973 -25.611  1.00  0.00    -0.400 OA
HETATM   33  H14 UNL     1       0.900  52.825 -26.557  1.00  0.00     0.209 HD
ENDBRANCH  31  32
ENDBRANCH  29  31
ENDBRANCH   5  29
BRANCH  13  34
HETATM   34  O3  UNL     1      -6.662  47.050 -20.939  1.00  0.00    -0.391 OA
HETATM   35  H23 UNL     1      -7.436  46.681 -21.398  1.00  0.00     0.210 HD
ENDBRANCH  13  34
TORSDOF 10
ENDMDL
MODEL 8
REMARK minimizedAffinity -7.70533609
REMARK  10 active torsions:
REMARK  status: ('A' for Active; 'I' for Inactive)
REMARK    1  A    between atoms: C5_5  and  C6_6 
REMARK    2  A    between atoms: C6_6  and  C8_8 
REMARK    3  A    between atoms: C8_8  and  O1_9 
REMARK    4  A    between atoms: C15_17  and  O3_18 
REMARK    5  A    between atoms: C18_21  and  O4_23 
REMARK    6  A    between atoms: O4_23  and  C20_24 
REMARK    7  A    between atoms: C20_24  and  C21_26 
REMARK    8  A    between atoms: C21_26  and  C22_27 
REMARK    9  A    between atoms: C21_26  and  O6_29 
REMARK   10  A    between atoms: O6_29  and  C24_30 
ROOT
HETATM    1  C1  UNL     1      -5.410  51.288 -24.470  1.00  0.00     0.015 C 
HETATM    2  C2  UNL     1      -4.296  50.744 -23.953  1.00  0.00    -0.082 C 
HETATM    3  C3  UNL     1      -4.097  49.252 -23.942  1.00  0.00     0.034 C 
HETATM    4  C4  UNL     1      -3.111  48.775 -22.878  1.00  0.00     0.010 C 
HETATM    5  C5  UNL     1      -3.065  49.623 -21.592  1.00  0.00    -0.001 C 
HETATM    6  C9  UNL     1      -2.793  51.130 -21.876  1.00  0.00     0.033 C 
HETATM    7  C10 UNL     1      -1.325  51.569 -21.951  1.00  0.00     0.162 C 
HETATM    8  O2  UNL     1      -0.935  51.026 -23.219  1.00  0.00    -0.376 OA
HETATM    9  C11 UNL     1      -1.887  51.558 -24.147  1.00  0.00     0.134 C 
HETATM   10  C12 UNL     1      -1.354  52.942 -24.601  1.00  0.00     0.068 C 
HETATM   11  C13 UNL     1       0.156  52.933 -24.828  1.00  0.00    -0.059 C 
HETATM   12  C14 UNL     1       0.662  52.307 -25.909  1.00  0.00     0.017 C 
HETATM   13  C15 UNL     1       1.075  53.660 -23.857  1.00  0.00     0.146 C 
HETATM   14  C16 UNL     1       0.976  53.455 -22.325  1.00  0.00     0.039 C 
HETATM   15  C17 UNL     1       1.136  52.014 -21.781  1.00  0.00     0.044 C 
HETATM   16  C18 UNL     1      -0.122  51.444 -20.997  1.00  0.00     0.093 C 
HETATM   17  C19 UNL     1       0.243  50.024 -20.555  1.00  0.00     0.049 C 
HETATM   18  C26 UNL     1      -3.212  51.587 -23.328  1.00  0.00     0.050 C 
ENDROOT
BRANCH  16  19
HETATM   19  O4  UNL     1      -0.238  52.334 -19.852  1.00  0.00    -0.306 OA
BRANCH  19  20
HETATM   20  C20 UNL     1      -0.872  51.947 -18.719  1.00  0.00     0.289 C 
HETATM   21  O5  UNL     1      -2.072  52.058 -18.512  1.00  0.00    -0.262 OA
BRANCH  20  22
HETATM   22  C21 UNL     1       0.127  51.418 -17.678  1.00  0.00     0.231 C 
BRANCH  22  23
HETATM   23  C22 UNL     1      -0.606  50.501 -16.690  1.00  0.00     0.038 C 
HETATM   24  C23 UNL     1      -0.820  49.085 -17.212  1.00  0.00     0.008 C 
ENDBRANCH  22  23
BRANCH  22  25
HETATM   25  O6  UNL     1       0.817  52.423 -16.923  1.00  0.00    -0.306 OA
BRANCH  25  26
HETATM   26  C24 UNL     1       1.879  51.967 -16.206  1.00  0.00     0.255 C 
HETATM   27  C25 UNL     1       3.130  52.669 -16.634  1.00  0.00     0.126 C 
HETATM   28  O7  UNL     1       1.830  51.095 -15.350  1.00  0.00    -0.266 OA
ENDBRANCH  25  26
ENDBRANCH  22  25
ENDBRANCH  20  22
ENDBRANCH  19  20
ENDBRANCH  16  19
BRANCH   5  29
HETATM   29  C6  UNL     1      -4.268  49.401 -20.609  1.00  0.00     0.010 C 
HETATM   30  C7  UNL     1      -3.922  48.753 -19.265  1.00  0.00     0.012 C 
BRANCH  29  31
HETATM   31  C8  UNL     1      -5.072  50.700 -20.395  1.00  0.00     0.168 C 
BRANCH  31  32
HETATM   32  O1  UNL     1      -6.333  50.647 -21.052  1.00  0.00    -0.400 OA
HETATM   33  H14 UNL     1      -6.878  49.984 -20.597  1.00  0.00     0.209 HD
ENDBRANCH  31  32
ENDBRANCH  29  31
ENDBRANCH   5  29
BRANCH  13  34
HETATM   34  O3  UNL     1       0.875  55.060 -24.090  1.00  0.00    -0.391 OA
HETATM   35  H23 UNL     1       0.930  55.190 -25.052  1.00  0.00     0.210 HD
ENDBRANCH  13  34
TORSDOF 10
ENDMDL
MODEL 9
REMARK minimizedAffinity -7.685215
REMARK  10 active torsions:
REMARK  status: ('A' for Active; 'I' for Inactive)
REMARK    1  A    between atoms: C5_5  and  C6_6 
REMARK    2  A    between atoms: C6_6  and  C8_8 
REMARK    3  A    between atoms: C8_8  and  O1_9 
REMARK    4  A    between atoms: C15_17  and  O3_18 
REMARK    5  A    between atoms: C18_21  and  O4_23 
REMARK    6  A    between atoms: O4_23  and  C20_24 
REMARK    7  A    between atoms: C20_24  and  C21_26 
REMARK    8  A    between atoms: C21_26  and  C22_27 
REMARK    9  A    between atoms: C21_26  and  O6_29 
REMARK   10  A    between atoms: O6_29  and  C24_30 
ROOT
HETATM    1  C1  UNL     1      -7.487  46.993 -21.650  1.00  0.00     0.015 C 
HETATM    2  C2  UNL     1      -6.145  47.029 -21.656  1.00  0.00    -0.082 C 
HETATM    3  C3  UNL     1      -5.335  45.820 -21.274  1.00  0.00     0.034 C 
HETATM    4  C4  UNL     1      -3.921  46.154 -20.805  1.00  0.00     0.010 C 
HETATM    5  C5  UNL     1      -3.765  47.510 -20.092  1.00  0.00    -0.001 C 
HETATM    6  C9  UNL     1      -4.297  48.702 -20.943  1.00  0.00     0.033 C 
HETATM    7  C10 UNL     1      -3.308  49.354 -21.918  1.00  0.00     0.162 C 
HETATM    8  O2  UNL     1      -3.231  48.358 -22.946  1.00  0.00    -0.376 OA
HETATM    9  C11 UNL     1      -4.590  48.144 -23.343  1.00  0.00     0.134 C 
HETATM   10  C12 UNL     1      -4.918  49.204 -24.427  1.00  0.00     0.068 C 
HETATM   11  C13 UNL     1      -3.760  49.413 -25.400  1.00  0.00    -0.059 C 
HETATM   12  C14 UNL     1      -3.482  48.464 -26.316  1.00  0.00     0.017 C 
HETATM   13  C15 UNL     1      -2.954  50.703 -25.356  1.00  0.00     0.146 C 
HETATM   14  C16 UNL     1      -2.371  51.261 -24.035  1.00  0.00     0.039 C 
HETATM   15  C17 UNL     1      -1.416  50.347 -23.228  1.00  0.00     0.044 C 
HETATM   16  C18 UNL     1      -1.908  49.979 -21.764  1.00  0.00     0.093 C 
HETATM   17  C19 UNL     1      -0.832  49.077 -21.152  1.00  0.00     0.049 C 
HETATM   18  C26 UNL     1      -5.383  48.284 -22.010  1.00  0.00     0.050 C 
ENDROOT
BRANCH  16  19
HETATM   19  O4  UNL     1      -1.956  51.266 -21.090  1.00  0.00    -0.306 OA
BRANCH  19  20
HETATM   20  C20 UNL     1      -1.752  51.372 -19.754  1.00  0.00     0.289 C 
HETATM   21  O5  UNL     1      -2.604  51.188 -18.896  1.00  0.00    -0.262 OA
BRANCH  20  22
HETATM   22  C21 UNL     1      -0.320  51.835 -19.448  1.00  0.00     0.231 C 
BRANCH  22  23
HETATM   23  C22 UNL     1       0.019  51.507 -17.987  1.00  0.00     0.038 C 
HETATM   24  C23 UNL     1       1.131  52.373 -17.406  1.00  0.00     0.008 C 
ENDBRANCH  22  23
BRANCH  22  25
HETATM   25  O6  UNL     1      -0.067  53.230 -19.660  1.00  0.00    -0.306 OA
BRANCH  25  26
HETATM   26  C24 UNL     1       0.884  53.500 -20.595  1.00  0.00     0.255 C 
HETATM   27  C25 UNL     1       1.208  52.263 -21.373  1.00  0.00     0.126 C 
HETATM   28  O7  UNL     1       1.416  54.588 -20.766  1.00  0.00    -0.266 OA
ENDBRANCH  25  26
ENDBRANCH  22  25
ENDBRANCH  20  22
ENDBRANCH  19  20
ENDBRANCH  16  19
BRANCH   5  29
HETATM   29  C6  UNL     1      -4.288  47.546 -18.612  1.00  0.00     0.010 C 
HETATM   30  C7  UNL     1      -3.210  47.537 -17.523  1.00  0.00     0.012 C 
BRANCH  29  31
HETATM   31  C8  UNL     1      -5.278  48.705 -18.388  1.00  0.00     0.168 C 
BRANCH  31  32
HETATM   32  O1  UNL     1      -6.399  48.292 -17.613  1.00  0.00    -0.400 OA
HETATM   33  H14 UNL     1      -6.086  48.106 -16.713  1.00  0.00     0.209 HD
ENDBRANCH  31  32
ENDBRANCH  29  31
ENDBRANCH   5  29
BRANCH  13  34
HETATM   34  O3  UNL     1      -3.807  51.726 -25.884  1.00  0.00    -0.391 OA
HETATM   35  H23 UNL     1      -4.180  51.375 -26.711  1.00  0.00     0.210 HD
ENDBRANCH  13  34
TORSDOF 10
ENDMDL
