MODEL 1
REMARK minimizedAffinity -7.56788492
REMARK CNNscore 0.663265824
REMARK CNNaffinity 6.77858162
REMARK  8 active torsions:
REMARK  status: ('A' for Active; 'I' for Inactive)
REMARK    1  A    between atoms: C4_4  and  C5_5 
REMARK    2  A    between atoms: C5_5  and  C6_6 
REMARK    3  A    between atoms: C6_6  and  C7_7 
REMARK    4  A    between atoms: C9_9  and  C10_10 
REMARK    5  A    between atoms: C11_11  and  C12_12 
REMARK    6  A    between atoms: C14_14  and  C15_15 
REMARK    7  A    between atoms: C24_25  and  C26_27 
REMARK    8  A    between atoms: C29_31  and  O3_33 
ROOT
HETATM    1  C15 UNL     1      -0.498  51.590 -12.742  1.00  0.00     0.149 C 
HETATM    2  C16 UNL     1       0.059  52.981 -12.459  1.00  0.00     0.054 C 
HETATM    3  C17 UNL     1       0.381  52.993 -10.946  1.00  0.00     0.050 C 
HETATM    4  C18 UNL     1       0.429  51.465 -10.646  1.00  0.00     0.272 C 
HETATM    5  O1  UNL     1       1.576  51.042  -9.928  1.00  0.00    -0.360 OA
HETATM    6  C19 UNL     1       2.694  50.696 -10.729  1.00  0.00     0.171 C 
HETATM    7  C20 UNL     1       3.128  51.802 -11.674  1.00  0.00     0.027 C 
HETATM    8  C21 UNL     1       3.080  53.180 -11.031  1.00  0.00     0.012 C 
HETATM    9  C22 UNL     1       1.703  53.801 -10.651  1.00  0.00     0.032 C 
HETATM   10  C23 UNL     1       1.783  54.397  -9.217  1.00  0.00    -0.066 C 
HETATM   11  C24 UNL     1       2.519  55.505  -8.931  1.00  0.00    -0.021 C 
HETATM   12  C25 UNL     1       3.308  56.318  -9.928  1.00  0.00     0.052 C 
HETATM   13  C27 UNL     1       0.948  53.631  -8.215  1.00  0.00     0.038 C 
HETATM   14  C28 UNL     1      -0.530  53.551  -8.611  1.00  0.00     0.042 C 
HETATM   15  C29 UNL     1      -0.794  53.662 -10.130  1.00  0.00     0.067 C 
HETATM   16  C30 UNL     1      -1.068  55.140 -10.497  1.00  0.00     0.047 C 
HETATM   17  O4  UNL     1       0.241  50.745 -11.867  1.00  0.00    -0.351 OA
ENDROOT
BRANCH   1  18
HETATM   18  C14 UNL     1      -0.335  51.203 -14.189  1.00  0.00     0.011 C 
HETATM   19  C12 UNL     1       0.612  50.443 -14.783  1.00  0.00    -0.063 C 
HETATM   20  C13 UNL     1       1.696  49.715 -14.030  1.00  0.00     0.048 C 
BRANCH  19  21
HETATM   21  C11 UNL     1       0.563  50.286 -16.240  1.00  0.00     0.006 C 
HETATM   22  C10 UNL     1      -0.230  50.956 -17.094  1.00  0.00     0.001 C 
BRANCH  22  23
HETATM   23  C9  UNL     1      -0.207  50.719 -18.523  1.00  0.00     0.002 C 
HETATM   24  C7  UNL     1      -0.037  51.633 -19.502  1.00  0.00    -0.084 C 
HETATM   25  C8  UNL     1       0.156  53.114 -19.300  1.00  0.00     0.043 C 
BRANCH  24  26
HETATM   26  C6  UNL     1      -0.067  51.187 -20.956  1.00  0.00     0.037 C 
BRANCH  26  27
HETATM   27  C5  UNL     1      -0.549  52.290 -21.905  1.00  0.00     0.031 C 
BRANCH  27  28
HETATM   28  C4  UNL     1       0.337  52.398 -23.119  1.00  0.00    -0.024 C 
HETATM   29  C2  UNL     1       0.086  51.937 -24.361  1.00  0.00    -0.091 C 
HETATM   30  C1  UNL     1      -1.188  51.262 -24.788  1.00  0.00     0.042 C 
HETATM   31  C3  UNL     1       1.110  52.085 -25.457  1.00  0.00     0.042 C 
ENDBRANCH  27  28
ENDBRANCH  26  27
ENDBRANCH  24  26
ENDBRANCH  22  23
ENDBRANCH  19  21
ENDBRANCH   1  18
BRANCH  15  32
HETATM   32  O3  UNL     1      -2.022  52.973 -10.412  1.00  0.00    -0.389 OA
HETATM   33  H44 UNL     1      -2.736  53.391  -9.898  1.00  0.00     0.210 HD
ENDBRANCH  15  32
BRANCH  11  34
HETATM   34  C26 UNL     1       2.641  56.062  -7.540  1.00  0.00     0.265 C 
HETATM   35  O2  UNL     1       3.468  55.651  -6.732  1.00  0.00    -0.302 OA
ENDBRANCH  11  34
TORSDOF 8
ENDMDL
MODEL 2
REMARK minimizedAffinity -7.40658617
REMARK CNNscore 0.513126791
REMARK CNNaffinity 6.18578148
REMARK  8 active torsions:
REMARK  status: ('A' for Active; 'I' for Inactive)
REMARK    1  A    between atoms: C4_4  and  C5_5 
REMARK    2  A    between atoms: C5_5  and  C6_6 
REMARK    3  A    between atoms: C6_6  and  C7_7 
REMARK    4  A    between atoms: C9_9  and  C10_10 
REMARK    5  A    between atoms: C11_11  and  C12_12 
REMARK    6  A    between atoms: C14_14  and  C15_15 
REMARK    7  A    between atoms: C24_25  and  C26_27 
REMARK    8  A    between atoms: C29_31  and  O3_33 
ROOT
HETATM    1  C15 UNL     1      -8.515  46.810 -27.158  1.00  0.00     0.149 C 
HETATM    2  C16 UNL     1      -9.729  47.384 -26.436  1.00  0.00     0.054 C 
HETATM    3  C17 UNL     1     -10.856  46.343 -26.638  1.00  0.00     0.050 C 
HETATM    4  C18 UNL     1     -10.024  45.084 -27.027  1.00  0.00     0.272 C 
HETATM    5  O1  UNL     1     -10.357  43.912 -26.303  1.00  0.00    -0.360 OA
HETATM    6  C19 UNL     1      -9.649  43.732 -25.088  1.00  0.00     0.171 C 
HETATM    7  C20 UNL     1      -9.771  44.908 -24.135  1.00  0.00     0.027 C 
HETATM    8  C21 UNL     1     -11.179  45.486 -24.090  1.00  0.00     0.012 C 
HETATM    9  C22 UNL     1     -11.748  46.212 -25.344  1.00  0.00     0.032 C 
HETATM   10  C23 UNL     1     -13.198  45.717 -25.614  1.00  0.00    -0.066 C 
HETATM   11  C24 UNL     1     -14.236  46.025 -24.790  1.00  0.00    -0.021 C 
HETATM   12  C25 UNL     1     -14.153  46.893 -23.558  1.00  0.00     0.052 C 
HETATM   13  C27 UNL     1     -13.311  44.895 -26.879  1.00  0.00     0.038 C 
HETATM   14  C28 UNL     1     -12.833  45.652 -28.123  1.00  0.00     0.042 C 
HETATM   15  C29 UNL     1     -11.791  46.758 -27.839  1.00  0.00     0.067 C 
HETATM   16  C30 UNL     1     -12.519  48.110 -27.646  1.00  0.00     0.047 C 
HETATM   17  O4  UNL     1      -8.632  45.406 -26.954  1.00  0.00    -0.351 OA
ENDROOT
BRANCH   1  18
HETATM   18  C14 UNL     1      -7.224  47.364 -26.615  1.00  0.00     0.011 C 
HETATM   19  C12 UNL     1      -6.844  47.590 -25.338  1.00  0.00    -0.063 C 
HETATM   20  C13 UNL     1      -7.673  47.207 -24.138  1.00  0.00     0.048 C 
BRANCH  19  21
HETATM   21  C11 UNL     1      -5.538  48.211 -25.101  1.00  0.00     0.006 C 
HETATM   22  C10 UNL     1      -4.540  48.347 -25.991  1.00  0.00     0.001 C 
BRANCH  22  23
HETATM   23  C9  UNL     1      -3.277  48.971 -25.652  1.00  0.00     0.002 C 
HETATM   24  C7  UNL     1      -3.087  50.111 -24.955  1.00  0.00    -0.084 C 
HETATM   25  C8  UNL     1      -4.174  50.987 -24.388  1.00  0.00     0.043 C 
BRANCH  24  26
HETATM   26  C6  UNL     1      -1.673  50.619 -24.721  1.00  0.00     0.037 C 
BRANCH  26  27
HETATM   27  C5  UNL     1      -1.104  51.371 -25.929  1.00  0.00     0.031 C 
BRANCH  27  28
HETATM   28  C4  UNL     1       0.402  51.380 -25.913  1.00  0.00    -0.024 C 
HETATM   29  C2  UNL     1       1.232  51.564 -26.960  1.00  0.00    -0.091 C 
HETATM   30  C1  UNL     1       0.792  51.861 -28.366  1.00  0.00     0.042 C 
HETATM   31  C3  UNL     1       2.727  51.491 -26.777  1.00  0.00     0.042 C 
ENDBRANCH  27  28
ENDBRANCH  26  27
ENDBRANCH  24  26
ENDBRANCH  22  23
ENDBRANCH  19  21
ENDBRANCH   1  18
BRANCH  15  32
HETATM   32  O3  UNL     1     -10.999  46.926 -29.025  1.00  0.00    -0.389 OA
HETATM   33  H44 UNL     1     -11.589  47.176 -29.758  1.00  0.00     0.210 HD
ENDBRANCH  15  32
BRANCH  11  34
HETATM   34  C26 UNL     1     -15.631  45.512 -25.016  1.00  0.00     0.265 C 
HETATM   35  O2  UNL     1     -16.528  46.211 -25.477  1.00  0.00    -0.302 OA
ENDBRANCH  11  34
TORSDOF 8
ENDMDL
MODEL 3
REMARK minimizedAffinity -8.25999641
REMARK CNNscore 0.467900068
REMARK CNNaffinity 6.48007441
REMARK  8 active torsions:
REMARK  status: ('A' for Active; 'I' for Inactive)
REMARK    1  A    between atoms: C4_4  and  C5_5 
REMARK    2  A    between atoms: C5_5  and  C6_6 
REMARK    3  A    between atoms: C6_6  and  C7_7 
REMARK    4  A    between atoms: C9_9  and  C10_10 
REMARK    5  A    between atoms: C11_11  and  C12_12 
REMARK    6  A    between atoms: C14_14  and  C15_15 
REMARK    7  A    between atoms: C24_25  and  C26_27 
REMARK    8  A    between atoms: C29_31  and  O3_33 
ROOT
HETATM    1  C15 UNL     1      -2.303  50.418 -14.690  1.00  0.00     0.149 C 
HETATM    2  C16 UNL     1      -2.450  51.715 -13.903  1.00  0.00     0.054 C 
HETATM    3  C17 UNL     1      -1.955  51.386 -12.474  1.00  0.00     0.050 C 
HETATM    4  C18 UNL     1      -1.133  50.089 -12.742  1.00  0.00     0.272 C 
HETATM    5  O1  UNL     1       0.168  50.090 -12.178  1.00  0.00    -0.360 OA
HETATM    6  C19 UNL     1       1.182  50.639 -13.003  1.00  0.00     0.171 C 
HETATM    7  C20 UNL     1       0.885  52.054 -13.468  1.00  0.00     0.027 C 
HETATM    8  C21 UNL     1       0.275  52.918 -12.375  1.00  0.00     0.012 C 
HETATM    9  C22 UNL     1      -1.158  52.597 -11.855  1.00  0.00     0.032 C 
HETATM   10  C23 UNL     1      -1.165  52.640 -10.300  1.00  0.00    -0.066 C 
HETATM   11  C24 UNL     1      -1.020  53.800  -9.604  1.00  0.00    -0.021 C 
HETATM   12  C25 UNL     1      -0.877  55.176 -10.209  1.00  0.00     0.052 C 
HETATM   13  C27 UNL     1      -1.369  51.276  -9.676  1.00  0.00     0.038 C 
HETATM   14  C28 UNL     1      -2.667  50.603 -10.135  1.00  0.00     0.042 C 
HETATM   15  C29 UNL     1      -3.172  51.061 -11.523  1.00  0.00     0.067 C 
HETATM   16  C30 UNL     1      -4.174  52.226 -11.344  1.00  0.00     0.047 C 
HETATM   17  O4  UNL     1      -1.129  49.824 -14.148  1.00  0.00    -0.351 OA
ENDROOT
BRANCH   1  18
HETATM   18  C14 UNL     1      -2.189  50.669 -16.171  1.00  0.00     0.011 C 
HETATM   19  C12 UNL     1      -1.114  50.587 -16.986  1.00  0.00    -0.063 C 
HETATM   20  C13 UNL     1       0.241  50.100 -16.537  1.00  0.00     0.048 C 
BRANCH  19  21
HETATM   21  C11 UNL     1      -1.279  50.960 -18.394  1.00  0.00     0.006 C 
HETATM   22  C10 UNL     1      -0.455  50.648 -19.409  1.00  0.00     0.001 C 
BRANCH  22  23
HETATM   23  C9  UNL     1      -0.705  51.075 -20.771  1.00  0.00     0.002 C 
HETATM   24  C7  UNL     1      -0.063  52.044 -21.456  1.00  0.00    -0.084 C 
HETATM   25  C8  UNL     1       1.057  52.901 -20.927  1.00  0.00     0.043 C 
BRANCH  24  26
HETATM   26  C6  UNL     1      -0.490  52.363 -22.880  1.00  0.00     0.037 C 
BRANCH  26  27
HETATM   27  C5  UNL     1       0.675  52.313 -23.875  1.00  0.00     0.031 C 
BRANCH  27  28
HETATM   28  C4  UNL     1       0.192  52.049 -25.277  1.00  0.00    -0.024 C 
HETATM   29  C2  UNL     1       0.925  51.648 -26.335  1.00  0.00    -0.091 C 
HETATM   30  C1  UNL     1       2.392  51.323 -26.293  1.00  0.00     0.042 C 
HETATM   31  C3  UNL     1       0.288  51.479 -27.691  1.00  0.00     0.042 C 
ENDBRANCH  27  28
ENDBRANCH  26  27
ENDBRANCH  24  26
ENDBRANCH  22  23
ENDBRANCH  19  21
ENDBRANCH   1  18
BRANCH  15  32
HETATM   32  O3  UNL     1      -3.942  49.987 -12.083  1.00  0.00    -0.389 OA
HETATM   33  H44 UNL     1      -4.684  49.793 -11.483  1.00  0.00     0.210 HD
ENDBRANCH  15  32
BRANCH  11  34
HETATM   34  C26 UNL     1      -0.978  53.846  -8.103  1.00  0.00     0.265 C 
HETATM   35  O2  UNL     1      -0.465  54.772  -7.482  1.00  0.00    -0.302 OA
ENDBRANCH  11  34
TORSDOF 8
ENDMDL
MODEL 4
REMARK minimizedAffinity -7.22689867
REMARK CNNscore 0.410475403
REMARK CNNaffinity 5.90916491
REMARK  8 active torsions:
REMARK  status: ('A' for Active; 'I' for Inactive)
REMARK    1  A    between atoms: C4_4  and  C5_5 
REMARK    2  A    between atoms: C5_5  and  C6_6 
REMARK    3  A    between atoms: C6_6  and  C7_7 
REMARK    4  A    between atoms: C9_9  and  C10_10 
REMARK    5  A    between atoms: C11_11  and  C12_12 
REMARK    6  A    between atoms: C14_14  and  C15_15 
REMARK    7  A    between atoms: C24_25  and  C26_27 
REMARK    8  A    between atoms: C29_31  and  O3_33 
ROOT
HETATM    1  C15 UNL     1     -12.464  47.177 -29.136  1.00  0.00     0.149 C 
HETATM    2  C16 UNL     1     -11.673  45.927 -29.505  1.00  0.00     0.054 C 
HETATM    3  C17 UNL     1     -10.464  46.436 -30.325  1.00  0.00     0.050 C 
HETATM    4  C18 UNL     1     -10.443  47.938 -29.914  1.00  0.00     0.272 C 
HETATM    5  O1  UNL     1      -9.172  48.420 -29.509  1.00  0.00    -0.360 OA
HETATM    6  C19 UNL     1      -8.880  48.266 -28.131  1.00  0.00     0.171 C 
HETATM    7  C20 UNL     1      -9.002  46.835 -27.641  1.00  0.00     0.027 C 
HETATM    8  C21 UNL     1      -8.443  45.823 -28.631  1.00  0.00     0.012 C 
HETATM    9  C22 UNL     1      -9.163  45.607 -29.995  1.00  0.00     0.032 C 
HETATM   10  C23 UNL     1      -8.109  45.588 -31.138  1.00  0.00    -0.066 C 
HETATM   11  C24 UNL     1      -7.218  44.571 -31.288  1.00  0.00    -0.021 C 
HETATM   12  C25 UNL     1      -7.143  43.333 -30.427  1.00  0.00     0.052 C 
HETATM   13  C27 UNL     1      -8.209  46.792 -32.049  1.00  0.00     0.038 C 
HETATM   14  C28 UNL     1      -9.594  46.940 -32.688  1.00  0.00     0.042 C 
HETATM   15  C29 UNL     1     -10.746  46.309 -31.873  1.00  0.00     0.067 C 
HETATM   16  C30 UNL     1     -10.987  44.862 -32.364  1.00  0.00     0.047 C 
HETATM   17  O4  UNL     1     -11.461  48.166 -28.935  1.00  0.00    -0.351 OA
ENDROOT
BRANCH   1  18
HETATM   18  C14 UNL     1     -13.314  46.963 -27.910  1.00  0.00     0.011 C 
HETATM   19  C12 UNL     1     -14.346  46.116 -27.706  1.00  0.00    -0.063 C 
HETATM   20  C13 UNL     1     -14.800  45.090 -28.714  1.00  0.00     0.048 C 
BRANCH  19  21
HETATM   21  C11 UNL     1     -15.045  46.170 -26.418  1.00  0.00     0.006 C 
HETATM   22  C10 UNL     1     -14.662  46.851 -25.325  1.00  0.00     0.001 C 
BRANCH  22  23
HETATM   23  C9  UNL     1     -15.423  46.832 -24.092  1.00  0.00     0.002 C 
HETATM   24  C7  UNL     1     -14.942  46.884 -22.832  1.00  0.00    -0.084 C 
HETATM   25  C8  UNL     1     -13.487  46.965 -22.448  1.00  0.00     0.043 C 
BRANCH  24  26
HETATM   26  C6  UNL     1     -15.908  46.828 -21.658  1.00  0.00     0.037 C 
BRANCH  26  27
HETATM   27  C5  UNL     1     -17.323  46.411 -22.073  1.00  0.00     0.031 C 
BRANCH  27  28
HETATM   28  C4  UNL     1     -18.011  45.635 -20.981  1.00  0.00    -0.024 C 
HETATM   29  C2  UNL     1     -18.668  46.130 -19.912  1.00  0.00    -0.091 C 
HETATM   30  C1  UNL     1     -18.891  47.591 -19.639  1.00  0.00     0.042 C 
HETATM   31  C3  UNL     1     -19.260  45.206 -18.879  1.00  0.00     0.042 C 
ENDBRANCH  27  28
ENDBRANCH  26  27
ENDBRANCH  24  26
ENDBRANCH  22  23
ENDBRANCH  19  21
ENDBRANCH   1  18
BRANCH  15  32
HETATM   32  O3  UNL     1     -11.950  47.020 -32.198  1.00  0.00    -0.389 OA
HETATM   33  H44 UNL     1     -12.108  46.938 -33.155  1.00  0.00     0.210 HD
ENDBRANCH  15  32
BRANCH  11  34
HETATM   34  C26 UNL     1      -6.164  44.566 -32.360  1.00  0.00     0.265 C 
HETATM   35  O2  UNL     1      -5.261  43.736 -32.398  1.00  0.00    -0.302 OA
ENDBRANCH  11  34
TORSDOF 8
ENDMDL
MODEL 5
REMARK minimizedAffinity -6.79343557
REMARK CNNscore 0.393124551
REMARK CNNaffinity 5.60827875
REMARK  8 active torsions:
REMARK  status: ('A' for Active; 'I' for Inactive)
REMARK    1  A    between atoms: C4_4  and  C5_5 
REMARK    2  A    between atoms: C5_5  and  C6_6 
REMARK    3  A    between atoms: C6_6  and  C7_7 
REMARK    4  A    between atoms: C9_9  and  C10_10 
REMARK    5  A    between atoms: C11_11  and  C12_12 
REMARK    6  A    between atoms: C14_14  and  C15_15 
REMARK    7  A    between atoms: C24_25  and  C26_27 
REMARK    8  A    between atoms: C29_31  and  O3_33 
ROOT
HETATM    1  C15 UNL     1      -8.021  46.931 -29.871  1.00  0.00     0.149 C 
HETATM    2  C16 UNL     1      -8.807  45.635 -29.707  1.00  0.00     0.054 C 
HETATM    3  C17 UNL     1      -9.117  45.160 -31.147  1.00  0.00     0.050 C 
HETATM    4  C18 UNL     1      -8.061  45.971 -31.956  1.00  0.00     0.272 C 
HETATM    5  O1  UNL     1      -7.302  45.200 -32.872  1.00  0.00    -0.360 OA
HETATM    6  C19 UNL     1      -6.124  44.619 -32.339  1.00  0.00     0.171 C 
HETATM    7  C20 UNL     1      -6.373  43.757 -31.114  1.00  0.00     0.027 C 
HETATM    8  C21 UNL     1      -7.626  42.902 -31.240  1.00  0.00     0.012 C 
HETATM    9  C22 UNL     1      -9.023  43.590 -31.262  1.00  0.00     0.032 C 
HETATM   10  C23 UNL     1      -9.882  42.979 -32.405  1.00  0.00    -0.066 C 
HETATM   11  C24 UNL     1     -10.354  41.704 -32.358  1.00  0.00    -0.021 C 
HETATM   12  C25 UNL     1     -10.160  40.736 -31.215  1.00  0.00     0.052 C 
HETATM   13  C27 UNL     1     -10.138  43.955 -33.533  1.00  0.00     0.038 C 
HETATM   14  C28 UNL     1     -10.828  45.239 -33.060  1.00  0.00     0.042 C 
HETATM   15  C29 UNL     1     -10.572  45.597 -31.578  1.00  0.00     0.067 C 
HETATM   16  C30 UNL     1     -11.703  45.005 -30.705  1.00  0.00     0.047 C 
HETATM   17  O4  UNL     1      -7.245  46.711 -31.043  1.00  0.00    -0.351 OA
ENDROOT
BRANCH   1  18
HETATM   18  C14 UNL     1      -7.168  47.227 -28.664  1.00  0.00     0.011 C 
HETATM   19  C12 UNL     1      -7.518  47.369 -27.367  1.00  0.00    -0.063 C 
HETATM   20  C13 UNL     1      -8.916  47.142 -26.847  1.00  0.00     0.048 C 
BRANCH  19  21
HETATM   21  C11 UNL     1      -6.476  47.730 -26.402  1.00  0.00     0.006 C 
HETATM   22  C10 UNL     1      -6.613  47.821 -25.068  1.00  0.00     0.001 C 
BRANCH  22  23
HETATM   23  C9  UNL     1      -5.516  48.196 -24.198  1.00  0.00     0.002 C 
HETATM   24  C7  UNL     1      -5.298  47.784 -22.932  1.00  0.00    -0.084 C 
HETATM   25  C8  UNL     1      -6.174  46.841 -22.149  1.00  0.00     0.043 C 
BRANCH  24  26
HETATM   26  C6  UNL     1      -4.092  48.313 -22.170  1.00  0.00     0.037 C 
BRANCH  26  27
HETATM   27  C5  UNL     1      -2.854  48.481 -23.057  1.00  0.00     0.031 C 
BRANCH  27  28
HETATM   28  C4  UNL     1      -1.921  49.528 -22.510  1.00  0.00    -0.024 C 
HETATM   29  C2  UNL     1      -1.066  49.405 -21.475  1.00  0.00    -0.091 C 
HETATM   30  C1  UNL     1      -0.840  48.142 -20.691  1.00  0.00     0.042 C 
HETATM   31  C3  UNL     1      -0.234  50.577 -21.021  1.00  0.00     0.042 C 
ENDBRANCH  27  28
ENDBRANCH  26  27
ENDBRANCH  24  26
ENDBRANCH  22  23
ENDBRANCH  19  21
ENDBRANCH   1  18
BRANCH  15  32
HETATM   32  O3  UNL     1     -10.701  47.021 -31.444  1.00  0.00    -0.389 OA
HETATM   33  H44 UNL     1     -11.600  47.276 -31.719  1.00  0.00     0.210 HD
ENDBRANCH  15  32
BRANCH  11  34
HETATM   34  C26 UNL     1     -11.144  41.089 -33.479  1.00  0.00     0.265 C 
HETATM   35  O2  UNL     1     -11.573  39.940 -33.435  1.00  0.00    -0.302 OA
ENDBRANCH  11  34
TORSDOF 8
ENDMDL
MODEL 6
REMARK minimizedAffinity -7.24566174
REMARK CNNscore 0.365133345
REMARK CNNaffinity 5.86566877
REMARK  8 active torsions:
REMARK  status: ('A' for Active; 'I' for Inactive)
REMARK    1  A    between atoms: C4_4  and  C5_5 
REMARK    2  A    between atoms: C5_5  and  C6_6 
REMARK    3  A    between atoms: C6_6  and  C7_7 
REMARK    4  A    between atoms: C9_9  and  C10_10 
REMARK    5  A    between atoms: C11_11  and  C12_12 
REMARK    6  A    between atoms: C14_14  and  C15_15 
REMARK    7  A    between atoms: C24_25  and  C26_27 
REMARK    8  A    between atoms: C29_31  and  O3_33 
ROOT
HETATM    1  C15 UNL     1     -11.119  47.051 -29.254  1.00  0.00     0.149 C 
HETATM    2  C16 UNL     1     -10.285  46.606 -30.450  1.00  0.00     0.054 C 
HETATM    3  C17 UNL     1      -8.814  46.843 -30.033  1.00  0.00     0.050 C 
HETATM    4  C18 UNL     1      -8.960  46.932 -28.484  1.00  0.00     0.272 C 
HETATM    5  O1  UNL     1      -8.049  46.122 -27.760  1.00  0.00    -0.360 OA
HETATM    6  C19 UNL     1      -8.490  44.799 -27.504  1.00  0.00     0.171 C 
HETATM    7  C20 UNL     1      -8.881  44.037 -28.758  1.00  0.00     0.027 C 
HETATM    8  C21 UNL     1      -7.930  44.286 -29.919  1.00  0.00     0.012 C 
HETATM    9  C22 UNL     1      -7.877  45.697 -30.577  1.00  0.00     0.032 C 
HETATM   10  C23 UNL     1      -6.393  46.121 -30.770  1.00  0.00    -0.066 C 
HETATM   11  C24 UNL     1      -5.575  45.515 -31.673  1.00  0.00    -0.021 C 
HETATM   12  C25 UNL     1      -5.976  44.408 -32.618  1.00  0.00     0.052 C 
HETATM   13  C27 UNL     1      -5.990  47.271 -29.874  1.00  0.00     0.038 C 
HETATM   14  C28 UNL     1      -6.865  48.513 -30.072  1.00  0.00     0.042 C 
HETATM   15  C29 UNL     1      -8.287  48.218 -30.601  1.00  0.00     0.067 C 
HETATM   16  C30 UNL     1      -8.291  48.317 -32.145  1.00  0.00     0.047 C 
HETATM   17  O4  UNL     1     -10.324  46.687 -28.131  1.00  0.00    -0.351 OA
ENDROOT
BRANCH   1  18
HETATM   18  C14 UNL     1     -12.474  46.391 -29.236  1.00  0.00     0.011 C 
HETATM   19  C12 UNL     1     -13.466  46.469 -28.322  1.00  0.00    -0.063 C 
HETATM   20  C13 UNL     1     -13.426  47.375 -27.118  1.00  0.00     0.048 C 
BRANCH  19  21
HETATM   21  C11 UNL     1     -14.667  45.654 -28.530  1.00  0.00     0.006 C 
HETATM   22  C10 UNL     1     -15.516  45.219 -27.583  1.00  0.00     0.001 C 
BRANCH  22  23
HETATM   23  C9  UNL     1     -16.675  44.406 -27.893  1.00  0.00     0.002 C 
HETATM   24  C7  UNL     1     -16.701  43.081 -28.147  1.00  0.00    -0.084 C 
HETATM   25  C8  UNL     1     -15.505  42.165 -28.171  1.00  0.00     0.043 C 
BRANCH  24  26
HETATM   26  C6  UNL     1     -18.025  42.408 -28.477  1.00  0.00     0.037 C 
BRANCH  26  27
HETATM   27  C5  UNL     1     -19.031  43.363 -29.129  1.00  0.00     0.031 C 
BRANCH  27  28
HETATM   28  C4  UNL     1     -18.847  43.422 -30.623  1.00  0.00    -0.024 C 
HETATM   29  C2  UNL     1     -19.807  43.399 -31.569  1.00  0.00    -0.091 C 
HETATM   30  C1  UNL     1     -21.285  43.369 -31.295  1.00  0.00     0.042 C 
HETATM   31  C3  UNL     1     -19.444  43.415 -33.032  1.00  0.00     0.042 C 
ENDBRANCH  27  28
ENDBRANCH  26  27
ENDBRANCH  24  26
ENDBRANCH  22  23
ENDBRANCH  19  21
ENDBRANCH   1  18
BRANCH  15  32
HETATM   32  O3  UNL     1      -9.147  49.278 -30.156  1.00  0.00    -0.389 OA
HETATM   33  H44 UNL     1      -8.807  50.120 -30.508  1.00  0.00     0.210 HD
ENDBRANCH  15  32
BRANCH  11  34
HETATM   34  C26 UNL     1      -4.127  45.885 -31.833  1.00  0.00     0.265 C 
HETATM   35  O2  UNL     1      -3.762  46.875 -32.459  1.00  0.00    -0.302 OA
ENDBRANCH  11  34
TORSDOF 8
ENDMDL
MODEL 7
REMARK minimizedAffinity -8.72375774
REMARK CNNscore 0.363714695
REMARK CNNaffinity 6.19645929
REMARK  8 active torsions:
REMARK  status: ('A' for Active; 'I' for Inactive)
REMARK    1  A    between atoms: C4_4  and  C5_5 
REMARK    2  A    between atoms: C5_5  and  C6_6 
REMARK    3  A    between atoms: C6_6  and  C7_7 
REMARK    4  A    between atoms: C9_9  and  C10_10 
REMARK    5  A    between atoms: C11_11  and  C12_12 
REMARK    6  A    between atoms: C14_14  and  C15_15 
REMARK    7  A    between atoms: C24_25  and  C26_27 
REMARK    8  A    between atoms: C29_31  and  O3_33 
ROOT
HETATM    1  C15 UNL     1      -7.612  46.845 -28.077  1.00  0.00     0.149 C 
HETATM    2  C16 UNL     1      -7.449  46.139 -29.419  1.00  0.00     0.054 C 
HETATM    3  C17 UNL     1      -8.866  46.109 -30.040  1.00  0.00     0.050 C 
HETATM    4  C18 UNL     1      -9.572  47.223 -29.211  1.00  0.00     0.272 C 
HETATM    5  O1  UNL     1     -10.275  48.179 -29.988  1.00  0.00    -0.360 OA
HETATM    6  C19 UNL     1      -9.507  49.290 -30.416  1.00  0.00     0.171 C 
HETATM    7  C20 UNL     1      -8.259  48.904 -31.188  1.00  0.00     0.027 C 
HETATM    8  C21 UNL     1      -8.498  47.755 -32.158  1.00  0.00     0.012 C 
HETATM    9  C22 UNL     1      -8.809  46.334 -31.599  1.00  0.00     0.032 C 
HETATM   10  C23 UNL     1     -10.010  45.725 -32.378  1.00  0.00    -0.066 C 
HETATM   11  C24 UNL     1      -9.913  45.345 -33.681  1.00  0.00    -0.021 C 
HETATM   12  C25 UNL     1      -8.665  45.416 -34.528  1.00  0.00     0.052 C 
HETATM   13  C27 UNL     1     -11.254  45.590 -31.528  1.00  0.00     0.038 C 
HETATM   14  C28 UNL     1     -11.025  44.740 -30.274  1.00  0.00     0.042 C 
HETATM   15  C29 UNL     1      -9.564  44.719 -29.770  1.00  0.00     0.067 C 
HETATM   16  C30 UNL     1      -8.828  43.503 -30.383  1.00  0.00     0.047 C 
HETATM   17  O4  UNL     1      -8.618  47.820 -28.327  1.00  0.00    -0.351 OA
ENDROOT
BRANCH   1  18
HETATM   18  C14 UNL     1      -6.320  47.461 -27.606  1.00  0.00     0.011 C 
HETATM   19  C12 UNL     1      -5.280  47.950 -28.317  1.00  0.00    -0.063 C 
HETATM   20  C13 UNL     1      -5.273  48.062 -29.821  1.00  0.00     0.048 C 
BRANCH  19  21
HETATM   21  C11 UNL     1      -4.105  48.433 -27.587  1.00  0.00     0.006 C 
HETATM   22  C10 UNL     1      -3.981  48.554 -26.254  1.00  0.00     0.001 C 
BRANCH  22  23
HETATM   23  C9  UNL     1      -2.774  49.054 -25.628  1.00  0.00     0.002 C 
HETATM   24  C7  UNL     1      -2.468  50.337 -25.346  1.00  0.00    -0.084 C 
HETATM   25  C8  UNL     1      -3.335  51.534 -25.642  1.00  0.00     0.043 C 
BRANCH  24  26
HETATM   26  C6  UNL     1      -1.129  50.665 -24.703  1.00  0.00     0.037 C 
BRANCH  26  27
HETATM   27  C5  UNL     1      -0.582  52.031 -25.132  1.00  0.00     0.031 C 
BRANCH  27  28
HETATM   28  C4  UNL     1       0.838  51.927 -25.622  1.00  0.00    -0.024 C 
HETATM   29  C2  UNL     1       1.259  51.793 -26.896  1.00  0.00    -0.091 C 
HETATM   30  C1  UNL     1       0.361  51.783 -28.102  1.00  0.00     0.042 C 
HETATM   31  C3  UNL     1       2.726  51.650 -27.210  1.00  0.00     0.042 C 
ENDBRANCH  27  28
ENDBRANCH  26  27
ENDBRANCH  24  26
ENDBRANCH  22  23
ENDBRANCH  19  21
ENDBRANCH   1  18
BRANCH  15  32
HETATM   32  O3  UNL     1      -9.593  44.466 -28.357  1.00  0.00    -0.389 OA
HETATM   33  H44 UNL     1     -10.031  43.609 -28.206  1.00  0.00     0.210 HD
ENDBRANCH  15  32
BRANCH  11  34
HETATM   34  C26 UNL     1     -11.079  44.801 -34.457  1.00  0.00     0.265 C 
HETATM   35  O2  UNL     1     -12.070  44.322 -33.914  1.00  0.00    -0.302 OA
ENDBRANCH  11  34
TORSDOF 8
ENDMDL
MODEL 8
REMARK minimizedAffinity -6.67899418
REMARK CNNscore 0.34516862
REMARK CNNaffinity 5.78189659
REMARK  8 active torsions:
REMARK  status: ('A' for Active; 'I' for Inactive)
REMARK    1  A    between atoms: C4_4  and  C5_5 
REMARK    2  A    between atoms: C5_5  and  C6_6 
REMARK    3  A    between atoms: C6_6  and  C7_7 
REMARK    4  A    between atoms: C9_9  and  C10_10 
REMARK    5  A    between atoms: C11_11  and  C12_12 
REMARK    6  A    between atoms: C14_14  and  C15_15 
REMARK    7  A    between atoms: C24_25  and  C26_27 
REMARK    8  A    between atoms: C29_31  and  O3_33 
ROOT
HETATM    1  C15 UNL     1      -6.726  48.731 -24.056  1.00  0.00     0.149 C 
HETATM    2  C16 UNL     1      -5.214  48.805 -23.870  1.00  0.00     0.054 C 
HETATM    3  C17 UNL     1      -5.004  49.267 -22.408  1.00  0.00     0.050 C 
HETATM    4  C18 UNL     1      -6.395  48.931 -21.793  1.00  0.00     0.272 C 
HETATM    5  O1  UNL     1      -6.341  48.201 -20.578  1.00  0.00    -0.360 OA
HETATM    6  C19 UNL     1      -6.311  46.792 -20.723  1.00  0.00     0.171 C 
HETATM    7  C20 UNL     1      -5.178  46.296 -21.604  1.00  0.00     0.027 C 
HETATM    8  C21 UNL     1      -3.873  47.041 -21.361  1.00  0.00     0.012 C 
HETATM    9  C22 UNL     1      -3.763  48.543 -21.756  1.00  0.00     0.032 C 
HETATM   10  C23 UNL     1      -3.098  49.335 -20.595  1.00  0.00    -0.066 C 
HETATM   11  C24 UNL     1      -1.786  49.181 -20.268  1.00  0.00    -0.021 C 
HETATM   12  C25 UNL     1      -0.803  48.281 -20.978  1.00  0.00     0.052 C 
HETATM   13  C27 UNL     1      -4.054  50.288 -19.911  1.00  0.00     0.038 C 
HETATM   14  C28 UNL     1      -4.675  51.301 -20.877  1.00  0.00     0.042 C 
HETATM   15  C29 UNL     1      -4.752  50.824 -22.345  1.00  0.00     0.067 C 
HETATM   16  C30 UNL     1      -3.492  51.300 -23.106  1.00  0.00     0.047 C 
HETATM   17  O4  UNL     1      -7.202  48.295 -22.788  1.00  0.00    -0.351 OA
ENDROOT
BRANCH   1  18
HETATM   18  C14 UNL     1      -7.111  47.791 -25.169  1.00  0.00     0.011 C 
HETATM   19  C12 UNL     1      -8.318  47.281 -25.496  1.00  0.00    -0.063 C 
HETATM   20  C13 UNL     1      -9.605  47.670 -24.812  1.00  0.00     0.048 C 
BRANCH  19  21
HETATM   21  C11 UNL     1      -8.390  46.321 -26.602  1.00  0.00     0.006 C 
HETATM   22  C10 UNL     1      -8.277  46.596 -27.913  1.00  0.00     0.001 C 
BRANCH  22  23
HETATM   23  C9  UNL     1      -8.373  45.571 -28.932  1.00  0.00     0.002 C 
HETATM   24  C7  UNL     1      -7.540  45.374 -29.976  1.00  0.00    -0.084 C 
HETATM   25  C8  UNL     1      -6.326  46.205 -30.302  1.00  0.00     0.043 C 
BRANCH  24  26
HETATM   26  C6  UNL     1      -7.824  44.249 -30.959  1.00  0.00     0.037 C 
BRANCH  26  27
HETATM   27  C5  UNL     1      -6.795  43.116 -30.878  1.00  0.00     0.031 C 
BRANCH  27  28
HETATM   28  C4  UNL     1      -6.643  42.414 -32.202  1.00  0.00    -0.024 C 
HETATM   29  C2  UNL     1      -5.615  42.512 -33.069  1.00  0.00    -0.091 C 
HETATM   30  C1  UNL     1      -4.368  43.320 -32.839  1.00  0.00     0.042 C 
HETATM   31  C3  UNL     1      -5.646  41.775 -34.384  1.00  0.00     0.042 C 
ENDBRANCH  27  28
ENDBRANCH  26  27
ENDBRANCH  24  26
ENDBRANCH  22  23
ENDBRANCH  19  21
ENDBRANCH   1  18
BRANCH  15  32
HETATM   32  O3  UNL     1      -5.848  51.509 -22.971  1.00  0.00    -0.389 OA
HETATM   33  H44 UNL     1      -5.682  52.467 -22.919  1.00  0.00     0.210 HD
ENDBRANCH  15  32
BRANCH  11  34
HETATM   34  C26 UNL     1      -1.145  49.906 -19.118  1.00  0.00     0.265 C 
HETATM   35  O2  UNL     1      -0.888  51.105 -19.151  1.00  0.00    -0.302 OA
ENDBRANCH  11  34
TORSDOF 8
ENDMDL
MODEL 9
REMARK minimizedAffinity -8.32314587
REMARK CNNscore 0.338800311
REMARK CNNaffinity 6.65730286
REMARK  8 active torsions:
REMARK  status: ('A' for Active; 'I' for Inactive)
REMARK    1  A    between atoms: C4_4  and  C5_5 
REMARK    2  A    between atoms: C5_5  and  C6_6 
REMARK    3  A    between atoms: C6_6  and  C7_7 
REMARK    4  A    between atoms: C9_9  and  C10_10 
REMARK    5  A    between atoms: C11_11  and  C12_12 
REMARK    6  A    between atoms: C14_14  and  C15_15 
REMARK    7  A    between atoms: C24_25  and  C26_27 
REMARK    8  A    between atoms: C29_31  and  O3_33 
ROOT
HETATM    1  C15 UNL     1      -0.276  51.465 -17.610  1.00  0.00     0.149 C 
HETATM    2  C16 UNL     1       0.838  50.625 -16.997  1.00  0.00     0.054 C 
HETATM    3  C17 UNL     1       0.541  50.597 -15.478  1.00  0.00     0.050 C 
HETATM    4  C18 UNL     1      -0.962  51.008 -15.468  1.00  0.00     0.272 C 
HETATM    5  O1  UNL     1      -1.798  50.164 -14.693  1.00  0.00    -0.360 OA
HETATM    6  C19 UNL     1      -2.335  49.048 -15.383  1.00  0.00     0.171 C 
HETATM    7  C20 UNL     1      -1.280  48.172 -16.034  1.00  0.00     0.027 C 
HETATM    8  C21 UNL     1      -0.053  47.975 -15.155  1.00  0.00     0.012 C 
HETATM    9  C22 UNL     1       0.880  49.187 -14.858  1.00  0.00     0.032 C 
HETATM   10  C23 UNL     1       1.217  49.220 -13.340  1.00  0.00    -0.066 C 
HETATM   11  C24 UNL     1       2.011  48.285 -12.752  1.00  0.00    -0.021 C 
HETATM   12  C25 UNL     1       2.694  47.140 -13.460  1.00  0.00     0.052 C 
HETATM   13  C27 UNL     1       0.590  50.397 -12.625  1.00  0.00     0.038 C 
HETATM   14  C28 UNL     1       1.000  51.745 -13.228  1.00  0.00     0.042 C 
HETATM   15  C29 UNL     1       1.397  51.685 -14.721  1.00  0.00     0.067 C 
HETATM   16  C30 UNL     1       2.928  51.489 -14.837  1.00  0.00     0.047 C 
HETATM   17  O4  UNL     1      -1.415  51.149 -16.818  1.00  0.00    -0.351 OA
ENDROOT
BRANCH   1  18
HETATM   18  C14 UNL     1      -0.484  51.145 -19.068  1.00  0.00     0.011 C 
HETATM   19  C12 UNL     1      -0.140  51.848 -20.170  1.00  0.00    -0.063 C 
HETATM   20  C13 UNL     1       0.659  53.126 -20.131  1.00  0.00     0.048 C 
BRANCH  19  21
HETATM   21  C11 UNL     1      -0.534  51.322 -21.480  1.00  0.00     0.006 C 
HETATM   22  C10 UNL     1      -0.229  51.845 -22.680  1.00  0.00     0.001 C 
BRANCH  22  23
HETATM   23  C9  UNL     1      -0.678  51.251 -23.923  1.00  0.00     0.002 C 
HETATM   24  C7  UNL     1      -0.445  51.698 -25.175  1.00  0.00    -0.084 C 
HETATM   25  C8  UNL     1       0.334  52.936 -25.538  1.00  0.00     0.043 C 
BRANCH  24  26
HETATM   26  C6  UNL     1      -1.025  50.941 -26.360  1.00  0.00     0.037 C 
BRANCH  26  27
HETATM   27  C5  UNL     1      -2.414  51.446 -26.765  1.00  0.00     0.031 C 
BRANCH  27  28
HETATM   28  C4  UNL     1      -3.177  50.402 -27.537  1.00  0.00    -0.024 C 
HETATM   29  C2  UNL     1      -3.585  49.194 -27.100  1.00  0.00    -0.091 C 
HETATM   30  C1  UNL     1      -3.399  48.677 -25.700  1.00  0.00     0.042 C 
HETATM   31  C3  UNL     1      -4.299  48.242 -28.025  1.00  0.00     0.042 C 
ENDBRANCH  27  28
ENDBRANCH  26  27
ENDBRANCH  24  26
ENDBRANCH  22  23
ENDBRANCH  19  21
ENDBRANCH   1  18
BRANCH  15  32
HETATM   32  O3  UNL     1       1.141  52.977 -15.293  1.00  0.00    -0.389 OA
HETATM   33  H44 UNL     1       1.671  53.638 -14.813  1.00  0.00     0.210 HD
ENDBRANCH  15  32
BRANCH  11  34
HETATM   34  C26 UNL     1       2.304  48.281 -11.278  1.00  0.00     0.265 C 
HETATM   35  O2  UNL     1       3.416  48.531 -10.822  1.00  0.00    -0.302 OA
ENDBRANCH  11  34
TORSDOF 8
ENDMDL
