MODEL 1
REMARK minimizedAffinity -9.14287853
REMARK CNNscore 0.428720355
REMARK CNNaffinity 6.52421427
REMARK  18 active torsions:
REMARK  status: ('A' for Active; 'I' for Inactive)
REMARK    1  A    between atoms: C2_2  and  C4_4 
REMARK    2  A    between atoms: C4_4  and  N1_5 
REMARK    3  A    between atoms: C4_4  and  C30_38 
REMARK       I    between atoms: N1_5  and  C5_6 
REMARK    4  A    between atoms: C5_6  and  C6_8 
REMARK    5  A    between atoms: C6_8  and  C7_9 
REMARK    6  A    between atoms: C7_9  and  C8_10 
REMARK    7  A    between atoms: C8_10  and  O3_12 
REMARK    8  A    between atoms: O3_12  and  C9_13 
REMARK    9  A    between atoms: C9_13  and  C10_14 
REMARK   10  A    between atoms: C10_14  and  C11_16 
REMARK   11  A    between atoms: C11_16  and  O5_17 
REMARK   12  A    between atoms: C26_33  and  O7_34 
REMARK       I    between atoms: C30_38  and  N2_40 
REMARK   13  A    between atoms: N2_40  and  C31_41 
REMARK   14  A    between atoms: C31_41  and  C32_42 
REMARK   15  A    between atoms: C32_42  and  C33_43 
REMARK   16  A    between atoms: C32_42  and  C35_47 
REMARK   17  A    between atoms: C33_43  and  C34_44 
REMARK   18  A    between atoms: C34_44  and  O10_46 
ROOT
HETATM    1  C8  UNL     1      -9.032  48.028 -24.789  1.00  0.00     0.259 C 
HETATM    2  O2  UNL     1      -9.196  49.186 -25.146  1.00  0.00    -0.265 OA
ENDROOT
BRANCH   1   3
HETATM    3  C7  UNL     1     -10.141  47.015 -24.651  1.00  0.00     0.120 C 
BRANCH   3   4
HETATM    4  C6  UNL     1     -10.105  45.943 -25.734  1.00  0.00     0.112 C 
BRANCH   4   5
HETATM    5  C5  UNL     1     -11.475  45.325 -25.912  1.00  0.00     0.218 C 
HETATM    6  N1  UNL     1     -12.465  46.221 -26.236  1.00  0.00    -0.347 N 
HETATM    7  H9  UNL     1     -12.260  47.211 -26.281  1.00  0.00     0.163 HD
HETATM    8  O1  UNL     1     -11.668  44.121 -25.785  1.00  0.00    -0.274 OA
BRANCH   6   9
HETATM    9  C4  UNL     1     -13.872  45.810 -26.394  1.00  0.00     0.179 C 
BRANCH   9  10
HETATM   10  C2  UNL     1     -14.397  46.065 -27.829  1.00  0.00     0.009 C 
HETATM   11  C1  UNL     1     -15.507  45.074 -28.208  1.00  0.00     0.012 C 
HETATM   12  C3  UNL     1     -13.292  45.960 -28.887  1.00  0.00     0.012 C 
ENDBRANCH   9  10
BRANCH   9  13
HETATM   13  C30 UNL     1     -14.718  46.545 -25.314  1.00  0.00     0.240 C 
HETATM   14  O8  UNL     1     -14.467  47.670 -24.895  1.00  0.00    -0.271 OA
HETATM   15  N2  UNL     1     -15.862  45.864 -24.939  1.00  0.00    -0.359 N 
HETATM   16  H43 UNL     1     -16.109  45.057 -25.503  1.00  0.00     0.162 HD
BRANCH  15  17
HETATM   17  C31 UNL     1     -16.931  46.498 -24.187  1.00  0.00     0.132 C 
BRANCH  17  18
HETATM   18  C32 UNL     1     -17.592  45.507 -23.204  1.00  0.00     0.046 C 
BRANCH  18  19
HETATM   19  C33 UNL     1     -18.979  45.089 -23.711  1.00  0.00     0.120 C 
BRANCH  19  20
HETATM   20  C34 UNL     1     -19.329  45.775 -25.003  1.00  0.00     0.140 C 
HETATM   21  O9  UNL     1     -19.977  46.797 -25.141  1.00  0.00    -0.650 OA
BRANCH  20  22
HETATM   22  O10 UNL     1     -18.888  45.092 -26.077  1.00  0.00    -0.776 OA
HETATM   23  H49 UNL     1     -19.190  45.633 -26.837  1.00  0.00     0.167 HD
ENDBRANCH  20  22
ENDBRANCH  19  20
ENDBRANCH  18  19
BRANCH  18  24
HETATM   24  C35 UNL     1     -17.629  46.115 -21.803  1.00  0.00    -0.052 A 
HETATM   25  C36 UNL     1     -18.833  46.481 -21.182  1.00  0.00     0.007 A 
HETATM   26  C37 UNL     1     -18.830  47.080 -19.921  1.00  0.00     0.001 A 
HETATM   27  C38 UNL     1     -17.625  47.327 -19.267  1.00  0.00     0.000 A 
HETATM   28  C39 UNL     1     -16.422  46.974 -19.873  1.00  0.00     0.001 A 
HETATM   29  C40 UNL     1     -16.423  46.370 -21.131  1.00  0.00     0.007 A 
ENDBRANCH  18  24
ENDBRANCH  17  18
ENDBRANCH  15  17
ENDBRANCH   9  13
ENDBRANCH   6   9
ENDBRANCH   4   5
ENDBRANCH   3   4
ENDBRANCH   1   3
BRANCH   1  30
HETATM   30  O3  UNL     1      -7.820  47.472 -24.504  1.00  0.00    -0.314 OA
BRANCH  30  31
HETATM   31  C9  UNL     1      -6.718  48.384 -24.588  1.00  0.00     0.260 C 
BRANCH  31  32
HETATM   32  C10 UNL     1      -5.945  48.485 -23.279  1.00  0.00     0.185 C 
HETATM   33  O4  UNL     1      -6.025  47.613 -22.404  1.00  0.00    -0.292 OA
BRANCH  32  34
HETATM   34  C11 UNL     1      -5.044  49.713 -23.034  1.00  0.00     0.128 C 
HETATM   35  C12 UNL     1      -4.468  49.903 -21.613  1.00  0.00     0.047 C 
HETATM   36  C13 UNL     1      -3.071  50.537 -21.785  1.00  0.00     0.009 C 
HETATM   37  C14 UNL     1      -2.986  50.881 -23.267  1.00  0.00     0.002 C 
HETATM   38  C15 UNL     1      -1.606  51.119 -23.892  1.00  0.00    -0.002 C 
HETATM   39  C28 UNL     1      -3.781  49.745 -23.952  1.00  0.00     0.001 C 
HETATM   40  C16 UNL     1      -0.828  52.202 -23.114  1.00  0.00     0.010 C 
HETATM   41  C25 UNL     1      -1.805  51.521 -25.400  1.00  0.00     0.031 C 
HETATM   42  C17 UNL     1       0.475  52.614 -23.800  1.00  0.00     0.035 C 
HETATM   43  C18 UNL     1       0.181  52.988 -25.231  1.00  0.00    -0.068 C 
HETATM   44  C19 UNL     1       0.337  54.259 -25.642  1.00  0.00     0.053 C 
HETATM   45  C23 UNL     1      -0.430  51.867 -26.088  1.00  0.00    -0.014 C 
HETATM   46  C20 UNL     1      -0.195  54.709 -26.949  1.00  0.00     0.149 C 
HETATM   47  O6  UNL     1       0.047  55.847 -27.344  1.00  0.00    -0.293 OA
HETATM   48  C21 UNL     1      -1.109  53.766 -27.690  1.00  0.00     0.084 C 
HETATM   49  C22 UNL     1      -0.581  52.347 -27.560  1.00  0.00     0.022 C 
HETATM   50  C24 UNL     1       0.552  50.668 -26.138  1.00  0.00     0.020 C 
HETATM   51  C26 UNL     1      -2.719  50.525 -26.170  1.00  0.00     0.124 C 
HETATM   52  C27 UNL     1      -4.021  50.175 -25.417  1.00  0.00     0.045 C 
HETATM   53  C29 UNL     1      -3.062  48.371 -23.893  1.00  0.00     0.019 C 
BRANCH  34  54
HETATM   54  O5  UNL     1      -5.870  50.860 -23.298  1.00  0.00    -0.381 OA
HETATM   55  H16 UNL     1      -6.435  50.633 -24.066  1.00  0.00     0.211 HD
ENDBRANCH  34  54
BRANCH  51  56
HETATM   56  O7  UNL     1      -2.024  49.331 -26.495  1.00  0.00    -0.395 OA
HETATM   57  H37 UNL     1      -2.600  48.802 -27.075  1.00  0.00     0.210 HD
ENDBRANCH  51  56
ENDBRANCH  32  34
ENDBRANCH  31  32
ENDBRANCH  30  31
ENDBRANCH   1  30
TORSDOF 18
ENDMDL
MODEL 2
REMARK minimizedAffinity -9.27084255
REMARK CNNscore 0.410255075
REMARK CNNaffinity 6.81997919
REMARK  18 active torsions:
REMARK  status: ('A' for Active; 'I' for Inactive)
REMARK    1  A    between atoms: C2_2  and  C4_4 
REMARK    2  A    between atoms: C4_4  and  N1_5 
REMARK    3  A    between atoms: C4_4  and  C30_38 
REMARK       I    between atoms: N1_5  and  C5_6 
REMARK    4  A    between atoms: C5_6  and  C6_8 
REMARK    5  A    between atoms: C6_8  and  C7_9 
REMARK    6  A    between atoms: C7_9  and  C8_10 
REMARK    7  A    between atoms: C8_10  and  O3_12 
REMARK    8  A    between atoms: O3_12  and  C9_13 
REMARK    9  A    between atoms: C9_13  and  C10_14 
REMARK   10  A    between atoms: C10_14  and  C11_16 
REMARK   11  A    between atoms: C11_16  and  O5_17 
REMARK   12  A    between atoms: C26_33  and  O7_34 
REMARK       I    between atoms: C30_38  and  N2_40 
REMARK   13  A    between atoms: N2_40  and  C31_41 
REMARK   14  A    between atoms: C31_41  and  C32_42 
REMARK   15  A    between atoms: C32_42  and  C33_43 
REMARK   16  A    between atoms: C32_42  and  C35_47 
REMARK   17  A    between atoms: C33_43  and  C34_44 
REMARK   18  A    between atoms: C34_44  and  O10_46 
ROOT
HETATM    1  C8  UNL     1       0.388  51.371 -17.259  1.00  0.00     0.259 C 
HETATM    2  O2  UNL     1       1.494  51.838 -17.025  1.00  0.00    -0.265 OA
ENDROOT
BRANCH   1   3
HETATM    3  C7  UNL     1      -0.068  50.905 -18.619  1.00  0.00     0.120 C 
BRANCH   3   4
HETATM    4  C6  UNL     1      -0.526  52.048 -19.517  1.00  0.00     0.112 C 
BRANCH   4   5
HETATM    5  C5  UNL     1      -1.084  51.509 -20.816  1.00  0.00     0.218 C 
HETATM    6  N1  UNL     1      -2.358  51.004 -20.723  1.00  0.00    -0.347 N 
HETATM    7  H9  UNL     1      -2.823  50.961 -19.824  1.00  0.00     0.163 HD
HETATM    8  O1  UNL     1      -0.443  51.537 -21.862  1.00  0.00    -0.274 OA
BRANCH   6   9
HETATM    9  C4  UNL     1      -3.043  50.387 -21.872  1.00  0.00     0.179 C 
BRANCH   9  10
HETATM   10  C2  UNL     1      -2.374  49.059 -22.307  1.00  0.00     0.009 C 
HETATM   11  C1  UNL     1      -3.356  48.152 -23.062  1.00  0.00     0.012 C 
HETATM   12  C3  UNL     1      -1.819  48.264 -21.119  1.00  0.00     0.012 C 
ENDBRANCH   9  10
BRANCH   9  13
HETATM   13  C30 UNL     1      -3.093  51.430 -23.027  1.00  0.00     0.240 C 
HETATM   14  O8  UNL     1      -3.707  52.491 -22.966  1.00  0.00    -0.271 OA
HETATM   15  N2  UNL     1      -2.284  51.114 -24.103  1.00  0.00    -0.359 N 
HETATM   16  H43 UNL     1      -1.639  50.342 -23.969  1.00  0.00     0.162 HD
BRANCH  15  17
HETATM   17  C31 UNL     1      -1.951  52.082 -25.134  1.00  0.00     0.132 C 
BRANCH  17  18
HETATM   18  C32 UNL     1      -1.667  51.391 -26.485  1.00  0.00     0.046 C 
BRANCH  18  19
HETATM   19  C33 UNL     1      -2.227  49.962 -26.487  1.00  0.00     0.120 C 
BRANCH  19  20
HETATM   20  C34 UNL     1      -3.108  49.711 -27.680  1.00  0.00     0.140 C 
HETATM   21  O9  UNL     1      -3.741  48.701 -27.928  1.00  0.00    -0.650 OA
BRANCH  20  22
HETATM   22  O10 UNL     1      -3.096  50.743 -28.546  1.00  0.00    -0.776 OA
HETATM   23  H49 UNL     1      -3.689  50.447 -29.268  1.00  0.00     0.167 HD
ENDBRANCH  20  22
ENDBRANCH  19  20
ENDBRANCH  18  19
BRANCH  18  24
HETATM   24  C35 UNL     1      -0.170  51.443 -26.789  1.00  0.00    -0.052 A 
HETATM   25  C36 UNL     1       0.798  51.174 -25.809  1.00  0.00     0.007 A 
HETATM   26  C37 UNL     1       2.158  51.279 -26.106  1.00  0.00     0.001 A 
HETATM   27  C38 UNL     1       2.568  51.662 -27.381  1.00  0.00     0.000 A 
HETATM   28  C39 UNL     1       1.620  51.937 -28.361  1.00  0.00     0.001 A 
HETATM   29  C40 UNL     1       0.259  51.828 -28.069  1.00  0.00     0.007 A 
ENDBRANCH  18  24
ENDBRANCH  17  18
ENDBRANCH  15  17
ENDBRANCH   9  13
ENDBRANCH   6   9
ENDBRANCH   4   5
ENDBRANCH   3   4
ENDBRANCH   1   3
BRANCH   1  30
HETATM   30  O3  UNL     1      -0.579  51.166 -16.319  1.00  0.00    -0.314 OA
BRANCH  30  31
HETATM   31  C9  UNL     1      -0.292  50.104 -15.402  1.00  0.00     0.260 C 
BRANCH  31  32
HETATM   32  C10 UNL     1       0.643  50.538 -14.280  1.00  0.00     0.185 C 
HETATM   33  O4  UNL     1       1.657  49.890 -13.988  1.00  0.00    -0.292 OA
BRANCH  32  34
HETATM   34  C11 UNL     1       0.312  51.816 -13.482  1.00  0.00     0.128 C 
HETATM   35  C12 UNL     1      -1.174  52.089 -13.156  1.00  0.00     0.047 C 
HETATM   36  C13 UNL     1      -1.202  52.781 -11.777  1.00  0.00     0.009 C 
HETATM   37  C14 UNL     1       0.261  53.069 -11.462  1.00  0.00     0.002 C 
HETATM   38  C15 UNL     1       0.663  53.346 -10.008  1.00  0.00    -0.002 C 
HETATM   39  C28 UNL     1       1.012  51.870 -12.087  1.00  0.00     0.001 C 
HETATM   40  C16 UNL     1      -0.179  54.495  -9.412  1.00  0.00     0.010 C 
HETATM   41  C25 UNL     1       2.200  53.678  -9.971  1.00  0.00     0.031 C 
HETATM   42  C17 UNL     1       0.303  54.940  -8.031  1.00  0.00     0.035 C 
HETATM   43  C18 UNL     1       1.779  55.242  -8.101  1.00  0.00    -0.068 C 
HETATM   44  C19 UNL     1       2.218  56.501  -7.929  1.00  0.00     0.053 C 
HETATM   45  C23 UNL     1       2.670  54.061  -8.517  1.00  0.00    -0.014 C 
HETATM   46  C20 UNL     1       3.614  56.873  -8.256  1.00  0.00     0.149 C 
HETATM   47  O6  UNL     1       4.018  58.005  -7.998  1.00  0.00    -0.293 OA
HETATM   48  C21 UNL     1       4.449  55.860  -8.997  1.00  0.00     0.084 C 
HETATM   49  C22 UNL     1       4.169  54.474  -8.442  1.00  0.00     0.022 C 
HETATM   50  C24 UNL     1       2.504  52.908  -7.493  1.00  0.00     0.020 C 
HETATM   51  C26 UNL     1       3.062  52.610 -10.706  1.00  0.00     0.124 C 
HETATM   52  C27 UNL     1       2.515  52.229 -12.098  1.00  0.00     0.045 C 
HETATM   53  C29 UNL     1       0.772  50.535 -11.334  1.00  0.00     0.019 C 
BRANCH  34  54
HETATM   54  O5  UNL     1       0.761  52.912 -14.298  1.00  0.00    -0.381 OA
HETATM   55  H16 UNL     1       1.600  52.627 -14.719  1.00  0.00     0.211 HD
ENDBRANCH  34  54
BRANCH  51  56
HETATM   56  O7  UNL     1       3.212  51.438  -9.919  1.00  0.00    -0.395 OA
HETATM   57  H37 UNL     1       3.853  50.860 -10.370  1.00  0.00     0.210 HD
ENDBRANCH  51  56
ENDBRANCH  32  34
ENDBRANCH  31  32
ENDBRANCH  30  31
ENDBRANCH   1  30
TORSDOF 18
ENDMDL
MODEL 3
REMARK minimizedAffinity -9.23982143
REMARK CNNscore 0.394711614
REMARK CNNaffinity 6.92932367
REMARK  18 active torsions:
REMARK  status: ('A' for Active; 'I' for Inactive)
REMARK    1  A    between atoms: C2_2  and  C4_4 
REMARK    2  A    between atoms: C4_4  and  N1_5 
REMARK    3  A    between atoms: C4_4  and  C30_38 
REMARK       I    between atoms: N1_5  and  C5_6 
REMARK    4  A    between atoms: C5_6  and  C6_8 
REMARK    5  A    between atoms: C6_8  and  C7_9 
REMARK    6  A    between atoms: C7_9  and  C8_10 
REMARK    7  A    between atoms: C8_10  and  O3_12 
REMARK    8  A    between atoms: O3_12  and  C9_13 
REMARK    9  A    between atoms: C9_13  and  C10_14 
REMARK   10  A    between atoms: C10_14  and  C11_16 
REMARK   11  A    between atoms: C11_16  and  O5_17 
REMARK   12  A    between atoms: C26_33  and  O7_34 
REMARK       I    between atoms: C30_38  and  N2_40 
REMARK   13  A    between atoms: N2_40  and  C31_41 
REMARK   14  A    between atoms: C31_41  and  C32_42 
REMARK   15  A    between atoms: C32_42  and  C33_43 
REMARK   16  A    between atoms: C32_42  and  C35_47 
REMARK   17  A    between atoms: C33_43  and  C34_44 
REMARK   18  A    between atoms: C34_44  and  O10_46 
ROOT
HETATM    1  C8  UNL     1      -5.151  48.147 -26.748  1.00  0.00     0.259 C 
HETATM    2  O2  UNL     1      -6.225  47.689 -26.384  1.00  0.00    -0.265 OA
ENDROOT
BRANCH   1   3
HETATM    3  C7  UNL     1      -4.280  49.045 -25.905  1.00  0.00     0.120 C 
BRANCH   3   4
HETATM    4  C6  UNL     1      -2.791  48.822 -26.143  1.00  0.00     0.112 C 
BRANCH   4   5
HETATM    5  C5  UNL     1      -2.150  50.078 -26.691  1.00  0.00     0.218 C 
HETATM    6  N1  UNL     1      -1.075  50.532 -25.966  1.00  0.00    -0.347 N 
HETATM    7  H9  UNL     1      -0.808  50.067 -25.107  1.00  0.00     0.163 HD
HETATM    8  O1  UNL     1      -2.560  50.629 -27.707  1.00  0.00    -0.274 OA
BRANCH   6   9
HETATM    9  C4  UNL     1      -0.359  51.771 -26.317  1.00  0.00     0.179 C 
BRANCH   9  10
HETATM   10  C2  UNL     1       0.690  51.544 -27.434  1.00  0.00     0.009 C 
HETATM   11  C1  UNL     1       2.116  51.487 -26.866  1.00  0.00     0.012 C 
HETATM   12  C3  UNL     1       0.655  52.639 -28.506  1.00  0.00     0.012 C 
ENDBRANCH   9  10
BRANCH   9  13
HETATM   13  C30 UNL     1       0.273  52.354 -25.020  1.00  0.00     0.240 C 
HETATM   14  O8  UNL     1       0.893  53.411 -24.973  1.00  0.00    -0.271 OA
HETATM   15  N2  UNL     1      -0.020  51.628 -23.879  1.00  0.00    -0.359 N 
HETATM   16  H43 UNL     1      -0.727  50.905 -23.976  1.00  0.00     0.162 HD
BRANCH  15  17
HETATM   17  C31 UNL     1       0.208  52.155 -22.544  1.00  0.00     0.132 C 
BRANCH  17  18
HETATM   18  C32 UNL     1      -0.954  51.798 -21.592  1.00  0.00     0.046 C 
BRANCH  18  19
HETATM   19  C33 UNL     1      -0.650  52.278 -20.167  1.00  0.00     0.120 C 
BRANCH  19  20
HETATM   20  C34 UNL     1       0.563  53.167 -20.126  1.00  0.00     0.140 C 
HETATM   21  O9  UNL     1       1.722  52.839 -20.308  1.00  0.00    -0.650 OA
BRANCH  20  22
HETATM   22  O10 UNL     1       0.254  54.435 -19.792  1.00  0.00    -0.776 OA
HETATM   23  H49 UNL     1       1.121  54.893 -19.791  1.00  0.00     0.167 HD
ENDBRANCH  20  22
ENDBRANCH  19  20
ENDBRANCH  18  19
BRANCH  18  24
HETATM   24  C35 UNL     1      -1.242  50.299 -21.666  1.00  0.00    -0.052 A 
HETATM   25  C36 UNL     1      -2.219  49.770 -22.524  1.00  0.00     0.007 A 
HETATM   26  C37 UNL     1      -2.493  48.401 -22.531  1.00  0.00     0.001 A 
HETATM   27  C38 UNL     1      -1.802  47.545 -21.678  1.00  0.00     0.000 A 
HETATM   28  C39 UNL     1      -0.833  48.055 -20.819  1.00  0.00     0.001 A 
HETATM   29  C40 UNL     1      -0.553  49.422 -20.812  1.00  0.00     0.007 A 
ENDBRANCH  18  24
ENDBRANCH  17  18
ENDBRANCH  15  17
ENDBRANCH   9  13
ENDBRANCH   6   9
ENDBRANCH   4   5
ENDBRANCH   3   4
ENDBRANCH   1   3
BRANCH   1  30
HETATM   30  O3  UNL     1      -4.564  47.879 -27.949  1.00  0.00    -0.314 OA
BRANCH  30  31
HETATM   31  C9  UNL     1      -5.169  48.545 -29.063  1.00  0.00     0.260 C 
BRANCH  31  32
HETATM   32  C10 UNL     1      -5.470  47.598 -30.217  1.00  0.00     0.185 C 
HETATM   33  O4  UNL     1      -4.623  47.332 -31.081  1.00  0.00    -0.292 OA
BRANCH  32  34
HETATM   34  C11 UNL     1      -6.870  46.957 -30.316  1.00  0.00     0.128 C 
HETATM   35  C12 UNL     1      -8.064  47.896 -30.605  1.00  0.00     0.047 C 
HETATM   36  C13 UNL     1      -9.058  47.088 -31.466  1.00  0.00     0.009 C 
HETATM   37  C14 UNL     1      -8.507  45.668 -31.460  1.00  0.00     0.002 C 
HETATM   38  C15 UNL     1      -8.971  44.691 -32.547  1.00  0.00    -0.002 C 
HETATM   39  C28 UNL     1      -6.974  45.872 -31.433  1.00  0.00     0.001 C 
HETATM   40  C16 UNL     1     -10.511  44.595 -32.582  1.00  0.00     0.010 C 
HETATM   41  C25 UNL     1      -8.311  43.290 -32.272  1.00  0.00     0.031 C 
HETATM   42  C17 UNL     1     -11.024  43.499 -33.516  1.00  0.00     0.035 C 
HETATM   43  C18 UNL     1     -10.342  42.199 -33.169  1.00  0.00    -0.068 C 
HETATM   44  C19 UNL     1     -11.055  41.178 -32.661  1.00  0.00     0.053 C 
HETATM   45  C23 UNL     1      -8.811  42.207 -33.302  1.00  0.00    -0.014 C 
HETATM   46  C20 UNL     1     -10.383  40.001 -32.064  1.00  0.00     0.149 C 
HETATM   47  O6  UNL     1     -11.054  39.040 -31.697  1.00  0.00    -0.293 OA
HETATM   48  C21 UNL     1      -8.895  40.090 -31.838  1.00  0.00     0.084 C 
HETATM   49  C22 UNL     1      -8.246  40.784 -33.024  1.00  0.00     0.022 C 
HETATM   50  C24 UNL     1      -8.426  42.529 -34.769  1.00  0.00     0.020 C 
HETATM   51  C26 UNL     1      -6.770  43.381 -32.076  1.00  0.00     0.124 C 
HETATM   52  C27 UNL     1      -6.338  44.502 -31.106  1.00  0.00     0.045 C 
HETATM   53  C29 UNL     1      -6.407  46.438 -32.761  1.00  0.00     0.019 C 
BRANCH  34  54
HETATM   54  O5  UNL     1      -7.117  46.363 -29.030  1.00  0.00    -0.381 OA
HETATM   55  H16 UNL     1      -6.268  45.982 -28.725  1.00  0.00     0.211 HD
ENDBRANCH  34  54
BRANCH  51  56
HETATM   56  O7  UNL     1      -6.100  43.546 -33.317  1.00  0.00    -0.395 OA
HETATM   57  H37 UNL     1      -5.143  43.475 -33.148  1.00  0.00     0.210 HD
ENDBRANCH  51  56
ENDBRANCH  32  34
ENDBRANCH  31  32
ENDBRANCH  30  31
ENDBRANCH   1  30
TORSDOF 18
ENDMDL
MODEL 4
REMARK minimizedAffinity -9.06240368
REMARK CNNscore 0.31984967
REMARK CNNaffinity 5.94711113
REMARK  18 active torsions:
REMARK  status: ('A' for Active; 'I' for Inactive)
REMARK    1  A    between atoms: C2_2  and  C4_4 
REMARK    2  A    between atoms: C4_4  and  N1_5 
REMARK    3  A    between atoms: C4_4  and  C30_38 
REMARK       I    between atoms: N1_5  and  C5_6 
REMARK    4  A    between atoms: C5_6  and  C6_8 
REMARK    5  A    between atoms: C6_8  and  C7_9 
REMARK    6  A    between atoms: C7_9  and  C8_10 
REMARK    7  A    between atoms: C8_10  and  O3_12 
REMARK    8  A    between atoms: O3_12  and  C9_13 
REMARK    9  A    between atoms: C9_13  and  C10_14 
REMARK   10  A    between atoms: C10_14  and  C11_16 
REMARK   11  A    between atoms: C11_16  and  O5_17 
REMARK   12  A    between atoms: C26_33  and  O7_34 
REMARK       I    between atoms: C30_38  and  N2_40 
REMARK   13  A    between atoms: N2_40  and  C31_41 
REMARK   14  A    between atoms: C31_41  and  C32_42 
REMARK   15  A    between atoms: C32_42  and  C33_43 
REMARK   16  A    between atoms: C32_42  and  C35_47 
REMARK   17  A    between atoms: C33_43  and  C34_44 
REMARK   18  A    between atoms: C34_44  and  O10_46 
ROOT
HETATM    1  C8  UNL     1      -9.049  48.244 -26.040  1.00  0.00     0.259 C 
HETATM    2  O2  UNL     1      -8.235  47.736 -26.797  1.00  0.00    -0.265 OA
ENDROOT
BRANCH   1   3
HETATM    3  C7  UNL     1     -10.498  47.836 -25.950  1.00  0.00     0.120 C 
BRANCH   3   4
HETATM    4  C6  UNL     1     -10.823  46.609 -26.793  1.00  0.00     0.112 C 
BRANCH   4   5
HETATM    5  C5  UNL     1     -11.871  45.760 -26.107  1.00  0.00     0.218 C 
HETATM    6  N1  UNL     1     -13.115  45.811 -26.687  1.00  0.00    -0.347 N 
HETATM    7  H9  UNL     1     -13.285  46.428 -27.471  1.00  0.00     0.163 HD
HETATM    8  O1  UNL     1     -11.613  45.077 -25.121  1.00  0.00    -0.274 OA
BRANCH   6   9
HETATM    9  C4  UNL     1     -14.273  45.093 -26.125  1.00  0.00     0.179 C 
BRANCH   9  10
HETATM   10  C2  UNL     1     -15.137  44.426 -27.224  1.00  0.00     0.009 C 
HETATM   11  C1  UNL     1     -16.525  45.076 -27.323  1.00  0.00     0.012 C 
HETATM   12  C3  UNL     1     -15.338  42.925 -26.985  1.00  0.00     0.012 C 
ENDBRANCH   9  10
BRANCH   9  13
HETATM   13  C30 UNL     1     -15.089  46.092 -25.254  1.00  0.00     0.240 C 
HETATM   14  O8  UNL     1     -14.858  47.295 -25.191  1.00  0.00    -0.271 OA
HETATM   15  N2  UNL     1     -16.187  45.524 -24.631  1.00  0.00    -0.359 N 
HETATM   16  H43 UNL     1     -16.433  44.584 -24.924  1.00  0.00     0.162 HD
BRANCH  15  17
HETATM   17  C31 UNL     1     -17.239  46.327 -24.031  1.00  0.00     0.132 C 
BRANCH  17  18
HETATM   18  C32 UNL     1     -17.942  45.567 -22.886  1.00  0.00     0.046 C 
BRANCH  18  19
HETATM   19  C33 UNL     1     -19.434  45.382 -23.198  1.00  0.00     0.120 C 
BRANCH  19  20
HETATM   20  C34 UNL     1     -19.761  45.786 -24.609  1.00  0.00     0.140 C 
HETATM   21  O9  UNL     1     -19.950  46.914 -25.027  1.00  0.00    -0.650 OA
BRANCH  20  22
HETATM   22  O10 UNL     1     -19.895  44.722 -25.424  1.00  0.00    -0.776 OA
HETATM   23  H49 UNL     1     -20.115  45.120 -26.293  1.00  0.00     0.167 HD
ENDBRANCH  20  22
ENDBRANCH  19  20
ENDBRANCH  18  19
BRANCH  18  24
HETATM   24  C35 UNL     1     -17.697  46.285 -21.559  1.00  0.00    -0.052 A 
HETATM   25  C36 UNL     1     -16.403  46.518 -21.068  1.00  0.00     0.007 A 
HETATM   26  C37 UNL     1     -16.213  47.132 -19.828  1.00  0.00     0.001 A 
HETATM   27  C38 UNL     1     -17.311  47.516 -19.063  1.00  0.00     0.000 A 
HETATM   28  C39 UNL     1     -18.600  47.288 -19.535  1.00  0.00     0.001 A 
HETATM   29  C40 UNL     1     -18.794  46.678 -20.776  1.00  0.00     0.007 A 
ENDBRANCH  18  24
ENDBRANCH  17  18
ENDBRANCH  15  17
ENDBRANCH   9  13
ENDBRANCH   6   9
ENDBRANCH   4   5
ENDBRANCH   3   4
ENDBRANCH   1   3
BRANCH   1  30
HETATM   30  O3  UNL     1      -8.757  49.224 -25.137  1.00  0.00    -0.314 OA
BRANCH  30  31
HETATM   31  C9  UNL     1      -8.053  48.767 -23.977  1.00  0.00     0.260 C 
BRANCH  31  32
HETATM   32  C10 UNL     1      -6.580  49.154 -23.999  1.00  0.00     0.185 C 
HETATM   33  O4  UNL     1      -5.800  48.711 -24.854  1.00  0.00    -0.292 OA
BRANCH  32  34
HETATM   34  C11 UNL     1      -6.042  50.119 -22.922  1.00  0.00     0.128 C 
HETATM   35  C12 UNL     1      -6.825  50.209 -21.592  1.00  0.00     0.047 C 
HETATM   36  C13 UNL     1      -5.780  50.457 -20.483  1.00  0.00     0.009 C 
HETATM   37  C14 UNL     1      -4.478  50.709 -21.232  1.00  0.00     0.002 C 
HETATM   38  C15 UNL     1      -3.151  50.560 -20.477  1.00  0.00    -0.002 C 
HETATM   39  C28 UNL     1      -4.584  49.789 -22.471  1.00  0.00     0.001 C 
HETATM   40  C16 UNL     1      -3.137  51.437 -19.207  1.00  0.00     0.010 C 
HETATM   41  C25 UNL     1      -1.977  50.941 -21.453  1.00  0.00     0.031 C 
HETATM   42  C17 UNL     1      -1.774  51.473 -18.516  1.00  0.00     0.035 C 
HETATM   43  C18 UNL     1      -0.721  51.855 -19.528  1.00  0.00    -0.068 C 
HETATM   44  C19 UNL     1      -0.070  53.026 -19.414  1.00  0.00     0.053 C 
HETATM   45  C23 UNL     1      -0.583  50.896 -20.721  1.00  0.00    -0.014 C 
HETATM   46  C20 UNL     1       0.762  53.546 -20.524  1.00  0.00     0.149 C 
HETATM   47  O6  UNL     1       1.424  54.567 -20.360  1.00  0.00    -0.293 OA
HETATM   48  C21 UNL     1       0.668  52.841 -21.854  1.00  0.00     0.084 C 
HETATM   49  C22 UNL     1       0.603  51.340 -21.625  1.00  0.00     0.022 C 
HETATM   50  C24 UNL     1      -0.206  49.484 -20.203  1.00  0.00     0.020 C 
HETATM   51  C26 UNL     1      -2.057  50.184 -22.811  1.00  0.00     0.124 C 
HETATM   52  C27 UNL     1      -3.463  50.208 -23.448  1.00  0.00     0.045 C 
HETATM   53  C29 UNL     1      -4.476  48.280 -22.125  1.00  0.00     0.019 C 
BRANCH  34  54
HETATM   54  O5  UNL     1      -6.088  51.428 -23.514  1.00  0.00    -0.381 OA
HETATM   55  H16 UNL     1      -5.831  51.323 -24.454  1.00  0.00     0.211 HD
ENDBRANCH  34  54
BRANCH  51  56
HETATM   56  O7  UNL     1      -1.621  48.839 -22.679  1.00  0.00    -0.395 OA
HETATM   57  H37 UNL     1      -1.577  48.454 -23.572  1.00  0.00     0.210 HD
ENDBRANCH  51  56
ENDBRANCH  32  34
ENDBRANCH  31  32
ENDBRANCH  30  31
ENDBRANCH   1  30
TORSDOF 18
ENDMDL
MODEL 5
REMARK minimizedAffinity -9.85451126
REMARK CNNscore 0.2952317
REMARK CNNaffinity 6.98451757
REMARK  18 active torsions:
REMARK  status: ('A' for Active; 'I' for Inactive)
REMARK    1  A    between atoms: C2_2  and  C4_4 
REMARK    2  A    between atoms: C4_4  and  N1_5 
REMARK    3  A    between atoms: C4_4  and  C30_38 
REMARK       I    between atoms: N1_5  and  C5_6 
REMARK    4  A    between atoms: C5_6  and  C6_8 
REMARK    5  A    between atoms: C6_8  and  C7_9 
REMARK    6  A    between atoms: C7_9  and  C8_10 
REMARK    7  A    between atoms: C8_10  and  O3_12 
REMARK    8  A    between atoms: O3_12  and  C9_13 
REMARK    9  A    between atoms: C9_13  and  C10_14 
REMARK   10  A    between atoms: C10_14  and  C11_16 
REMARK   11  A    between atoms: C11_16  and  O5_17 
REMARK   12  A    between atoms: C26_33  and  O7_34 
REMARK       I    between atoms: C30_38  and  N2_40 
REMARK   13  A    between atoms: N2_40  and  C31_41 
REMARK   14  A    between atoms: C31_41  and  C32_42 
REMARK   15  A    between atoms: C32_42  and  C33_43 
REMARK   16  A    between atoms: C32_42  and  C35_47 
REMARK   17  A    between atoms: C33_43  and  C34_44 
REMARK   18  A    between atoms: C34_44  and  O10_46 
ROOT
HETATM    1  C8  UNL     1      -4.872  48.243 -26.826  1.00  0.00     0.259 C 
HETATM    2  O2  UNL     1      -5.234  48.496 -25.686  1.00  0.00    -0.265 OA
ENDROOT
BRANCH   1   3
HETATM    3  C7  UNL     1      -3.580  48.727 -27.436  1.00  0.00     0.120 C 
BRANCH   3   4
HETATM    4  C6  UNL     1      -2.545  49.129 -26.392  1.00  0.00     0.112 C 
BRANCH   4   5
HETATM    5  C5  UNL     1      -2.361  50.631 -26.382  1.00  0.00     0.218 C 
HETATM    6  N1  UNL     1      -1.059  51.045 -26.232  1.00  0.00    -0.347 N 
HETATM    7  H9  UNL     1      -0.324  50.365 -26.082  1.00  0.00     0.163 HD
HETATM    8  O1  UNL     1      -3.305  51.404 -26.511  1.00  0.00    -0.274 OA
BRANCH   6   9
HETATM    9  C4  UNL     1      -0.695  52.470 -26.145  1.00  0.00     0.179 C 
BRANCH   9  10
HETATM   10  C2  UNL     1      -0.143  53.015 -27.486  1.00  0.00     0.009 C 
HETATM   11  C1  UNL     1      -1.225  53.762 -28.280  1.00  0.00     0.012 C 
HETATM   12  C3  UNL     1       0.419  51.908 -28.385  1.00  0.00     0.012 C 
ENDBRANCH   9  10
BRANCH   9  13
HETATM   13  C30 UNL     1       0.315  52.644 -24.974  1.00  0.00     0.240 C 
HETATM   14  O8  UNL     1       1.253  53.435 -24.988  1.00  0.00    -0.271 OA
HETATM   15  N2  UNL     1       0.001  51.903 -23.849  1.00  0.00    -0.359 N 
HETATM   16  H43 UNL     1      -0.913  51.461 -23.842  1.00  0.00     0.162 HD
BRANCH  15  17
HETATM   17  C31 UNL     1       0.626  52.148 -22.560  1.00  0.00     0.132 C 
BRANCH  17  18
HETATM   18  C32 UNL     1      -0.367  51.914 -21.400  1.00  0.00     0.046 C 
BRANCH  18  19
HETATM   19  C33 UNL     1       0.292  52.241 -20.053  1.00  0.00     0.120 C 
BRANCH  19  20
HETATM   20  C34 UNL     1       0.657  53.696 -19.951  1.00  0.00     0.140 C 
HETATM   21  O9  UNL     1       1.623  54.249 -20.445  1.00  0.00    -0.650 OA
BRANCH  20  22
HETATM   22  O10 UNL     1      -0.197  54.381 -19.165  1.00  0.00    -0.776 OA
HETATM   23  H49 UNL     1       0.158  55.294 -19.176  1.00  0.00     0.167 HD
ENDBRANCH  20  22
ENDBRANCH  19  20
ENDBRANCH  18  19
BRANCH  18  24
HETATM   24  C35 UNL     1      -0.914  50.489 -21.465  1.00  0.00    -0.052 A 
HETATM   25  C36 UNL     1      -0.379  49.451 -20.686  1.00  0.00     0.007 A 
HETATM   26  C37 UNL     1      -0.868  48.148 -20.805  1.00  0.00     0.001 A 
HETATM   27  C38 UNL     1      -1.890  47.865 -21.707  1.00  0.00     0.000 A 
HETATM   28  C39 UNL     1      -2.427  48.883 -22.490  1.00  0.00     0.001 A 
HETATM   29  C40 UNL     1      -1.944  50.187 -22.370  1.00  0.00     0.007 A 
ENDBRANCH  18  24
ENDBRANCH  17  18
ENDBRANCH  15  17
ENDBRANCH   9  13
ENDBRANCH   6   9
ENDBRANCH   4   5
ENDBRANCH   3   4
ENDBRANCH   1   3
BRANCH   1  30
HETATM   30  O3  UNL     1      -5.562  47.454 -27.699  1.00  0.00    -0.314 OA
BRANCH  30  31
HETATM   31  C9  UNL     1      -5.909  48.099 -28.929  1.00  0.00     0.260 C 
BRANCH  31  32
HETATM   32  C10 UNL     1      -6.445  47.123 -29.969  1.00  0.00     0.185 C 
HETATM   33  O4  UNL     1      -6.537  45.910 -29.739  1.00  0.00    -0.292 OA
BRANCH  32  34
HETATM   34  C11 UNL     1      -6.875  47.660 -31.350  1.00  0.00     0.128 C 
HETATM   35  C12 UNL     1      -5.758  48.106 -32.321  1.00  0.00     0.047 C 
HETATM   36  C13 UNL     1      -6.252  47.767 -33.744  1.00  0.00     0.009 C 
HETATM   37  C14 UNL     1      -7.703  47.342 -33.555  1.00  0.00     0.002 C 
HETATM   38  C15 UNL     1      -8.383  46.527 -34.662  1.00  0.00    -0.002 C 
HETATM   39  C28 UNL     1      -7.700  46.630 -32.183  1.00  0.00     0.001 C 
HETATM   40  C16 UNL     1      -8.280  47.249 -36.022  1.00  0.00     0.010 C 
HETATM   41  C25 UNL     1      -9.882  46.283 -34.251  1.00  0.00     0.031 C 
HETATM   42  C17 UNL     1      -9.100  46.576 -37.123  1.00  0.00     0.035 C 
HETATM   43  C18 UNL     1     -10.517  46.395 -36.639  1.00  0.00    -0.068 C 
HETATM   44  C19 UNL     1     -11.521  47.073 -37.222  1.00  0.00     0.053 C 
HETATM   45  C23 UNL     1     -10.672  45.523 -35.382  1.00  0.00    -0.014 C 
HETATM   46  C20 UNL     1     -12.866  47.125 -36.604  1.00  0.00     0.149 C 
HETATM   47  O6  UNL     1     -13.790  47.667 -37.205  1.00  0.00    -0.293 OA
HETATM   48  C21 UNL     1     -13.008  46.593 -35.200  1.00  0.00     0.084 C 
HETATM   49  C22 UNL     1     -12.181  45.326 -35.056  1.00  0.00     0.022 C 
HETATM   50  C24 UNL     1     -10.119  44.104 -35.672  1.00  0.00     0.020 C 
HETATM   51  C26 UNL     1     -10.022  45.699 -32.815  1.00  0.00     0.124 C 
HETATM   52  C27 UNL     1      -9.175  46.445 -31.761  1.00  0.00     0.045 C 
HETATM   53  C29 UNL     1      -6.959  45.266 -32.202  1.00  0.00     0.019 C 
BRANCH  34  54
HETATM   54  O5  UNL     1      -7.674  48.826 -31.082  1.00  0.00    -0.381 OA
HETATM   55  H16 UNL     1      -8.210  48.626 -30.286  1.00  0.00     0.211 HD
ENDBRANCH  34  54
BRANCH  51  56
HETATM   56  O7  UNL     1      -9.702  44.316 -32.786  1.00  0.00    -0.395 OA
HETATM   57  H37 UNL     1      -9.923  43.981 -31.898  1.00  0.00     0.210 HD
ENDBRANCH  51  56
ENDBRANCH  32  34
ENDBRANCH  31  32
ENDBRANCH  30  31
ENDBRANCH   1  30
TORSDOF 18
ENDMDL
MODEL 6
REMARK minimizedAffinity -8.39293098
REMARK CNNscore 0.293179691
REMARK CNNaffinity 6.64893675
REMARK  18 active torsions:
REMARK  status: ('A' for Active; 'I' for Inactive)
REMARK    1  A    between atoms: C2_2  and  C4_4 
REMARK    2  A    between atoms: C4_4  and  N1_5 
REMARK    3  A    between atoms: C4_4  and  C30_38 
REMARK       I    between atoms: N1_5  and  C5_6 
REMARK    4  A    between atoms: C5_6  and  C6_8 
REMARK    5  A    between atoms: C6_8  and  C7_9 
REMARK    6  A    between atoms: C7_9  and  C8_10 
REMARK    7  A    between atoms: C8_10  and  O3_12 
REMARK    8  A    between atoms: O3_12  and  C9_13 
REMARK    9  A    between atoms: C9_13  and  C10_14 
REMARK   10  A    between atoms: C10_14  and  C11_16 
REMARK   11  A    between atoms: C11_16  and  O5_17 
REMARK   12  A    between atoms: C26_33  and  O7_34 
REMARK       I    between atoms: C30_38  and  N2_40 
REMARK   13  A    between atoms: N2_40  and  C31_41 
REMARK   14  A    between atoms: C31_41  and  C32_42 
REMARK   15  A    between atoms: C32_42  and  C33_43 
REMARK   16  A    between atoms: C32_42  and  C35_47 
REMARK   17  A    between atoms: C33_43  and  C34_44 
REMARK   18  A    between atoms: C34_44  and  O10_46 
ROOT
HETATM    1  C8  UNL     1      -7.880  48.668 -24.000  1.00  0.00     0.259 C 
HETATM    2  O2  UNL     1      -8.510  48.131 -23.100  1.00  0.00    -0.265 OA
ENDROOT
BRANCH   1   3
HETATM    3  C7  UNL     1      -6.497  49.250 -23.841  1.00  0.00     0.120 C 
BRANCH   3   4
HETATM    4  C6  UNL     1      -5.393  48.275 -24.234  1.00  0.00     0.112 C 
BRANCH   4   5
HETATM    5  C5  UNL     1      -4.228  49.017 -24.851  1.00  0.00     0.218 C 
HETATM    6  N1  UNL     1      -4.488  50.332 -25.157  1.00  0.00    -0.347 N 
HETATM    7  H9  UNL     1      -5.416  50.711 -25.019  1.00  0.00     0.163 HD
HETATM    8  O1  UNL     1      -3.143  48.480 -25.046  1.00  0.00    -0.274 OA
BRANCH   6   9
HETATM    9  C4  UNL     1      -3.491  51.195 -25.814  1.00  0.00     0.179 C 
BRANCH   9  10
HETATM   10  C2  UNL     1      -2.641  50.421 -26.852  1.00  0.00     0.009 C 
HETATM   11  C1  UNL     1      -1.268  51.077 -27.059  1.00  0.00     0.012 C 
HETATM   12  C3  UNL     1      -3.326  50.325 -28.220  1.00  0.00     0.012 C 
ENDBRANCH   9  10
BRANCH   9  13
HETATM   13  C30 UNL     1      -2.618  51.858 -24.709  1.00  0.00     0.240 C 
HETATM   14  O8  UNL     1      -2.445  53.068 -24.605  1.00  0.00    -0.271 OA
HETATM   15  N2  UNL     1      -2.134  50.967 -23.768  1.00  0.00    -0.359 N 
HETATM   16  H43 UNL     1      -2.517  50.028 -23.800  1.00  0.00     0.162 HD
BRANCH  15  17
HETATM   17  C31 UNL     1      -1.565  51.406 -22.505  1.00  0.00     0.132 C 
BRANCH  17  18
HETATM   18  C32 UNL     1      -2.477  51.032 -21.316  1.00  0.00     0.046 C 
BRANCH  18  19
HETATM   19  C33 UNL     1      -1.930  51.624 -20.010  1.00  0.00     0.120 C 
BRANCH  19  20
HETATM   20  C34 UNL     1      -0.445  51.849 -20.080  1.00  0.00     0.140 C 
HETATM   21  O9  UNL     1       0.389  51.108 -20.568  1.00  0.00    -0.650 OA
BRANCH  20  22
HETATM   22  O10 UNL     1      -0.074  52.989 -19.467  1.00  0.00    -0.776 OA
HETATM   23  H49 UNL     1       0.900  53.005 -19.575  1.00  0.00     0.167 HD
ENDBRANCH  20  22
ENDBRANCH  19  20
ENDBRANCH  18  19
BRANCH  18  24
HETATM   24  C35 UNL     1      -2.652  49.515 -21.255  1.00  0.00    -0.052 A 
HETATM   25  C36 UNL     1      -1.641  48.633 -21.666  1.00  0.00     0.007 A 
HETATM   26  C37 UNL     1      -1.850  47.252 -21.644  1.00  0.00     0.001 A 
HETATM   27  C38 UNL     1      -3.072  46.737 -21.220  1.00  0.00     0.000 A 
HETATM   28  C39 UNL     1      -4.085  47.600 -20.814  1.00  0.00     0.001 A 
HETATM   29  C40 UNL     1      -3.878  48.980 -20.830  1.00  0.00     0.007 A 
ENDBRANCH  18  24
ENDBRANCH  17  18
ENDBRANCH  15  17
ENDBRANCH   9  13
ENDBRANCH   6   9
ENDBRANCH   4   5
ENDBRANCH   3   4
ENDBRANCH   1   3
BRANCH   1  30
HETATM   30  O3  UNL     1      -8.316  48.782 -25.287  1.00  0.00    -0.314 OA
BRANCH  30  31
HETATM   31  C9  UNL     1      -9.671  48.364 -25.490  1.00  0.00     0.260 C 
BRANCH  31  32
HETATM   32  C10 UNL     1      -9.863  47.629 -26.810  1.00  0.00     0.185 C 
HETATM   33  O4  UNL     1      -8.911  47.125 -27.422  1.00  0.00    -0.292 OA
BRANCH  32  34
HETATM   34  C11 UNL     1     -11.282  47.515 -27.405  1.00  0.00     0.128 C 
HETATM   35  C12 UNL     1     -11.402  47.101 -28.889  1.00  0.00     0.047 C 
HETATM   36  C13 UNL     1     -12.690  46.259 -29.008  1.00  0.00     0.009 C 
HETATM   37  C14 UNL     1     -13.367  46.399 -27.650  1.00  0.00     0.002 C 
HETATM   38  C15 UNL     1     -14.428  45.369 -27.245  1.00  0.00    -0.002 C 
HETATM   39  C28 UNL     1     -12.183  46.480 -26.659  1.00  0.00     0.001 C 
HETATM   40  C16 UNL     1     -15.539  45.271 -28.313  1.00  0.00     0.010 C 
HETATM   41  C25 UNL     1     -15.011  45.780 -25.843  1.00  0.00     0.031 C 
HETATM   42  C17 UNL     1     -16.717  44.400 -27.877  1.00  0.00     0.035 C 
HETATM   43  C18 UNL     1     -17.209  44.876 -26.533  1.00  0.00    -0.068 C 
HETATM   44  C19 UNL     1     -18.430  45.428 -26.418  1.00  0.00     0.053 C 
HETATM   45  C23 UNL     1     -16.173  44.814 -25.398  1.00  0.00    -0.014 C 
HETATM   46  C20 UNL     1     -18.830  46.142 -25.184  1.00  0.00     0.149 C 
HETATM   47  O6  UNL     1     -19.983  46.551 -25.066  1.00  0.00    -0.293 OA
HETATM   48  C21 UNL     1     -17.756  46.429 -24.166  1.00  0.00     0.084 C 
HETATM   49  C22 UNL     1     -16.836  45.225 -24.052  1.00  0.00     0.022 C 
HETATM   50  C24 UNL     1     -15.714  43.345 -25.205  1.00  0.00     0.020 C 
HETATM   51  C26 UNL     1     -13.900  46.039 -24.785  1.00  0.00     0.124 C 
HETATM   52  C27 UNL     1     -12.756  46.939 -25.300  1.00  0.00     0.045 C 
HETATM   53  C29 UNL     1     -11.416  45.139 -26.507  1.00  0.00     0.019 C 
BRANCH  34  54
HETATM   54  O5  UNL     1     -11.855  48.830 -27.298  1.00  0.00    -0.381 OA
HETATM   55  H16 UNL     1     -11.556  49.201 -26.442  1.00  0.00     0.211 HD
ENDBRANCH  34  54
BRANCH  51  56
HETATM   56  O7  UNL     1     -13.359  44.821 -24.295  1.00  0.00    -0.395 OA
HETATM   57  H37 UNL     1     -12.762  45.038 -23.557  1.00  0.00     0.210 HD
ENDBRANCH  51  56
ENDBRANCH  32  34
ENDBRANCH  31  32
ENDBRANCH  30  31
ENDBRANCH   1  30
TORSDOF 18
ENDMDL
MODEL 7
REMARK minimizedAffinity -9.4122982
REMARK CNNscore 0.267782032
REMARK CNNaffinity 7.22245646
REMARK  18 active torsions:
REMARK  status: ('A' for Active; 'I' for Inactive)
REMARK    1  A    between atoms: C2_2  and  C4_4 
REMARK    2  A    between atoms: C4_4  and  N1_5 
REMARK    3  A    between atoms: C4_4  and  C30_38 
REMARK       I    between atoms: N1_5  and  C5_6 
REMARK    4  A    between atoms: C5_6  and  C6_8 
REMARK    5  A    between atoms: C6_8  and  C7_9 
REMARK    6  A    between atoms: C7_9  and  C8_10 
REMARK    7  A    between atoms: C8_10  and  O3_12 
REMARK    8  A    between atoms: O3_12  and  C9_13 
REMARK    9  A    between atoms: C9_13  and  C10_14 
REMARK   10  A    between atoms: C10_14  and  C11_16 
REMARK   11  A    between atoms: C11_16  and  O5_17 
REMARK   12  A    between atoms: C26_33  and  O7_34 
REMARK       I    between atoms: C30_38  and  N2_40 
REMARK   13  A    between atoms: N2_40  and  C31_41 
REMARK   14  A    between atoms: C31_41  and  C32_42 
REMARK   15  A    between atoms: C32_42  and  C33_43 
REMARK   16  A    between atoms: C32_42  and  C35_47 
REMARK   17  A    between atoms: C33_43  and  C34_44 
REMARK   18  A    between atoms: C34_44  and  O10_46 
ROOT
HETATM    1  C8  UNL     1      -4.754  48.302 -26.841  1.00  0.00     0.259 C 
HETATM    2  O2  UNL     1      -5.155  48.413 -25.691  1.00  0.00    -0.265 OA
ENDROOT
BRANCH   1   3
HETATM    3  C7  UNL     1      -3.452  48.873 -27.347  1.00  0.00     0.120 C 
BRANCH   3   4
HETATM    4  C6  UNL     1      -2.475  49.209 -26.227  1.00  0.00     0.112 C 
BRANCH   4   5
HETATM    5  C5  UNL     1      -2.265  50.705 -26.140  1.00  0.00     0.218 C 
HETATM    6  N1  UNL     1      -0.948  51.097 -26.149  1.00  0.00    -0.347 N 
HETATM    7  H9  UNL     1      -0.212  50.403 -26.153  1.00  0.00     0.163 HD
HETATM    8  O1  UNL     1      -3.204  51.491 -26.079  1.00  0.00    -0.274 OA
BRANCH   6   9
HETATM    9  C4  UNL     1      -0.551  52.509 -26.017  1.00  0.00     0.179 C 
BRANCH   9  10
HETATM   10  C2  UNL     1       0.202  53.024 -27.269  1.00  0.00     0.009 C 
HETATM   11  C1  UNL     1      -0.652  54.015 -28.074  1.00  0.00     0.012 C 
HETATM   12  C3  UNL     1       0.619  51.889 -28.213  1.00  0.00     0.012 C 
ENDBRANCH   9  10
BRANCH   9  13
HETATM   13  C30 UNL     1       0.292  52.659 -24.717  1.00  0.00     0.240 C 
HETATM   14  O8  UNL     1       1.287  53.369 -24.622  1.00  0.00    -0.271 OA
HETATM   15  N2  UNL     1      -0.245  52.003 -23.624  1.00  0.00    -0.359 N 
HETATM   16  H43 UNL     1      -1.185  51.637 -23.736  1.00  0.00     0.162 HD
BRANCH  15  17
HETATM   17  C31 UNL     1       0.206  52.260 -22.266  1.00  0.00     0.132 C 
BRANCH  17  18
HETATM   18  C32 UNL     1      -0.910  51.973 -21.239  1.00  0.00     0.046 C 
BRANCH  18  19
HETATM   19  C33 UNL     1      -0.318  51.805 -19.833  1.00  0.00     0.120 C 
BRANCH  19  20
HETATM   20  C34 UNL     1       0.509  52.995 -19.432  1.00  0.00     0.140 C 
HETATM   21  O9  UNL     1       1.703  53.014 -19.194  1.00  0.00    -0.650 OA
BRANCH  20  22
HETATM   22  O10 UNL     1      -0.236  54.108 -19.289  1.00  0.00    -0.776 OA
HETATM   23  H49 UNL     1       0.414  54.790 -19.019  1.00  0.00     0.167 HD
ENDBRANCH  20  22
ENDBRANCH  19  20
ENDBRANCH  18  19
BRANCH  18  24
HETATM   24  C35 UNL     1      -1.730  50.764 -21.688  1.00  0.00    -0.052 A 
HETATM   25  C36 UNL     1      -1.226  49.456 -21.618  1.00  0.00     0.007 A 
HETATM   26  C37 UNL     1      -1.981  48.377 -22.083  1.00  0.00     0.001 A 
HETATM   27  C38 UNL     1      -3.244  48.592 -22.629  1.00  0.00     0.000 A 
HETATM   28  C39 UNL     1      -3.755  49.884 -22.709  1.00  0.00     0.001 A 
HETATM   29  C40 UNL     1      -3.005  50.964 -22.241  1.00  0.00     0.007 A 
ENDBRANCH  18  24
ENDBRANCH  17  18
ENDBRANCH  15  17
ENDBRANCH   9  13
ENDBRANCH   6   9
ENDBRANCH   4   5
ENDBRANCH   3   4
ENDBRANCH   1   3
BRANCH   1  30
HETATM   30  O3  UNL     1      -5.402  47.611 -27.821  1.00  0.00    -0.314 OA
BRANCH  30  31
HETATM   31  C9  UNL     1      -5.302  48.201 -29.123  1.00  0.00     0.260 C 
BRANCH  31  32
HETATM   32  C10 UNL     1      -6.277  47.586 -30.118  1.00  0.00     0.185 C 
HETATM   33  O4  UNL     1      -5.899  46.820 -31.015  1.00  0.00    -0.292 OA
BRANCH  32  34
HETATM   34  C11 UNL     1      -7.777  47.934 -30.011  1.00  0.00     0.128 C 
HETATM   35  C12 UNL     1      -8.548  48.175 -31.328  1.00  0.00     0.047 C 
HETATM   36  C13 UNL     1      -9.983  47.654 -31.098  1.00  0.00     0.009 C 
HETATM   37  C14 UNL     1     -10.042  47.335 -29.610  1.00  0.00     0.002 C 
HETATM   38  C15 UNL     1     -11.145  46.399 -29.099  1.00  0.00    -0.002 C 
HETATM   39  C28 UNL     1      -8.615  46.833 -29.287  1.00  0.00     0.001 C 
HETATM   40  C16 UNL     1     -12.539  46.907 -29.524  1.00  0.00     0.010 C 
HETATM   41  C25 UNL     1     -11.021  46.293 -27.534  1.00  0.00     0.031 C 
HETATM   42  C17 UNL     1     -13.685  46.120 -28.886  1.00  0.00     0.035 C 
HETATM   43  C18 UNL     1     -13.482  46.082 -27.392  1.00  0.00    -0.068 C 
HETATM   44  C19 UNL     1     -14.345  46.716 -26.578  1.00  0.00     0.053 C 
HETATM   45  C23 UNL     1     -12.179  45.415 -26.925  1.00  0.00    -0.014 C 
HETATM   46  C20 UNL     1     -14.030  46.925 -25.146  1.00  0.00     0.149 C 
HETATM   47  O6  UNL     1     -14.875  47.418 -24.403  1.00  0.00    -0.293 OA
HETATM   48  C21 UNL     1     -12.627  46.614 -24.690  1.00  0.00     0.084 C 
HETATM   49  C22 UNL     1     -12.146  45.344 -25.370  1.00  0.00     0.022 C 
HETATM   50  C24 UNL     1     -12.155  43.943 -27.410  1.00  0.00     0.020 C 
HETATM   51  C26 UNL     1      -9.580  45.936 -27.069  1.00  0.00     0.124 C 
HETATM   52  C27 UNL     1      -8.485  46.786 -27.749  1.00  0.00     0.045 C 
HETATM   53  C29 UNL     1      -8.297  45.447 -29.908  1.00  0.00     0.019 C 
BRANCH  34  54
HETATM   54  O5  UNL     1      -7.838  49.164 -29.269  1.00  0.00    -0.381 OA
HETATM   55  H16 UNL     1      -7.150  49.111 -28.573  1.00  0.00     0.211 HD
ENDBRANCH  34  54
BRANCH  51  56
HETATM   56  O7  UNL     1      -9.300  44.558 -27.267  1.00  0.00    -0.395 OA
HETATM   57  H37 UNL     1      -8.440  44.369 -26.851  1.00  0.00     0.210 HD
ENDBRANCH  51  56
ENDBRANCH  32  34
ENDBRANCH  31  32
ENDBRANCH  30  31
ENDBRANCH   1  30
TORSDOF 18
ENDMDL
MODEL 8
REMARK minimizedAffinity -8.7019577
REMARK CNNscore 0.2631419
REMARK CNNaffinity 7.09859991
REMARK  18 active torsions:
REMARK  status: ('A' for Active; 'I' for Inactive)
REMARK    1  A    between atoms: C2_2  and  C4_4 
REMARK    2  A    between atoms: C4_4  and  N1_5 
REMARK    3  A    between atoms: C4_4  and  C30_38 
REMARK       I    between atoms: N1_5  and  C5_6 
REMARK    4  A    between atoms: C5_6  and  C6_8 
REMARK    5  A    between atoms: C6_8  and  C7_9 
REMARK    6  A    between atoms: C7_9  and  C8_10 
REMARK    7  A    between atoms: C8_10  and  O3_12 
REMARK    8  A    between atoms: O3_12  and  C9_13 
REMARK    9  A    between atoms: C9_13  and  C10_14 
REMARK   10  A    between atoms: C10_14  and  C11_16 
REMARK   11  A    between atoms: C11_16  and  O5_17 
REMARK   12  A    between atoms: C26_33  and  O7_34 
REMARK       I    between atoms: C30_38  and  N2_40 
REMARK   13  A    between atoms: N2_40  and  C31_41 
REMARK   14  A    between atoms: C31_41  and  C32_42 
REMARK   15  A    between atoms: C32_42  and  C33_43 
REMARK   16  A    between atoms: C32_42  and  C35_47 
REMARK   17  A    between atoms: C33_43  and  C34_44 
REMARK   18  A    between atoms: C34_44  and  O10_46 
ROOT
HETATM    1  C8  UNL     1       0.611  52.441 -25.309  1.00  0.00     0.259 C 
HETATM    2  O2  UNL     1       1.707  52.575 -25.833  1.00  0.00    -0.265 OA
ENDROOT
BRANCH   1   3
HETATM    3  C7  UNL     1      -0.701  52.732 -25.994  1.00  0.00     0.120 C 
BRANCH   3   4
HETATM    4  C6  UNL     1      -1.158  51.601 -26.907  1.00  0.00     0.112 C 
BRANCH   4   5
HETATM    5  C5  UNL     1      -2.571  51.182 -26.563  1.00  0.00     0.218 C 
HETATM    6  N1  UNL     1      -2.804  49.831 -26.660  1.00  0.00    -0.347 N 
HETATM    7  H9  UNL     1      -2.078  49.213 -26.997  1.00  0.00     0.163 HD
HETATM    8  O1  UNL     1      -3.424  51.992 -26.216  1.00  0.00    -0.274 OA
BRANCH   6   9
HETATM    9  C4  UNL     1      -4.135  49.247 -26.416  1.00  0.00     0.179 C 
BRANCH   9  10
HETATM   10  C2  UNL     1      -4.168  48.385 -25.129  1.00  0.00     0.009 C 
HETATM   11  C1  UNL     1      -5.422  48.671 -24.290  1.00  0.00     0.012 C 
HETATM   12  C3  UNL     1      -2.943  48.614 -24.236  1.00  0.00     0.012 C 
ENDBRANCH   9  10
BRANCH   9  13
HETATM   13  C30 UNL     1      -4.552  48.440 -27.680  1.00  0.00     0.240 C 
HETATM   14  O8  UNL     1      -3.769  48.079 -28.552  1.00  0.00    -0.271 OA
HETATM   15  N2  UNL     1      -5.881  48.057 -27.688  1.00  0.00    -0.359 N 
HETATM   16  H43 UNL     1      -6.394  48.197 -26.822  1.00  0.00     0.162 HD
BRANCH  15  17
HETATM   17  C31 UNL     1      -6.394  47.055 -28.605  1.00  0.00     0.132 C 
BRANCH  17  18
HETATM   18  C32 UNL     1      -7.866  46.706 -28.292  1.00  0.00     0.046 C 
BRANCH  18  19
HETATM   19  C33 UNL     1      -7.981  46.049 -26.910  1.00  0.00     0.120 C 
BRANCH  19  20
HETATM   20  C34 UNL     1      -9.367  46.189 -26.342  1.00  0.00     0.140 C 
HETATM   21  O9  UNL     1     -10.112  45.292 -25.990  1.00  0.00    -0.650 OA
BRANCH  20  22
HETATM   22  O10 UNL     1      -9.773  47.473 -26.302  1.00  0.00    -0.776 OA
HETATM   23  H49 UNL     1     -10.679  47.419 -25.931  1.00  0.00     0.167 HD
ENDBRANCH  20  22
ENDBRANCH  19  20
ENDBRANCH  18  19
BRANCH  18  24
HETATM   24  C35 UNL     1      -8.443  45.841 -29.412  1.00  0.00    -0.052 A 
HETATM   25  C36 UNL     1      -8.278  44.448 -29.436  1.00  0.00     0.007 A 
HETATM   26  C37 UNL     1      -8.775  43.691 -30.499  1.00  0.00     0.001 A 
HETATM   27  C38 UNL     1      -9.436  44.316 -31.554  1.00  0.00     0.000 A 
HETATM   28  C39 UNL     1      -9.603  45.698 -31.546  1.00  0.00     0.001 A 
HETATM   29  C40 UNL     1      -9.111  46.457 -30.482  1.00  0.00     0.007 A 
ENDBRANCH  18  24
ENDBRANCH  17  18
ENDBRANCH  15  17
ENDBRANCH   9  13
ENDBRANCH   6   9
ENDBRANCH   4   5
ENDBRANCH   3   4
ENDBRANCH   1   3
BRANCH   1  30
HETATM   30  O3  UNL     1       0.411  51.971 -24.045  1.00  0.00    -0.314 OA
BRANCH  30  31
HETATM   31  C9  UNL     1      -0.844  52.347 -23.467  1.00  0.00     0.260 C 
BRANCH  31  32
HETATM   32  C10 UNL     1      -1.097  51.668 -22.127  1.00  0.00     0.185 C 
HETATM   33  O4  UNL     1      -2.104  50.976 -21.926  1.00  0.00    -0.292 OA
BRANCH  32  34
HETATM   34  C11 UNL     1      -0.073  51.853 -20.988  1.00  0.00     0.128 C 
HETATM   35  C12 UNL     1       0.419  53.289 -20.698  1.00  0.00     0.047 C 
HETATM   36  C13 UNL     1       0.658  53.373 -19.176  1.00  0.00     0.009 C 
HETATM   37  C14 UNL     1       0.501  51.941 -18.683  1.00  0.00     0.002 C 
HETATM   38  C15 UNL     1       0.236  51.698 -17.191  1.00  0.00    -0.002 C 
HETATM   39  C28 UNL     1      -0.595  51.355 -19.603  1.00  0.00     0.001 C 
HETATM   40  C16 UNL     1       1.315  52.377 -16.321  1.00  0.00     0.010 C 
HETATM   41  C25 UNL     1       0.185  50.146 -16.941  1.00  0.00     0.031 C 
HETATM   42  C17 UNL     1       1.208  52.013 -14.840  1.00  0.00     0.035 C 
HETATM   43  C18 UNL     1       1.176  50.512 -14.704  1.00  0.00    -0.068 C 
HETATM   44  C19 UNL     1       2.194  49.866 -14.108  1.00  0.00     0.053 C 
HETATM   45  C23 UNL     1       0.002  49.816 -15.412  1.00  0.00    -0.014 C 
HETATM   46  C20 UNL     1       2.320  48.393 -14.199  1.00  0.00     0.149 C 
HETATM   47  O6  UNL     1       3.202  47.819 -13.565  1.00  0.00    -0.293 OA
HETATM   48  C21 UNL     1       1.411  47.675 -15.164  1.00  0.00     0.084 C 
HETATM   49  C22 UNL     1       0.024  48.291 -15.102  1.00  0.00     0.022 C 
HETATM   50  C24 UNL     1      -1.334  50.341 -14.824  1.00  0.00     0.020 C 
HETATM   51  C26 UNL     1      -0.783  49.413 -17.915  1.00  0.00     0.124 C 
HETATM   52  C27 UNL     1      -0.599  49.825 -19.392  1.00  0.00     0.045 C 
HETATM   53  C29 UNL     1      -2.004  51.950 -19.335  1.00  0.00     0.019 C 
BRANCH  34  54
HETATM   54  O5  UNL     1       1.084  51.093 -21.377  1.00  0.00    -0.381 OA
HETATM   55  H16 UNL     1       0.755  50.275 -21.805  1.00  0.00     0.211 HD
ENDBRANCH  34  54
BRANCH  51  56
HETATM   56  O7  UNL     1      -2.138  49.602 -17.537  1.00  0.00    -0.395 OA
HETATM   57  H37 UNL     1      -2.685  49.028 -18.102  1.00  0.00     0.210 HD
ENDBRANCH  51  56
ENDBRANCH  32  34
ENDBRANCH  31  32
ENDBRANCH  30  31
ENDBRANCH   1  30
TORSDOF 18
ENDMDL
MODEL 9
REMARK minimizedAffinity -8.75690174
REMARK CNNscore 0.262966514
REMARK CNNaffinity 6.63692856
REMARK  18 active torsions:
REMARK  status: ('A' for Active; 'I' for Inactive)
REMARK    1  A    between atoms: C2_2  and  C4_4 
REMARK    2  A    between atoms: C4_4  and  N1_5 
REMARK    3  A    between atoms: C4_4  and  C30_38 
REMARK       I    between atoms: N1_5  and  C5_6 
REMARK    4  A    between atoms: C5_6  and  C6_8 
REMARK    5  A    between atoms: C6_8  and  C7_9 
REMARK    6  A    between atoms: C7_9  and  C8_10 
REMARK    7  A    between atoms: C8_10  and  O3_12 
REMARK    8  A    between atoms: O3_12  and  C9_13 
REMARK    9  A    between atoms: C9_13  and  C10_14 
REMARK   10  A    between atoms: C10_14  and  C11_16 
REMARK   11  A    between atoms: C11_16  and  O5_17 
REMARK   12  A    between atoms: C26_33  and  O7_34 
REMARK       I    between atoms: C30_38  and  N2_40 
REMARK   13  A    between atoms: N2_40  and  C31_41 
REMARK   14  A    between atoms: C31_41  and  C32_42 
REMARK   15  A    between atoms: C32_42  and  C33_43 
REMARK   16  A    between atoms: C32_42  and  C35_47 
REMARK   17  A    between atoms: C33_43  and  C34_44 
REMARK   18  A    between atoms: C34_44  and  O10_46 
ROOT
HETATM    1  C8  UNL     1      -0.933  50.148 -16.613  1.00  0.00     0.259 C 
HETATM    2  O2  UNL     1      -0.321  49.093 -16.690  1.00  0.00    -0.265 OA
ENDROOT
BRANCH   1   3
HETATM    3  C7  UNL     1      -1.249  50.857 -15.319  1.00  0.00     0.120 C 
BRANCH   3   4
HETATM    4  C6  UNL     1      -0.047  51.591 -14.736  1.00  0.00     0.112 C 
BRANCH   4   5
HETATM    5  C5  UNL     1      -0.115  51.596 -13.224  1.00  0.00     0.218 C 
HETATM    6  N1  UNL     1      -0.714  52.709 -12.685  1.00  0.00    -0.347 N 
HETATM    7  H9  UNL     1      -1.015  53.465 -13.286  1.00  0.00     0.163 HD
HETATM    8  O1  UNL     1       0.323  50.671 -12.549  1.00  0.00    -0.274 OA
BRANCH   6   9
HETATM    9  C4  UNL     1      -0.821  52.914 -11.229  1.00  0.00     0.179 C 
BRANCH   9  10
HETATM   10  C2  UNL     1      -2.279  52.777 -10.726  1.00  0.00     0.009 C 
HETATM   11  C1  UNL     1      -3.065  54.084 -10.907  1.00  0.00     0.012 C 
HETATM   12  C3  UNL     1      -2.356  52.386  -9.245  1.00  0.00     0.012 C 
ENDBRANCH   9  10
BRANCH   9  13
HETATM   13  C30 UNL     1      -0.203  54.301 -10.886  1.00  0.00     0.240 C 
HETATM   14  O8  UNL     1      -0.830  55.224 -10.378  1.00  0.00    -0.271 OA
HETATM   15  N2  UNL     1       1.162  54.374 -11.100  1.00  0.00    -0.359 N 
HETATM   16  H43 UNL     1       1.633  53.498 -11.299  1.00  0.00     0.162 HD
BRANCH  15  17
HETATM   17  C31 UNL     1       1.973  55.455 -10.566  1.00  0.00     0.132 C 
BRANCH  17  18
HETATM   18  C32 UNL     1       2.465  55.137  -9.138  1.00  0.00     0.046 C 
BRANCH  18  19
HETATM   19  C33 UNL     1       2.345  56.374  -8.238  1.00  0.00     0.120 C 
BRANCH  19  20
HETATM   20  C34 UNL     1       1.468  56.112  -7.045  1.00  0.00     0.140 C 
HETATM   21  O9  UNL     1       0.702  55.179  -6.886  1.00  0.00    -0.650 OA
BRANCH  20  22
HETATM   22  O10 UNL     1       1.559  57.090  -6.123  1.00  0.00    -0.776 OA
HETATM   23  H49 UNL     1       0.939  56.804  -5.419  1.00  0.00     0.167 HD
ENDBRANCH  20  22
ENDBRANCH  19  20
ENDBRANCH  18  19
BRANCH  18  24
HETATM   24  C35 UNL     1       3.885  54.575  -9.192  1.00  0.00    -0.052 A 
HETATM   25  C36 UNL     1       5.003  55.399  -9.395  1.00  0.00     0.007 A 
HETATM   26  C37 UNL     1       6.283  54.849  -9.490  1.00  0.00     0.001 A 
HETATM   27  C38 UNL     1       6.462  53.472  -9.389  1.00  0.00     0.000 A 
HETATM   28  C39 UNL     1       5.362  52.642  -9.191  1.00  0.00     0.001 A 
HETATM   29  C40 UNL     1       4.082  53.189  -9.092  1.00  0.00     0.007 A 
ENDBRANCH  18  24
ENDBRANCH  17  18
ENDBRANCH  15  17
ENDBRANCH   9  13
ENDBRANCH   6   9
ENDBRANCH   4   5
ENDBRANCH   3   4
ENDBRANCH   1   3
BRANCH   1  30
HETATM   30  O3  UNL     1      -1.384  50.859 -17.686  1.00  0.00    -0.314 OA
BRANCH  30  31
HETATM   31  C9  UNL     1      -2.810  50.882 -17.821  1.00  0.00     0.260 C 
BRANCH  31  32
HETATM   32  C10 UNL     1      -3.366  49.569 -18.358  1.00  0.00     0.185 C 
HETATM   33  O4  UNL     1      -4.235  48.930 -17.749  1.00  0.00    -0.292 OA
BRANCH  32  34
HETATM   34  C11 UNL     1      -2.826  49.017 -19.693  1.00  0.00     0.128 C 
HETATM   35  C12 UNL     1      -3.380  47.658 -20.178  1.00  0.00     0.047 C 
HETATM   36  C13 UNL     1      -3.425  47.727 -21.719  1.00  0.00     0.009 C 
HETATM   37  C14 UNL     1      -2.705  49.024 -22.067  1.00  0.00     0.002 C 
HETATM   38  C15 UNL     1      -2.930  49.645 -23.451  1.00  0.00    -0.002 C 
HETATM   39  C28 UNL     1      -3.077  49.971 -20.902  1.00  0.00     0.001 C 
HETATM   40  C16 UNL     1      -2.625  48.626 -24.570  1.00  0.00     0.010 C 
HETATM   41  C25 UNL     1      -2.026  50.926 -23.575  1.00  0.00     0.031 C 
HETATM   42  C17 UNL     1      -2.651  49.243 -25.968  1.00  0.00     0.035 C 
HETATM   43  C18 UNL     1      -1.751  50.453 -25.988  1.00  0.00    -0.068 C 
HETATM   44  C19 UNL     1      -0.631  50.449 -26.732  1.00  0.00     0.053 C 
HETATM   45  C23 UNL     1      -2.138  51.572 -25.007  1.00  0.00    -0.014 C 
HETATM   46  C20 UNL     1       0.400  51.499 -26.564  1.00  0.00     0.149 C 
HETATM   47  O6  UNL     1       1.366  51.529 -27.323  1.00  0.00    -0.293 OA
HETATM   48  C21 UNL     1       0.261  52.429 -25.385  1.00  0.00     0.084 C 
HETATM   49  C22 UNL     1      -1.201  52.799 -25.205  1.00  0.00     0.022 C 
HETATM   50  C24 UNL     1      -3.564  52.078 -25.344  1.00  0.00     0.020 C 
HETATM   51  C26 UNL     1      -2.199  51.900 -22.374  1.00  0.00     0.124 C 
HETATM   52  C27 UNL     1      -2.145  51.200 -20.999  1.00  0.00     0.045 C 
HETATM   53  C29 UNL     1      -4.565  50.408 -20.918  1.00  0.00     0.019 C 
BRANCH  34  54
HETATM   54  O5  UNL     1      -1.413  48.837 -19.495  1.00  0.00    -0.381 OA
HETATM   55  H16 UNL     1      -1.103  49.591 -18.952  1.00  0.00     0.211 HD
ENDBRANCH  34  54
BRANCH  51  56
HETATM   56  O7  UNL     1      -3.406  52.641 -22.480  1.00  0.00    -0.395 OA
HETATM   57  H37 UNL     1      -3.402  53.313 -21.775  1.00  0.00     0.210 HD
ENDBRANCH  51  56
ENDBRANCH  32  34
ENDBRANCH  31  32
ENDBRANCH  30  31
ENDBRANCH   1  30
TORSDOF 18
ENDMDL
