MODEL 1
REMARK minimizedAffinity -9.85673714
REMARK  9 active torsions:
REMARK  status: ('A' for Active; 'I' for Inactive)
REMARK    1  A    between atoms: C3_3  and  O1_4 
REMARK    2  A    between atoms: N1_14  and  O2_16 
REMARK    3  A    between atoms: O2_16  and  C13_17 
REMARK    4  A    between atoms: C13_17  and  C14_18 
REMARK       I    between atoms: C14_18  and  N2_20 
REMARK    5  A    between atoms: N2_20  and  C15_21 
REMARK    6  A    between atoms: C15_21  and  C16_22 
REMARK    7  A    between atoms: C15_21  and  C17_25 
REMARK    8  A    between atoms: C16_22  and  O5_24 
REMARK    9  A    between atoms: C17_25  and  C19_27 
ROOT
HETATM    1  C1  UNL     1      -2.151  50.978 -27.503  1.00  0.00     0.015 C 
HETATM    2  C2  UNL     1      -1.379  51.317 -26.646  1.00  0.00    -0.078 C 
HETATM    3  C3  UNL     1      -0.422  51.721 -25.606  1.00  0.00     0.128 C 
HETATM    4  C4  UNL     1       0.099  53.165 -25.809  1.00  0.00     0.052 C 
HETATM    5  C5  UNL     1       0.334  53.745 -24.397  1.00  0.00     0.010 C 
HETATM    6  C6  UNL     1       0.105  52.566 -23.454  1.00  0.00     0.002 C 
HETATM    7  C7  UNL     1      -0.202  52.851 -21.978  1.00  0.00    -0.004 C 
HETATM    8  C8  UNL     1       0.908  53.685 -21.326  1.00  0.00     0.010 C 
HETATM    9  C9  UNL     1       0.614  53.939 -19.853  1.00  0.00     0.035 C 
HETATM   10  C10 UNL     1       0.381  52.655 -19.090  1.00  0.00    -0.069 C 
HETATM   11  C11 UNL     1       1.045  52.438 -17.941  1.00  0.00     0.030 C 
HETATM   12  C12 UNL     1       0.769  51.258 -17.083  1.00  0.00     0.032 C 
HETATM   13  N1  UNL     1       1.493  51.103 -16.011  1.00  0.00    -0.271 N 
ATOM     14  H1  UNL     1       2.261  51.719 -15.745  1.00  0.00     0.194 HD
HETATM   15  C21 UNL     1      -0.379  50.356 -17.481  1.00  0.00     0.060 C 
HETATM   16  C22 UNL     1      -0.503  50.288 -18.996  1.00  0.00     0.020 C 
HETATM   17  C23 UNL     1      -0.641  51.677 -19.683  1.00  0.00    -0.016 C 
HETATM   18  C24 UNL     1      -2.056  52.234 -19.412  1.00  0.00     0.020 C 
HETATM   19  C25 UNL     1      -0.363  51.494 -21.225  1.00  0.00     0.002 C 
HETATM   20  C26 UNL     1      -1.370  50.552 -21.939  1.00  0.00     0.007 C 
HETATM   21  C27 UNL     1      -1.093  50.388 -23.444  1.00  0.00     0.014 C 
HETATM   22  C28 UNL     1      -1.000  51.747 -24.161  1.00  0.00     0.003 C 
HETATM   23  C29 UNL     1      -2.390  52.444 -24.133  1.00  0.00     0.020 C 
ENDROOT
BRANCH   3  24
HETATM   24  O1  UNL     1       0.701  50.839 -25.670  1.00  0.00    -0.377 OA
HETATM   25  H2  UNL     1       0.963  50.783 -26.605  1.00  0.00     0.211 HD
ENDBRANCH   3  24
BRANCH  13  26
HETATM   26  O2  UNL     1       1.089  49.986 -15.268  1.00  0.00    -0.271 OA
BRANCH  26  27
HETATM   27  C13 UNL     1       0.870  50.386 -13.918  1.00  0.00     0.303 C 
BRANCH  27  28
HETATM   28  C14 UNL     1      -0.617  50.349 -13.568  1.00  0.00     0.244 C 
HETATM   29  O3  UNL     1      -1.243  49.294 -13.519  1.00  0.00    -0.271 OA
HETATM   30  N2  UNL     1      -1.171  51.586 -13.308  1.00  0.00    -0.344 N 
HETATM   31  H16 UNL     1      -0.508  52.348 -13.220  1.00  0.00     0.163 HD
BRANCH  30  32
HETATM   32  C15 UNL     1      -2.527  51.796 -12.791  1.00  0.00     0.186 C 
BRANCH  32  33
HETATM   33  C16 UNL     1      -3.416  52.260 -13.961  1.00  0.00     0.163 C 
HETATM   34  O4  UNL     1      -3.694  51.657 -14.984  1.00  0.00    -0.648 OA
BRANCH  33  35
HETATM   35  O5  UNL     1      -3.964  53.478 -13.744  1.00  0.00    -0.775 OA
HETATM   36  H18 UNL     1      -4.491  53.635 -14.556  1.00  0.00     0.167 HD
ENDBRANCH  33  35
ENDBRANCH  32  33
BRANCH  32  37
HETATM   37  C17 UNL     1      -2.623  52.665 -11.507  1.00  0.00     0.014 C 
HETATM   38  C18 UNL     1      -3.972  53.397 -11.405  1.00  0.00     0.012 C 
BRANCH  37  39
HETATM   39  C19 UNL     1      -2.447  51.835 -10.210  1.00  0.00     0.002 C 
HETATM   40  C20 UNL     1      -3.615  50.929  -9.849  1.00  0.00     0.005 C 
ENDBRANCH  37  39
ENDBRANCH  32  37
ENDBRANCH  30  32
ENDBRANCH  27  28
ENDBRANCH  26  27
ENDBRANCH  13  26
TORSDOF 9
ENDMDL
MODEL 2
REMARK minimizedAffinity -9.51811314
REMARK  9 active torsions:
REMARK  status: ('A' for Active; 'I' for Inactive)
REMARK    1  A    between atoms: C3_3  and  O1_4 
REMARK    2  A    between atoms: N1_14  and  O2_16 
REMARK    3  A    between atoms: O2_16  and  C13_17 
REMARK    4  A    between atoms: C13_17  and  C14_18 
REMARK       I    between atoms: C14_18  and  N2_20 
REMARK    5  A    between atoms: N2_20  and  C15_21 
REMARK    6  A    between atoms: C15_21  and  C16_22 
REMARK    7  A    between atoms: C15_21  and  C17_25 
REMARK    8  A    between atoms: C16_22  and  O5_24 
REMARK    9  A    between atoms: C17_25  and  C19_27 
ROOT
HETATM    1  C1  UNL     1       0.079  53.354 -28.443  1.00  0.00     0.015 C 
HETATM    2  C2  UNL     1      -0.662  52.783 -27.689  1.00  0.00    -0.078 C 
HETATM    3  C3  UNL     1      -1.583  52.096 -26.771  1.00  0.00     0.128 C 
HETATM    4  C4  UNL     1      -2.051  50.725 -27.319  1.00  0.00     0.052 C 
HETATM    5  C5  UNL     1      -2.237  49.807 -26.091  1.00  0.00     0.010 C 
HETATM    6  C6  UNL     1      -2.036  50.727 -24.889  1.00  0.00     0.002 C 
HETATM    7  C7  UNL     1      -1.691  50.102 -23.531  1.00  0.00    -0.004 C 
HETATM    8  C8  UNL     1      -2.755  49.087 -23.095  1.00  0.00     0.010 C 
HETATM    9  C9  UNL     1      -2.424  48.493 -21.732  1.00  0.00     0.035 C 
HETATM   10  C10 UNL     1      -2.226  49.559 -20.679  1.00  0.00    -0.069 C 
HETATM   11  C11 UNL     1      -2.876  49.459 -19.506  1.00  0.00     0.030 C 
HETATM   12  C12 UNL     1      -2.630  50.402 -18.387  1.00  0.00     0.032 C 
HETATM   13  N1  UNL     1      -3.339  50.260 -17.303  1.00  0.00    -0.271 N 
ATOM     14  H1  UNL     1      -4.077  49.565 -17.190  1.00  0.00     0.194 HD
HETATM   15  C21 UNL     1      -1.526  51.422 -18.560  1.00  0.00     0.060 C 
HETATM   16  C22 UNL     1      -1.433  51.866 -20.013  1.00  0.00     0.020 C 
HETATM   17  C23 UNL     1      -1.255  50.695 -21.022  1.00  0.00    -0.016 C 
HETATM   18  C24 UNL     1       0.186  50.149 -20.908  1.00  0.00     0.020 C 
HETATM   19  C25 UNL     1      -1.568  51.239 -22.469  1.00  0.00     0.002 C 
HETATM   20  C26 UNL     1      -0.612  52.368 -22.938  1.00  0.00     0.007 C 
HETATM   21  C27 UNL     1      -0.923  52.885 -24.354  1.00  0.00     0.014 C 
HETATM   22  C28 UNL     1      -0.978  51.741 -25.383  1.00  0.00     0.003 C 
HETATM   23  C29 UNL     1       0.439  51.118 -25.539  1.00  0.00     0.020 C 
ENDROOT
BRANCH   3  24
HETATM   24  O1  UNL     1      -2.741  52.918 -26.607  1.00  0.00    -0.377 OA
HETATM   25  H2  UNL     1      -3.022  53.191 -27.497  1.00  0.00     0.211 HD
ENDBRANCH   3  24
BRANCH  13  26
HETATM   26  O2  UNL     1      -2.965  51.176 -16.312  1.00  0.00    -0.271 OA
BRANCH  26  27
HETATM   27  C13 UNL     1      -2.108  50.523 -15.380  1.00  0.00     0.303 C 
BRANCH  27  28
HETATM   28  C14 UNL     1      -2.633  50.670 -13.953  1.00  0.00     0.244 C 
HETATM   29  O3  UNL     1      -3.150  49.731 -13.355  1.00  0.00    -0.271 OA
HETATM   30  N2  UNL     1      -2.464  51.929 -13.411  1.00  0.00    -0.344 N 
HETATM   31  H16 UNL     1      -1.875  52.555 -13.948  1.00  0.00     0.163 HD
BRANCH  30  32
HETATM   32  C15 UNL     1      -2.730  52.273 -12.011  1.00  0.00     0.186 C 
BRANCH  32  33
HETATM   33  C16 UNL     1      -3.894  53.281 -11.982  1.00  0.00     0.163 C 
HETATM   34  O4  UNL     1      -4.511  53.695 -11.015  1.00  0.00    -0.648 OA
BRANCH  33  35
HETATM   35  O5  UNL     1      -4.192  53.764 -13.210  1.00  0.00    -0.775 OA
HETATM   36  H18 UNL     1      -4.935  54.380 -13.035  1.00  0.00     0.167 HD
ENDBRANCH  33  35
ENDBRANCH  32  33
BRANCH  32  37
HETATM   37  C17 UNL     1      -1.485  52.680 -11.177  1.00  0.00     0.014 C 
HETATM   38  C18 UNL     1      -1.610  54.106 -10.613  1.00  0.00     0.012 C 
BRANCH  37  39
HETATM   39  C19 UNL     1      -1.230  51.729  -9.980  1.00  0.00     0.002 C 
HETATM   40  C20 UNL     1      -2.148  51.925  -8.782  1.00  0.00     0.005 C 
ENDBRANCH  37  39
ENDBRANCH  32  37
ENDBRANCH  30  32
ENDBRANCH  27  28
ENDBRANCH  26  27
ENDBRANCH  13  26
TORSDOF 9
ENDMDL
MODEL 3
REMARK minimizedAffinity -9.47775364
REMARK  9 active torsions:
REMARK  status: ('A' for Active; 'I' for Inactive)
REMARK    1  A    between atoms: C3_3  and  O1_4 
REMARK    2  A    between atoms: N1_14  and  O2_16 
REMARK    3  A    between atoms: O2_16  and  C13_17 
REMARK    4  A    between atoms: C13_17  and  C14_18 
REMARK       I    between atoms: C14_18  and  N2_20 
REMARK    5  A    between atoms: N2_20  and  C15_21 
REMARK    6  A    between atoms: C15_21  and  C16_22 
REMARK    7  A    between atoms: C15_21  and  C17_25 
REMARK    8  A    between atoms: C16_22  and  O5_24 
REMARK    9  A    between atoms: C17_25  and  C19_27 
ROOT
HETATM    1  C1  UNL     1      -2.247  50.931 -27.594  1.00  0.00     0.015 C 
HETATM    2  C2  UNL     1      -1.460  51.252 -26.745  1.00  0.00    -0.078 C 
HETATM    3  C3  UNL     1      -0.484  51.634 -25.713  1.00  0.00     0.128 C 
HETATM    4  C4  UNL     1       0.080  53.060 -25.931  1.00  0.00     0.052 C 
HETATM    5  C5  UNL     1       0.342  53.643 -24.526  1.00  0.00     0.010 C 
HETATM    6  C6  UNL     1       0.082  52.480 -23.571  1.00  0.00     0.002 C 
HETATM    7  C7  UNL     1      -0.207  52.787 -22.097  1.00  0.00    -0.004 C 
HETATM    8  C8  UNL     1       0.933  53.591 -21.458  1.00  0.00     0.010 C 
HETATM    9  C9  UNL     1       0.656  53.865 -19.985  1.00  0.00     0.035 C 
HETATM   10  C10 UNL     1       0.387  52.596 -19.210  1.00  0.00    -0.069 C 
HETATM   11  C11 UNL     1       1.051  52.368 -18.063  1.00  0.00     0.030 C 
HETATM   12  C12 UNL     1       0.743  51.204 -17.194  1.00  0.00     0.032 C 
HETATM   13  N1  UNL     1       1.468  51.035 -16.125  1.00  0.00    -0.271 N 
ATOM     14  H1  UNL     1       2.257  51.629 -15.869  1.00  0.00     0.194 HD
HETATM   15  C21 UNL     1      -0.435  50.335 -17.578  1.00  0.00     0.060 C 
HETATM   16  C22 UNL     1      -0.570  50.258 -19.091  1.00  0.00     0.020 C 
HETATM   17  C23 UNL     1      -0.668  51.646 -19.789  1.00  0.00    -0.016 C 
HETATM   18  C24 UNL     1      -2.064  52.249 -19.515  1.00  0.00     0.020 C 
HETATM   19  C25 UNL     1      -0.406  51.441 -21.332  1.00  0.00     0.002 C 
HETATM   20  C26 UNL     1      -1.446  50.526 -22.032  1.00  0.00     0.007 C 
HETATM   21  C27 UNL     1      -1.184  50.341 -23.537  1.00  0.00     0.014 C 
HETATM   22  C28 UNL     1      -1.052  51.690 -24.266  1.00  0.00     0.003 C 
HETATM   23  C29 UNL     1      -2.420  52.431 -24.236  1.00  0.00     0.020 C 
ENDROOT
BRANCH   3  24
HETATM   24  O1  UNL     1       0.611  50.717 -25.776  1.00  0.00    -0.377 OA
HETATM   25  H2  UNL     1       0.865  50.645 -26.712  1.00  0.00     0.211 HD
ENDBRANCH   3  24
BRANCH  13  26
HETATM   26  O2  UNL     1       1.034  49.937 -15.371  1.00  0.00    -0.271 OA
BRANCH  26  27
HETATM   27  C13 UNL     1       1.054  50.290 -13.991  1.00  0.00     0.303 C 
BRANCH  27  28
HETATM   28  C14 UNL     1      -0.098  51.233 -13.647  1.00  0.00     0.244 C 
HETATM   29  O3  UNL     1      -1.154  51.216 -14.271  1.00  0.00    -0.271 OA
HETATM   30  N2  UNL     1       0.156  52.079 -12.585  1.00  0.00    -0.344 N 
HETATM   31  H16 UNL     1       0.997  51.872 -12.058  1.00  0.00     0.163 HD
BRANCH  30  32
HETATM   32  C15 UNL     1      -0.843  52.952 -11.962  1.00  0.00     0.186 C 
BRANCH  32  33
HETATM   33  C16 UNL     1      -0.097  54.092 -11.243  1.00  0.00     0.163 C 
HETATM   34  O4  UNL     1      -0.551  54.931 -10.483  1.00  0.00    -0.648 OA
BRANCH  33  35
HETATM   35  O5  UNL     1       1.232  54.079 -11.493  1.00  0.00    -0.775 OA
HETATM   36  H18 UNL     1       1.564  54.845 -10.979  1.00  0.00     0.167 HD
ENDBRANCH  33  35
ENDBRANCH  32  33
BRANCH  32  37
HETATM   37  C17 UNL     1      -1.920  52.229 -11.108  1.00  0.00     0.014 C 
HETATM   38  C18 UNL     1      -1.658  52.380  -9.600  1.00  0.00     0.012 C 
BRANCH  37  39
HETATM   39  C19 UNL     1      -3.353  52.752 -11.384  1.00  0.00     0.002 C 
HETATM   40  C20 UNL     1      -3.812  53.900 -10.498  1.00  0.00     0.005 C 
ENDBRANCH  37  39
ENDBRANCH  32  37
ENDBRANCH  30  32
ENDBRANCH  27  28
ENDBRANCH  26  27
ENDBRANCH  13  26
TORSDOF 9
ENDMDL
MODEL 4
REMARK minimizedAffinity -9.35054111
REMARK  9 active torsions:
REMARK  status: ('A' for Active; 'I' for Inactive)
REMARK    1  A    between atoms: C3_3  and  O1_4 
REMARK    2  A    between atoms: N1_14  and  O2_16 
REMARK    3  A    between atoms: O2_16  and  C13_17 
REMARK    4  A    between atoms: C13_17  and  C14_18 
REMARK       I    between atoms: C14_18  and  N2_20 
REMARK    5  A    between atoms: N2_20  and  C15_21 
REMARK    6  A    between atoms: C15_21  and  C16_22 
REMARK    7  A    between atoms: C15_21  and  C17_25 
REMARK    8  A    between atoms: C16_22  and  O5_24 
REMARK    9  A    between atoms: C17_25  and  C19_27 
ROOT
HETATM    1  C1  UNL     1      -2.231  51.812 -27.653  1.00  0.00     0.015 C 
HETATM    2  C2  UNL     1      -1.485  51.829 -26.711  1.00  0.00    -0.078 C 
HETATM    3  C3  UNL     1      -0.560  51.837 -25.567  1.00  0.00     0.128 C 
HETATM    4  C4  UNL     1       0.254  53.152 -25.474  1.00  0.00     0.052 C 
HETATM    5  C5  UNL     1       0.476  53.419 -23.969  1.00  0.00     0.010 C 
HETATM    6  C6  UNL     1      -0.064  52.172 -23.273  1.00  0.00     0.002 C 
HETATM    7  C7  UNL     1      -0.435  52.259 -21.787  1.00  0.00    -0.004 C 
HETATM    8  C8  UNL     1       0.758  52.716 -20.938  1.00  0.00     0.010 C 
HETATM    9  C9  UNL     1       0.394  52.771 -19.460  1.00  0.00     0.035 C 
HETATM   10  C10 UNL     1      -0.156  51.455 -18.960  1.00  0.00    -0.069 C 
HETATM   11  C11 UNL     1       0.349  50.910 -17.839  1.00  0.00     0.030 C 
HETATM   12  C12 UNL     1      -0.230  49.686 -17.229  1.00  0.00     0.032 C 
HETATM   13  N1  UNL     1       0.352  49.200 -16.170  1.00  0.00    -0.271 N 
ATOM     14  H1  UNL     1       1.202  49.585 -15.757  1.00  0.00     0.194 HD
HETATM   15  C21 UNL     1      -1.496  49.129 -17.843  1.00  0.00     0.060 C 
HETATM   16  C22 UNL     1      -1.500  49.348 -19.349  1.00  0.00     0.020 C 
HETATM   17  C23 UNL     1      -1.297  50.831 -19.773  1.00  0.00    -0.016 C 
HETATM   18  C24 UNL     1      -2.591  51.620 -19.474  1.00  0.00     0.020 C 
HETATM   19  C25 UNL     1      -0.928  50.859 -21.307  1.00  0.00     0.002 C 
HETATM   20  C26 UNL     1      -2.037  50.288 -22.231  1.00  0.00     0.007 C 
HETATM   21  C27 UNL     1      -1.669  50.328 -23.726  1.00  0.00     0.014 C 
HETATM   22  C28 UNL     1      -1.245  51.738 -24.173  1.00  0.00     0.003 C 
HETATM   23  C29 UNL     1      -2.465  52.699 -24.086  1.00  0.00     0.020 C 
ENDROOT
BRANCH   3  24
HETATM   24  O1  UNL     1       0.366  50.762 -25.738  1.00  0.00    -0.377 OA
HETATM   25  H2  UNL     1       0.691  50.812 -26.653  1.00  0.00     0.211 HD
ENDBRANCH   3  24
BRANCH  13  26
HETATM   26  O2  UNL     1      -0.329  48.085 -15.667  1.00  0.00    -0.271 OA
BRANCH  26  27
HETATM   27  C13 UNL     1       0.263  47.702 -14.429  1.00  0.00     0.303 C 
BRANCH  27  28
HETATM   28  C14 UNL     1       0.543  48.922 -13.552  1.00  0.00     0.244 C 
HETATM   29  O3  UNL     1       0.057  49.036 -12.431  1.00  0.00    -0.271 OA
HETATM   30  N2  UNL     1       1.382  49.856 -14.127  1.00  0.00    -0.344 N 
HETATM   31  H16 UNL     1       1.841  49.558 -14.980  1.00  0.00     0.163 HD
BRANCH  30  32
HETATM   32  C15 UNL     1       1.930  51.022 -13.427  1.00  0.00     0.186 C 
BRANCH  32  33
HETATM   33  C16 UNL     1       0.816  52.081 -13.323  1.00  0.00     0.163 C 
HETATM   34  O4  UNL     1       0.217  52.453 -12.328  1.00  0.00    -0.648 OA
BRANCH  33  35
HETATM   35  O5  UNL     1       0.546  52.667 -14.513  1.00  0.00    -0.775 OA
HETATM   36  H18 UNL     1      -0.166  53.304 -14.292  1.00  0.00     0.167 HD
ENDBRANCH  33  35
ENDBRANCH  32  33
BRANCH  32  37
HETATM   37  C17 UNL     1       3.288  51.546 -13.968  1.00  0.00     0.014 C 
HETATM   38  C18 UNL     1       4.360  50.442 -14.002  1.00  0.00     0.012 C 
BRANCH  37  39
HETATM   39  C19 UNL     1       3.178  52.129 -15.399  1.00  0.00     0.002 C 
HETATM   40  C20 UNL     1       4.481  52.193 -16.182  1.00  0.00     0.005 C 
ENDBRANCH  37  39
ENDBRANCH  32  37
ENDBRANCH  30  32
ENDBRANCH  27  28
ENDBRANCH  26  27
ENDBRANCH  13  26
TORSDOF 9
ENDMDL
MODEL 5
REMARK minimizedAffinity -8.98786354
REMARK  9 active torsions:
REMARK  status: ('A' for Active; 'I' for Inactive)
REMARK    1  A    between atoms: C3_3  and  O1_4 
REMARK    2  A    between atoms: N1_14  and  O2_16 
REMARK    3  A    between atoms: O2_16  and  C13_17 
REMARK    4  A    between atoms: C13_17  and  C14_18 
REMARK       I    between atoms: C14_18  and  N2_20 
REMARK    5  A    between atoms: N2_20  and  C15_21 
REMARK    6  A    between atoms: C15_21  and  C16_22 
REMARK    7  A    between atoms: C15_21  and  C17_25 
REMARK    8  A    between atoms: C16_22  and  O5_24 
REMARK    9  A    between atoms: C17_25  and  C19_27 
ROOT
HETATM    1  C1  UNL     1      -0.289  53.506 -28.182  1.00  0.00     0.015 C 
HETATM    2  C2  UNL     1      -0.965  52.867 -27.422  1.00  0.00    -0.078 C 
HETATM    3  C3  UNL     1      -1.808  52.096 -26.496  1.00  0.00     0.128 C 
HETATM    4  C4  UNL     1      -2.148  50.686 -27.039  1.00  0.00     0.052 C 
HETATM    5  C5  UNL     1      -2.235  49.756 -25.810  1.00  0.00     0.010 C 
HETATM    6  C6  UNL     1      -2.112  50.692 -24.609  1.00  0.00     0.002 C 
HETATM    7  C7  UNL     1      -1.696  50.103 -23.255  1.00  0.00    -0.004 C 
HETATM    8  C8  UNL     1      -2.655  48.992 -22.809  1.00  0.00     0.010 C 
HETATM    9  C9  UNL     1      -2.256  48.433 -21.449  1.00  0.00     0.035 C 
HETATM   10  C10 UNL     1      -2.151  49.514 -20.398  1.00  0.00    -0.069 C 
HETATM   11  C11 UNL     1      -2.778  49.353 -19.219  1.00  0.00     0.030 C 
HETATM   12  C12 UNL     1      -2.613  50.317 -18.102  1.00  0.00     0.032 C 
HETATM   13  N1  UNL     1      -3.296  50.108 -17.012  1.00  0.00    -0.271 N 
ATOM     14  H1  UNL     1      -3.963  49.346 -16.893  1.00  0.00     0.194 HD
HETATM   15  C21 UNL     1      -1.613  51.437 -18.285  1.00  0.00     0.060 C 
HETATM   16  C22 UNL     1      -1.576  51.886 -19.739  1.00  0.00     0.020 C 
HETATM   17  C23 UNL     1      -1.296  50.737 -20.749  1.00  0.00    -0.016 C 
HETATM   18  C24 UNL     1       0.192  50.331 -20.649  1.00  0.00     0.020 C 
HETATM   19  C25 UNL     1      -1.673  51.247 -22.194  1.00  0.00     0.002 C 
HETATM   20  C26 UNL     1      -0.833  52.463 -22.671  1.00  0.00     0.007 C 
HETATM   21  C27 UNL     1      -1.205  52.946 -24.084  1.00  0.00     0.014 C 
HETATM   22  C28 UNL     1      -1.159  51.802 -25.112  1.00  0.00     0.003 C 
HETATM   23  C29 UNL     1       0.309  51.316 -25.282  1.00  0.00     0.020 C 
ENDROOT
BRANCH   3  24
HETATM   24  O1  UNL     1      -3.038  52.804 -26.320  1.00  0.00    -0.377 OA
HETATM   25  H2  UNL     1      -3.351  53.048 -27.208  1.00  0.00     0.211 HD
ENDBRANCH   3  24
BRANCH  13  26
HETATM   26  O2  UNL     1      -3.002  51.056 -16.024  1.00  0.00    -0.271 OA
BRANCH  26  27
HETATM   27  C13 UNL     1      -2.481  50.385 -14.881  1.00  0.00     0.303 C 
BRANCH  27  28
HETATM   28  C14 UNL     1      -1.659  51.335 -14.011  1.00  0.00     0.244 C 
HETATM   29  O3  UNL     1      -0.592  51.803 -14.398  1.00  0.00    -0.271 OA
HETATM   30  N2  UNL     1      -2.223  51.616 -12.783  1.00  0.00    -0.344 N 
HETATM   31  H16 UNL     1      -3.178  51.299 -12.663  1.00  0.00     0.163 HD
BRANCH  30  32
HETATM   32  C15 UNL     1      -1.714  52.622 -11.846  1.00  0.00     0.186 C 
BRANCH  32  33
HETATM   33  C16 UNL     1      -0.227  52.317 -11.582  1.00  0.00     0.163 C 
HETATM   34  O4  UNL     1       0.256  51.365 -10.992  1.00  0.00    -0.648 OA
BRANCH  33  35
HETATM   35  O5  UNL     1       0.597  53.234 -12.139  1.00  0.00    -0.775 OA
HETATM   36  H18 UNL     1       1.490  52.913 -11.892  1.00  0.00     0.167 HD
ENDBRANCH  33  35
ENDBRANCH  32  33
BRANCH  32  37
HETATM   37  C17 UNL     1      -2.577  52.845 -10.574  1.00  0.00     0.014 C 
HETATM   38  C18 UNL     1      -3.687  53.883 -10.805  1.00  0.00     0.012 C 
BRANCH  37  39
HETATM   39  C19 UNL     1      -3.255  51.543 -10.077  1.00  0.00     0.002 C 
HETATM   40  C20 UNL     1      -4.598  51.220 -10.716  1.00  0.00     0.005 C 
ENDBRANCH  37  39
ENDBRANCH  32  37
ENDBRANCH  30  32
ENDBRANCH  27  28
ENDBRANCH  26  27
ENDBRANCH  13  26
TORSDOF 9
ENDMDL
MODEL 6
REMARK minimizedAffinity -8.97973156
REMARK  9 active torsions:
REMARK  status: ('A' for Active; 'I' for Inactive)
REMARK    1  A    between atoms: C3_3  and  O1_4 
REMARK    2  A    between atoms: N1_14  and  O2_16 
REMARK    3  A    between atoms: O2_16  and  C13_17 
REMARK    4  A    between atoms: C13_17  and  C14_18 
REMARK       I    between atoms: C14_18  and  N2_20 
REMARK    5  A    between atoms: N2_20  and  C15_21 
REMARK    6  A    between atoms: C15_21  and  C16_22 
REMARK    7  A    between atoms: C15_21  and  C17_25 
REMARK    8  A    between atoms: C16_22  and  O5_24 
REMARK    9  A    between atoms: C17_25  and  C19_27 
ROOT
HETATM    1  C1  UNL     1       1.435  54.443 -22.688  1.00  0.00     0.015 C 
HETATM    2  C2  UNL     1       0.807  53.852 -23.525  1.00  0.00    -0.078 C 
HETATM    3  C3  UNL     1       0.036  53.145 -24.558  1.00  0.00     0.128 C 
HETATM    4  C4  UNL     1       0.941  52.356 -25.537  1.00  0.00     0.052 C 
HETATM    5  C5  UNL     1       0.145  51.099 -25.948  1.00  0.00     0.010 C 
HETATM    6  C6  UNL     1      -1.238  51.300 -25.331  1.00  0.00     0.002 C 
HETATM    7  C7  UNL     1      -2.141  50.076 -25.132  1.00  0.00    -0.004 C 
HETATM    8  C8  UNL     1      -2.389  49.342 -26.456  1.00  0.00     0.010 C 
HETATM    9  C9  UNL     1      -3.312  48.147 -26.259  1.00  0.00     0.035 C 
HETATM   10  C10 UNL     1      -4.616  48.537 -25.603  1.00  0.00    -0.069 C 
HETATM   11  C11 UNL     1      -5.778  48.137 -26.150  1.00  0.00     0.030 C 
HETATM   12  C12 UNL     1      -7.085  48.380 -25.488  1.00  0.00     0.032 C 
HETATM   13  N1  UNL     1      -8.163  48.001 -26.112  1.00  0.00    -0.271 N 
ATOM     14  H1  UNL     1      -8.168  47.582 -27.042  1.00  0.00     0.194 HD
HETATM   15  C21 UNL     1      -7.066  48.993 -24.105  1.00  0.00     0.060 C 
HETATM   16  C22 UNL     1      -5.909  49.972 -23.970  1.00  0.00     0.020 C 
HETATM   17  C23 UNL     1      -4.519  49.361 -24.313  1.00  0.00    -0.016 C 
HETATM   18  C24 UNL     1      -4.089  48.417 -23.168  1.00  0.00     0.020 C 
HETATM   19  C25 UNL     1      -3.497  50.545 -24.519  1.00  0.00     0.002 C 
HETATM   20  C26 UNL     1      -3.288  51.423 -23.256  1.00  0.00     0.007 C 
HETATM   21  C27 UNL     1      -2.283  52.570 -23.467  1.00  0.00     0.014 C 
HETATM   22  C28 UNL     1      -0.939  52.060 -24.017  1.00  0.00     0.003 C 
HETATM   23  C29 UNL     1      -0.243  51.174 -22.944  1.00  0.00     0.020 C 
ENDROOT
BRANCH   3  24
HETATM   24  O1  UNL     1      -0.685  54.118 -25.318  1.00  0.00    -0.377 OA
HETATM   25  H2  UNL     1      -0.052  54.820 -25.548  1.00  0.00     0.211 HD
ENDBRANCH   3  24
BRANCH  13  26
HETATM   26  O2  UNL     1      -9.315  48.238 -25.352  1.00  0.00    -0.271 OA
BRANCH  26  27
HETATM   27  C13 UNL     1     -10.215  47.147 -25.527  1.00  0.00     0.303 C 
BRANCH  27  28
HETATM   28  C14 UNL     1     -11.548  47.621 -26.104  1.00  0.00     0.244 C 
HETATM   29  O3  UNL     1     -11.690  48.753 -26.556  1.00  0.00    -0.271 OA
HETATM   30  N2  UNL     1     -12.550  46.671 -26.078  1.00  0.00    -0.344 N 
HETATM   31  H16 UNL     1     -12.251  45.734 -25.835  1.00  0.00     0.163 HD
BRANCH  30  32
HETATM   32  C15 UNL     1     -13.859  46.827 -26.720  1.00  0.00     0.186 C 
BRANCH  32  33
HETATM   33  C16 UNL     1     -14.943  46.639 -25.642  1.00  0.00     0.163 C 
HETATM   34  O4  UNL     1     -15.958  45.965 -25.701  1.00  0.00    -0.648 OA
BRANCH  33  35
HETATM   35  O5  UNL     1     -14.652  47.294 -24.495  1.00  0.00    -0.775 OA
HETATM   36  H18 UNL     1     -15.416  47.085 -23.917  1.00  0.00     0.167 HD
ENDBRANCH  33  35
ENDBRANCH  32  33
BRANCH  32  37
HETATM   37  C17 UNL     1     -14.068  45.997 -28.016  1.00  0.00     0.014 C 
HETATM   38  C18 UNL     1     -12.953  44.958 -28.221  1.00  0.00     0.012 C 
BRANCH  37  39
HETATM   39  C19 UNL     1     -15.418  45.236 -28.028  1.00  0.00     0.002 C 
HETATM   40  C20 UNL     1     -15.318  43.729 -28.211  1.00  0.00     0.005 C 
ENDBRANCH  37  39
ENDBRANCH  32  37
ENDBRANCH  30  32
ENDBRANCH  27  28
ENDBRANCH  26  27
ENDBRANCH  13  26
TORSDOF 9
ENDMDL
MODEL 7
REMARK minimizedAffinity -8.93933868
REMARK  9 active torsions:
REMARK  status: ('A' for Active; 'I' for Inactive)
REMARK    1  A    between atoms: C3_3  and  O1_4 
REMARK    2  A    between atoms: N1_14  and  O2_16 
REMARK    3  A    between atoms: O2_16  and  C13_17 
REMARK    4  A    between atoms: C13_17  and  C14_18 
REMARK       I    between atoms: C14_18  and  N2_20 
REMARK    5  A    between atoms: N2_20  and  C15_21 
REMARK    6  A    between atoms: C15_21  and  C16_22 
REMARK    7  A    between atoms: C15_21  and  C17_25 
REMARK    8  A    between atoms: C16_22  and  O5_24 
REMARK    9  A    between atoms: C17_25  and  C19_27 
ROOT
HETATM    1  C1  UNL     1       1.431  54.411 -22.599  1.00  0.00     0.015 C 
HETATM    2  C2  UNL     1       0.784  53.823 -23.423  1.00  0.00    -0.078 C 
HETATM    3  C3  UNL     1      -0.012  53.119 -24.440  1.00  0.00     0.128 C 
HETATM    4  C4  UNL     1       0.868  52.308 -25.423  1.00  0.00     0.052 C 
HETATM    5  C5  UNL     1       0.048  51.060 -25.814  1.00  0.00     0.010 C 
HETATM    6  C6  UNL     1      -1.323  51.287 -25.180  1.00  0.00     0.002 C 
HETATM    7  C7  UNL     1      -2.243  50.079 -24.959  1.00  0.00    -0.004 C 
HETATM    8  C8  UNL     1      -2.519  49.338 -26.273  1.00  0.00     0.010 C 
HETATM    9  C9  UNL     1      -3.458  48.158 -26.054  1.00  0.00     0.035 C 
HETATM   10  C10 UNL     1      -4.747  48.573 -25.384  1.00  0.00    -0.069 C 
HETATM   11  C11 UNL     1      -5.922  48.187 -25.912  1.00  0.00     0.030 C 
HETATM   12  C12 UNL     1      -7.216  48.456 -25.236  1.00  0.00     0.032 C 
HETATM   13  N1  UNL     1      -8.308  48.088 -25.843  1.00  0.00    -0.271 N 
ATOM     14  H1  UNL     1      -8.331  47.661 -26.769  1.00  0.00     0.194 HD
HETATM   15  C21 UNL     1      -7.169  49.080 -23.858  1.00  0.00     0.060 C 
HETATM   16  C22 UNL     1      -5.996  50.042 -23.747  1.00  0.00     0.020 C 
HETATM   17  C23 UNL     1      -4.620  49.407 -24.103  1.00  0.00    -0.016 C 
HETATM   18  C24 UNL     1      -4.190  48.467 -22.955  1.00  0.00     0.020 C 
HETATM   19  C25 UNL     1      -3.583  50.574 -24.332  1.00  0.00     0.002 C 
HETATM   20  C26 UNL     1      -3.344  51.459 -23.080  1.00  0.00     0.007 C 
HETATM   21  C27 UNL     1      -2.325  52.588 -23.313  1.00  0.00     0.014 C 
HETATM   22  C28 UNL     1      -0.996  52.053 -23.877  1.00  0.00     0.003 C 
HETATM   23  C29 UNL     1      -0.299  51.166 -22.805  1.00  0.00     0.020 C 
ENDROOT
BRANCH   3  24
HETATM   24  O1  UNL     1      -0.727  54.096 -25.198  1.00  0.00    -0.377 OA
HETATM   25  H2  UNL     1      -0.087  54.786 -25.443  1.00  0.00     0.211 HD
ENDBRANCH   3  24
BRANCH  13  26
HETATM   26  O2  UNL     1      -9.446  48.349 -25.069  1.00  0.00    -0.271 OA
BRANCH  26  27
HETATM   27  C13 UNL     1     -10.471  47.427 -25.432  1.00  0.00     0.303 C 
BRANCH  27  28
HETATM   28  C14 UNL     1     -11.151  47.845 -26.735  1.00  0.00     0.244 C 
HETATM   29  O3  UNL     1     -12.093  48.631 -26.747  1.00  0.00    -0.271 OA
HETATM   30  N2  UNL     1     -10.610  47.273 -27.868  1.00  0.00    -0.344 N 
HETATM   31  H16 UNL     1      -9.736  46.779 -27.729  1.00  0.00     0.163 HD
BRANCH  30  32
HETATM   32  C15 UNL     1     -10.976  47.641 -29.239  1.00  0.00     0.186 C 
BRANCH  32  33
HETATM   33  C16 UNL     1     -11.954  46.576 -29.773  1.00  0.00     0.163 C 
HETATM   34  O4  UNL     1     -11.723  45.413 -30.058  1.00  0.00    -0.648 OA
BRANCH  33  35
HETATM   35  O5  UNL     1     -13.221  47.041 -29.873  1.00  0.00    -0.775 OA
HETATM   36  H18 UNL     1     -13.716  46.268 -30.217  1.00  0.00     0.167 HD
ENDBRANCH  33  35
ENDBRANCH  32  33
BRANCH  32  37
HETATM   37  C17 UNL     1      -9.785  47.971 -30.181  1.00  0.00     0.014 C 
HETATM   38  C18 UNL     1      -8.685  48.769 -29.461  1.00  0.00     0.012 C 
BRANCH  37  39
HETATM   39  C19 UNL     1      -9.123  46.703 -30.776  1.00  0.00     0.002 C 
HETATM   40  C20 UNL     1      -7.902  46.190 -30.028  1.00  0.00     0.005 C 
ENDBRANCH  37  39
ENDBRANCH  32  37
ENDBRANCH  30  32
ENDBRANCH  27  28
ENDBRANCH  26  27
ENDBRANCH  13  26
TORSDOF 9
ENDMDL
MODEL 8
REMARK minimizedAffinity -8.91472626
REMARK  9 active torsions:
REMARK  status: ('A' for Active; 'I' for Inactive)
REMARK    1  A    between atoms: C3_3  and  O1_4 
REMARK    2  A    between atoms: N1_14  and  O2_16 
REMARK    3  A    between atoms: O2_16  and  C13_17 
REMARK    4  A    between atoms: C13_17  and  C14_18 
REMARK       I    between atoms: C14_18  and  N2_20 
REMARK    5  A    between atoms: N2_20  and  C15_21 
REMARK    6  A    between atoms: C15_21  and  C16_22 
REMARK    7  A    between atoms: C15_21  and  C17_25 
REMARK    8  A    between atoms: C16_22  and  O5_24 
REMARK    9  A    between atoms: C17_25  and  C19_27 
ROOT
HETATM    1  C1  UNL     1       1.458  54.464 -22.740  1.00  0.00     0.015 C 
HETATM    2  C2  UNL     1       0.803  53.854 -23.542  1.00  0.00    -0.078 C 
HETATM    3  C3  UNL     1      -0.000  53.123 -24.533  1.00  0.00     0.128 C 
HETATM    4  C4  UNL     1       0.872  52.288 -25.503  1.00  0.00     0.052 C 
HETATM    5  C5  UNL     1       0.049  51.029 -25.853  1.00  0.00     0.010 C 
HETATM    6  C6  UNL     1      -1.317  51.271 -25.214  1.00  0.00     0.002 C 
HETATM    7  C7  UNL     1      -2.233  50.069 -24.953  1.00  0.00    -0.004 C 
HETATM    8  C8  UNL     1      -2.520  49.294 -26.244  1.00  0.00     0.010 C 
HETATM    9  C9  UNL     1      -3.456  48.119 -25.986  1.00  0.00     0.035 C 
HETATM   10  C10 UNL     1      -4.739  48.551 -25.316  1.00  0.00    -0.069 C 
HETATM   11  C11 UNL     1      -5.918  48.150 -25.823  1.00  0.00     0.030 C 
HETATM   12  C12 UNL     1      -7.206  48.435 -25.142  1.00  0.00     0.032 C 
HETATM   13  N1  UNL     1      -8.304  48.051 -25.730  1.00  0.00    -0.271 N 
ATOM     14  H1  UNL     1      -8.335  47.600 -26.644  1.00  0.00     0.194 HD
HETATM   15  C21 UNL     1      -7.148  49.095 -23.782  1.00  0.00     0.060 C 
HETATM   16  C22 UNL     1      -5.975  50.061 -23.707  1.00  0.00     0.020 C 
HETATM   17  C23 UNL     1      -4.602  49.418 -24.058  1.00  0.00    -0.016 C 
HETATM   18  C24 UNL     1      -4.160  48.508 -22.890  1.00  0.00     0.020 C 
HETATM   19  C25 UNL     1      -3.568  50.579 -24.327  1.00  0.00     0.002 C 
HETATM   20  C26 UNL     1      -3.319  51.497 -23.101  1.00  0.00     0.007 C 
HETATM   21  C27 UNL     1      -2.303  52.621 -23.373  1.00  0.00     0.014 C 
HETATM   22  C28 UNL     1      -0.979  52.072 -23.934  1.00  0.00     0.003 C 
HETATM   23  C29 UNL     1      -0.271  51.214 -22.845  1.00  0.00     0.020 C 
ENDROOT
BRANCH   3  24
HETATM   24  O1  UNL     1      -0.724  54.080 -25.311  1.00  0.00    -0.377 OA
HETATM   25  H2  UNL     1      -0.087  54.764 -25.579  1.00  0.00     0.211 HD
ENDBRANCH   3  24
BRANCH  13  26
HETATM   26  O2  UNL     1      -9.435  48.331 -24.954  1.00  0.00    -0.271 OA
BRANCH  26  27
HETATM   27  C13 UNL     1     -10.228  47.151 -24.851  1.00  0.00     0.303 C 
BRANCH  27  28
HETATM   28  C14 UNL     1     -11.339  47.142 -25.900  1.00  0.00     0.244 C 
HETATM   29  O3  UNL     1     -12.018  48.138 -26.130  1.00  0.00    -0.271 OA
HETATM   30  N2  UNL     1     -11.494  45.937 -26.555  1.00  0.00    -0.344 N 
HETATM   31  H16 UNL     1     -10.762  45.256 -26.387  1.00  0.00     0.163 HD
BRANCH  30  32
HETATM   32  C15 UNL     1     -12.373  45.726 -27.710  1.00  0.00     0.186 C 
BRANCH  32  33
HETATM   33  C16 UNL     1     -12.067  46.824 -28.747  1.00  0.00     0.163 C 
HETATM   34  O4  UNL     1     -11.138  47.614 -28.760  1.00  0.00    -0.648 OA
BRANCH  33  35
HETATM   35  O5  UNL     1     -12.953  46.831 -29.769  1.00  0.00    -0.775 OA
HETATM   36  H18 UNL     1     -12.636  47.566 -30.335  1.00  0.00     0.167 HD
ENDBRANCH  33  35
ENDBRANCH  32  33
BRANCH  32  37
HETATM   37  C17 UNL     1     -13.878  45.536 -27.376  1.00  0.00     0.014 C 
HETATM   38  C18 UNL     1     -14.448  46.726 -26.587  1.00  0.00     0.012 C 
BRANCH  37  39
HETATM   39  C19 UNL     1     -14.753  45.357 -28.642  1.00  0.00     0.002 C 
HETATM   40  C20 UNL     1     -15.893  44.358 -28.513  1.00  0.00     0.005 C 
ENDBRANCH  37  39
ENDBRANCH  32  37
ENDBRANCH  30  32
ENDBRANCH  27  28
ENDBRANCH  26  27
ENDBRANCH  13  26
TORSDOF 9
ENDMDL
MODEL 9
REMARK minimizedAffinity -8.91263962
REMARK  9 active torsions:
REMARK  status: ('A' for Active; 'I' for Inactive)
REMARK    1  A    between atoms: C3_3  and  O1_4 
REMARK    2  A    between atoms: N1_14  and  O2_16 
REMARK    3  A    between atoms: O2_16  and  C13_17 
REMARK    4  A    between atoms: C13_17  and  C14_18 
REMARK       I    between atoms: C14_18  and  N2_20 
REMARK    5  A    between atoms: N2_20  and  C15_21 
REMARK    6  A    between atoms: C15_21  and  C16_22 
REMARK    7  A    between atoms: C15_21  and  C17_25 
REMARK    8  A    between atoms: C16_22  and  O5_24 
REMARK    9  A    between atoms: C17_25  and  C19_27 
ROOT
HETATM    1  C1  UNL     1      -1.339  51.378 -27.335  1.00  0.00     0.015 C 
HETATM    2  C2  UNL     1      -1.848  51.647 -26.280  1.00  0.00    -0.078 C 
HETATM    3  C3  UNL     1      -2.467  51.994 -24.992  1.00  0.00     0.128 C 
HETATM    4  C4  UNL     1      -4.011  51.885 -25.029  1.00  0.00     0.052 C 
HETATM    5  C5  UNL     1      -4.449  51.430 -23.620  1.00  0.00     0.010 C 
HETATM    6  C6  UNL     1      -3.168  51.461 -22.790  1.00  0.00     0.002 C 
HETATM    7  C7  UNL     1      -3.111  50.649 -21.490  1.00  0.00    -0.004 C 
HETATM    8  C8  UNL     1      -4.231  51.056 -20.525  1.00  0.00     0.010 C 
HETATM    9  C9  UNL     1      -4.151  50.269 -19.224  1.00  0.00     0.035 C 
HETATM   10  C10 UNL     1      -2.797  50.393 -18.565  1.00  0.00    -0.069 C 
HETATM   11  C11 UNL     1      -2.721  50.721 -17.264  1.00  0.00     0.030 C 
HETATM   12  C12 UNL     1      -1.431  50.737 -16.529  1.00  0.00     0.032 C 
HETATM   13  N1  UNL     1      -1.445  51.113 -15.282  1.00  0.00    -0.271 N 
ATOM     14  H1  UNL     1      -2.280  51.432 -14.790  1.00  0.00     0.194 HD
HETATM   15  C21 UNL     1      -0.201  50.252 -17.265  1.00  0.00     0.060 C 
HETATM   16  C22 UNL     1      -0.284  50.614 -18.740  1.00  0.00     0.020 C 
HETATM   17  C23 UNL     1      -1.574  50.105 -19.445  1.00  0.00    -0.016 C 
HETATM   18  C24 UNL     1      -1.469  48.577 -19.642  1.00  0.00     0.020 C 
HETATM   19  C25 UNL     1      -1.720  50.869 -20.818  1.00  0.00     0.002 C 
HETATM   20  C26 UNL     1      -0.552  50.613 -21.808  1.00  0.00     0.007 C 
HETATM   21  C27 UNL     1      -0.709  51.357 -23.146  1.00  0.00     0.014 C 
HETATM   22  C28 UNL     1      -2.070  51.068 -23.806  1.00  0.00     0.003 C 
HETATM   23  C29 UNL     1      -2.134  49.571 -24.226  1.00  0.00     0.020 C 
ENDROOT
BRANCH   3  24
HETATM   24  O1  UNL     1      -2.132  53.350 -24.690  1.00  0.00    -0.377 OA
HETATM   25  H2  UNL     1      -2.308  53.869 -25.493  1.00  0.00     0.211 HD
ENDBRANCH   3  24
BRANCH  13  26
HETATM   26  O2  UNL     1      -0.175  51.026 -14.698  1.00  0.00    -0.271 OA
BRANCH  26  27
HETATM   27  C13 UNL     1      -0.044  52.058 -13.725  1.00  0.00     0.303 C 
BRANCH  27  28
HETATM   28  C14 UNL     1      -1.014  51.846 -12.564  1.00  0.00     0.244 C 
HETATM   29  O3  UNL     1      -1.257  50.728 -12.121  1.00  0.00    -0.271 OA
HETATM   30  N2  UNL     1      -1.571  53.008 -12.067  1.00  0.00    -0.344 N 
HETATM   31  H16 UNL     1      -1.157  53.867 -12.412  1.00  0.00     0.163 HD
BRANCH  30  32
HETATM   32  C15 UNL     1      -2.395  53.083 -10.857  1.00  0.00     0.186 C 
BRANCH  32  33
HETATM   33  C16 UNL     1      -3.794  53.583 -11.265  1.00  0.00     0.163 C 
HETATM   34  O4  UNL     1      -4.638  54.120 -10.566  1.00  0.00    -0.648 OA
BRANCH  33  35
HETATM   35  O5  UNL     1      -4.039  53.418 -12.585  1.00  0.00    -0.775 OA
HETATM   36  H18 UNL     1      -4.946  53.775 -12.691  1.00  0.00     0.167 HD
ENDBRANCH  33  35
ENDBRANCH  32  33
BRANCH  32  37
HETATM   37  C17 UNL     1      -1.752  53.832  -9.658  1.00  0.00     0.014 C 
HETATM   38  C18 UNL     1      -0.777  52.936  -8.875  1.00  0.00     0.012 C 
BRANCH  37  39
HETATM   39  C19 UNL     1      -0.970  55.098 -10.093  1.00  0.00     0.002 C 
HETATM   40  C20 UNL     1       0.482  54.868 -10.485  1.00  0.00     0.005 C 
ENDBRANCH  37  39
ENDBRANCH  32  37
ENDBRANCH  30  32
ENDBRANCH  27  28
ENDBRANCH  26  27
ENDBRANCH  13  26
TORSDOF 9
ENDMDL
