MODEL 1
REMARK minimizedAffinity -9.25896549
REMARK  9 active torsions:
REMARK  status: ('A' for Active; 'I' for Inactive)
REMARK    1  A    between atoms: C11_11  and  C13_13 
REMARK    2  A    between atoms: C13_13  and  O2_15 
REMARK    3  A    between atoms: C15_17  and  C16_18 
REMARK    4  A    between atoms: C16_18  and  C17_19 
REMARK    5  A    between atoms: C17_19  and  C18_20 
REMARK    6  A    between atoms: C19_21  and  C20_22 
REMARK    7  A    between atoms: C20_22  and  O3_23 
REMARK    8  A    between atoms: O3_23  and  C21_24 
REMARK    9  A    between atoms: C21_24  and  C22_26 
ROOT
HETATM    1  C16 UNL     1      -3.419  48.778 -22.964  1.00  0.00     0.014 C 
ENDROOT
BRANCH   1   2
HETATM    2  C15 UNL     1      -2.876  48.946 -24.413  1.00  0.00     0.022 C 
HETATM    3  C2  UNL     1      -3.849  48.547 -25.525  1.00  0.00    -0.084 C 
HETATM    4  C1  UNL     1      -5.164  48.309 -25.390  1.00  0.00     0.014 C 
HETATM    5  C3  UNL     1      -3.206  48.481 -26.887  1.00  0.00     0.034 C 
HETATM    6  C4  UNL     1      -2.588  49.831 -27.249  1.00  0.00     0.011 C 
HETATM    7  C5  UNL     1      -1.602  50.324 -26.163  1.00  0.00     0.012 C 
HETATM    8  C6  UNL     1      -2.278  50.387 -24.731  1.00  0.00    -0.032 C 
HETATM    9  C11 UNL     1      -0.749  51.583 -26.563  1.00  0.00     0.049 C 
HETATM   10  C7  UNL     1      -3.400  51.449 -24.646  1.00  0.00     0.016 C 
HETATM   11  C8  UNL     1      -1.179  50.743 -23.691  1.00  0.00     0.010 C 
HETATM   12  C9  UNL     1      -0.349  51.970 -24.050  1.00  0.00     0.002 C 
HETATM   13  C10 UNL     1       0.278  51.850 -25.432  1.00  0.00     0.020 C 
HETATM   14  C12 UNL     1       0.072  51.305 -27.846  1.00  0.00     0.026 C 
BRANCH   9  15
HETATM   15  C13 UNL     1      -1.605  52.816 -26.914  1.00  0.00     0.267 C 
HETATM   16  O1  UNL     1      -2.746  53.000 -26.511  1.00  0.00    -0.264 OA
BRANCH  15  17
HETATM   17  O2  UNL     1      -0.972  53.655 -27.780  1.00  0.00    -0.326 OA
HETATM   18  C14 UNL     1      -0.179  54.664 -27.153  1.00  0.00     0.213 C 
ENDBRANCH  15  17
ENDBRANCH   9  15
ENDBRANCH   1   2
BRANCH   1  19
HETATM   19  C17 UNL     1      -2.490  48.005 -22.010  1.00  0.00     0.042 C 
BRANCH  19  20
HETATM   20  C18 UNL     1      -3.097  47.744 -20.668  1.00  0.00    -0.024 A 
HETATM   21  C19 UNL     1      -2.559  48.036 -19.424  1.00  0.00     0.083 A 
HETATM   22  O5  UNL     1      -3.423  47.661 -18.437  1.00  0.00    -0.324 OA
HETATM   23  C28 UNL     1      -4.508  47.116 -19.040  1.00  0.00     0.143 A 
HETATM   24  C29 UNL     1      -4.360  47.140 -20.405  1.00  0.00     0.034 A 
BRANCH  21  25
HETATM   25  C20 UNL     1      -1.285  48.656 -18.978  1.00  0.00     0.244 C 
BRANCH  25  26
HETATM   26  O3  UNL     1      -1.534  49.318 -17.730  1.00  0.00    -0.311 OA
BRANCH  26  27
HETATM   27  C21 UNL     1      -2.013  50.579 -17.820  1.00  0.00     0.293 C 
HETATM   28  O4  UNL     1      -3.027  51.012 -17.294  1.00  0.00    -0.259 OA
BRANCH  27  29
HETATM   29  C22 UNL     1      -1.107  51.414 -18.657  1.00  0.00     0.039 A 
HETATM   30  C23 UNL     1       0.059  51.923 -18.067  1.00  0.00     0.019 A 
HETATM   31  C24 UNL     1       0.941  52.711 -18.813  1.00  0.00     0.025 A 
HETATM   32  C25 UNL     1       0.658  52.995 -20.148  1.00  0.00     0.034 A 
HETATM   33 CL1  UNL     1       1.743  53.965 -21.065  1.00  0.00    -0.084 Cl
HETATM   34  C26 UNL     1      -0.501  52.499 -20.744  1.00  0.00     0.025 A 
HETATM   35  C27 UNL     1      -1.384  51.710 -20.000  1.00  0.00     0.019 A 
ENDBRANCH  27  29
ENDBRANCH  26  27
ENDBRANCH  25  26
ENDBRANCH  21  25
ENDBRANCH  19  20
ENDBRANCH   1  19
TORSDOF 9
ENDMDL
MODEL 2
REMARK minimizedAffinity -9.24186134
REMARK  9 active torsions:
REMARK  status: ('A' for Active; 'I' for Inactive)
REMARK    1  A    between atoms: C11_11  and  C13_13 
REMARK    2  A    between atoms: C13_13  and  O2_15 
REMARK    3  A    between atoms: C15_17  and  C16_18 
REMARK    4  A    between atoms: C16_18  and  C17_19 
REMARK    5  A    between atoms: C17_19  and  C18_20 
REMARK    6  A    between atoms: C19_21  and  C20_22 
REMARK    7  A    between atoms: C20_22  and  O3_23 
REMARK    8  A    between atoms: O3_23  and  C21_24 
REMARK    9  A    between atoms: C21_24  and  C22_26 
ROOT
HETATM    1  C16 UNL     1      -2.557  51.278 -25.231  1.00  0.00     0.014 C 
ENDROOT
BRANCH   1   2
HETATM    2  C15 UNL     1      -3.727  50.400 -24.699  1.00  0.00     0.022 C 
HETATM    3  C2  UNL     1      -3.946  49.081 -25.445  1.00  0.00    -0.084 C 
HETATM    4  C1  UNL     1      -3.105  48.511 -26.324  1.00  0.00     0.014 C 
HETATM    5  C3  UNL     1      -5.230  48.387 -25.070  1.00  0.00     0.034 C 
HETATM    6  C4  UNL     1      -5.262  48.102 -23.569  1.00  0.00     0.011 C 
HETATM    7  C5  UNL     1      -5.026  49.382 -22.734  1.00  0.00     0.012 C 
HETATM    8  C6  UNL     1      -3.678  50.114 -23.133  1.00  0.00    -0.032 C 
HETATM    9  C11 UNL     1      -5.275  49.223 -21.189  1.00  0.00     0.049 C 
HETATM   10  C7  UNL     1      -2.421  49.278 -22.793  1.00  0.00     0.016 C 
HETATM   11  C8  UNL     1      -3.605  51.457 -22.354  1.00  0.00     0.010 C 
HETATM   12  C9  UNL     1      -3.828  51.324 -20.852  1.00  0.00     0.002 C 
HETATM   13  C10 UNL     1      -5.139  50.620 -20.530  1.00  0.00     0.020 C 
HETATM   14  C12 UNL     1      -6.722  48.745 -20.913  1.00  0.00     0.026 C 
BRANCH   9  15
HETATM   15  C13 UNL     1      -4.385  48.149 -20.533  1.00  0.00     0.267 C 
HETATM   16  O1  UNL     1      -3.467  48.393 -19.760  1.00  0.00    -0.264 OA
BRANCH  15  17
HETATM   17  O2  UNL     1      -4.691  46.892 -20.959  1.00  0.00    -0.326 OA
HETATM   18  C14 UNL     1      -3.637  45.941 -20.802  1.00  0.00     0.213 C 
ENDBRANCH  15  17
ENDBRANCH   9  15
ENDBRANCH   1   2
BRANCH   1  19
HETATM   19  C17 UNL     1      -1.151  50.793 -24.832  1.00  0.00     0.042 C 
BRANCH  19  20
HETATM   20  C18 UNL     1      -0.053  51.446 -25.610  1.00  0.00    -0.024 A 
HETATM   21  C19 UNL     1       0.685  52.565 -25.257  1.00  0.00     0.083 A 
HETATM   22  O5  UNL     1       1.609  52.845 -26.223  1.00  0.00    -0.324 OA
HETATM   23  C28 UNL     1       1.458  51.919 -27.201  1.00  0.00     0.143 A 
HETATM   24  C29 UNL     1       0.454  51.040 -26.878  1.00  0.00     0.034 A 
BRANCH  21  25
HETATM   25  C20 UNL     1       0.670  53.474 -24.083  1.00  0.00     0.244 C 
BRANCH  25  26
HETATM   26  O3  UNL     1       0.961  52.689 -22.919  1.00  0.00    -0.311 OA
BRANCH  26  27
HETATM   27  C21 UNL     1       1.069  53.376 -21.760  1.00  0.00     0.293 C 
HETATM   28  O4  UNL     1       1.465  54.524 -21.629  1.00  0.00    -0.259 OA
BRANCH  27  29
HETATM   29  C22 UNL     1       0.613  52.535 -20.619  1.00  0.00     0.039 A 
HETATM   30  C23 UNL     1       0.830  53.009 -19.317  1.00  0.00     0.019 A 
HETATM   31  C24 UNL     1       0.418  52.255 -18.214  1.00  0.00     0.025 A 
HETATM   32  C25 UNL     1      -0.208  51.025 -18.409  1.00  0.00     0.034 A 
HETATM   33 CL1  UNL     1      -0.715  50.098 -17.051  1.00  0.00    -0.084 Cl
HETATM   34  C26 UNL     1      -0.426  50.541 -19.698  1.00  0.00     0.025 A 
HETATM   35  C27 UNL     1      -0.015  51.294 -20.803  1.00  0.00     0.019 A 
ENDBRANCH  27  29
ENDBRANCH  26  27
ENDBRANCH  25  26
ENDBRANCH  21  25
ENDBRANCH  19  20
ENDBRANCH   1  19
TORSDOF 9
ENDMDL
MODEL 3
REMARK minimizedAffinity -9.19888115
REMARK  9 active torsions:
REMARK  status: ('A' for Active; 'I' for Inactive)
REMARK    1  A    between atoms: C11_11  and  C13_13 
REMARK    2  A    between atoms: C13_13  and  O2_15 
REMARK    3  A    between atoms: C15_17  and  C16_18 
REMARK    4  A    between atoms: C16_18  and  C17_19 
REMARK    5  A    between atoms: C17_19  and  C18_20 
REMARK    6  A    between atoms: C19_21  and  C20_22 
REMARK    7  A    between atoms: C20_22  and  O3_23 
REMARK    8  A    between atoms: O3_23  and  C21_24 
REMARK    9  A    between atoms: C21_24  and  C22_26 
ROOT
HETATM    1  C16 UNL     1      -3.712  49.071 -22.733  1.00  0.00     0.014 C 
ENDROOT
BRANCH   1   2
HETATM    2  C15 UNL     1      -2.966  49.130 -24.097  1.00  0.00     0.022 C 
HETATM    3  C2  UNL     1      -3.797  48.716 -25.315  1.00  0.00    -0.084 C 
HETATM    4  C1  UNL     1      -5.129  48.549 -25.354  1.00  0.00     0.014 C 
HETATM    5  C3  UNL     1      -2.977  48.543 -26.567  1.00  0.00     0.034 C 
HETATM    6  C4  UNL     1      -2.241  49.839 -26.905  1.00  0.00     0.011 C 
HETATM    7  C5  UNL     1      -1.389  50.344 -25.717  1.00  0.00     0.012 C 
HETATM    8  C6  UNL     1      -2.251  50.520 -24.399  1.00  0.00    -0.032 C 
HETATM    9  C11 UNL     1      -0.420  51.536 -26.054  1.00  0.00     0.049 C 
HETATM   10  C7  UNL     1      -3.314  51.638 -24.525  1.00  0.00     0.016 C 
HETATM   11  C8  UNL     1      -1.288  50.882 -23.234  1.00  0.00     0.010 C 
HETATM   12  C9  UNL     1      -0.350  52.046 -23.533  1.00  0.00     0.002 C 
HETATM   13  C10 UNL     1       0.455  51.817 -24.805  1.00  0.00     0.020 C 
HETATM   14  C12 UNL     1       0.554  51.147 -27.194  1.00  0.00     0.026 C 
BRANCH   9  15
HETATM   15  C13 UNL     1      -1.150  52.787 -26.583  1.00  0.00     0.267 C 
HETATM   16  O1  UNL     1      -2.163  52.755 -27.269  1.00  0.00    -0.264 OA
BRANCH  15  17
HETATM   17  O2  UNL     1      -0.503  53.940 -26.255  1.00  0.00    -0.326 OA
HETATM   18  C14 UNL     1      -0.130  54.747 -27.373  1.00  0.00     0.213 C 
ENDBRANCH  15  17
ENDBRANCH   9  15
ENDBRANCH   1   2
BRANCH   1  19
HETATM   19  C17 UNL     1      -3.960  47.651 -22.191  1.00  0.00     0.042 C 
BRANCH  19  20
HETATM   20  C18 UNL     1      -3.475  47.454 -20.791  1.00  0.00    -0.024 A 
HETATM   21  C19 UNL     1      -2.855  48.385 -19.971  1.00  0.00     0.083 A 
HETATM   22  O5  UNL     1      -2.576  47.831 -18.755  1.00  0.00    -0.324 OA
HETATM   23  C28 UNL     1      -3.000  46.544 -18.794  1.00  0.00     0.143 A 
HETATM   24  C29 UNL     1      -3.556  46.260 -20.017  1.00  0.00     0.034 A 
BRANCH  21  25
HETATM   25  C20 UNL     1      -2.460  49.806 -20.149  1.00  0.00     0.244 C 
BRANCH  25  26
HETATM   26  O3  UNL     1      -1.380  50.076 -19.244  1.00  0.00    -0.311 OA
BRANCH  26  27
HETATM   27  C21 UNL     1      -1.531  51.165 -18.458  1.00  0.00     0.293 C 
HETATM   28  O4  UNL     1      -2.554  51.816 -18.305  1.00  0.00    -0.259 OA
BRANCH  27  29
HETATM   29  C22 UNL     1      -0.253  51.477 -17.761  1.00  0.00     0.039 A 
HETATM   30  C23 UNL     1       0.079  50.731 -16.621  1.00  0.00     0.019 A 
HETATM   31  C24 UNL     1       1.268  50.986 -15.933  1.00  0.00     0.025 A 
HETATM   32  C25 UNL     1       2.127  51.989 -16.379  1.00  0.00     0.034 A 
HETATM   33 CL1  UNL     1       3.590  52.303 -15.532  1.00  0.00    -0.084 Cl
HETATM   34  C26 UNL     1       1.805  52.741 -17.509  1.00  0.00     0.025 A 
HETATM   35  C27 UNL     1       0.616  52.487 -18.199  1.00  0.00     0.019 A 
ENDBRANCH  27  29
ENDBRANCH  26  27
ENDBRANCH  25  26
ENDBRANCH  21  25
ENDBRANCH  19  20
ENDBRANCH   1  19
TORSDOF 9
ENDMDL
MODEL 4
REMARK minimizedAffinity -9.18589878
REMARK  9 active torsions:
REMARK  status: ('A' for Active; 'I' for Inactive)
REMARK    1  A    between atoms: C11_11  and  C13_13 
REMARK    2  A    between atoms: C13_13  and  O2_15 
REMARK    3  A    between atoms: C15_17  and  C16_18 
REMARK    4  A    between atoms: C16_18  and  C17_19 
REMARK    5  A    between atoms: C17_19  and  C18_20 
REMARK    6  A    between atoms: C19_21  and  C20_22 
REMARK    7  A    between atoms: C20_22  and  O3_23 
REMARK    8  A    between atoms: O3_23  and  C21_24 
REMARK    9  A    between atoms: C21_24  and  C22_26 
ROOT
HETATM    1  C16 UNL     1      -3.549  49.130 -22.539  1.00  0.00     0.014 C 
ENDROOT
BRANCH   1   2
HETATM    2  C15 UNL     1      -2.827  49.186 -23.917  1.00  0.00     0.022 C 
HETATM    3  C2  UNL     1      -3.669  48.740 -25.115  1.00  0.00    -0.084 C 
HETATM    4  C1  UNL     1      -4.998  48.547 -25.131  1.00  0.00     0.014 C 
HETATM    5  C3  UNL     1      -2.867  48.567 -26.379  1.00  0.00     0.034 C 
HETATM    6  C4  UNL     1      -2.161  49.873 -26.745  1.00  0.00     0.011 C 
HETATM    7  C5  UNL     1      -1.300  50.410 -25.577  1.00  0.00     0.012 C 
HETATM    8  C6  UNL     1      -2.144  50.586 -24.247  1.00  0.00    -0.032 C 
HETATM    9  C11 UNL     1      -0.361  51.616 -25.945  1.00  0.00     0.049 C 
HETATM   10  C7  UNL     1      -3.231  51.681 -24.370  1.00  0.00     0.016 C 
HETATM   11  C8  UNL     1      -1.170  50.981 -23.103  1.00  0.00     0.010 C 
HETATM   12  C9  UNL     1      -0.260  52.159 -23.432  1.00  0.00     0.002 C 
HETATM   13  C10 UNL     1       0.528  51.930 -24.714  1.00  0.00     0.020 C 
HETATM   14  C12 UNL     1       0.602  51.231 -27.096  1.00  0.00     0.026 C 
BRANCH   9  15
HETATM   15  C13 UNL     1      -1.123  52.846 -26.477  1.00  0.00     0.267 C 
HETATM   16  O1  UNL     1      -2.135  52.784 -27.165  1.00  0.00    -0.264 OA
BRANCH  15  17
HETATM   17  O2  UNL     1      -0.509  54.016 -26.151  1.00  0.00    -0.326 OA
HETATM   18  C14 UNL     1      -0.125  54.815 -27.271  1.00  0.00     0.213 C 
ENDBRANCH  15  17
ENDBRANCH   9  15
ENDBRANCH   1   2
BRANCH   1  19
HETATM   19  C17 UNL     1      -3.201  47.904 -21.675  1.00  0.00     0.042 C 
BRANCH  19  20
HETATM   20  C18 UNL     1      -3.785  47.959 -20.300  1.00  0.00    -0.024 A 
HETATM   21  C19 UNL     1      -3.144  48.307 -19.121  1.00  0.00     0.083 A 
HETATM   22  O5  UNL     1      -4.020  48.254 -18.075  1.00  0.00    -0.324 OA
HETATM   23  C28 UNL     1      -5.216  47.859 -18.573  1.00  0.00     0.143 A 
HETATM   24  C29 UNL     1      -5.129  47.663 -19.930  1.00  0.00     0.034 A 
BRANCH  21  25
HETATM   25  C20 UNL     1      -1.755  48.715 -18.791  1.00  0.00     0.244 C 
BRANCH  25  26
HETATM   26  O3  UNL     1      -1.533  50.012 -19.362  1.00  0.00    -0.311 OA
BRANCH  26  27
HETATM   27  C21 UNL     1      -1.722  51.060 -18.529  1.00  0.00     0.293 C 
HETATM   28  O4  UNL     1      -2.788  51.596 -18.265  1.00  0.00    -0.259 OA
BRANCH  27  29
HETATM   29  C22 UNL     1      -0.424  51.487 -17.937  1.00  0.00     0.039 A 
HETATM   30  C23 UNL     1       0.371  52.387 -18.661  1.00  0.00     0.019 A 
HETATM   31  C24 UNL     1       1.597  52.818 -18.145  1.00  0.00     0.025 A 
HETATM   32  C25 UNL     1       2.033  52.347 -16.908  1.00  0.00     0.034 A 
HETATM   33 CL1  UNL     1       3.541  52.877 -16.274  1.00  0.00    -0.084 Cl
HETATM   34  C26 UNL     1       1.253  51.448 -16.181  1.00  0.00     0.025 A 
HETATM   35  C27 UNL     1       0.026  51.016 -16.694  1.00  0.00     0.019 A 
ENDBRANCH  27  29
ENDBRANCH  26  27
ENDBRANCH  25  26
ENDBRANCH  21  25
ENDBRANCH  19  20
ENDBRANCH   1  19
TORSDOF 9
ENDMDL
MODEL 5
REMARK minimizedAffinity -9.02852249
REMARK  9 active torsions:
REMARK  status: ('A' for Active; 'I' for Inactive)
REMARK    1  A    between atoms: C11_11  and  C13_13 
REMARK    2  A    between atoms: C13_13  and  O2_15 
REMARK    3  A    between atoms: C15_17  and  C16_18 
REMARK    4  A    between atoms: C16_18  and  C17_19 
REMARK    5  A    between atoms: C17_19  and  C18_20 
REMARK    6  A    between atoms: C19_21  and  C20_22 
REMARK    7  A    between atoms: C20_22  and  O3_23 
REMARK    8  A    between atoms: O3_23  and  C21_24 
REMARK    9  A    between atoms: C21_24  and  C22_26 
ROOT
HETATM    1  C16 UNL     1      -3.745  48.585 -22.981  1.00  0.00     0.014 C 
ENDROOT
BRANCH   1   2
HETATM    2  C15 UNL     1      -3.105  48.796 -24.384  1.00  0.00     0.022 C 
HETATM    3  C2  UNL     1      -4.009  48.458 -25.572  1.00  0.00    -0.084 C 
HETATM    4  C1  UNL     1      -5.335  48.242 -25.532  1.00  0.00     0.014 C 
HETATM    5  C3  UNL     1      -3.280  48.431 -26.890  1.00  0.00     0.034 C 
HETATM    6  C4  UNL     1      -2.616  49.781 -27.159  1.00  0.00     0.011 C 
HETATM    7  C5  UNL     1      -1.695  50.213 -25.993  1.00  0.00     0.012 C 
HETATM    8  C6  UNL     1      -2.462  50.236 -24.606  1.00  0.00    -0.032 C 
HETATM    9  C11 UNL     1      -0.796  51.469 -26.287  1.00  0.00     0.049 C 
HETATM   10  C7  UNL     1      -3.569  51.316 -24.553  1.00  0.00     0.016 C 
HETATM   11  C8  UNL     1      -1.428  50.530 -23.484  1.00  0.00     0.010 C 
HETATM   12  C9  UNL     1      -0.555  51.754 -23.741  1.00  0.00     0.002 C 
HETATM   13  C10 UNL     1       0.160  51.673 -25.083  1.00  0.00     0.020 C 
HETATM   14  C12 UNL     1       0.103  51.223 -27.525  1.00  0.00     0.026 C 
BRANCH   9  15
HETATM   15  C13 UNL     1      -1.605  52.731 -26.646  1.00  0.00     0.267 C 
HETATM   16  O1  UNL     1      -2.705  52.999 -26.179  1.00  0.00    -0.264 OA
BRANCH  15  17
HETATM   17  O2  UNL     1      -0.988  53.490 -27.593  1.00  0.00    -0.326 OA
HETATM   18  C14 UNL     1      -0.258  54.603 -27.076  1.00  0.00     0.213 C 
ENDBRANCH  15  17
ENDBRANCH   9  15
ENDBRANCH   1   2
BRANCH   1  19
HETATM   19  C17 UNL     1      -2.951  47.659 -22.040  1.00  0.00     0.042 C 
BRANCH  19  20
HETATM   20  C18 UNL     1      -3.782  47.067 -20.947  1.00  0.00    -0.024 A 
HETATM   21  C19 UNL     1      -4.300  47.711 -19.834  1.00  0.00     0.083 A 
HETATM   22  O5  UNL     1      -5.020  46.834 -19.074  1.00  0.00    -0.324 OA
HETATM   23  C28 UNL     1      -4.955  45.627 -19.687  1.00  0.00     0.143 A 
HETATM   24  C29 UNL     1      -4.208  45.712 -20.836  1.00  0.00     0.034 A 
BRANCH  21  25
HETATM   25  C20 UNL     1      -4.232  49.108 -19.333  1.00  0.00     0.244 C 
BRANCH  25  26
HETATM   26  O3  UNL     1      -2.851  49.493 -19.298  1.00  0.00    -0.311 OA
BRANCH  26  27
HETATM   27  C21 UNL     1      -2.573  50.727 -19.774  1.00  0.00     0.293 C 
HETATM   28  O4  UNL     1      -3.218  51.348 -20.605  1.00  0.00    -0.259 OA
BRANCH  27  29
HETATM   29  C22 UNL     1      -1.346  51.265 -19.123  1.00  0.00     0.039 A 
HETATM   30  C23 UNL     1      -0.973  50.741 -17.877  1.00  0.00     0.019 A 
HETATM   31  C24 UNL     1       0.171  51.213 -17.228  1.00  0.00     0.025 A 
HETATM   32  C25 UNL     1       0.942  52.213 -17.819  1.00  0.00     0.034 A 
HETATM   33 CL1  UNL     1       2.350  52.794 -17.020  1.00  0.00    -0.084 Cl
HETATM   34  C26 UNL     1       0.578  52.745 -19.056  1.00  0.00     0.025 A 
HETATM   35  C27 UNL     1      -0.566  52.273 -19.708  1.00  0.00     0.019 A 
ENDBRANCH  27  29
ENDBRANCH  26  27
ENDBRANCH  25  26
ENDBRANCH  21  25
ENDBRANCH  19  20
ENDBRANCH   1  19
TORSDOF 9
ENDMDL
MODEL 6
REMARK minimizedAffinity -8.69937515
REMARK  9 active torsions:
REMARK  status: ('A' for Active; 'I' for Inactive)
REMARK    1  A    between atoms: C11_11  and  C13_13 
REMARK    2  A    between atoms: C13_13  and  O2_15 
REMARK    3  A    between atoms: C15_17  and  C16_18 
REMARK    4  A    between atoms: C16_18  and  C17_19 
REMARK    5  A    between atoms: C17_19  and  C18_20 
REMARK    6  A    between atoms: C19_21  and  C20_22 
REMARK    7  A    between atoms: C20_22  and  O3_23 
REMARK    8  A    between atoms: O3_23  and  C21_24 
REMARK    9  A    between atoms: C21_24  and  C22_26 
ROOT
HETATM    1  C16 UNL     1      -3.557  49.881 -22.431  1.00  0.00     0.014 C 
ENDROOT
BRANCH   1   2
HETATM    2  C15 UNL     1      -2.689  49.745 -23.715  1.00  0.00     0.022 C 
HETATM    3  C2  UNL     1      -3.422  49.206 -24.946  1.00  0.00    -0.084 C 
HETATM    4  C1  UNL     1      -4.751  49.074 -25.091  1.00  0.00     0.014 C 
HETATM    5  C3  UNL     1      -2.501  48.852 -26.084  1.00  0.00     0.034 C 
HETATM    6  C4  UNL     1      -1.684  50.072 -26.507  1.00  0.00     0.011 C 
HETATM    7  C5  UNL     1      -0.923  50.699 -25.315  1.00  0.00     0.012 C 
HETATM    8  C6  UNL     1      -1.893  51.065 -24.116  1.00  0.00    -0.032 C 
HETATM    9  C11 UNL     1       0.120  51.810 -25.703  1.00  0.00     0.049 C 
HETATM   10  C7  UNL     1      -2.894  52.189 -24.479  1.00  0.00     0.016 C 
HETATM   11  C8  UNL     1      -1.025  51.542 -22.918  1.00  0.00     0.010 C 
HETATM   12  C9  UNL     1      -0.017  52.631 -23.268  1.00  0.00     0.002 C 
HETATM   13  C10 UNL     1       0.889  52.220 -24.420  1.00  0.00     0.020 C 
HETATM   14  C12 UNL     1       1.176  51.251 -26.689  1.00  0.00     0.026 C 
BRANCH   9  15
HETATM   15  C13 UNL     1      -0.507  53.005 -26.448  1.00  0.00     0.267 C 
HETATM   16  O1  UNL     1      -1.685  53.071 -26.775  1.00  0.00    -0.264 OA
BRANCH  15  17
HETATM   17  O2  UNL     1       0.412  53.958 -26.762  1.00  0.00    -0.326 OA
HETATM   18  C14 UNL     1      -0.123  55.277 -26.891  1.00  0.00     0.213 C 
ENDBRANCH  15  17
ENDBRANCH   9  15
ENDBRANCH   1   2
BRANCH   1  19
HETATM   19  C17 UNL     1      -3.992  48.545 -21.799  1.00  0.00     0.042 C 
BRANCH  19  20
HETATM   20  C18 UNL     1      -5.078  48.693 -20.782  1.00  0.00    -0.024 A 
HETATM   21  C19 UNL     1      -5.020  48.386 -19.431  1.00  0.00     0.083 A 
HETATM   22  O5  UNL     1      -6.211  48.676 -18.830  1.00  0.00    -0.324 OA
HETATM   23  C28 UNL     1      -7.038  49.155 -19.791  1.00  0.00     0.143 A 
HETATM   24  C29 UNL     1      -6.396  49.185 -21.004  1.00  0.00     0.034 A 
BRANCH  21  25
HETATM   25  C20 UNL     1      -3.960  47.833 -18.550  1.00  0.00     0.244 C 
BRANCH  25  26
HETATM   26  O3  UNL     1      -3.024  48.886 -18.279  1.00  0.00    -0.311 OA
BRANCH  26  27
HETATM   27  C21 UNL     1      -1.786  48.718 -18.795  1.00  0.00     0.293 C 
HETATM   28  O4  UNL     1      -1.445  47.873 -19.608  1.00  0.00    -0.259 OA
BRANCH  27  29
HETATM   29  C22 UNL     1      -0.855  49.741 -18.242  1.00  0.00     0.039 A 
HETATM   30  C23 UNL     1      -0.246  49.483 -17.005  1.00  0.00     0.019 A 
HETATM   31  C24 UNL     1       0.635  50.412 -16.446  1.00  0.00     0.025 A 
HETATM   32  C25 UNL     1       0.907  51.603 -17.118  1.00  0.00     0.034 A 
HETATM   33 CL1  UNL     1       1.992  52.746 -16.430  1.00  0.00    -0.084 Cl
HETATM   34  C26 UNL     1       0.304  51.872 -18.346  1.00  0.00     0.025 A 
HETATM   35  C27 UNL     1      -0.578  50.944 -18.908  1.00  0.00     0.019 A 
ENDBRANCH  27  29
ENDBRANCH  26  27
ENDBRANCH  25  26
ENDBRANCH  21  25
ENDBRANCH  19  20
ENDBRANCH   1  19
TORSDOF 9
ENDMDL
MODEL 7
REMARK minimizedAffinity -8.63346577
REMARK  9 active torsions:
REMARK  status: ('A' for Active; 'I' for Inactive)
REMARK    1  A    between atoms: C11_11  and  C13_13 
REMARK    2  A    between atoms: C13_13  and  O2_15 
REMARK    3  A    between atoms: C15_17  and  C16_18 
REMARK    4  A    between atoms: C16_18  and  C17_19 
REMARK    5  A    between atoms: C17_19  and  C18_20 
REMARK    6  A    between atoms: C19_21  and  C20_22 
REMARK    7  A    between atoms: C20_22  and  O3_23 
REMARK    8  A    between atoms: O3_23  and  C21_24 
REMARK    9  A    between atoms: C21_24  and  C22_26 
ROOT
HETATM    1  C16 UNL     1      -1.053  50.462 -22.512  1.00  0.00     0.014 C 
ENDROOT
BRANCH   1   2
HETATM    2  C15 UNL     1      -2.026  49.248 -22.469  1.00  0.00     0.022 C 
HETATM    3  C2  UNL     1      -1.737  48.218 -21.375  1.00  0.00    -0.084 C 
HETATM    4  C1  UNL     1      -0.908  48.373 -20.329  1.00  0.00     0.014 C 
HETATM    5  C3  UNL     1      -2.532  46.947 -21.525  1.00  0.00     0.034 C 
HETATM    6  C4  UNL     1      -4.030  47.252 -21.516  1.00  0.00     0.011 C 
HETATM    7  C5  UNL     1      -4.410  48.306 -22.582  1.00  0.00     0.012 C 
HETATM    8  C6  UNL     1      -3.569  49.640 -22.427  1.00  0.00    -0.032 C 
HETATM    9  C11 UNL     1      -5.955  48.504 -22.799  1.00  0.00     0.049 C 
HETATM   10  C7  UNL     1      -3.880  50.393 -21.111  1.00  0.00     0.016 C 
HETATM   11  C8  UNL     1      -3.910  50.572 -23.623  1.00  0.00     0.010 C 
HETATM   12  C9  UNL     1      -5.402  50.790 -23.842  1.00  0.00     0.002 C 
HETATM   13  C10 UNL     1      -6.156  49.476 -23.990  1.00  0.00     0.020 C 
HETATM   14  C12 UNL     1      -6.629  47.169 -23.202  1.00  0.00     0.026 C 
BRANCH   9  15
HETATM   15  C13 UNL     1      -6.702  48.941 -21.522  1.00  0.00     0.267 C 
HETATM   16  O1  UNL     1      -6.923  50.106 -21.219  1.00  0.00    -0.264 OA
BRANCH  15  17
HETATM   17  O2  UNL     1      -7.034  47.884 -20.731  1.00  0.00    -0.326 OA
HETATM   18  C14 UNL     1      -8.182  48.099 -19.909  1.00  0.00     0.213 C 
ENDBRANCH  15  17
ENDBRANCH   9  15
ENDBRANCH   1   2
BRANCH   1  19
HETATM   19  C17 UNL     1      -1.368  51.580 -21.500  1.00  0.00     0.042 C 
BRANCH  19  20
HETATM   20  C18 UNL     1      -0.253  52.561 -21.331  1.00  0.00    -0.024 A 
HETATM   21  C19 UNL     1       0.633  53.012 -22.298  1.00  0.00     0.083 A 
HETATM   22  O5  UNL     1       1.499  53.919 -21.758  1.00  0.00    -0.324 OA
HETATM   23  C28 UNL     1       1.184  54.042 -20.446  1.00  0.00     0.143 A 
HETATM   24  C29 UNL     1       0.121  53.232 -20.131  1.00  0.00     0.034 A 
BRANCH  21  25
HETATM   25  C20 UNL     1       0.809  52.718 -23.743  1.00  0.00     0.244 C 
BRANCH  25  26
HETATM   26  O3  UNL     1      -0.284  53.321 -24.448  1.00  0.00    -0.311 OA
BRANCH  26  27
HETATM   27  C21 UNL     1      -0.259  53.188 -25.793  1.00  0.00     0.293 C 
HETATM   28  O4  UNL     1       0.379  53.871 -26.580  1.00  0.00    -0.259 OA
BRANCH  27  29
HETATM   29  C22 UNL     1      -1.125  52.052 -26.214  1.00  0.00     0.039 A 
HETATM   30  C23 UNL     1      -2.329  52.344 -26.872  1.00  0.00     0.019 A 
HETATM   31  C24 UNL     1      -3.174  51.312 -27.287  1.00  0.00     0.025 A 
HETATM   32  C25 UNL     1      -2.822  49.985 -27.043  1.00  0.00     0.034 A 
HETATM   33 CL1  UNL     1      -3.862  48.715 -27.553  1.00  0.00    -0.084 Cl
HETATM   34  C26 UNL     1      -1.630  49.682 -26.385  1.00  0.00     0.025 A 
HETATM   35  C27 UNL     1      -0.782  50.714 -25.969  1.00  0.00     0.019 A 
ENDBRANCH  27  29
ENDBRANCH  26  27
ENDBRANCH  25  26
ENDBRANCH  21  25
ENDBRANCH  19  20
ENDBRANCH   1  19
TORSDOF 9
ENDMDL
MODEL 8
REMARK minimizedAffinity -8.62065601
REMARK  9 active torsions:
REMARK  status: ('A' for Active; 'I' for Inactive)
REMARK    1  A    between atoms: C11_11  and  C13_13 
REMARK    2  A    between atoms: C13_13  and  O2_15 
REMARK    3  A    between atoms: C15_17  and  C16_18 
REMARK    4  A    between atoms: C16_18  and  C17_19 
REMARK    5  A    between atoms: C17_19  and  C18_20 
REMARK    6  A    between atoms: C19_21  and  C20_22 
REMARK    7  A    between atoms: C20_22  and  O3_23 
REMARK    8  A    between atoms: O3_23  and  C21_24 
REMARK    9  A    between atoms: C21_24  and  C22_26 
ROOT
HETATM    1  C16 UNL     1      -3.655  48.825 -22.954  1.00  0.00     0.014 C 
ENDROOT
BRANCH   1   2
HETATM    2  C15 UNL     1      -2.971  48.988 -24.342  1.00  0.00     0.022 C 
HETATM    3  C2  UNL     1      -3.848  48.641 -25.548  1.00  0.00    -0.084 C 
HETATM    4  C1  UNL     1      -5.179  48.454 -25.541  1.00  0.00     0.014 C 
HETATM    5  C3  UNL     1      -3.083  48.566 -26.843  1.00  0.00     0.034 C 
HETATM    6  C4  UNL     1      -2.381  49.894 -27.124  1.00  0.00     0.011 C 
HETATM    7  C5  UNL     1      -1.484  50.334 -25.943  1.00  0.00     0.012 C 
HETATM    8  C6  UNL     1      -2.290  50.407 -24.580  1.00  0.00    -0.032 C 
HETATM    9  C11 UNL     1      -0.549  51.563 -26.241  1.00  0.00     0.049 C 
HETATM   10  C7  UNL     1      -3.374  51.512 -24.585  1.00  0.00     0.016 C 
HETATM   11  C8  UNL     1      -1.282  50.707 -23.436  1.00  0.00     0.010 C 
HETATM   12  C9  UNL     1      -0.375  51.905 -23.696  1.00  0.00     0.002 C 
HETATM   13  C10 UNL     1       0.376  51.776 -25.014  1.00  0.00     0.020 C 
HETATM   14  C12 UNL     1       0.379  51.268 -27.445  1.00  0.00     0.026 C 
BRANCH   9  15
HETATM   15  C13 UNL     1      -1.320  52.834 -26.652  1.00  0.00     0.267 C 
HETATM   16  O1  UNL     1      -2.375  52.828 -27.272  1.00  0.00    -0.264 OA
BRANCH  15  17
HETATM   17  O2  UNL     1      -0.661  53.973 -26.304  1.00  0.00    -0.326 OA
HETATM   18  C14 UNL     1      -0.186  54.743 -27.410  1.00  0.00     0.213 C 
ENDBRANCH  15  17
ENDBRANCH   9  15
ENDBRANCH   1   2
BRANCH   1  19
HETATM   19  C17 UNL     1      -2.990  47.795 -22.021  1.00  0.00     0.042 C 
BRANCH  19  20
HETATM   20  C18 UNL     1      -2.393  48.402 -20.792  1.00  0.00    -0.024 A 
HETATM   21  C19 UNL     1      -3.015  49.230 -19.869  1.00  0.00     0.083 A 
HETATM   22  O5  UNL     1      -2.143  49.565 -18.874  1.00  0.00    -0.324 OA
HETATM   23  C28 UNL     1      -0.960  48.968 -19.160  1.00  0.00     0.143 A 
HETATM   24  C29 UNL     1      -1.057  48.246 -20.324  1.00  0.00     0.034 A 
BRANCH  21  25
HETATM   25  C20 UNL     1      -4.385  49.792 -19.756  1.00  0.00     0.244 C 
BRANCH  25  26
HETATM   26  O3  UNL     1      -5.314  48.706 -19.876  1.00  0.00    -0.311 OA
BRANCH  26  27
HETATM   27  C21 UNL     1      -5.902  48.305 -18.727  1.00  0.00     0.293 C 
HETATM   28  O4  UNL     1      -5.336  48.007 -17.686  1.00  0.00    -0.259 OA
BRANCH  27  29
HETATM   29  C22 UNL     1      -7.382  48.289 -18.885  1.00  0.00     0.039 A 
HETATM   30  C23 UNL     1      -7.914  47.829 -20.099  1.00  0.00     0.019 A 
HETATM   31  C24 UNL     1      -9.298  47.793 -20.294  1.00  0.00     0.025 A 
HETATM   32  C25 UNL     1     -10.153  48.221 -19.279  1.00  0.00     0.034 A 
HETATM   33 CL1  UNL     1     -11.855  48.177 -19.520  1.00  0.00    -0.084 Cl
HETATM   34  C26 UNL     1      -9.636  48.685 -18.070  1.00  0.00     0.025 A 
HETATM   35  C27 UNL     1      -8.252  48.720 -17.872  1.00  0.00     0.019 A 
ENDBRANCH  27  29
ENDBRANCH  26  27
ENDBRANCH  25  26
ENDBRANCH  21  25
ENDBRANCH  19  20
ENDBRANCH   1  19
TORSDOF 9
ENDMDL
MODEL 9
REMARK minimizedAffinity -8.50355434
REMARK  9 active torsions:
REMARK  status: ('A' for Active; 'I' for Inactive)
REMARK    1  A    between atoms: C11_11  and  C13_13 
REMARK    2  A    between atoms: C13_13  and  O2_15 
REMARK    3  A    between atoms: C15_17  and  C16_18 
REMARK    4  A    between atoms: C16_18  and  C17_19 
REMARK    5  A    between atoms: C17_19  and  C18_20 
REMARK    6  A    between atoms: C19_21  and  C20_22 
REMARK    7  A    between atoms: C20_22  and  O3_23 
REMARK    8  A    between atoms: O3_23  and  C21_24 
REMARK    9  A    between atoms: C21_24  and  C22_26 
ROOT
HETATM    1  C16 UNL     1      -0.842  51.652 -21.325  1.00  0.00     0.014 C 
ENDROOT
BRANCH   1   2
HETATM    2  C15 UNL     1      -0.041  51.555 -19.995  1.00  0.00     0.022 C 
HETATM    3  C2  UNL     1       0.621  52.856 -19.534  1.00  0.00    -0.084 C 
HETATM    4  C1  UNL     1       0.383  54.088 -20.015  1.00  0.00     0.014 C 
HETATM    5  C3  UNL     1       1.586  52.665 -18.393  1.00  0.00     0.034 C 
HETATM    6  C4  UNL     1       0.876  52.035 -17.195  1.00  0.00     0.011 C 
HETATM    7  C5  UNL     1       0.159  50.719 -17.576  1.00  0.00     0.012 C 
HETATM    8  C6  UNL     1      -0.852  50.920 -18.780  1.00  0.00    -0.032 C 
HETATM    9  C11 UNL     1      -0.396  49.889 -16.361  1.00  0.00     0.049 C 
HETATM   10  C7  UNL     1      -2.044  51.837 -18.413  1.00  0.00     0.016 C 
HETATM   11  C8  UNL     1      -1.407  49.527 -19.187  1.00  0.00     0.010 C 
HETATM   12  C9  UNL     1      -1.964  48.710 -18.027  1.00  0.00     0.002 C 
HETATM   13  C10 UNL     1      -0.948  48.545 -16.905  1.00  0.00     0.020 C 
HETATM   14  C12 UNL     1       0.744  49.529 -15.376  1.00  0.00     0.026 C 
BRANCH   9  15
HETATM   15  C13 UNL     1      -1.415  50.665 -15.503  1.00  0.00     0.267 C 
HETATM   16  O1  UNL     1      -2.629  50.593 -15.642  1.00  0.00    -0.264 OA
BRANCH  15  17
HETATM   17  O2  UNL     1      -0.811  51.495 -14.608  1.00  0.00    -0.326 OA
HETATM   18  C14 UNL     1      -1.568  51.735 -13.421  1.00  0.00     0.213 C 
ENDBRANCH  15  17
ENDBRANCH   9  15
ENDBRANCH   1   2
BRANCH   1  19
HETATM   19  C17 UNL     1      -0.028  51.338 -22.595  1.00  0.00     0.042 C 
BRANCH  19  20
HETATM   20  C18 UNL     1      -0.225  52.337 -23.690  1.00  0.00    -0.024 A 
HETATM   21  C19 UNL     1      -1.357  52.529 -24.468  1.00  0.00     0.083 A 
HETATM   22  O5  UNL     1      -1.154  53.550 -25.351  1.00  0.00    -0.324 OA
HETATM   23  C28 UNL     1       0.107  54.005 -25.155  1.00  0.00     0.143 A 
HETATM   24  C29 UNL     1       0.721  53.297 -24.152  1.00  0.00     0.034 A 
BRANCH  21  25
HETATM   25  C20 UNL     1      -2.689  51.874 -24.518  1.00  0.00     0.244 C 
BRANCH  25  26
HETATM   26  O3  UNL     1      -2.477  50.457 -24.572  1.00  0.00    -0.311 OA
BRANCH  26  27
HETATM   27  C21 UNL     1      -2.337  49.931 -25.810  1.00  0.00     0.293 C 
HETATM   28  O4  UNL     1      -1.358  50.026 -26.534  1.00  0.00    -0.259 OA
BRANCH  27  29
HETATM   29  C22 UNL     1      -3.563  49.176 -26.190  1.00  0.00     0.039 A 
HETATM   30  C23 UNL     1      -3.744  48.842 -27.540  1.00  0.00     0.019 A 
HETATM   31  C24 UNL     1      -4.878  48.134 -27.945  1.00  0.00     0.025 A 
HETATM   32  C25 UNL     1      -5.836  47.760 -27.004  1.00  0.00     0.034 A 
HETATM   33 CL1  UNL     1      -7.232  46.889 -27.503  1.00  0.00    -0.084 Cl
HETATM   34  C26 UNL     1      -5.670  48.091 -25.659  1.00  0.00     0.025 A 
HETATM   35  C27 UNL     1      -4.535  48.800 -25.252  1.00  0.00     0.019 A 
ENDBRANCH  27  29
ENDBRANCH  26  27
ENDBRANCH  25  26
ENDBRANCH  21  25
ENDBRANCH  19  20
ENDBRANCH   1  19
TORSDOF 9
ENDMDL
