MODEL 1
REMARK minimizedAffinity -7.4666934
REMARK CNNscore 0.673579276
REMARK CNNaffinity 6.84468508
REMARK  11 active torsions:
REMARK  status: ('A' for Active; 'I' for Inactive)
REMARK    1  A    between atoms: C2_2  and  C3_3 
REMARK    2  A    between atoms: C3_3  and  C4_4 
REMARK    3  A    between atoms: C4_4  and  C6_6 
REMARK    4  A    between atoms: C9_9  and  O1_10 
REMARK    5  A    between atoms: C15_16  and  O2_17 
REMARK    6  A    between atoms: O2_17  and  C16_18 
REMARK    7  A    between atoms: C17_20  and  C18_21 
REMARK    8  A    between atoms: C18_21  and  O4_22 
REMARK    9  A    between atoms: C19_23  and  O5_24 
REMARK   10  A    between atoms: C20_25  and  O6_26 
REMARK   11  A    between atoms: C21_27  and  O7_28 
ROOT
HETATM    1  C6  UNL     1      -7.182   4.842  14.547  1.00  0.00     0.000 C 
HETATM    2  C7  UNL     1      -8.180   5.533  15.520  1.00  0.00     0.009 C 
HETATM    3  C8  UNL     1      -7.478   6.759  16.131  1.00  0.00     0.039 C 
HETATM    4  C9  UNL     1      -6.026   6.596  15.702  1.00  0.00     0.070 C 
HETATM    5  C10 UNL     1      -5.076   7.798  15.862  1.00  0.00     0.030 C 
HETATM    6  C11 UNL     1      -5.595   9.178  15.445  1.00  0.00     0.009 C 
HETATM    7  C12 UNL     1      -4.575  10.311  15.657  1.00  0.00     0.006 C 
HETATM    8  C13 UNL     1      -3.180   9.869  16.149  1.00  0.00    -0.003 C 
HETATM    9  C14 UNL     1      -2.164  11.014  16.068  1.00  0.00     0.037 C 
HETATM   10  C15 UNL     1      -1.860  11.447  14.626  1.00  0.00     0.125 C 
HETATM   11  C22 UNL     1      -1.796  10.258  13.654  1.00  0.00     0.033 C 
HETATM   12  C23 UNL     1      -1.578   8.928  14.369  1.00  0.00     0.013 C 
HETATM   13  C24 UNL     1      -2.677   8.643  15.382  1.00  0.00    -0.028 A 
HETATM   14  C25 UNL     1      -2.532   7.335  16.132  1.00  0.00     0.021 A 
HETATM   15  C26 UNL     1      -3.711   7.516  15.204  1.00  0.00    -0.025 A 
HETATM   16  C27 UNL     1      -3.724   6.721  13.904  1.00  0.00     0.012 C 
HETATM   17  C28 UNL     1      -4.723   5.551  13.865  1.00  0.00     0.013 C 
HETATM   18  C29 UNL     1      -6.144   5.991  14.269  1.00  0.00    -0.009 C 
HETATM   19  C30 UNL     1      -6.711   6.949  13.194  1.00  0.00     0.019 C 
ENDROOT
BRANCH  10  20
HETATM   20  O2  UNL     1      -0.603  12.137  14.663  1.00  0.00    -0.353 OA
BRANCH  20  21
HETATM   21  C16 UNL     1      -0.736  13.572  14.641  1.00  0.00     0.292 C 
HETATM   22  O3  UNL     1      -1.174  13.991  13.351  1.00  0.00    -0.348 OA
HETATM   23  C17 UNL     1      -0.762  15.300  12.933  1.00  0.00     0.179 C 
HETATM   24  C19 UNL     1       0.778  15.447  12.917  1.00  0.00     0.180 C 
HETATM   25  C20 UNL     1       1.468  14.402  13.803  1.00  0.00     0.183 C 
HETATM   26  C21 UNL     1       0.642  14.140  15.052  1.00  0.00     0.204 C 
BRANCH  23  27
HETATM   27  C18 UNL     1      -1.480  16.380  13.765  1.00  0.00     0.198 C 
BRANCH  27  28
HETATM   28  O4  UNL     1      -0.583  17.389  14.199  1.00  0.00    -0.398 OA
HETATM   29  H31 UNL     1      -1.109  18.091  14.619  1.00  0.00     0.209 HD
ENDBRANCH  27  28
ENDBRANCH  23  27
BRANCH  24  30
HETATM   30  O5  UNL     1       1.280  15.263  11.578  1.00  0.00    -0.390 OA
HETATM   31  H33 UNL     1       2.250  15.343  11.648  1.00  0.00     0.210 HD
ENDBRANCH  24  30
BRANCH  25  32
HETATM   32  O6  UNL     1       2.775  14.881  14.164  1.00  0.00    -0.390 OA
HETATM   33  H35 UNL     1       3.041  14.341  14.935  1.00  0.00     0.210 HD
ENDBRANCH  25  32
BRANCH  26  34
HETATM   34  O7  UNL     1       1.359  13.245  15.921  1.00  0.00    -0.388 OA
HETATM   35  H37 UNL     1       1.057  12.349  15.657  1.00  0.00     0.210 HD
ENDBRANCH  26  34
ENDBRANCH  20  21
ENDBRANCH  10  20
BRANCH   4  36
HETATM   36  O1  UNL     1      -5.487   5.565  16.579  1.00  0.00    -0.389 OA
HETATM   37  H17 UNL     1      -5.439   5.926  17.481  1.00  0.00     0.210 HD
ENDBRANCH   4  36
BRANCH   1  38
HETATM   38  C4  UNL     1      -7.896   4.122  13.361  1.00  0.00    -0.014 C 
HETATM   39  C5  UNL     1      -7.920   5.002  12.101  1.00  0.00     0.010 C 
BRANCH  38  40
HETATM   40  C3  UNL     1      -7.208   2.781  12.967  1.00  0.00     0.004 C 
BRANCH  40  41
HETATM   41  C2  UNL     1      -6.144   2.817  11.864  1.00  0.00    -0.004 C 
HETATM   42  C1  UNL     1      -5.903   1.473  11.192  1.00  0.00     0.005 C 
ENDBRANCH  40  41
ENDBRANCH  38  40
ENDBRANCH   1  38
TORSDOF 11
ENDMDL
MODEL 2
REMARK minimizedAffinity -7.85097361
REMARK CNNscore 0.562939584
REMARK CNNaffinity 6.97459555
REMARK  11 active torsions:
REMARK  status: ('A' for Active; 'I' for Inactive)
REMARK    1  A    between atoms: C2_2  and  C3_3 
REMARK    2  A    between atoms: C3_3  and  C4_4 
REMARK    3  A    between atoms: C4_4  and  C6_6 
REMARK    4  A    between atoms: C9_9  and  O1_10 
REMARK    5  A    between atoms: C15_16  and  O2_17 
REMARK    6  A    between atoms: O2_17  and  C16_18 
REMARK    7  A    between atoms: C17_20  and  C18_21 
REMARK    8  A    between atoms: C18_21  and  O4_22 
REMARK    9  A    between atoms: C19_23  and  O5_24 
REMARK   10  A    between atoms: C20_25  and  O6_26 
REMARK   11  A    between atoms: C21_27  and  O7_28 
ROOT
HETATM    1  C6  UNL     1      -3.348   7.027  14.657  1.00  0.00     0.000 C 
HETATM    2  C7  UNL     1      -3.438   5.605  14.031  1.00  0.00     0.009 C 
HETATM    3  C8  UNL     1      -4.924   5.212  13.954  1.00  0.00     0.039 C 
HETATM    4  C9  UNL     1      -5.627   6.290  14.767  1.00  0.00     0.070 C 
HETATM    5  C10 UNL     1      -7.159   6.409  14.656  1.00  0.00     0.030 C 
HETATM    6  C11 UNL     1      -7.783   6.313  13.261  1.00  0.00     0.009 C 
HETATM    7  C12 UNL     1      -9.318   6.431  13.261  1.00  0.00     0.006 C 
HETATM    8  C13 UNL     1      -9.964   6.725  14.632  1.00  0.00    -0.003 C 
HETATM    9  C14 UNL     1     -11.445   7.092  14.492  1.00  0.00     0.037 C 
HETATM   10  C15 UNL     1     -11.667   8.421  13.753  1.00  0.00     0.125 C 
HETATM   11  C22 UNL     1     -10.617   9.482  14.120  1.00  0.00     0.033 C 
HETATM   12  C23 UNL     1      -9.902   9.169  15.431  1.00  0.00     0.013 C 
HETATM   13  C24 UNL     1      -9.204   7.818  15.387  1.00  0.00    -0.028 A 
HETATM   14  C25 UNL     1      -8.466   7.438  16.654  1.00  0.00     0.021 A 
HETATM   15  C26 UNL     1      -7.671   7.665  15.389  1.00  0.00    -0.025 A 
HETATM   16  C27 UNL     1      -6.802   8.913  15.307  1.00  0.00     0.012 C 
HETATM   17  C28 UNL     1      -5.288   8.661  15.422  1.00  0.00     0.013 C 
HETATM   18  C29 UNL     1      -4.807   7.577  14.438  1.00  0.00    -0.009 C 
HETATM   19  C30 UNL     1      -4.950   8.096  12.988  1.00  0.00     0.019 C 
ENDROOT
BRANCH  10  20
HETATM   20  O2  UNL     1     -12.983   8.870  14.108  1.00  0.00    -0.353 OA
BRANCH  20  21
HETATM   21  C16 UNL     1     -13.288  10.192  13.621  1.00  0.00     0.292 C 
HETATM   22  O3  UNL     1     -13.565  11.054  14.721  1.00  0.00    -0.348 OA
HETATM   23  C17 UNL     1     -14.469  12.139  14.468  1.00  0.00     0.179 C 
HETATM   24  C19 UNL     1     -15.848  11.643  13.970  1.00  0.00     0.180 C 
HETATM   25  C20 UNL     1     -15.776  10.226  13.387  1.00  0.00     0.183 C 
HETATM   26  C21 UNL     1     -14.469  10.028  12.637  1.00  0.00     0.204 C 
BRANCH  23  27
HETATM   27  C18 UNL     1     -13.812  13.179  13.540  1.00  0.00     0.198 C 
BRANCH  27  28
HETATM   28  O4  UNL     1     -13.490  12.623  12.275  1.00  0.00    -0.398 OA
HETATM   29  H31 UNL     1     -13.185  13.348  11.703  1.00  0.00     0.209 HD
ENDBRANCH  27  28
ENDBRANCH  23  27
BRANCH  24  30
HETATM   30  O5  UNL     1     -16.784  11.602  15.065  1.00  0.00    -0.390 OA
HETATM   31  H33 UNL     1     -17.616  11.259  14.687  1.00  0.00     0.210 HD
ENDBRANCH  24  30
BRANCH  25  32
HETATM   32  O6  UNL     1     -16.892  10.025  12.502  1.00  0.00    -0.390 OA
HETATM   33  H35 UNL     1     -16.646   9.253  11.954  1.00  0.00     0.210 HD
ENDBRANCH  25  32
BRANCH  26  34
HETATM   34  O7  UNL     1     -14.471   8.737  12.004  1.00  0.00    -0.388 OA
HETATM   35  H37 UNL     1     -14.063   8.136  12.665  1.00  0.00     0.210 HD
ENDBRANCH  26  34
ENDBRANCH  20  21
ENDBRANCH  10  20
BRANCH   4  36
HETATM   36  O1  UNL     1      -5.371   5.941  16.158  1.00  0.00    -0.389 OA
HETATM   37  H17 UNL     1      -5.856   5.123  16.361  1.00  0.00     0.210 HD
ENDBRANCH   4  36
BRANCH   1  38
HETATM   38  C4  UNL     1      -2.117   7.836  14.143  1.00  0.00    -0.014 C 
HETATM   39  C5  UNL     1      -1.270   8.372  15.307  1.00  0.00     0.010 C 
BRANCH  38  40
HETATM   40  C3  UNL     1      -1.171   6.986  13.244  1.00  0.00     0.004 C 
BRANCH  40  41
HETATM   41  C2  UNL     1       0.111   6.431  13.875  1.00  0.00    -0.004 C 
HETATM   42  C1  UNL     1       1.344   6.563  12.992  1.00  0.00     0.005 C 
ENDBRANCH  40  41
ENDBRANCH  38  40
ENDBRANCH   1  38
TORSDOF 11
ENDMDL
MODEL 3
REMARK minimizedAffinity -6.76001644
REMARK CNNscore 0.534920454
REMARK CNNaffinity 6.6261363
REMARK  11 active torsions:
REMARK  status: ('A' for Active; 'I' for Inactive)
REMARK    1  A    between atoms: C2_2  and  C3_3 
REMARK    2  A    between atoms: C3_3  and  C4_4 
REMARK    3  A    between atoms: C4_4  and  C6_6 
REMARK    4  A    between atoms: C9_9  and  O1_10 
REMARK    5  A    between atoms: C15_16  and  O2_17 
REMARK    6  A    between atoms: O2_17  and  C16_18 
REMARK    7  A    between atoms: C17_20  and  C18_21 
REMARK    8  A    between atoms: C18_21  and  O4_22 
REMARK    9  A    between atoms: C19_23  and  O5_24 
REMARK   10  A    between atoms: C20_25  and  O6_26 
REMARK   11  A    between atoms: C21_27  and  O7_28 
ROOT
HETATM    1  C6  UNL     1      -5.828   5.321  14.391  1.00  0.00     0.000 C 
HETATM    2  C7  UNL     1      -6.711   4.213  13.747  1.00  0.00     0.009 C 
HETATM    3  C8  UNL     1      -8.179   4.670  13.825  1.00  0.00     0.039 C 
HETATM    4  C9  UNL     1      -8.131   5.890  14.734  1.00  0.00     0.070 C 
HETATM    5  C10 UNL     1      -9.367   6.807  14.794  1.00  0.00     0.030 C 
HETATM    6  C11 UNL     1     -10.058   7.163  13.474  1.00  0.00     0.009 C 
HETATM    7  C12 UNL     1     -11.288   8.071  13.645  1.00  0.00     0.006 C 
HETATM    8  C13 UNL     1     -11.565   8.555  15.084  1.00  0.00    -0.003 C 
HETATM    9  C14 UNL     1     -12.629   9.658  15.115  1.00  0.00     0.037 C 
HETATM   10  C15 UNL     1     -12.168  10.957  14.435  1.00  0.00     0.125 C 
HETATM   11  C22 UNL     1     -10.689  11.272  14.708  1.00  0.00     0.033 C 
HETATM   12  C23 UNL     1     -10.146  10.530  15.926  1.00  0.00     0.013 C 
HETATM   13  C24 UNL     1     -10.281   9.022  15.776  1.00  0.00    -0.028 A 
HETATM   14  C25 UNL     1      -9.759   8.213  16.946  1.00  0.00     0.021 A 
HETATM   15  C26 UNL     1      -9.071   8.084  15.606  1.00  0.00    -0.025 A 
HETATM   16  C27 UNL     1      -7.681   8.688  15.458  1.00  0.00     0.012 C 
HETATM   17  C28 UNL     1      -6.530   7.667  15.400  1.00  0.00     0.013 C 
HETATM   18  C29 UNL     1      -6.782   6.571  14.346  1.00  0.00    -0.009 C 
HETATM   19  C30 UNL     1      -6.743   7.198  12.931  1.00  0.00     0.019 C 
ENDROOT
BRANCH  10  20
HETATM   20  O2  UNL     1     -13.009  12.003  14.942  1.00  0.00    -0.353 OA
BRANCH  20  21
HETATM   21  C16 UNL     1     -12.810  13.268  14.280  1.00  0.00     0.292 C 
HETATM   22  O3  UNL     1     -13.357  14.314  15.078  1.00  0.00    -0.348 OA
HETATM   23  C17 UNL     1     -13.833  15.470  14.373  1.00  0.00     0.179 C 
HETATM   24  C19 UNL     1     -14.933  15.111  13.345  1.00  0.00     0.180 C 
HETATM   25  C20 UNL     1     -14.898  13.629  12.955  1.00  0.00     0.183 C 
HETATM   26  C21 UNL     1     -13.463  13.134  12.885  1.00  0.00     0.204 C 
BRANCH  23  27
HETATM   27  C18 UNL     1     -12.652  16.255  13.770  1.00  0.00     0.198 C 
BRANCH  27  28
HETATM   28  O4  UNL     1     -11.730  16.663  14.769  1.00  0.00    -0.398 OA
HETATM   29  H31 UNL     1     -10.960  17.051  14.319  1.00  0.00     0.209 HD
ENDBRANCH  27  28
ENDBRANCH  23  27
BRANCH  24  30
HETATM   30  O5  UNL     1     -16.236  15.371  13.905  1.00  0.00    -0.390 OA
HETATM   31  H33 UNL     1     -16.875  15.100  13.219  1.00  0.00     0.210 HD
ENDBRANCH  24  30
BRANCH  25  32
HETATM   32  O6  UNL     1     -15.543  13.464  11.680  1.00  0.00    -0.390 OA
HETATM   33  H35 UNL     1     -15.242  12.592  11.354  1.00  0.00     0.210 HD
ENDBRANCH  25  32
BRANCH  26  34
HETATM   34  O7  UNL     1     -13.447  11.777  12.409  1.00  0.00    -0.388 OA
HETATM   35  H37 UNL     1     -13.488  11.228  13.222  1.00  0.00     0.210 HD
ENDBRANCH  26  34
ENDBRANCH  20  21
ENDBRANCH  10  20
BRANCH   4  36
HETATM   36  O1  UNL     1      -7.989   5.353  16.080  1.00  0.00    -0.389 OA
HETATM   37  H17 UNL     1      -8.817   4.900  16.317  1.00  0.00     0.210 HD
ENDBRANCH   4  36
BRANCH   1  38
HETATM   38  C4  UNL     1      -4.402   5.396  13.763  1.00  0.00    -0.014 C 
HETATM   39  C5  UNL     1      -3.387   6.007  14.743  1.00  0.00     0.010 C 
BRANCH  38  40
HETATM   40  C3  UNL     1      -3.851   3.999  13.350  1.00  0.00     0.004 C 
BRANCH  40  41
HETATM   41  C2  UNL     1      -3.699   3.701  11.854  1.00  0.00    -0.004 C 
HETATM   42  C1  UNL     1      -2.254   3.626  11.381  1.00  0.00     0.005 C 
ENDBRANCH  40  41
ENDBRANCH  38  40
ENDBRANCH   1  38
TORSDOF 11
ENDMDL
MODEL 4
REMARK minimizedAffinity -9.27553463
REMARK CNNscore 0.516992629
REMARK CNNaffinity 6.98841333
REMARK  11 active torsions:
REMARK  status: ('A' for Active; 'I' for Inactive)
REMARK    1  A    between atoms: C2_2  and  C3_3 
REMARK    2  A    between atoms: C3_3  and  C4_4 
REMARK    3  A    between atoms: C4_4  and  C6_6 
REMARK    4  A    between atoms: C9_9  and  O1_10 
REMARK    5  A    between atoms: C15_16  and  O2_17 
REMARK    6  A    between atoms: O2_17  and  C16_18 
REMARK    7  A    between atoms: C17_20  and  C18_21 
REMARK    8  A    between atoms: C18_21  and  O4_22 
REMARK    9  A    between atoms: C19_23  and  O5_24 
REMARK   10  A    between atoms: C20_25  and  O6_26 
REMARK   11  A    between atoms: C21_27  and  O7_28 
ROOT
HETATM    1  C6  UNL     1      -6.776   6.488  14.649  1.00  0.00     0.000 C 
HETATM    2  C7  UNL     1      -6.901   7.725  15.585  1.00  0.00     0.009 C 
HETATM    3  C8  UNL     1      -5.486   8.279  15.834  1.00  0.00     0.039 C 
HETATM    4  C9  UNL     1      -4.571   7.207  15.258  1.00  0.00     0.070 C 
HETATM    5  C10 UNL     1      -3.086   7.552  15.041  1.00  0.00     0.030 C 
HETATM    6  C11 UNL     1      -2.751   8.914  14.425  1.00  0.00     0.009 C 
HETATM    7  C12 UNL     1      -1.242   9.165  14.263  1.00  0.00     0.006 C 
HETATM    8  C13 UNL     1      -0.324   7.984  14.644  1.00  0.00    -0.003 C 
HETATM    9  C14 UNL     1       1.122   8.225  14.197  1.00  0.00     0.037 C 
HETATM   10  C15 UNL     1       1.281   8.259  12.669  1.00  0.00     0.125 C 
HETATM   11  C22 UNL     1       0.392   7.225  11.961  1.00  0.00     0.033 C 
HETATM   12  C23 UNL     1      -0.073   6.113  12.896  1.00  0.00     0.013 C 
HETATM   13  C24 UNL     1      -0.851   6.661  14.083  1.00  0.00    -0.028 A 
HETATM   14  C25 UNL     1      -1.352   5.615  15.058  1.00  0.00     0.021 A 
HETATM   15  C26 UNL     1      -2.361   6.425  14.278  1.00  0.00    -0.025 A 
HETATM   16  C27 UNL     1      -3.148   5.719  13.181  1.00  0.00     0.012 C 
HETATM   17  C28 UNL     1      -4.624   5.439  13.516  1.00  0.00     0.013 C 
HETATM   18  C29 UNL     1      -5.355   6.703  14.006  1.00  0.00    -0.009 C 
HETATM   19  C30 UNL     1      -5.464   7.719  12.844  1.00  0.00     0.019 C 
ENDROOT
BRANCH  10  20
HETATM   20  O2  UNL     1       2.666   8.005  12.397  1.00  0.00    -0.353 OA
BRANCH  20  21
HETATM   21  C16 UNL     1       3.001   8.092  10.998  1.00  0.00     0.292 C 
HETATM   22  O3  UNL     1       1.990   7.451  10.225  1.00  0.00    -0.348 OA
HETATM   23  C17 UNL     1       2.410   6.876   8.979  1.00  0.00     0.179 C 
HETATM   24  C19 UNL     1       3.521   5.816   9.174  1.00  0.00     0.180 C 
HETATM   25  C20 UNL     1       4.253   5.985  10.510  1.00  0.00     0.183 C 
HETATM   26  C21 UNL     1       4.403   7.459  10.848  1.00  0.00     0.204 C 
BRANCH  23  27
HETATM   27  C18 UNL     1       2.779   7.984   7.974  1.00  0.00     0.198 C 
BRANCH  27  28
HETATM   28  O4  UNL     1       1.816   9.026   7.967  1.00  0.00    -0.398 OA
HETATM   29  H31 UNL     1       2.157   9.740   7.402  1.00  0.00     0.209 HD
ENDBRANCH  27  28
ENDBRANCH  23  27
BRANCH  24  30
HETATM   30  O5  UNL     1       2.949   4.493   9.169  1.00  0.00    -0.390 OA
HETATM   31  H33 UNL     1       3.695   3.883   9.321  1.00  0.00     0.210 HD
ENDBRANCH  24  30
BRANCH  25  32
HETATM   32  O6  UNL     1       5.546   5.362  10.419  1.00  0.00    -0.390 OA
HETATM   33  H35 UNL     1       6.064   5.740  11.159  1.00  0.00     0.210 HD
ENDBRANCH  25  32
BRANCH  26  34
HETATM   34  O7  UNL     1       5.190   7.598  12.045  1.00  0.00    -0.388 OA
HETATM   35  H37 UNL     1       4.533   7.603  12.775  1.00  0.00     0.210 HD
ENDBRANCH  26  34
ENDBRANCH  20  21
ENDBRANCH  10  20
BRANCH   4  36
HETATM   36  O1  UNL     1      -4.574   6.137  16.246  1.00  0.00    -0.389 OA
HETATM   37  H17 UNL     1      -4.111   6.455  17.041  1.00  0.00     0.210 HD
ENDBRANCH   4  36
BRANCH   1  38
HETATM   38  C4  UNL     1      -8.028   6.290  13.741  1.00  0.00    -0.014 C 
HETATM   39  C5  UNL     1      -8.177   4.826  13.299  1.00  0.00     0.010 C 
BRANCH  38  40
HETATM   40  C3  UNL     1      -9.356   6.688  14.451  1.00  0.00     0.004 C 
BRANCH  40  41
HETATM   41  C2  UNL     1     -10.544   7.101  13.574  1.00  0.00    -0.004 C 
HETATM   42  C1  UNL     1     -11.199   8.409  13.994  1.00  0.00     0.005 C 
ENDBRANCH  40  41
ENDBRANCH  38  40
ENDBRANCH   1  38
TORSDOF 11
ENDMDL
MODEL 5
REMARK minimizedAffinity -7.71761417
REMARK CNNscore 0.421289414
REMARK CNNaffinity 5.99429655
REMARK  11 active torsions:
REMARK  status: ('A' for Active; 'I' for Inactive)
REMARK    1  A    between atoms: C2_2  and  C3_3 
REMARK    2  A    between atoms: C3_3  and  C4_4 
REMARK    3  A    between atoms: C4_4  and  C6_6 
REMARK    4  A    between atoms: C9_9  and  O1_10 
REMARK    5  A    between atoms: C15_16  and  O2_17 
REMARK    6  A    between atoms: O2_17  and  C16_18 
REMARK    7  A    between atoms: C17_20  and  C18_21 
REMARK    8  A    between atoms: C18_21  and  O4_22 
REMARK    9  A    between atoms: C19_23  and  O5_24 
REMARK   10  A    between atoms: C20_25  and  O6_26 
REMARK   11  A    between atoms: C21_27  and  O7_28 
ROOT
HETATM    1  C6  UNL     1      -3.909  13.626  18.660  1.00  0.00     0.000 C 
HETATM    2  C7  UNL     1      -5.233  13.665  17.844  1.00  0.00     0.009 C 
HETATM    3  C8  UNL     1      -5.021  12.853  16.553  1.00  0.00     0.039 C 
HETATM    4  C9  UNL     1      -3.522  12.592  16.531  1.00  0.00     0.070 C 
HETATM    5  C10 UNL     1      -2.977  11.538  15.550  1.00  0.00     0.030 C 
HETATM    6  C11 UNL     1      -3.741  10.217  15.423  1.00  0.00     0.009 C 
HETATM    7  C12 UNL     1      -3.123   9.240  14.407  1.00  0.00     0.006 C 
HETATM    8  C13 UNL     1      -1.795   9.696  13.766  1.00  0.00    -0.003 C 
HETATM    9  C14 UNL     1      -1.122   8.559  12.990  1.00  0.00     0.037 C 
HETATM   10  C15 UNL     1      -0.650   7.410  13.894  1.00  0.00     0.125 C 
HETATM   11  C22 UNL     1      -0.075   7.910  15.229  1.00  0.00     0.033 C 
HETATM   12  C23 UNL     1       0.332   9.379  15.178  1.00  0.00     0.013 C 
HETATM   13  C24 UNL     1      -0.839  10.278  14.811  1.00  0.00    -0.028 A 
HETATM   14  C25 UNL     1      -0.514  11.757  14.744  1.00  0.00     0.021 A 
HETATM   15  C26 UNL     1      -1.479  11.270  15.800  1.00  0.00    -0.025 A 
HETATM   16  C27 UNL     1      -1.012  11.275  17.250  1.00  0.00     0.012 C 
HETATM   17  C28 UNL     1      -1.637  12.371  18.132  1.00  0.00     0.013 C 
HETATM   18  C29 UNL     1      -3.175  12.380  18.038  1.00  0.00    -0.009 C 
HETATM   19  C30 UNL     1      -3.738  11.084  18.668  1.00  0.00     0.019 C 
ENDROOT
BRANCH  10  20
HETATM   20  O2  UNL     1       0.345   6.690  13.154  1.00  0.00    -0.353 OA
BRANCH  20  21
HETATM   21  C16 UNL     1       0.825   7.403  11.996  1.00  0.00     0.292 C 
HETATM   22  O3  UNL     1       0.307   6.797  10.815  1.00  0.00    -0.348 OA
HETATM   23  C17 UNL     1       1.115   6.910   9.635  1.00  0.00     0.179 C 
HETATM   24  C19 UNL     1       2.522   6.297   9.834  1.00  0.00     0.180 C 
HETATM   25  C20 UNL     1       2.901   6.189  11.316  1.00  0.00     0.183 C 
HETATM   26  C21 UNL     1       2.368   7.385  12.086  1.00  0.00     0.204 C 
BRANCH  23  27
HETATM   27  C18 UNL     1       1.139   8.368   9.137  1.00  0.00     0.198 C 
BRANCH  27  28
HETATM   28  O4  UNL     1      -0.172   8.884   8.967  1.00  0.00    -0.398 OA
HETATM   29  H31 UNL     1      -0.093   9.831   8.761  1.00  0.00     0.209 HD
ENDBRANCH  27  28
ENDBRANCH  23  27
BRANCH  24  30
HETATM   30  O5  UNL     1       2.563   4.963   9.289  1.00  0.00    -0.390 OA
HETATM   31  H33 UNL     1       3.462   4.631   9.472  1.00  0.00     0.210 HD
ENDBRANCH  24  30
BRANCH  25  32
HETATM   32  O6  UNL     1       4.333   6.122  11.431  1.00  0.00    -0.390 OA
HETATM   33  H35 UNL     1       4.524   6.346  12.364  1.00  0.00     0.210 HD
ENDBRANCH  25  32
BRANCH  26  34
HETATM   34  O7  UNL     1       2.829   7.323  13.447  1.00  0.00    -0.388 OA
HETATM   35  H37 UNL     1       2.126   6.832  13.926  1.00  0.00     0.210 HD
ENDBRANCH  26  34
ENDBRANCH  20  21
ENDBRANCH  10  20
BRANCH   4  36
HETATM   36  O1  UNL     1      -2.925  13.852  16.109  1.00  0.00    -0.389 OA
HETATM   37  H17 UNL     1      -3.162  14.005  15.178  1.00  0.00     0.210 HD
ENDBRANCH   4  36
BRANCH   1  38
HETATM   38  C4  UNL     1      -4.145  13.713  20.199  1.00  0.00    -0.014 C 
HETATM   39  C5  UNL     1      -3.741  15.088  20.754  1.00  0.00     0.010 C 
BRANCH  38  40
HETATM   40  C3  UNL     1      -5.634  13.482  20.593  1.00  0.00     0.004 C 
BRANCH  40  41
HETATM   41  C2  UNL     1      -5.936  13.031  22.027  1.00  0.00    -0.004 C 
HETATM   42  C1  UNL     1      -6.655  14.077  22.867  1.00  0.00     0.005 C 
ENDBRANCH  40  41
ENDBRANCH  38  40
ENDBRANCH   1  38
TORSDOF 11
ENDMDL
MODEL 6
REMARK minimizedAffinity -8.0737133
REMARK CNNscore 0.403450727
REMARK CNNaffinity 6.83036232
REMARK  11 active torsions:
REMARK  status: ('A' for Active; 'I' for Inactive)
REMARK    1  A    between atoms: C2_2  and  C3_3 
REMARK    2  A    between atoms: C3_3  and  C4_4 
REMARK    3  A    between atoms: C4_4  and  C6_6 
REMARK    4  A    between atoms: C9_9  and  O1_10 
REMARK    5  A    between atoms: C15_16  and  O2_17 
REMARK    6  A    between atoms: O2_17  and  C16_18 
REMARK    7  A    between atoms: C17_20  and  C18_21 
REMARK    8  A    between atoms: C18_21  and  O4_22 
REMARK    9  A    between atoms: C19_23  and  O5_24 
REMARK   10  A    between atoms: C20_25  and  O6_26 
REMARK   11  A    between atoms: C21_27  and  O7_28 
ROOT
HETATM    1  C6  UNL     1      -8.247   7.066  14.537  1.00  0.00     0.000 C 
HETATM    2  C7  UNL     1      -8.525   5.833  13.629  1.00  0.00     0.009 C 
HETATM    3  C8  UNL     1      -7.198   5.419  12.969  1.00  0.00     0.039 C 
HETATM    4  C9  UNL     1      -6.254   6.566  13.301  1.00  0.00     0.070 C 
HETATM    5  C10 UNL     1      -4.744   6.360  13.075  1.00  0.00     0.030 C 
HETATM    6  C11 UNL     1      -4.130   5.029  13.519  1.00  0.00     0.009 C 
HETATM    7  C12 UNL     1      -2.621   4.919  13.237  1.00  0.00     0.006 C 
HETATM    8  C13 UNL     1      -1.958   6.186  12.656  1.00  0.00    -0.003 C 
HETATM    9  C14 UNL     1      -0.429   6.079  12.666  1.00  0.00     0.037 C 
HETATM   10  C15 UNL     1       0.162   6.042  14.083  1.00  0.00     0.125 C 
HETATM   11  C22 UNL     1      -0.574   6.979  15.053  1.00  0.00     0.033 C 
HETATM   12  C23 UNL     1      -1.382   8.053  14.330  1.00  0.00     0.013 C 
HETATM   13  C24 UNL     1      -2.416   7.447  13.393  1.00  0.00    -0.028 A 
HETATM   14  C25 UNL     1      -3.264   8.453  12.640  1.00  0.00     0.021 A 
HETATM   15  C26 UNL     1      -3.933   7.542  13.643  1.00  0.00    -0.025 A 
HETATM   16  C27 UNL     1      -4.432   8.158  14.944  1.00  0.00     0.012 C 
HETATM   17  C28 UNL     1      -5.961   8.301  15.053  1.00  0.00     0.013 C 
HETATM   18  C29 UNL     1      -6.689   6.979  14.742  1.00  0.00    -0.009 C 
HETATM   19  C30 UNL     1      -6.372   5.944  15.848  1.00  0.00     0.019 C 
ENDROOT
BRANCH  10  20
HETATM   20  O2  UNL     1       1.540   6.423  13.960  1.00  0.00    -0.353 OA
BRANCH  20  21
HETATM   21  C16 UNL     1       1.893   6.876  12.639  1.00  0.00     0.292 C 
HETATM   22  O3  UNL     1       2.502   5.810  11.915  1.00  0.00    -0.348 OA
HETATM   23  C17 UNL     1       3.457   6.185  10.912  1.00  0.00     0.179 C 
HETATM   24  C19 UNL     1       4.626   7.010  11.502  1.00  0.00     0.180 C 
HETATM   25  C20 UNL     1       4.259   7.654  12.844  1.00  0.00     0.183 C 
HETATM   26  C21 UNL     1       2.809   8.107  12.834  1.00  0.00     0.204 C 
BRANCH  23  27
HETATM   27  C18 UNL     1       2.749   6.871   9.728  1.00  0.00     0.198 C 
BRANCH  27  28
HETATM   28  O4  UNL     1       1.560   6.189   9.362  1.00  0.00    -0.398 OA
HETATM   29  H31 UNL     1       1.105   6.726   8.691  1.00  0.00     0.209 HD
ENDBRANCH  27  28
ENDBRANCH  23  27
BRANCH  24  30
HETATM   30  O5  UNL     1       5.763   6.156  11.740  1.00  0.00    -0.390 OA
HETATM   31  H33 UNL     1       6.446   6.731  12.133  1.00  0.00     0.210 HD
ENDBRANCH  24  30
BRANCH  25  32
HETATM   32  O6  UNL     1       5.127   8.777  13.078  1.00  0.00    -0.390 OA
HETATM   33  H35 UNL     1       4.678   9.308  13.766  1.00  0.00     0.210 HD
ENDBRANCH  25  32
BRANCH  26  34
HETATM   34  O7  UNL     1       2.517   8.809  14.055  1.00  0.00    -0.388 OA
HETATM   35  H37 UNL     1       2.190   8.115  14.668  1.00  0.00     0.210 HD
ENDBRANCH  26  34
ENDBRANCH  20  21
ENDBRANCH  10  20
BRANCH   4  36
HETATM   36  O1  UNL     1      -6.632   7.641  12.396  1.00  0.00    -0.389 OA
HETATM   37  H17 UNL     1      -6.391   7.378  11.491  1.00  0.00     0.210 HD
ENDBRANCH   4  36
BRANCH   1  38
HETATM   38  C4  UNL     1      -9.200   7.134  15.770  1.00  0.00    -0.014 C 
HETATM   39  C5  UNL     1      -8.417   7.343  17.076  1.00  0.00     0.010 C 
BRANCH  38  40
HETATM   40  C3  UNL     1     -10.234   8.295  15.668  1.00  0.00     0.004 C 
BRANCH  40  41
HETATM   41  C2  UNL     1     -11.265   8.241  14.536  1.00  0.00    -0.004 C 
HETATM   42  C1  UNL     1     -11.935   6.884  14.372  1.00  0.00     0.005 C 
ENDBRANCH  40  41
ENDBRANCH  38  40
ENDBRANCH   1  38
TORSDOF 11
ENDMDL
MODEL 7
REMARK minimizedAffinity -7.93252993
REMARK CNNscore 0.398498327
REMARK CNNaffinity 6.63743067
REMARK  11 active torsions:
REMARK  status: ('A' for Active; 'I' for Inactive)
REMARK    1  A    between atoms: C2_2  and  C3_3 
REMARK    2  A    between atoms: C3_3  and  C4_4 
REMARK    3  A    between atoms: C4_4  and  C6_6 
REMARK    4  A    between atoms: C9_9  and  O1_10 
REMARK    5  A    between atoms: C15_16  and  O2_17 
REMARK    6  A    between atoms: O2_17  and  C16_18 
REMARK    7  A    between atoms: C17_20  and  C18_21 
REMARK    8  A    between atoms: C18_21  and  O4_22 
REMARK    9  A    between atoms: C19_23  and  O5_24 
REMARK   10  A    between atoms: C20_25  and  O6_26 
REMARK   11  A    between atoms: C21_27  and  O7_28 
ROOT
HETATM    1  C6  UNL     1      -8.277   7.055  14.800  1.00  0.00     0.000 C 
HETATM    2  C7  UNL     1      -8.204   6.326  16.173  1.00  0.00     0.009 C 
HETATM    3  C8  UNL     1      -6.747   5.884  16.400  1.00  0.00     0.039 C 
HETATM    4  C9  UNL     1      -6.079   6.132  15.055  1.00  0.00     0.070 C 
HETATM    5  C10 UNL     1      -4.540   6.103  14.986  1.00  0.00     0.030 C 
HETATM    6  C11 UNL     1      -3.761   6.813  16.097  1.00  0.00     0.009 C 
HETATM    7  C12 UNL     1      -2.234   6.714  15.942  1.00  0.00     0.006 C 
HETATM    8  C13 UNL     1      -1.738   6.016  14.657  1.00  0.00    -0.003 C 
HETATM    9  C14 UNL     1      -0.230   6.205  14.458  1.00  0.00     0.037 C 
HETATM   10  C15 UNL     1       0.162   7.666  14.187  1.00  0.00     0.125 C 
HETATM   11  C22 UNL     1      -0.855   8.393  13.294  1.00  0.00     0.033 C 
HETATM   12  C23 UNL     1      -1.739   7.429  12.508  1.00  0.00     0.013 C 
HETATM   13  C24 UNL     1      -2.511   6.494  13.426  1.00  0.00    -0.028 A 
HETATM   14  C25 UNL     1      -3.417   5.507  12.718  1.00  0.00     0.021 A 
HETATM   15  C26 UNL     1      -4.040   6.563  13.602  1.00  0.00    -0.025 A 
HETATM   16  C27 UNL     1      -4.812   7.691  12.929  1.00  0.00     0.012 C 
HETATM   17  C28 UNL     1      -6.342   7.612  13.078  1.00  0.00     0.013 C 
HETATM   18  C29 UNL     1      -6.771   7.436  14.549  1.00  0.00    -0.009 C 
HETATM   19  C30 UNL     1      -6.424   8.718  15.343  1.00  0.00     0.019 C 
ENDROOT
BRANCH  10  20
HETATM   20  O2  UNL     1       1.452   7.633  13.561  1.00  0.00    -0.353 OA
BRANCH  20  21
HETATM   21  C16 UNL     1       2.310   8.721  13.958  1.00  0.00     0.292 C 
HETATM   22  O3  UNL     1       2.762   9.419  12.801  1.00  0.00    -0.348 OA
HETATM   23  C17 UNL     1       4.043  10.057  12.903  1.00  0.00     0.179 C 
HETATM   24  C19 UNL     1       5.167   9.051  13.247  1.00  0.00     0.180 C 
HETATM   25  C20 UNL     1       4.620   7.769  13.885  1.00  0.00     0.183 C 
HETATM   26  C21 UNL     1       3.447   8.091  14.796  1.00  0.00     0.204 C 
BRANCH  23  27
HETATM   27  C18 UNL     1       3.970  11.259  13.865  1.00  0.00     0.198 C 
BRANCH  27  28
HETATM   28  O4  UNL     1       2.843  12.078  13.594  1.00  0.00    -0.398 OA
HETATM   29  H31 UNL     1       2.789  12.748  14.296  1.00  0.00     0.209 HD
ENDBRANCH  27  28
ENDBRANCH  23  27
BRANCH  24  30
HETATM   30  O5  UNL     1       5.867   8.661  12.048  1.00  0.00    -0.390 OA
HETATM   31  H33 UNL     1       6.537   8.013  12.334  1.00  0.00     0.210 HD
ENDBRANCH  24  30
BRANCH  25  32
HETATM   32  O6  UNL     1       5.670   7.132  14.634  1.00  0.00    -0.390 OA
HETATM   33  H35 UNL     1       5.212   6.511  15.237  1.00  0.00     0.210 HD
ENDBRANCH  25  32
BRANCH  26  34
HETATM   34  O7  UNL     1       3.022   6.894  15.471  1.00  0.00    -0.388 OA
HETATM   35  H37 UNL     1       2.331   6.511  14.886  1.00  0.00     0.210 HD
ENDBRANCH  26  34
ENDBRANCH  20  21
ENDBRANCH  10  20
BRANCH   4  36
HETATM   36  O1  UNL     1      -6.520   5.034  14.206  1.00  0.00    -0.389 OA
HETATM   37  H17 UNL     1      -6.115   4.213  14.535  1.00  0.00     0.210 HD
ENDBRANCH   4  36
BRANCH   1  38
HETATM   38  C4  UNL     1      -9.384   8.153  14.758  1.00  0.00    -0.014 C 
HETATM   39  C5  UNL     1     -10.615   7.681  13.969  1.00  0.00     0.010 C 
BRANCH  38  40
HETATM   40  C3  UNL     1      -9.881   8.561  16.177  1.00  0.00     0.004 C 
BRANCH  40  41
HETATM   41  C2  UNL     1     -10.264  10.027  16.410  1.00  0.00    -0.004 C 
HETATM   42  C1  UNL     1      -9.549  11.007  15.491  1.00  0.00     0.005 C 
ENDBRANCH  40  41
ENDBRANCH  38  40
ENDBRANCH   1  38
TORSDOF 11
ENDMDL
MODEL 8
REMARK minimizedAffinity -9.03267574
REMARK CNNscore 0.386069477
REMARK CNNaffinity 6.74407578
REMARK  11 active torsions:
REMARK  status: ('A' for Active; 'I' for Inactive)
REMARK    1  A    between atoms: C2_2  and  C3_3 
REMARK    2  A    between atoms: C3_3  and  C4_4 
REMARK    3  A    between atoms: C4_4  and  C6_6 
REMARK    4  A    between atoms: C9_9  and  O1_10 
REMARK    5  A    between atoms: C15_16  and  O2_17 
REMARK    6  A    between atoms: O2_17  and  C16_18 
REMARK    7  A    between atoms: C17_20  and  C18_21 
REMARK    8  A    between atoms: C18_21  and  O4_22 
REMARK    9  A    between atoms: C19_23  and  O5_24 
REMARK   10  A    between atoms: C20_25  and  O6_26 
REMARK   11  A    between atoms: C21_27  and  O7_28 
ROOT
HETATM    1  C6  UNL     1      -5.744   6.683  14.968  1.00  0.00     0.000 C 
HETATM    2  C7  UNL     1      -6.195   8.064  14.410  1.00  0.00     0.009 C 
HETATM    3  C8  UNL     1      -4.933   8.862  14.037  1.00  0.00     0.039 C 
HETATM    4  C9  UNL     1      -3.796   8.039  14.626  1.00  0.00     0.070 C 
HETATM    5  C10 UNL     1      -2.356   8.359  14.185  1.00  0.00     0.030 C 
HETATM    6  C11 UNL     1      -2.104   8.611  12.695  1.00  0.00     0.009 C 
HETATM    7  C12 UNL     1      -0.637   8.935  12.362  1.00  0.00     0.006 C 
HETATM    8  C13 UNL     1       0.349   8.854  13.547  1.00  0.00    -0.003 C 
HETATM    9  C14 UNL     1       1.806   8.921  13.074  1.00  0.00     0.037 C 
HETATM   10  C15 UNL     1       2.224   7.701  12.239  1.00  0.00     0.125 C 
HETATM   11  C22 UNL     1       1.620   6.391  12.768  1.00  0.00     0.033 C 
HETATM   12  C23 UNL     1       1.151   6.503  14.216  1.00  0.00     0.013 C 
HETATM   13  C24 UNL     1       0.111   7.599  14.390  1.00  0.00    -0.028 A 
HETATM   14  C25 UNL     1      -0.408   7.770  15.803  1.00  0.00     0.021 A 
HETATM   15  C26 UNL     1      -1.364   7.311  14.727  1.00  0.00    -0.025 A 
HETATM   16  C27 UNL     1      -1.845   5.866  14.770  1.00  0.00     0.012 C 
HETATM   17  C28 UNL     1      -3.306   5.678  15.218  1.00  0.00     0.013 C 
HETATM   18  C29 UNL     1      -4.275   6.569  14.415  1.00  0.00    -0.009 C 
HETATM   19  C30 UNL     1      -4.313   6.093  12.943  1.00  0.00     0.019 C 
ENDROOT
BRANCH  10  20
HETATM   20  O2  UNL     1       3.657   7.650  12.282  1.00  0.00    -0.353 OA
BRANCH  20  21
HETATM   21  C16 UNL     1       4.259   8.856  12.791  1.00  0.00     0.292 C 
HETATM   22  O3  UNL     1       5.116   9.417  11.801  1.00  0.00    -0.348 OA
HETATM   23  C17 UNL     1       6.235  10.175  12.283  1.00  0.00     0.179 C 
HETATM   24  C19 UNL     1       7.154   9.335  13.202  1.00  0.00     0.180 C 
HETATM   25  C20 UNL     1       6.429   8.115  13.784  1.00  0.00     0.183 C 
HETATM   26  C21 UNL     1       4.983   8.459  14.099  1.00  0.00     0.204 C 
BRANCH  23  27
HETATM   27  C18 UNL     1       5.755  11.492  12.923  1.00  0.00     0.198 C 
BRANCH  27  28
HETATM   28  O4  UNL     1       5.215  12.377  11.954  1.00  0.00    -0.398 OA
HETATM   29  H31 UNL     1       4.831  13.135  12.428  1.00  0.00     0.209 HD
ENDBRANCH  27  28
ENDBRANCH  23  27
BRANCH  24  30
HETATM   30  O5  UNL     1       8.282   8.839  12.454  1.00  0.00    -0.390 OA
HETATM   31  H33 UNL     1       8.799   8.302  13.084  1.00  0.00     0.210 HD
ENDBRANCH  24  30
BRANCH  25  32
HETATM   32  O6  UNL     1       7.109   7.691  14.979  1.00  0.00    -0.390 OA
HETATM   33  H35 UNL     1       6.465   7.126  15.451  1.00  0.00     0.210 HD
ENDBRANCH  25  32
BRANCH  26  34
HETATM   34  O7  UNL     1       4.354   7.340  14.747  1.00  0.00    -0.388 OA
HETATM   35  H37 UNL     1       3.963   6.816  14.014  1.00  0.00     0.210 HD
ENDBRANCH  26  34
ENDBRANCH  20  21
ENDBRANCH  10  20
BRANCH   4  36
HETATM   36  O1  UNL     1      -3.829   8.319  16.055  1.00  0.00    -0.389 OA
HETATM   37  H17 UNL     1      -3.560   9.244  16.191  1.00  0.00     0.210 HD
ENDBRANCH   4  36
BRANCH   1  38
HETATM   38  C4  UNL     1      -6.780   5.551  14.688  1.00  0.00    -0.014 C 
HETATM   39  C5  UNL     1      -7.745   5.368  15.870  1.00  0.00     0.010 C 
BRANCH  38  40
HETATM   40  C3  UNL     1      -7.651   5.830  13.428  1.00  0.00     0.004 C 
BRANCH  40  41
HETATM   41  C2  UNL     1      -7.983   4.650  12.508  1.00  0.00    -0.004 C 
HETATM   42  C1  UNL     1      -7.061   3.451  12.682  1.00  0.00     0.005 C 
ENDBRANCH  40  41
ENDBRANCH  38  40
ENDBRANCH   1  38
TORSDOF 11
ENDMDL
MODEL 9
REMARK minimizedAffinity -8.45471096
REMARK CNNscore 0.373151571
REMARK CNNaffinity 6.56524467
REMARK  11 active torsions:
REMARK  status: ('A' for Active; 'I' for Inactive)
REMARK    1  A    between atoms: C2_2  and  C3_3 
REMARK    2  A    between atoms: C3_3  and  C4_4 
REMARK    3  A    between atoms: C4_4  and  C6_6 
REMARK    4  A    between atoms: C9_9  and  O1_10 
REMARK    5  A    between atoms: C15_16  and  O2_17 
REMARK    6  A    between atoms: O2_17  and  C16_18 
REMARK    7  A    between atoms: C17_20  and  C18_21 
REMARK    8  A    between atoms: C18_21  and  O4_22 
REMARK    9  A    between atoms: C19_23  and  O5_24 
REMARK   10  A    between atoms: C20_25  and  O6_26 
REMARK   11  A    between atoms: C21_27  and  O7_28 
ROOT
HETATM    1  C6  UNL     1      -3.736   6.735  14.604  1.00  0.00     0.000 C 
HETATM    2  C7  UNL     1      -3.960   5.315  14.009  1.00  0.00     0.009 C 
HETATM    3  C8  UNL     1      -5.475   5.046  13.976  1.00  0.00     0.039 C 
HETATM    4  C9  UNL     1      -6.064   6.193  14.785  1.00  0.00     0.070 C 
HETATM    5  C10 UNL     1      -7.583   6.438  14.710  1.00  0.00     0.030 C 
HETATM    6  C11 UNL     1      -8.250   6.370  13.333  1.00  0.00     0.009 C 
HETATM    7  C12 UNL     1      -9.769   6.615  13.369  1.00  0.00     0.006 C 
HETATM    8  C13 UNL     1     -10.352   6.986  14.749  1.00  0.00    -0.003 C 
HETATM    9  C14 UNL     1     -11.801   7.474  14.637  1.00  0.00     0.037 C 
HETATM   10  C15 UNL     1     -11.931   8.804  13.878  1.00  0.00     0.125 C 
HETATM   11  C22 UNL     1     -10.787   9.779  14.197  1.00  0.00     0.033 C 
HETATM   12  C23 UNL     1     -10.066   9.431  15.497  1.00  0.00     0.013 C 
HETATM   13  C24 UNL     1      -9.484   8.026  15.462  1.00  0.00    -0.028 A 
HETATM   14  C25 UNL     1      -8.747   7.608  16.718  1.00  0.00     0.021 A 
HETATM   15  C26 UNL     1      -7.970   7.745  15.430  1.00  0.00    -0.025 A 
HETATM   16  C27 UNL     1      -7.002   8.915  15.301  1.00  0.00     0.012 C 
HETATM   17  C28 UNL     1      -5.512   8.539  15.383  1.00  0.00     0.013 C 
HETATM   18  C29 UNL     1      -5.149   7.401  14.410  1.00  0.00    -0.009 C 
HETATM   19  C30 UNL     1      -5.286   7.904  12.953  1.00  0.00     0.019 C 
ENDROOT
BRANCH  10  20
HETATM   20  O2  UNL     1     -13.195   9.367  14.256  1.00  0.00    -0.353 OA
BRANCH  20  21
HETATM   21  C16 UNL     1     -14.307   8.475  14.040  1.00  0.00     0.292 C 
HETATM   22  O3  UNL     1     -14.184   7.860  12.761  1.00  0.00    -0.348 OA
HETATM   23  C17 UNL     1     -15.408   7.487  12.113  1.00  0.00     0.179 C 
HETATM   24  C19 UNL     1     -16.346   8.700  11.903  1.00  0.00     0.180 C 
HETATM   25  C20 UNL     1     -16.011   9.860  12.847  1.00  0.00     0.183 C 
HETATM   26  C21 UNL     1     -15.585   9.330  14.206  1.00  0.00     0.204 C 
BRANCH  23  27
HETATM   27  C18 UNL     1     -16.072   6.311  12.855  1.00  0.00     0.198 C 
BRANCH  27  28
HETATM   28  O4  UNL     1     -17.160   5.776  12.119  1.00  0.00    -0.398 OA
HETATM   29  H31 UNL     1     -17.464   4.975  12.581  1.00  0.00     0.209 HD
ENDBRANCH  27  28
ENDBRANCH  23  27
BRANCH  24  30
HETATM   30  O5  UNL     1     -16.215   9.200  10.557  1.00  0.00    -0.390 OA
HETATM   31  H33 UNL     1     -16.810   9.972  10.504  1.00  0.00     0.210 HD
ENDBRANCH  24  30
BRANCH  25  32
HETATM   32  O6  UNL     1     -17.168  10.703  12.985  1.00  0.00    -0.390 OA
HETATM   33  H35 UNL     1     -17.004  11.232  13.792  1.00  0.00     0.210 HD
ENDBRANCH  25  32
BRANCH  26  34
HETATM   34  O7  UNL     1     -15.385  10.431  15.109  1.00  0.00    -0.388 OA
HETATM   35  H37 UNL     1     -14.435  10.661  15.015  1.00  0.00     0.210 HD
ENDBRANCH  26  34
ENDBRANCH  20  21
ENDBRANCH  10  20
BRANCH   4  36
HETATM   36  O1  UNL     1      -5.801   5.849  16.176  1.00  0.00    -0.389 OA
HETATM   37  H17 UNL     1      -6.348   5.078  16.408  1.00  0.00     0.210 HD
ENDBRANCH   4  36
BRANCH   1  38
HETATM   38  C4  UNL     1      -2.456   7.429  14.043  1.00  0.00    -0.014 C 
HETATM   39  C5  UNL     1      -1.346   7.503  15.103  1.00  0.00     0.010 C 
BRANCH  38  40
HETATM   40  C3  UNL     1      -1.859   6.687  12.810  1.00  0.00     0.004 C 
BRANCH  40  41
HETATM   41  C2  UNL     1      -0.598   5.842  13.021  1.00  0.00    -0.004 C 
HETATM   42  C1  UNL     1      -0.611   4.513  12.280  1.00  0.00     0.005 C 
ENDBRANCH  40  41
ENDBRANCH  38  40
ENDBRANCH   1  38
TORSDOF 11
ENDMDL
