MODEL 1
REMARK minimizedAffinity -6.60077
REMARK CNNscore 0.386190772
REMARK CNNaffinity 5.42809486
REMARK  2 active torsions:
REMARK  status: ('A' for Active; 'I' for Inactive)
REMARK    1  A    between atoms: C21_27  and  C22_28 
REMARK    2  A    between atoms: C22_28  and  O7_30 
ROOT
HETATM    1  C1  UNL     1     -15.910  46.524 -20.686  1.00  0.00     0.043 C 
HETATM    2  C2  UNL     1     -16.103  46.524 -22.179  1.00  0.00    -0.076 C 
HETATM    3  C3  UNL     1     -15.208  47.145 -22.978  1.00  0.00     0.084 C 
HETATM    4  C4  UNL     1     -15.266  47.154 -24.458  1.00  0.00     0.283 C 
HETATM    5  O1  UNL     1     -16.256  46.922 -25.128  1.00  0.00    -0.260 OA
HETATM    6  O2  UNL     1     -14.003  47.345 -24.932  1.00  0.00    -0.317 OA
HETATM    7  C5  UNL     1     -13.820  47.029 -26.328  1.00  0.00     0.195 C 
HETATM    8  C6  UNL     1     -13.041  45.671 -26.546  1.00  0.00     0.053 C 
HETATM    9  C7  UNL     1     -11.536  45.938 -26.090  1.00  0.00     0.159 C 
HETATM   10  C8  UNL     1     -11.270  45.881 -24.609  1.00  0.00     0.011 C 
HETATM   11  C9  UNL     1     -12.045  45.182 -23.762  1.00  0.00    -0.054 C 
HETATM   12  C10 UNL     1     -11.742  45.120 -22.292  1.00  0.00     0.046 C 
HETATM   13  C11 UNL     1     -13.180  44.381 -24.241  1.00  0.00     0.180 A 
HETATM   14  O3  UNL     1     -12.993  43.451 -25.311  1.00  0.00    -0.370 OA
HETATM   15  C12 UNL     1     -13.716  44.643 -25.641  1.00  0.00     0.170 A 
HETATM   16  O4  UNL     1     -10.532  45.109 -26.698  1.00  0.00    -0.372 OA
HETATM   17  C13 UNL     1     -10.763  44.755 -28.065  1.00  0.00     0.162 C 
HETATM   18  C14 UNL     1     -11.479  43.392 -28.073  1.00  0.00     0.068 C 
HETATM   19  C15 UNL     1     -12.941  43.726 -28.419  1.00  0.00     0.147 C 
HETATM   20  O5  UNL     1     -13.930  42.950 -27.749  1.00  0.00    -0.312 OA
HETATM   21  C16 UNL     1     -13.988  41.632 -28.035  1.00  0.00     0.283 C 
HETATM   22  O6  UNL     1     -13.340  41.049 -28.890  1.00  0.00    -0.260 OA
HETATM   23  C17 UNL     1     -14.877  40.926 -27.087  1.00  0.00     0.082 C 
HETATM   24  C18 UNL     1     -15.991  41.362 -26.476  1.00  0.00     0.006 C 
HETATM   25  C19 UNL     1     -16.684  42.610 -26.705  1.00  0.00    -0.001 C 
HETATM   26  C20 UNL     1     -17.624  43.159 -25.919  1.00  0.00     0.007 C 
HETATM   27  C21 UNL     1     -18.115  42.706 -24.562  1.00  0.00     0.172 C 
HETATM   28  O8  UNL     1     -18.297  43.875 -23.745  1.00  0.00    -0.379 OA
HETATM   29  C24 UNL     1     -17.079  44.395 -23.206  1.00  0.00     0.173 C 
HETATM   30  C25 UNL     1     -17.349  45.800 -22.657  1.00  0.00     0.060 C 
HETATM   31  C26 UNL     1     -13.084  45.261 -28.113  1.00  0.00     0.034 C 
HETATM   32  C27 UNL     1     -14.305  45.774 -28.888  1.00  0.00     0.022 C 
HETATM   33  C28 UNL     1     -11.751  45.702 -28.667  1.00  0.00     0.119 A 
HETATM   34  C29 UNL     1     -11.400  47.041 -29.268  1.00  0.00     0.210 A 
HETATM   35  O9  UNL     1     -11.664  45.883 -30.083  1.00  0.00    -0.371 OA
ENDROOT
BRANCH  27  36
HETATM   36  C22 UNL     1     -19.481  41.975 -24.684  1.00  0.00     0.146 C 
HETATM   37  C23 UNL     1     -19.939  41.845 -26.135  1.00  0.00     0.042 C 
BRANCH  36  38
HETATM   38  O7  UNL     1     -20.508  42.665 -23.961  1.00  0.00    -0.393 OA
HETATM   39  H27 UNL     1     -20.681  43.505 -24.415  1.00  0.00     0.210 HD
ENDBRANCH  36  38
ENDBRANCH  27  36
TORSDOF 2
ENDMDL
MODEL 2
REMARK minimizedAffinity -6.45337296
REMARK CNNscore 0.362702489
REMARK CNNaffinity 5.39804077
REMARK  2 active torsions:
REMARK  status: ('A' for Active; 'I' for Inactive)
REMARK    1  A    between atoms: C21_27  and  C22_28 
REMARK    2  A    between atoms: C22_28  and  O7_30 
ROOT
HETATM    1  C1  UNL     1     -10.209  40.635 -26.074  1.00  0.00     0.043 C 
HETATM    2  C2  UNL     1     -11.199  41.421 -26.891  1.00  0.00    -0.076 C 
HETATM    3  C3  UNL     1     -12.376  40.864 -27.250  1.00  0.00     0.084 C 
HETATM    4  C4  UNL     1     -13.446  41.564 -27.997  1.00  0.00     0.283 C 
HETATM    5  O1  UNL     1     -13.297  42.570 -28.669  1.00  0.00    -0.260 OA
HETATM    6  O2  UNL     1     -14.633  40.963 -27.706  1.00  0.00    -0.317 OA
HETATM    7  C5  UNL     1     -15.807  41.725 -28.058  1.00  0.00     0.195 C 
HETATM    8  C6  UNL     1     -16.517  42.362 -26.798  1.00  0.00     0.053 C 
HETATM    9  C7  UNL     1     -17.166  41.151 -25.987  1.00  0.00     0.159 C 
HETATM   10  C8  UNL     1     -16.235  40.372 -25.098  1.00  0.00     0.011 C 
HETATM   11  C9  UNL     1     -15.103  40.898 -24.598  1.00  0.00    -0.054 C 
HETATM   12  C10 UNL     1     -14.204  40.106 -23.691  1.00  0.00     0.046 C 
HETATM   13  C11 UNL     1     -14.728  42.296 -24.850  1.00  0.00     0.180 A 
HETATM   14  O3  UNL     1     -15.674  43.341 -24.609  1.00  0.00    -0.370 OA
HETATM   15  C12 UNL     1     -15.416  43.040 -25.986  1.00  0.00     0.170 A 
HETATM   16  O4  UNL     1     -18.305  41.472 -25.172  1.00  0.00    -0.372 OA
HETATM   17  C13 UNL     1     -19.184  42.471 -25.698  1.00  0.00     0.162 C 
HETATM   18  C14 UNL     1     -18.748  43.825 -25.108  1.00  0.00     0.068 C 
HETATM   19  C15 UNL     1     -18.031  44.538 -26.269  1.00  0.00     0.147 C 
HETATM   20  O5  UNL     1     -16.891  45.315 -25.912  1.00  0.00    -0.312 OA
HETATM   21  C16 UNL     1     -17.097  46.407 -25.146  1.00  0.00     0.283 C 
HETATM   22  O6  UNL     1     -18.180  46.860 -24.809  1.00  0.00    -0.260 OA
HETATM   23  C17 UNL     1     -15.814  46.954 -24.652  1.00  0.00     0.082 C 
HETATM   24  C18 UNL     1     -14.609  46.970 -25.246  1.00  0.00     0.006 C 
HETATM   25  C19 UNL     1     -14.293  46.568 -26.597  1.00  0.00    -0.001 C 
HETATM   26  C20 UNL     1     -13.069  46.329 -27.096  1.00  0.00     0.007 C 
HETATM   27  C21 UNL     1     -11.738  46.294 -26.378  1.00  0.00     0.172 C 
HETATM   28  O8  UNL     1     -10.979  45.194 -26.907  1.00  0.00    -0.379 OA
HETATM   29  C24 UNL     1     -11.371  43.921 -26.385  1.00  0.00     0.173 C 
HETATM   30  C25 UNL     1     -10.748  42.825 -27.255  1.00  0.00     0.060 C 
HETATM   31  C26 UNL     1     -17.671  43.391 -27.283  1.00  0.00     0.034 C 
HETATM   32  C27 UNL     1     -17.431  44.043 -28.651  1.00  0.00     0.022 C 
HETATM   33  C28 UNL     1     -18.959  42.612 -27.169  1.00  0.00     0.119 A 
HETATM   34  C29 UNL     1     -19.611  41.751 -28.223  1.00  0.00     0.210 A 
HETATM   35  O9  UNL     1     -20.073  43.083 -27.932  1.00  0.00    -0.371 OA
ENDROOT
BRANCH  27  36
HETATM   36  C22 UNL     1     -10.942  47.605 -26.628  1.00  0.00     0.146 C 
HETATM   37  C23 UNL     1      -9.874  47.846 -25.563  1.00  0.00     0.042 C 
BRANCH  36  38
HETATM   38  O7  UNL     1     -11.808  48.746 -26.645  1.00  0.00    -0.393 OA
HETATM   39  H27 UNL     1     -12.148  48.878 -25.746  1.00  0.00     0.210 HD
ENDBRANCH  36  38
ENDBRANCH  27  36
TORSDOF 2
ENDMDL
MODEL 3
REMARK minimizedAffinity -6.70356035
REMARK CNNscore 0.351645112
REMARK CNNaffinity 5.65217447
REMARK  2 active torsions:
REMARK  status: ('A' for Active; 'I' for Inactive)
REMARK    1  A    between atoms: C21_27  and  C22_28 
REMARK    2  A    between atoms: C22_28  and  O7_30 
ROOT
HETATM    1  C1  UNL     1       7.826  52.096  -4.692  1.00  0.00     0.043 C 
HETATM    2  C2  UNL     1       7.316  52.957  -5.817  1.00  0.00    -0.076 C 
HETATM    3  C3  UNL     1       6.654  52.397  -6.853  1.00  0.00     0.084 C 
HETATM    4  C4  UNL     1       6.056  53.153  -7.977  1.00  0.00     0.283 C 
HETATM    5  O1  UNL     1       6.356  54.287  -8.304  1.00  0.00    -0.260 OA
HETATM    6  O2  UNL     1       5.040  52.410  -8.497  1.00  0.00    -0.317 OA
HETATM    7  C5  UNL     1       4.130  53.133  -9.353  1.00  0.00     0.195 C 
HETATM    8  C6  UNL     1       2.744  53.427  -8.653  1.00  0.00     0.053 C 
HETATM    9  C7  UNL     1       1.998  52.023  -8.525  1.00  0.00     0.159 C 
HETATM   10  C8  UNL     1       2.419  51.148  -7.375  1.00  0.00     0.011 C 
HETATM   11  C9  UNL     1       2.974  51.644  -6.255  1.00  0.00    -0.054 C 
HETATM   12  C10 UNL     1       3.361  50.752  -5.110  1.00  0.00     0.046 C 
HETATM   13  C11 UNL     1       3.156  53.090  -6.061  1.00  0.00     0.180 A 
HETATM   14  O3  UNL     1       2.056  53.979  -6.270  1.00  0.00    -0.370 OA
HETATM   15  C12 UNL     1       3.074  54.002  -7.278  1.00  0.00     0.170 A 
HETATM   16  O4  UNL     1       0.563  52.069  -8.473  1.00  0.00    -0.372 OA
HETATM   17  C13 UNL     1      -0.055  53.084  -9.270  1.00  0.00     0.162 C 
HETATM   18  C14 UNL     1      -0.274  54.311  -8.365  1.00  0.00     0.068 C 
HETATM   19  C15 UNL     1       0.811  55.311  -8.803  1.00  0.00     0.147 C 
HETATM   20  O5  UNL     1       1.402  56.082  -7.761  1.00  0.00    -0.312 OA
HETATM   21  C16 UNL     1       0.612  56.966  -7.116  1.00  0.00     0.283 C 
HETATM   22  O6  UNL     1      -0.541  57.247  -7.401  1.00  0.00    -0.260 OA
HETATM   23  C17 UNL     1       1.289  57.495  -5.911  1.00  0.00     0.082 C 
HETATM   24  C18 UNL     1       2.594  57.734  -5.702  1.00  0.00     0.006 C 
HETATM   25  C19 UNL     1       3.665  57.657  -6.670  1.00  0.00    -0.001 C 
HETATM   26  C20 UNL     1       4.981  57.629  -6.407  1.00  0.00     0.007 C 
HETATM   27  C21 UNL     1       5.684  57.549  -5.069  1.00  0.00     0.172 C 
HETATM   28  O8  UNL     1       6.798  56.651  -5.209  1.00  0.00    -0.379 OA
HETATM   29  C24 UNL     1       6.432  55.269  -5.176  1.00  0.00     0.173 C 
HETATM   30  C25 UNL     1       7.620  54.438  -5.670  1.00  0.00     0.060 C 
HETATM   31  C26 UNL     1       1.872  54.440  -9.570  1.00  0.00     0.034 C 
HETATM   32  C27 UNL     1       2.693  55.387 -10.457  1.00  0.00     0.022 C 
HETATM   33  C28 UNL     1       0.904  53.554 -10.315  1.00  0.00     0.119 A 
HETATM   34  C29 UNL     1       1.107  52.889 -11.655  1.00  0.00     0.210 A 
HETATM   35  O9  UNL     1       0.322  54.087 -11.508  1.00  0.00    -0.371 OA
ENDROOT
BRANCH  27  36
HETATM   36  C22 UNL     1       6.226  58.942  -4.646  1.00  0.00     0.146 C 
HETATM   37  C23 UNL     1       7.709  59.109  -4.969  1.00  0.00     0.042 C 
BRANCH  36  38
HETATM   38  O7  UNL     1       6.056  59.162  -3.240  1.00  0.00    -0.393 OA
HETATM   39  H27 UNL     1       6.650  58.557  -2.769  1.00  0.00     0.210 HD
ENDBRANCH  36  38
ENDBRANCH  27  36
TORSDOF 2
ENDMDL
MODEL 4
REMARK minimizedAffinity -7.89065075
REMARK CNNscore 0.244173065
REMARK CNNaffinity 5.47554064
REMARK  2 active torsions:
REMARK  status: ('A' for Active; 'I' for Inactive)
REMARK    1  A    between atoms: C21_27  and  C22_28 
REMARK    2  A    between atoms: C22_28  and  O7_30 
ROOT
HETATM    1  C1  UNL     1     -10.363  45.516 -22.306  1.00  0.00     0.043 C 
HETATM    2  C2  UNL     1     -11.672  46.220 -22.549  1.00  0.00    -0.076 C 
HETATM    3  C3  UNL     1     -12.328  46.046 -23.717  1.00  0.00     0.084 C 
HETATM    4  C4  UNL     1     -13.648  46.636 -24.037  1.00  0.00     0.283 C 
HETATM    5  O1  UNL     1     -14.148  47.594 -23.475  1.00  0.00    -0.260 OA
HETATM    6  O2  UNL     1     -14.248  45.854 -24.977  1.00  0.00    -0.317 OA
HETATM    7  C5  UNL     1     -15.665  46.075 -25.141  1.00  0.00     0.195 C 
HETATM    8  C6  UNL     1     -16.537  44.920 -24.504  1.00  0.00     0.053 C 
HETATM    9  C7  UNL     1     -16.316  43.632 -25.419  1.00  0.00     0.159 C 
HETATM   10  C8  UNL     1     -15.055  42.849 -25.172  1.00  0.00     0.011 C 
HETATM   11  C9  UNL     1     -14.408  42.873 -23.993  1.00  0.00    -0.054 C 
HETATM   12  C10 UNL     1     -13.166  42.060 -23.763  1.00  0.00     0.046 C 
HETATM   13  C11 UNL     1     -14.928  43.631 -22.846  1.00  0.00     0.180 A 
HETATM   14  O3  UNL     1     -16.287  43.462 -22.438  1.00  0.00    -0.370 OA
HETATM   15  C12 UNL     1     -15.985  44.697 -23.098  1.00  0.00     0.170 A 
HETATM   16  O4  UNL     1     -17.380  42.667 -25.422  1.00  0.00    -0.372 OA
HETATM   17  C13 UNL     1     -18.704  43.201 -25.328  1.00  0.00     0.162 C 
HETATM   18  C14 UNL     1     -19.098  43.197 -23.839  1.00  0.00     0.068 C 
HETATM   19  C15 UNL     1     -18.996  44.671 -23.410  1.00  0.00     0.147 C 
HETATM   20  O5  UNL     1     -18.497  44.903 -22.096  1.00  0.00    -0.312 OA
HETATM   21  C16 UNL     1     -19.252  44.479 -21.060  1.00  0.00     0.283 C 
HETATM   22  O6  UNL     1     -20.374  44.004 -21.130  1.00  0.00    -0.260 OA
HETATM   23  C17 UNL     1     -18.495  44.557 -19.790  1.00  0.00     0.082 C 
HETATM   24  C18 UNL     1     -17.559  45.441 -19.409  1.00  0.00     0.006 C 
HETATM   25  C19 UNL     1     -17.149  46.639 -20.106  1.00  0.00    -0.001 C 
HETATM   26  C20 UNL     1     -16.045  47.365 -19.868  1.00  0.00     0.007 C 
HETATM   27  C21 UNL     1     -14.900  47.077 -18.923  1.00  0.00     0.172 C 
HETATM   28  O8  UNL     1     -13.677  47.439 -19.587  1.00  0.00    -0.379 OA
HETATM   29  C24 UNL     1     -13.228  46.467 -20.536  1.00  0.00     0.173 C 
HETATM   30  C25 UNL     1     -12.139  47.103 -21.406  1.00  0.00     0.060 C 
HETATM   31  C26 UNL     1     -18.100  45.348 -24.511  1.00  0.00     0.034 C 
HETATM   32  C27 UNL     1     -18.363  46.859 -24.455  1.00  0.00     0.022 C 
HETATM   33  C28 UNL     1     -18.690  44.645 -25.709  1.00  0.00     0.119 A 
HETATM   34  C29 UNL     1     -18.784  45.160 -27.125  1.00  0.00     0.210 A 
HETATM   35  O9  UNL     1     -19.914  45.169 -26.232  1.00  0.00    -0.371 OA
ENDROOT
BRANCH  27  36
HETATM   36  C22 UNL     1     -15.025  47.926 -17.628  1.00  0.00     0.146 C 
HETATM   37  C23 UNL     1     -15.433  49.369 -17.919  1.00  0.00     0.042 C 
BRANCH  36  38
HETATM   38  O7  UNL     1     -13.790  47.958 -16.903  1.00  0.00    -0.393 OA
HETATM   39  H27 UNL     1     -13.150  48.469 -17.425  1.00  0.00     0.210 HD
ENDBRANCH  36  38
ENDBRANCH  27  36
TORSDOF 2
ENDMDL
MODEL 5
REMARK minimizedAffinity -6.80023718
REMARK CNNscore 0.237891302
REMARK CNNaffinity 5.25885248
REMARK  2 active torsions:
REMARK  status: ('A' for Active; 'I' for Inactive)
REMARK    1  A    between atoms: C21_27  and  C22_28 
REMARK    2  A    between atoms: C22_28  and  O7_30 
ROOT
HETATM    1  C1  UNL     1      -7.306  47.502 -25.196  1.00  0.00     0.043 C 
HETATM    2  C2  UNL     1      -8.031  46.560 -24.272  1.00  0.00    -0.076 C 
HETATM    3  C3  UNL     1      -7.417  46.086 -23.166  1.00  0.00     0.084 C 
HETATM    4  C4  UNL     1      -8.054  45.208 -22.159  1.00  0.00     0.283 C 
HETATM    5  O1  UNL     1      -9.051  44.532 -22.342  1.00  0.00    -0.260 OA
HETATM    6  O2  UNL     1      -7.408  45.381 -20.973  1.00  0.00    -0.317 OA
HETATM    7  C5  UNL     1      -8.111  44.882 -19.816  1.00  0.00     0.195 C 
HETATM    8  C6  UNL     1      -8.743  46.039 -18.943  1.00  0.00     0.053 C 
HETATM    9  C7  UNL     1      -7.522  46.803 -18.257  1.00  0.00     0.159 C 
HETATM   10  C8  UNL     1      -6.801  47.809 -19.114  1.00  0.00     0.011 C 
HETATM   11  C9  UNL     1      -7.386  48.418 -20.161  1.00  0.00    -0.054 C 
HETATM   12  C10 UNL     1      -6.653  49.439 -20.984  1.00  0.00     0.046 C 
HETATM   13  C11 UNL     1      -8.794  48.175 -20.504  1.00  0.00     0.180 A 
HETATM   14  O3  UNL     1      -9.801  48.282 -19.495  1.00  0.00    -0.370 OA
HETATM   15  C12 UNL     1      -9.485  46.951 -19.918  1.00  0.00     0.170 A 
HETATM   16  O4  UNL     1      -7.809  47.478 -17.022  1.00  0.00    -0.372 OA
HETATM   17  C13 UNL     1      -8.759  46.833 -16.168  1.00  0.00     0.162 C 
HETATM   18  C14 UNL     1     -10.142  47.433 -16.480  1.00  0.00     0.068 C 
HETATM   19  C15 UNL     1     -10.861  46.342 -17.292  1.00  0.00     0.147 C 
HETATM   20  O5  UNL     1     -11.694  46.803 -18.352  1.00  0.00    -0.312 OA
HETATM   21  C16 UNL     1     -12.792  47.513 -18.017  1.00  0.00     0.283 C 
HETATM   22  O6  UNL     1     -13.204  47.717 -16.886  1.00  0.00    -0.260 OA
HETATM   23  C17 UNL     1     -13.404  48.133 -19.214  1.00  0.00     0.082 C 
HETATM   24  C18 UNL     1     -13.459  47.677 -20.476  1.00  0.00     0.006 C 
HETATM   25  C19 UNL     1     -13.044  46.379 -20.957  1.00  0.00    -0.001 C 
HETATM   26  C20 UNL     1     -12.848  46.025 -22.238  1.00  0.00     0.007 C 
HETATM   27  C21 UNL     1     -12.886  46.887 -23.481  1.00  0.00     0.172 C 
HETATM   28  O8  UNL     1     -11.809  46.474 -24.338  1.00  0.00    -0.379 OA
HETATM   29  C24 UNL     1     -10.532  46.981 -23.943  1.00  0.00     0.173 C 
HETATM   30  C25 UNL     1      -9.446  46.213 -24.703  1.00  0.00     0.060 C 
HETATM   31  C26 UNL     1      -9.711  45.403 -17.809  1.00  0.00     0.034 C 
HETATM   32  C27 UNL     1     -10.344  44.054 -18.175  1.00  0.00     0.022 C 
HETATM   33  C28 UNL     1      -8.879  45.393 -16.550  1.00  0.00     0.119 A 
HETATM   34  C29 UNL     1      -7.969  44.295 -16.056  1.00  0.00     0.210 A 
HETATM   35  O9  UNL     1      -9.286  44.499 -15.510  1.00  0.00    -0.371 OA
ENDROOT
BRANCH  27  36
HETATM   36  C22 UNL     1     -14.225  46.694 -24.246  1.00  0.00     0.146 C 
HETATM   37  C23 UNL     1     -14.023  46.630 -25.758  1.00  0.00     0.042 C 
BRANCH  36  38
HETATM   38  O7  UNL     1     -15.141  47.761 -23.971  1.00  0.00    -0.393 OA
HETATM   39  H27 UNL     1     -14.787  48.570 -24.373  1.00  0.00     0.210 HD
ENDBRANCH  36  38
ENDBRANCH  27  36
TORSDOF 2
ENDMDL
MODEL 6
REMARK minimizedAffinity -6.44626331
REMARK CNNscore 0.235516399
REMARK CNNaffinity 5.11099291
REMARK  2 active torsions:
REMARK  status: ('A' for Active; 'I' for Inactive)
REMARK    1  A    between atoms: C21_27  and  C22_28 
REMARK    2  A    between atoms: C22_28  and  O7_30 
ROOT
HETATM    1  C1  UNL     1     -10.352  45.647 -26.183  1.00  0.00     0.043 C 
HETATM    2  C2  UNL     1     -11.803  46.041 -26.264  1.00  0.00    -0.076 C 
HETATM    3  C3  UNL     1     -12.574  45.584 -27.274  1.00  0.00     0.084 C 
HETATM    4  C4  UNL     1     -14.023  45.856 -27.417  1.00  0.00     0.283 C 
HETATM    5  O1  UNL     1     -14.627  46.765 -26.877  1.00  0.00    -0.260 OA
HETATM    6  O2  UNL     1     -14.575  44.850 -28.151  1.00  0.00    -0.317 OA
HETATM    7  C5  UNL     1     -16.014  44.765 -28.086  1.00  0.00     0.195 C 
HETATM    8  C6  UNL     1     -16.511  43.561 -27.190  1.00  0.00     0.053 C 
HETATM    9  C7  UNL     1     -16.158  42.228 -27.992  1.00  0.00     0.159 C 
HETATM   10  C8  UNL     1     -14.735  41.747 -27.890  1.00  0.00     0.011 C 
HETATM   11  C9  UNL     1     -13.939  42.059 -26.852  1.00  0.00    -0.054 C 
HETATM   12  C10 UNL     1     -12.531  41.544 -26.762  1.00  0.00     0.046 C 
HETATM   13  C11 UNL     1     -14.431  42.851 -25.716  1.00  0.00     0.180 A 
HETATM   14  O3  UNL     1     -15.645  42.477 -25.061  1.00  0.00    -0.370 OA
HETATM   15  C12 UNL     1     -15.719  43.645 -25.887  1.00  0.00     0.170 A 
HETATM   16  O4  UNL     1     -16.977  41.082 -27.709  1.00  0.00    -0.372 OA
HETATM   17  C13 UNL     1     -18.355  41.354 -27.439  1.00  0.00     0.162 C 
HETATM   18  C14 UNL     1     -18.510  41.478 -25.912  1.00  0.00     0.068 C 
HETATM   19  C15 UNL     1     -18.665  42.989 -25.661  1.00  0.00     0.147 C 
HETATM   20  O5  UNL     1     -18.036  43.491 -24.486  1.00  0.00    -0.312 OA
HETATM   21  C16 UNL     1     -18.517  43.074 -23.295  1.00  0.00     0.283 C 
HETATM   22  O6  UNL     1     -19.508  42.384 -23.118  1.00  0.00    -0.260 OA
HETATM   23  C17 UNL     1     -17.613  43.472 -22.194  1.00  0.00     0.082 C 
HETATM   24  C18 UNL     1     -16.842  44.566 -22.075  1.00  0.00     0.006 C 
HETATM   25  C19 UNL     1     -16.810  45.713 -22.953  1.00  0.00    -0.001 C 
HETATM   26  C20 UNL     1     -15.866  46.667 -22.989  1.00  0.00     0.007 C 
HETATM   27  C21 UNL     1     -14.556  46.741 -22.235  1.00  0.00     0.172 C 
HETATM   28  O8  UNL     1     -13.554  47.240 -23.137  1.00  0.00    -0.379 OA
HETATM   29  C24 UNL     1     -13.055  46.254 -24.045  1.00  0.00     0.173 C 
HETATM   30  C25 UNL     1     -12.272  46.964 -25.154  1.00  0.00     0.060 C 
HETATM   31  C26 UNL     1     -18.112  43.670 -26.966  1.00  0.00     0.034 C 
HETATM   32  C27 UNL     1     -18.683  45.093 -27.021  1.00  0.00     0.022 C 
HETATM   33  C28 UNL     1     -18.710  42.708 -27.963  1.00  0.00     0.119 A 
HETATM   34  C29 UNL     1     -19.125  42.995 -29.386  1.00  0.00     0.210 A 
HETATM   35  O9  UNL     1     -20.083  42.906 -28.314  1.00  0.00    -0.371 OA
ENDROOT
BRANCH  27  36
HETATM   36  C22 UNL     1     -14.666  47.718 -21.033  1.00  0.00     0.146 C 
HETATM   37  C23 UNL     1     -13.317  47.957 -20.356  1.00  0.00     0.042 C 
BRANCH  36  38
HETATM   38  O7  UNL     1     -15.572  47.223 -20.039  1.00  0.00    -0.393 OA
HETATM   39  H27 UNL     1     -15.171  46.439 -19.633  1.00  0.00     0.210 HD
ENDBRANCH  36  38
ENDBRANCH  27  36
TORSDOF 2
ENDMDL
MODEL 7
REMARK minimizedAffinity -6.79326963
REMARK CNNscore 0.227957204
REMARK CNNaffinity 5.06063986
REMARK  2 active torsions:
REMARK  status: ('A' for Active; 'I' for Inactive)
REMARK    1  A    between atoms: C21_27  and  C22_28 
REMARK    2  A    between atoms: C22_28  and  O7_30 
ROOT
HETATM    1  C1  UNL     1     -12.710  46.627 -20.406  1.00  0.00     0.043 C 
HETATM    2  C2  UNL     1     -12.990  46.840 -21.870  1.00  0.00    -0.076 C 
HETATM    3  C3  UNL     1     -12.030  46.593 -22.788  1.00  0.00     0.084 C 
HETATM    4  C4  UNL     1     -12.215  46.708 -24.252  1.00  0.00     0.283 C 
HETATM    5  O1  UNL     1     -13.095  47.343 -24.805  1.00  0.00    -0.260 OA
HETATM    6  O2  UNL     1     -11.312  45.890 -24.861  1.00  0.00    -0.317 OA
HETATM    7  C5  UNL     1     -11.583  45.608 -26.250  1.00  0.00     0.195 C 
HETATM    8  C6  UNL     1     -12.143  44.146 -26.475  1.00  0.00     0.053 C 
HETATM    9  C7  UNL     1     -10.930  43.151 -26.188  1.00  0.00     0.159 C 
HETATM   10  C8  UNL     1     -10.647  42.846 -24.741  1.00  0.00     0.011 C 
HETATM   11  C9  UNL     1     -11.586  42.949 -23.784  1.00  0.00    -0.054 C 
HETATM   12  C10 UNL     1     -11.285  42.613 -22.351  1.00  0.00     0.046 C 
HETATM   13  C11 UNL     1     -12.973  43.318 -24.103  1.00  0.00     0.180 A 
HETATM   14  O3  UNL     1     -13.674  42.623 -25.136  1.00  0.00    -0.370 OA
HETATM   15  C12 UNL     1     -13.262  43.958 -25.454  1.00  0.00     0.170 A 
HETATM   16  O4  UNL     1     -10.984  41.877 -26.851  1.00  0.00    -0.372 OA
HETATM   17  C13 UNL     1     -11.545  41.885 -28.167  1.00  0.00     0.162 C 
HETATM   18  C14 UNL     1     -13.042  41.551 -28.032  1.00  0.00     0.068 C 
HETATM   19  C15 UNL     1     -13.758  42.896 -28.245  1.00  0.00     0.147 C 
HETATM   20  O5  UNL     1     -14.911  43.121 -27.438  1.00  0.00    -0.312 OA
HETATM   21  C16 UNL     1     -15.982  42.327 -27.648  1.00  0.00     0.283 C 
HETATM   22  O6  UNL     1     -16.102  41.494 -28.532  1.00  0.00    -0.260 OA
HETATM   23  C17 UNL     1     -16.989  42.507 -26.578  1.00  0.00     0.082 C 
HETATM   24  C18 UNL     1     -17.304  43.612 -25.882  1.00  0.00     0.006 C 
HETATM   25  C19 UNL     1     -16.820  44.955 -26.104  1.00  0.00    -0.001 C 
HETATM   26  C20 UNL     1     -16.919  45.992 -25.256  1.00  0.00     0.007 C 
HETATM   27  C21 UNL     1     -17.436  46.015 -23.835  1.00  0.00     0.172 C 
HETATM   28  O8  UNL     1     -16.575  46.872 -23.065  1.00  0.00    -0.379 OA
HETATM   29  C24 UNL     1     -15.344  46.255 -22.681  1.00  0.00     0.173 C 
HETATM   30  C25 UNL     1     -14.388  47.343 -22.181  1.00  0.00     0.060 C 
HETATM   31  C26 UNL     1     -12.648  43.984 -28.006  1.00  0.00     0.034 C 
HETATM   32  C27 UNL     1     -13.119  45.280 -28.679  1.00  0.00     0.022 C 
HETATM   33  C28 UNL     1     -11.518  43.275 -28.714  1.00  0.00     0.119 A 
HETATM   34  C29 UNL     1     -10.337  43.899 -29.417  1.00  0.00     0.210 A 
HETATM   35  O9  UNL     1     -11.473  43.389 -30.139  1.00  0.00    -0.371 OA
ENDROOT
BRANCH  27  36
HETATM   36  C22 UNL     1     -18.878  46.590 -23.780  1.00  0.00     0.146 C 
HETATM   37  C23 UNL     1     -19.939  45.513 -24.001  1.00  0.00     0.042 C 
BRANCH  36  38
HETATM   38  O7  UNL     1     -19.072  47.606 -24.771  1.00  0.00    -0.393 OA
HETATM   39  H27 UNL     1     -19.051  47.181 -25.643  1.00  0.00     0.210 HD
ENDBRANCH  36  38
ENDBRANCH  27  36
TORSDOF 2
ENDMDL
MODEL 8
REMARK minimizedAffinity -6.9137373
REMARK CNNscore 0.21362552
REMARK CNNaffinity 5.11363602
REMARK  2 active torsions:
REMARK  status: ('A' for Active; 'I' for Inactive)
REMARK    1  A    between atoms: C21_27  and  C22_28 
REMARK    2  A    between atoms: C22_28  and  O7_30 
ROOT
HETATM    1  C1  UNL     1     -17.007  46.293 -21.911  1.00  0.00     0.043 C 
HETATM    2  C2  UNL     1     -16.255  46.563 -23.188  1.00  0.00    -0.076 C 
HETATM    3  C3  UNL     1     -14.954  46.921 -23.145  1.00  0.00     0.084 C 
HETATM    4  C4  UNL     1     -14.103  47.148 -24.336  1.00  0.00     0.283 C 
HETATM    5  O1  UNL     1     -14.510  47.380 -25.460  1.00  0.00    -0.260 OA
HETATM    6  O2  UNL     1     -12.806  46.934 -23.980  1.00  0.00    -0.317 OA
HETATM    7  C5  UNL     1     -11.891  46.763 -25.083  1.00  0.00     0.195 C 
HETATM    8  C6  UNL     1     -11.448  45.257 -25.276  1.00  0.00     0.053 C 
HETATM    9  C7  UNL     1     -10.509  44.901 -24.037  1.00  0.00     0.159 C 
HETATM   10  C8  UNL     1     -11.210  44.555 -22.750  1.00  0.00     0.011 C 
HETATM   11  C9  UNL     1     -12.466  44.075 -22.717  1.00  0.00    -0.054 C 
HETATM   12  C10 UNL     1     -13.132  43.712 -21.421  1.00  0.00     0.046 C 
HETATM   13  C11 UNL     1     -13.220  43.807 -23.950  1.00  0.00     0.180 A 
HETATM   14  O3  UNL     1     -12.628  43.025 -24.990  1.00  0.00    -0.370 OA
HETATM   15  C12 UNL     1     -12.731  44.430 -25.251  1.00  0.00     0.170 A 
HETATM   16  O4  UNL     1      -9.547  43.856 -24.250  1.00  0.00    -0.372 OA
HETATM   17  C13 UNL     1      -8.976  43.795 -25.560  1.00  0.00     0.162 C 
HETATM   18  C14 UNL     1      -9.810  42.795 -26.381  1.00  0.00     0.068 C 
HETATM   19  C15 UNL     1     -10.654  43.675 -27.319  1.00  0.00     0.147 C 
HETATM   20  O5  UNL     1     -11.984  43.226 -27.563  1.00  0.00    -0.312 OA
HETATM   21  C16 UNL     1     -12.136  42.068 -28.240  1.00  0.00     0.283 C 
HETATM   22  O6  UNL     1     -11.246  41.411 -28.756  1.00  0.00    -0.260 OA
HETATM   23  C17 UNL     1     -13.542  41.608 -28.190  1.00  0.00     0.082 C 
HETATM   24  C18 UNL     1     -14.674  42.331 -28.159  1.00  0.00     0.006 C 
HETATM   25  C19 UNL     1     -14.803  43.763 -28.306  1.00  0.00    -0.001 C 
HETATM   26  C20 UNL     1     -15.884  44.503 -28.009  1.00  0.00     0.007 C 
HETATM   27  C21 UNL     1     -17.176  44.080 -27.346  1.00  0.00     0.172 C 
HETATM   28  O8  UNL     1     -17.560  45.115 -26.426  1.00  0.00    -0.379 OA
HETATM   29  C24 UNL     1     -16.838  45.085 -25.192  1.00  0.00     0.173 C 
HETATM   30  C25 UNL     1     -17.079  46.406 -24.454  1.00  0.00     0.060 C 
HETATM   31  C26 UNL     1     -10.623  45.104 -26.663  1.00  0.00     0.034 C 
HETATM   32  C27 UNL     1     -10.986  46.121 -27.754  1.00  0.00     0.022 C 
HETATM   33  C28 UNL     1      -9.171  45.105 -26.253  1.00  0.00     0.119 A 
HETATM   34  C29 UNL     1      -8.254  46.296 -26.112  1.00  0.00     0.210 A 
HETATM   35  O9  UNL     1      -8.212  45.431 -27.263  1.00  0.00    -0.371 OA
ENDROOT
BRANCH  27  36
HETATM   36  C22 UNL     1     -18.307  43.913 -28.398  1.00  0.00     0.146 C 
HETATM   37  C23 UNL     1     -18.990  42.549 -28.302  1.00  0.00     0.042 C 
BRANCH  36  38
HETATM   38  O7  UNL     1     -17.805  44.058 -29.732  1.00  0.00    -0.393 OA
HETATM   39  H27 UNL     1     -17.232  43.297 -29.920  1.00  0.00     0.210 HD
ENDBRANCH  36  38
ENDBRANCH  27  36
TORSDOF 2
ENDMDL
MODEL 9
REMARK minimizedAffinity -6.84822941
REMARK CNNscore 0.202011019
REMARK CNNaffinity 5.19372797
REMARK  2 active torsions:
REMARK  status: ('A' for Active; 'I' for Inactive)
REMARK    1  A    between atoms: C21_27  and  C22_28 
REMARK    2  A    between atoms: C22_28  and  O7_30 
ROOT
HETATM    1  C1  UNL     1     -19.564  44.838 -21.858  1.00  0.00     0.043 C 
HETATM    2  C2  UNL     1     -18.971  45.304 -23.161  1.00  0.00    -0.076 C 
HETATM    3  C3  UNL     1     -17.883  46.105 -23.164  1.00  0.00     0.084 C 
HETATM    4  C4  UNL     1     -17.183  46.569 -24.383  1.00  0.00     0.283 C 
HETATM    5  O1  UNL     1     -17.657  46.592 -25.505  1.00  0.00    -0.260 OA
HETATM    6  O2  UNL     1     -15.892  46.848 -24.052  1.00  0.00    -0.317 OA
HETATM    7  C5  UNL     1     -14.987  46.968 -25.170  1.00  0.00     0.195 C 
HETATM    8  C6  UNL     1     -14.037  45.714 -25.319  1.00  0.00     0.053 C 
HETATM    9  C7  UNL     1     -13.020  45.770 -24.091  1.00  0.00     0.159 C 
HETATM   10  C8  UNL     1     -13.537  45.252 -22.776  1.00  0.00     0.011 C 
HETATM   11  C9  UNL     1     -14.538  44.357 -22.694  1.00  0.00    -0.054 C 
HETATM   12  C10 UNL     1     -15.017  43.836 -21.369  1.00  0.00     0.046 C 
HETATM   13  C11 UNL     1     -15.158  43.785 -23.897  1.00  0.00     0.180 A 
HETATM   14  O3  UNL     1     -14.336  43.222 -24.922  1.00  0.00    -0.370 OA
HETATM   15  C12 UNL     1     -14.938  44.484 -25.232  1.00  0.00     0.170 A 
HETATM   16  O4  UNL     1     -11.750  45.130 -24.289  1.00  0.00    -0.372 OA
HETATM   17  C13 UNL     1     -11.207  45.221 -25.610  1.00  0.00     0.162 C 
HETATM   18  C14 UNL     1     -11.636  43.954 -26.373  1.00  0.00     0.068 C 
HETATM   19  C15 UNL     1     -12.749  44.434 -27.321  1.00  0.00     0.147 C 
HETATM   20  O5  UNL     1     -13.832  43.529 -27.516  1.00  0.00    -0.312 OA
HETATM   21  C16 UNL     1     -13.566  42.365 -28.146  1.00  0.00     0.283 C 
HETATM   22  O6  UNL     1     -12.505  42.048 -28.660  1.00  0.00    -0.260 OA
HETATM   23  C17 UNL     1     -14.714  41.436 -28.045  1.00  0.00     0.082 C 
HETATM   24  C18 UNL     1     -16.029  41.707 -28.012  1.00  0.00     0.006 C 
HETATM   25  C19 UNL     1     -16.664  42.990 -28.209  1.00  0.00    -0.001 C 
HETATM   26  C20 UNL     1     -17.935  43.308 -27.912  1.00  0.00     0.007 C 
HETATM   27  C21 UNL     1     -18.984  42.480 -27.202  1.00  0.00     0.172 C 
HETATM   28  O8  UNL     1     -19.704  43.348 -26.311  1.00  0.00    -0.379 OA
HETATM   29  C24 UNL     1     -19.006  43.631 -25.095  1.00  0.00     0.173 C 
HETATM   30  C25 UNL     1     -19.697  44.809 -24.400  1.00  0.00     0.060 C 
HETATM   31  C26 UNL     1     -13.225  45.806 -26.719  1.00  0.00     0.034 C 
HETATM   32  C27 UNL     1     -13.939  46.578 -27.837  1.00  0.00     0.022 C 
HETATM   33  C28 UNL     1     -11.865  46.343 -26.345  1.00  0.00     0.119 A 
HETATM   34  C29 UNL     1     -11.434  47.788 -26.271  1.00  0.00     0.210 A 
HETATM   35  O9  UNL     1     -11.096  46.947 -27.390  1.00  0.00    -0.371 OA
ENDROOT
BRANCH  27  36
HETATM   36  C22 UNL     1     -19.991  41.874 -28.219  1.00  0.00     0.146 C 
HETATM   37  C23 UNL     1     -20.432  42.890 -29.271  1.00  0.00     0.042 C 
BRANCH  36  38
HETATM   38  O7  UNL     1     -21.167  41.387 -27.561  1.00  0.00    -0.393 OA
HETATM   39  H27 UNL     1     -21.655  42.151 -27.216  1.00  0.00     0.210 HD
ENDBRANCH  36  38
ENDBRANCH  27  36
TORSDOF 2
ENDMDL
