MODEL 1
REMARK minimizedAffinity -7.63990355
REMARK CNNscore 0.412931949
REMARK CNNaffinity 7.17718267
REMARK  10 active torsions:
REMARK  status: ('A' for Active; 'I' for Inactive)
REMARK    1  A    between atoms: C12_14  and  C13_15 
REMARK    2  A    between atoms: C13_15  and  C15_17 
REMARK    3  A    between atoms: C15_17  and  C16_18 
REMARK    4  A    between atoms: C16_18  and  C17_19 
REMARK    5  A    between atoms: C18_20  and  C20_22 
REMARK    6  A    between atoms: C20_22  and  O3_23 
REMARK    7  A    between atoms: C26_29  and  C27_30 
REMARK    8  A    between atoms: C27_30  and  C28_31 
REMARK    9  A    between atoms: C28_31  and  C29_32 
REMARK   10  A    between atoms: C29_32  and  O5_34 
ROOT
HETATM    1  C1  UNL     1       0.601   5.509  13.529  1.00  0.00     0.025 C 
HETATM    2  C2  UNL     1      -0.206   6.568  13.680  1.00  0.00     0.015 C 
HETATM    3  C3  UNL     1       0.220   7.754  14.454  1.00  0.00     0.289 C 
HETATM    4  O1  UNL     1       1.330   7.962  14.908  1.00  0.00    -0.260 OA
HETATM    5  O2  UNL     1      -0.846   8.590  14.555  1.00  0.00    -0.311 OA
HETATM    6  C4  UNL     1      -2.042   7.949  14.070  1.00  0.00     0.142 C 
HETATM    7  C5  UNL     1      -2.886   7.557  15.275  1.00  0.00     0.039 C 
HETATM    8  C6  UNL     1      -4.111   6.683  14.972  1.00  0.00     0.006 C 
HETATM    9  C7  UNL     1      -3.815   5.537  13.976  1.00  0.00    -0.027 A 
HETATM   10  C8  UNL     1      -5.045   4.692  13.592  1.00  0.00     0.011 C 
HETATM   11  C9  UNL     1      -6.345   5.474  13.347  1.00  0.00     0.011 C 
HETATM   12  C10 UNL     1      -6.632   6.458  14.491  1.00  0.00    -0.032 C 
HETATM   13  C11 UNL     1      -6.865   5.655  15.809  1.00  0.00     0.016 C 
HETATM   14  C12 UNL     1      -7.831   7.446  14.302  1.00  0.00    -0.002 C 
HETATM   15  C21 UNL     1      -7.416   8.649  15.208  1.00  0.00     0.006 C 
HETATM   16  C22 UNL     1      -5.922   8.494  15.547  1.00  0.00     0.011 C 
HETATM   17  C23 UNL     1      -5.401   7.455  14.546  1.00  0.00    -0.032 C 
HETATM   18  C24 UNL     1      -5.149   8.211  13.202  1.00  0.00     0.016 C 
HETATM   19  C25 UNL     1      -2.607   4.680  14.264  1.00  0.00     0.022 A 
HETATM   20  C26 UNL     1      -2.548   5.614  13.066  1.00  0.00    -0.021 A 
HETATM   21  C31 UNL     1      -1.589   6.810  13.170  1.00  0.00     0.063 C 
ENDROOT
BRANCH  14  22
HETATM   22  C13 UNL     1      -9.294   6.981  14.591  1.00  0.00    -0.014 C 
HETATM   23  C14 UNL     1     -10.053   6.631  13.306  1.00  0.00     0.010 C 
BRANCH  22  24
HETATM   24  C15 UNL     1     -10.061   8.080  15.378  1.00  0.00     0.008 C 
BRANCH  24  25
HETATM   25  C16 UNL     1     -10.800   9.085  14.484  1.00  0.00     0.028 C 
BRANCH  25  26
HETATM   26  C17 UNL     1     -12.265   9.132  14.824  1.00  0.00    -0.022 C 
HETATM   27  C18 UNL     1     -13.293   9.416  13.998  1.00  0.00    -0.064 C 
HETATM   28  C19 UNL     1     -13.155   9.689  12.524  1.00  0.00     0.045 C 
BRANCH  27  29
HETATM   29  C20 UNL     1     -14.708   9.450  14.513  1.00  0.00     0.197 C 
BRANCH  29  30
HETATM   30  O3  UNL     1     -15.474  10.316  13.689  1.00  0.00    -0.397 OA
HETATM   31  H29 UNL     1     -16.372  10.327  14.057  1.00  0.00     0.209 HD
ENDBRANCH  29  30
ENDBRANCH  27  29
ENDBRANCH  25  26
ENDBRANCH  24  25
ENDBRANCH  22  24
ENDBRANCH  14  22
BRANCH  20  32
HETATM   32  C27 UNL     1      -2.657   5.070  11.631  1.00  0.00     0.021 C 
BRANCH  32  33
HETATM   33  C28 UNL     1      -1.463   4.247  11.148  1.00  0.00     0.112 C 
BRANCH  33  34
HETATM   34  C29 UNL     1      -1.739   2.767  11.253  1.00  0.00     0.258 C 
HETATM   35  O4  UNL     1      -2.811   2.266  11.565  1.00  0.00    -0.265 OA
BRANCH  34  36
HETATM   36  O5  UNL     1      -0.601   2.071  10.970  1.00  0.00    -0.326 OA
HETATM   37  C30 UNL     1      -0.832   0.730  10.536  1.00  0.00     0.213 C 
ENDBRANCH  34  36
ENDBRANCH  33  34
ENDBRANCH  32  33
ENDBRANCH  20  32
TORSDOF 10
ENDMDL
MODEL 2
REMARK minimizedAffinity -7.85758495
REMARK CNNscore 0.382382929
REMARK CNNaffinity 6.75639343
REMARK  10 active torsions:
REMARK  status: ('A' for Active; 'I' for Inactive)
REMARK    1  A    between atoms: C12_14  and  C13_15 
REMARK    2  A    between atoms: C13_15  and  C15_17 
REMARK    3  A    between atoms: C15_17  and  C16_18 
REMARK    4  A    between atoms: C16_18  and  C17_19 
REMARK    5  A    between atoms: C18_20  and  C20_22 
REMARK    6  A    between atoms: C20_22  and  O3_23 
REMARK    7  A    between atoms: C26_29  and  C27_30 
REMARK    8  A    between atoms: C27_30  and  C28_31 
REMARK    9  A    between atoms: C28_31  and  C29_32 
REMARK   10  A    between atoms: C29_32  and  O5_34 
ROOT
HETATM    1  C1  UNL     1      -3.003   1.823  11.796  1.00  0.00     0.025 C 
HETATM    2  C2  UNL     1      -2.276   2.933  11.621  1.00  0.00     0.015 C 
HETATM    3  C3  UNL     1      -0.846   2.865  11.248  1.00  0.00     0.289 C 
HETATM    4  O1  UNL     1      -0.225   1.865  10.942  1.00  0.00    -0.260 OA
HETATM    5  O2  UNL     1      -0.345   4.127  11.286  1.00  0.00    -0.311 OA
HETATM    6  C4  UNL     1      -1.300   5.036  11.867  1.00  0.00     0.142 C 
HETATM    7  C5  UNL     1      -0.840   5.360  13.282  1.00  0.00     0.039 C 
HETATM    8  C6  UNL     1      -1.832   6.160  14.137  1.00  0.00     0.006 C 
HETATM    9  C7  UNL     1      -3.289   5.653  14.021  1.00  0.00    -0.027 A 
HETATM   10  C8  UNL     1      -4.320   6.487  14.807  1.00  0.00     0.011 C 
HETATM   11  C9  UNL     1      -4.133   8.011  14.746  1.00  0.00     0.011 C 
HETATM   12  C10 UNL     1      -2.683   8.411  15.055  1.00  0.00    -0.032 C 
HETATM   13  C11 UNL     1      -2.342   8.002  16.522  1.00  0.00     0.016 C 
HETATM   14  C12 UNL     1      -2.299   9.918  14.867  1.00  0.00    -0.002 C 
HETATM   15  C21 UNL     1      -0.767   9.836  14.577  1.00  0.00     0.006 C 
HETATM   16  C22 UNL     1      -0.425   8.373  14.241  1.00  0.00     0.011 C 
HETATM   17  C23 UNL     1      -1.780   7.711  13.958  1.00  0.00    -0.032 C 
HETATM   18  C24 UNL     1      -2.169   8.091  12.493  1.00  0.00     0.016 C 
HETATM   19  C25 UNL     1      -3.511   4.171  14.194  1.00  0.00     0.022 A 
HETATM   20  C26 UNL     1      -3.700   4.761  12.806  1.00  0.00    -0.021 A 
HETATM   21  C31 UNL     1      -2.663   4.371  11.742  1.00  0.00     0.063 C 
ENDROOT
BRANCH  14  22
HETATM   22  C13 UNL     1      -2.624  10.963  15.981  1.00  0.00    -0.014 C 
HETATM   23  C14 UNL     1      -3.286  12.225  15.415  1.00  0.00     0.010 C 
BRANCH  22  24
HETATM   24  C15 UNL     1      -1.329  11.344  16.753  1.00  0.00     0.008 C 
BRANCH  24  25
HETATM   25  C16 UNL     1      -1.538  11.538  18.260  1.00  0.00     0.028 C 
BRANCH  25  26
HETATM   26  C17 UNL     1      -0.450  10.857  19.047  1.00  0.00    -0.022 C 
HETATM   27  C18 UNL     1       0.504  11.436  19.804  1.00  0.00    -0.064 C 
HETATM   28  C19 UNL     1       0.619  12.917  20.050  1.00  0.00     0.045 C 
BRANCH  27  29
HETATM   29  C20 UNL     1       1.543  10.600  20.506  1.00  0.00     0.197 C 
BRANCH  29  30
HETATM   30  O3  UNL     1       2.269   9.863  19.534  1.00  0.00    -0.397 OA
HETATM   31  H29 UNL     1       2.916   9.326  20.020  1.00  0.00     0.209 HD
ENDBRANCH  29  30
ENDBRANCH  27  29
ENDBRANCH  25  26
ENDBRANCH  24  25
ENDBRANCH  22  24
ENDBRANCH  14  22
BRANCH  20  32
HETATM   32  C27 UNL     1      -5.107   4.954  12.214  1.00  0.00     0.021 C 
BRANCH  32  33
HETATM   33  C28 UNL     1      -6.006   3.719  12.239  1.00  0.00     0.112 C 
BRANCH  33  34
HETATM   34  C29 UNL     1      -7.337   4.023  12.883  1.00  0.00     0.258 C 
HETATM   35  O4  UNL     1      -8.153   3.190  13.251  1.00  0.00    -0.265 OA
BRANCH  34  36
HETATM   36  O5  UNL     1      -7.501   5.374  12.971  1.00  0.00    -0.326 OA
HETATM   37  C30 UNL     1      -8.863   5.799  12.926  1.00  0.00     0.213 C 
ENDBRANCH  34  36
ENDBRANCH  33  34
ENDBRANCH  32  33
ENDBRANCH  20  32
TORSDOF 10
ENDMDL
MODEL 3
REMARK minimizedAffinity -7.06653404
REMARK CNNscore 0.366465211
REMARK CNNaffinity 6.50611162
REMARK  10 active torsions:
REMARK  status: ('A' for Active; 'I' for Inactive)
REMARK    1  A    between atoms: C12_14  and  C13_15 
REMARK    2  A    between atoms: C13_15  and  C15_17 
REMARK    3  A    between atoms: C15_17  and  C16_18 
REMARK    4  A    between atoms: C16_18  and  C17_19 
REMARK    5  A    between atoms: C18_20  and  C20_22 
REMARK    6  A    between atoms: C20_22  and  O3_23 
REMARK    7  A    between atoms: C26_29  and  C27_30 
REMARK    8  A    between atoms: C27_30  and  C28_31 
REMARK    9  A    between atoms: C28_31  and  C29_32 
REMARK   10  A    between atoms: C29_32  and  O5_34 
ROOT
HETATM    1  C1  UNL     1       1.090   5.256  11.014  1.00  0.00     0.025 C 
HETATM    2  C2  UNL     1       0.356   6.375  11.005  1.00  0.00     0.015 C 
HETATM    3  C3  UNL     1       0.546   7.412   9.968  1.00  0.00     0.289 C 
HETATM    4  O1  UNL     1       1.252   7.327   8.980  1.00  0.00    -0.260 OA
HETATM    5  O2  UNL     1      -0.226   8.479  10.299  1.00  0.00    -0.311 OA
HETATM    6  C4  UNL     1      -0.779   8.317  11.619  1.00  0.00     0.142 C 
HETATM    7  C5  UNL     1      -0.011   9.227  12.567  1.00  0.00     0.039 C 
HETATM    8  C6  UNL     1      -0.323   9.049  14.060  1.00  0.00     0.006 C 
HETATM    9  C7  UNL     1      -0.405   7.568  14.495  1.00  0.00    -0.027 A 
HETATM   10  C8  UNL     1      -0.795   7.357  15.972  1.00  0.00     0.011 C 
HETATM   11  C9  UNL     1      -1.904   8.277  16.508  1.00  0.00     0.011 C 
HETATM   12  C10 UNL     1      -1.625   9.749  16.169  1.00  0.00    -0.032 C 
HETATM   13  C11 UNL     1      -0.316  10.199  16.891  1.00  0.00     0.016 C 
HETATM   14  C12 UNL     1      -2.749  10.786  16.503  1.00  0.00    -0.002 C 
HETATM   15  C21 UNL     1      -2.469  11.922  15.468  1.00  0.00     0.006 C 
HETATM   16  C22 UNL     1      -1.515  11.363  14.396  1.00  0.00     0.011 C 
HETATM   17  C23 UNL     1      -1.561   9.842  14.589  1.00  0.00    -0.032 C 
HETATM   18  C24 UNL     1      -2.859   9.337  13.880  1.00  0.00     0.016 C 
HETATM   19  C25 UNL     1       0.734   6.670  14.078  1.00  0.00     0.022 A 
HETATM   20  C26 UNL     1      -0.618   6.458  13.418  1.00  0.00    -0.021 A 
HETATM   21  C31 UNL     1      -0.727   6.828  11.931  1.00  0.00     0.063 C 
ENDROOT
BRANCH  14  22
HETATM   22  C13 UNL     1      -2.904  11.347  17.952  1.00  0.00    -0.014 C 
HETATM   23  C14 UNL     1      -3.423  10.286  18.930  1.00  0.00     0.010 C 
BRANCH  22  24
HETATM   24  C15 UNL     1      -3.854  12.578  17.952  1.00  0.00     0.008 C 
BRANCH  24  25
HETATM   25  C16 UNL     1      -4.179  13.113  19.352  1.00  0.00     0.028 C 
BRANCH  25  26
HETATM   26  C17 UNL     1      -5.654  13.375  19.499  1.00  0.00    -0.022 C 
HETATM   27  C18 UNL     1      -6.372  13.428  20.640  1.00  0.00    -0.064 C 
HETATM   28  C19 UNL     1      -5.792  13.283  22.022  1.00  0.00     0.045 C 
BRANCH  27  29
HETATM   29  C20 UNL     1      -7.858  13.674  20.605  1.00  0.00     0.197 C 
BRANCH  29  30
HETATM   30  O3  UNL     1      -8.488  12.791  21.521  1.00  0.00    -0.397 OA
HETATM   31  H29 UNL     1      -9.442  12.965  21.461  1.00  0.00     0.209 HD
ENDBRANCH  29  30
ENDBRANCH  27  29
ENDBRANCH  25  26
ENDBRANCH  24  25
ENDBRANCH  22  24
ENDBRANCH  14  22
BRANCH  20  32
HETATM   32  C27 UNL     1      -1.499   5.252  13.789  1.00  0.00     0.021 C 
BRANCH  32  33
HETATM   33  C28 UNL     1      -2.969   5.364  13.391  1.00  0.00     0.112 C 
BRANCH  33  34
HETATM   34  C29 UNL     1      -3.398   4.194  12.540  1.00  0.00     0.258 C 
HETATM   35  O4  UNL     1      -2.656   3.322  12.108  1.00  0.00    -0.265 OA
BRANCH  34  36
HETATM   36  O5  UNL     1      -4.739   4.270  12.303  1.00  0.00    -0.326 OA
HETATM   37  C30 UNL     1      -5.263   3.169  11.561  1.00  0.00     0.213 C 
ENDBRANCH  34  36
ENDBRANCH  33  34
ENDBRANCH  32  33
ENDBRANCH  20  32
TORSDOF 10
ENDMDL
MODEL 4
REMARK minimizedAffinity -7.52952099
REMARK CNNscore 0.363323212
REMARK CNNaffinity 6.58775759
REMARK  10 active torsions:
REMARK  status: ('A' for Active; 'I' for Inactive)
REMARK    1  A    between atoms: C12_14  and  C13_15 
REMARK    2  A    between atoms: C13_15  and  C15_17 
REMARK    3  A    between atoms: C15_17  and  C16_18 
REMARK    4  A    between atoms: C16_18  and  C17_19 
REMARK    5  A    between atoms: C18_20  and  C20_22 
REMARK    6  A    between atoms: C20_22  and  O3_23 
REMARK    7  A    between atoms: C26_29  and  C27_30 
REMARK    8  A    between atoms: C27_30  and  C28_31 
REMARK    9  A    between atoms: C28_31  and  C29_32 
REMARK   10  A    between atoms: C29_32  and  O5_34 
ROOT
HETATM    1  C1  UNL     1      -3.461  13.757  19.264  1.00  0.00     0.025 C 
HETATM    2  C2  UNL     1      -3.583  13.476  17.961  1.00  0.00     0.015 C 
HETATM    3  C3  UNL     1      -4.666  14.068  17.146  1.00  0.00     0.289 C 
HETATM    4  O1  UNL     1      -5.450  14.929  17.499  1.00  0.00    -0.260 OA
HETATM    5  O2  UNL     1      -4.624  13.493  15.916  1.00  0.00    -0.311 OA
HETATM    6  C4  UNL     1      -3.701  12.386  15.904  1.00  0.00     0.142 C 
HETATM    7  C5  UNL     1      -4.511  11.098  15.915  1.00  0.00     0.039 C 
HETATM    8  C6  UNL     1      -3.704   9.806  16.103  1.00  0.00     0.006 C 
HETATM    9  C7  UNL     1      -2.627   9.913  17.207  1.00  0.00    -0.027 A 
HETATM   10  C8  UNL     1      -1.748   8.657  17.365  1.00  0.00     0.011 C 
HETATM   11  C9  UNL     1      -1.303   7.983  16.058  1.00  0.00     0.011 C 
HETATM   12  C10 UNL     1      -2.490   7.764  15.108  1.00  0.00    -0.032 C 
HETATM   13  C11 UNL     1      -3.500   6.775  15.771  1.00  0.00     0.016 C 
HETATM   14  C12 UNL     1      -2.169   7.241  13.668  1.00  0.00    -0.002 C 
HETATM   15  C21 UNL     1      -3.376   7.785  12.840  1.00  0.00     0.006 C 
HETATM   16  C22 UNL     1      -4.088   8.855  13.687  1.00  0.00     0.011 C 
HETATM   17  C23 UNL     1      -3.091   9.197  14.801  1.00  0.00    -0.032 C 
HETATM   18  C24 UNL     1      -2.053  10.191  14.187  1.00  0.00     0.016 C 
HETATM   19  C25 UNL     1      -3.070  10.464  18.540  1.00  0.00     0.022 A 
HETATM   20  C26 UNL     1      -2.150  11.321  17.686  1.00  0.00    -0.021 A 
HETATM   21  C31 UNL     1      -2.759  12.595  17.080  1.00  0.00     0.063 C 
ENDROOT
BRANCH  14  22
HETATM   22  C13 UNL     1      -1.930   5.718  13.413  1.00  0.00    -0.014 C 
HETATM   23  C14 UNL     1      -1.503   5.434  11.968  1.00  0.00     0.010 C 
BRANCH  22  24
HETATM   24  C15 UNL     1      -3.213   4.910  13.755  1.00  0.00     0.008 C 
BRANCH  24  25
HETATM   25  C16 UNL     1      -4.031   4.492  12.527  1.00  0.00     0.028 C 
BRANCH  25  26
HETATM   26  C17 UNL     1      -5.467   4.235  12.899  1.00  0.00    -0.022 C 
HETATM   27  C18 UNL     1      -6.266   3.239  12.462  1.00  0.00    -0.064 C 
HETATM   28  C19 UNL     1      -5.827   2.137  11.535  1.00  0.00     0.045 C 
BRANCH  27  29
HETATM   29  C20 UNL     1      -7.699   3.146  12.915  1.00  0.00     0.197 C 
BRANCH  29  30
HETATM   30  O3  UNL     1      -8.210   1.872  12.553  1.00  0.00    -0.397 OA
HETATM   31  H29 UNL     1      -9.136   1.852  12.844  1.00  0.00     0.209 HD
ENDBRANCH  29  30
ENDBRANCH  27  29
ENDBRANCH  25  26
ENDBRANCH  24  25
ENDBRANCH  22  24
ENDBRANCH  14  22
BRANCH  20  32
HETATM   32  C27 UNL     1      -0.666  11.494  18.050  1.00  0.00     0.021 C 
BRANCH  32  33
HETATM   33  C28 UNL     1      -0.393  12.133  19.411  1.00  0.00     0.112 C 
BRANCH  33  34
HETATM   34  C29 UNL     1       0.720  11.418  20.138  1.00  0.00     0.258 C 
HETATM   35  O4  UNL     1       0.755  10.219  20.378  1.00  0.00    -0.265 OA
BRANCH  34  36
HETATM   36  O5  UNL     1       1.673  12.320  20.511  1.00  0.00    -0.326 OA
HETATM   37  C30 UNL     1       1.808  13.425  19.617  1.00  0.00     0.213 C 
ENDBRANCH  34  36
ENDBRANCH  33  34
ENDBRANCH  32  33
ENDBRANCH  20  32
TORSDOF 10
ENDMDL
MODEL 5
REMARK minimizedAffinity -8.56199932
REMARK CNNscore 0.329279989
REMARK CNNaffinity 6.90820312
REMARK  10 active torsions:
REMARK  status: ('A' for Active; 'I' for Inactive)
REMARK    1  A    between atoms: C12_14  and  C13_15 
REMARK    2  A    between atoms: C13_15  and  C15_17 
REMARK    3  A    between atoms: C15_17  and  C16_18 
REMARK    4  A    between atoms: C16_18  and  C17_19 
REMARK    5  A    between atoms: C18_20  and  C20_22 
REMARK    6  A    between atoms: C20_22  and  O3_23 
REMARK    7  A    between atoms: C26_29  and  C27_30 
REMARK    8  A    between atoms: C27_30  and  C28_31 
REMARK    9  A    between atoms: C28_31  and  C29_32 
REMARK   10  A    between atoms: C29_32  and  O5_34 
ROOT
HETATM    1  C1  UNL     1       3.788   7.094  12.095  1.00  0.00     0.025 C 
HETATM    2  C2  UNL     1       2.913   8.025  12.495  1.00  0.00     0.015 C 
HETATM    3  C3  UNL     1       3.320   9.126  13.394  1.00  0.00     0.289 C 
HETATM    4  O1  UNL     1       4.453   9.387  13.753  1.00  0.00    -0.260 OA
HETATM    5  O2  UNL     1       2.202   9.817  13.739  1.00  0.00    -0.311 OA
HETATM    6  C4  UNL     1       1.019   9.127  13.293  1.00  0.00     0.142 C 
HETATM    7  C5  UNL     1       0.370   8.474  14.505  1.00  0.00     0.039 C 
HETATM    8  C6  UNL     1      -0.798   7.524  14.203  1.00  0.00     0.006 C 
HETATM    9  C7  UNL     1      -0.523   6.574  13.014  1.00  0.00    -0.027 A 
HETATM   10  C8  UNL     1      -1.708   5.663  12.638  1.00  0.00     0.011 C 
HETATM   11  C9  UNL     1      -3.094   6.326  12.659  1.00  0.00     0.011 C 
HETATM   12  C10 UNL     1      -3.327   7.097  13.967  1.00  0.00    -0.032 C 
HETATM   13  C11 UNL     1      -3.322   6.091  15.161  1.00  0.00     0.016 C 
HETATM   14  C12 UNL     1      -4.627   7.965  14.066  1.00  0.00    -0.002 C 
HETATM   15  C21 UNL     1      -4.215   9.062  15.099  1.00  0.00     0.006 C 
HETATM   16  C22 UNL     1      -2.683   9.024  15.246  1.00  0.00     0.011 C 
HETATM   17  C23 UNL     1      -2.196   8.204  14.044  1.00  0.00    -0.032 C 
HETATM   18  C24 UNL     1      -2.182   9.169  12.816  1.00  0.00     0.016 C 
HETATM   19  C25 UNL     1       0.785   5.821  13.032  1.00  0.00     0.022 A 
HETATM   20  C26 UNL     1       0.610   6.920  11.997  1.00  0.00    -0.021 A 
HETATM   21  C31 UNL     1       1.461   8.186  12.181  1.00  0.00     0.063 C 
ENDROOT
BRANCH  14  22
HETATM   22  C13 UNL     1      -5.993   7.305  14.434  1.00  0.00    -0.014 C 
HETATM   23  C14 UNL     1      -5.928   6.542  15.763  1.00  0.00     0.010 C 
BRANCH  22  24
HETATM   24  C15 UNL     1      -6.451   6.349  13.297  1.00  0.00     0.008 C 
BRANCH  24  25
HETATM   25  C16 UNL     1      -6.465   4.868  13.696  1.00  0.00     0.028 C 
BRANCH  25  26
HETATM   26  C17 UNL     1      -5.923   4.006  12.587  1.00  0.00    -0.022 C 
HETATM   27  C18 UNL     1      -6.386   2.809  12.173  1.00  0.00    -0.064 C 
HETATM   28  C19 UNL     1      -7.606   2.126  12.730  1.00  0.00     0.045 C 
BRANCH  27  29
HETATM   29  C20 UNL     1      -5.701   2.061  11.059  1.00  0.00     0.197 C 
BRANCH  29  30
HETATM   30  O3  UNL     1      -4.330   2.426  11.039  1.00  0.00    -0.397 OA
HETATM   31  H29 UNL     1      -3.924   1.940  10.303  1.00  0.00     0.209 HD
ENDBRANCH  29  30
ENDBRANCH  27  29
ENDBRANCH  25  26
ENDBRANCH  24  25
ENDBRANCH  22  24
ENDBRANCH  14  22
BRANCH  20  32
HETATM   32  C27 UNL     1       0.376   6.580  10.514  1.00  0.00     0.021 C 
BRANCH  32  33
HETATM   33  C28 UNL     1       1.416   7.133   9.541  1.00  0.00     0.112 C 
BRANCH  33  34
HETATM   34  C29 UNL     1       0.853   8.273   8.728  1.00  0.00     0.258 C 
HETATM   35  O4  UNL     1      -0.149   8.916   9.007  1.00  0.00    -0.265 OA
BRANCH  34  36
HETATM   36  O5  UNL     1       1.621   8.461   7.616  1.00  0.00    -0.326 OA
HETATM   37  C30 UNL     1       1.939   7.257   6.918  1.00  0.00     0.213 C 
ENDBRANCH  34  36
ENDBRANCH  33  34
ENDBRANCH  32  33
ENDBRANCH  20  32
TORSDOF 10
ENDMDL
MODEL 6
REMARK minimizedAffinity -8.64547729
REMARK CNNscore 0.303684741
REMARK CNNaffinity 6.99797964
REMARK  10 active torsions:
REMARK  status: ('A' for Active; 'I' for Inactive)
REMARK    1  A    between atoms: C12_14  and  C13_15 
REMARK    2  A    between atoms: C13_15  and  C15_17 
REMARK    3  A    between atoms: C15_17  and  C16_18 
REMARK    4  A    between atoms: C16_18  and  C17_19 
REMARK    5  A    between atoms: C18_20  and  C20_22 
REMARK    6  A    between atoms: C20_22  and  O3_23 
REMARK    7  A    between atoms: C26_29  and  C27_30 
REMARK    8  A    between atoms: C27_30  and  C28_31 
REMARK    9  A    between atoms: C28_31  and  C29_32 
REMARK   10  A    between atoms: C29_32  and  O5_34 
ROOT
HETATM    1  C1  UNL     1       2.082   8.516  13.912  1.00  0.00     0.025 C 
HETATM    2  C2  UNL     1       0.920   9.180  13.954  1.00  0.00     0.015 C 
HETATM    3  C3  UNL     1       0.782  10.441  14.713  1.00  0.00     0.289 C 
HETATM    4  O1  UNL     1       1.678  11.065  15.249  1.00  0.00    -0.260 OA
HETATM    5  O2  UNL     1      -0.528  10.799  14.692  1.00  0.00    -0.311 OA
HETATM    6  C4  UNL     1      -1.335   9.743  14.135  1.00  0.00     0.142 C 
HETATM    7  C5  UNL     1      -2.069   9.058  15.279  1.00  0.00     0.039 C 
HETATM    8  C6  UNL     1      -2.829   7.777  14.910  1.00  0.00     0.006 C 
HETATM    9  C7  UNL     1      -2.023   6.831  13.988  1.00  0.00    -0.027 A 
HETATM   10  C8  UNL     1      -2.791   5.573  13.537  1.00  0.00     0.011 C 
HETATM   11  C9  UNL     1      -4.263   5.790  13.153  1.00  0.00     0.011 C 
HETATM   12  C10 UNL     1      -5.012   6.591  14.230  1.00  0.00    -0.032 C 
HETATM   13  C11 UNL     1      -5.037   5.764  15.555  1.00  0.00     0.016 C 
HETATM   14  C12 UNL     1      -6.477   7.035  13.903  1.00  0.00    -0.002 C 
HETATM   15  C21 UNL     1      -6.642   8.308  14.793  1.00  0.00     0.006 C 
HETATM   16  C22 UNL     1      -5.242   8.746  15.261  1.00  0.00     0.011 C 
HETATM   17  C23 UNL     1      -4.271   7.986  14.348  1.00  0.00    -0.032 C 
HETATM   18  C24 UNL     1      -4.208   8.776  13.001  1.00  0.00     0.016 C 
HETATM   19  C25 UNL     1      -0.610   6.511  14.409  1.00  0.00     0.022 A 
HETATM   20  C26 UNL     1      -0.806   7.390  13.185  1.00  0.00    -0.021 A 
HETATM   21  C31 UNL     1      -0.396   8.865  13.321  1.00  0.00     0.063 C 
ENDROOT
BRANCH  14  22
HETATM   22  C13 UNL     1      -7.666   6.040  14.087  1.00  0.00    -0.014 C 
HETATM   23  C14 UNL     1      -7.434   5.072  15.253  1.00  0.00     0.010 C 
BRANCH  22  24
HETATM   24  C15 UNL     1      -7.905   5.241  12.775  1.00  0.00     0.008 C 
BRANCH  24  25
HETATM   25  C16 UNL     1      -7.484   3.768  12.857  1.00  0.00     0.028 C 
BRANCH  25  26
HETATM   26  C17 UNL     1      -6.073   3.583  12.370  1.00  0.00    -0.022 C 
HETATM   27  C18 UNL     1      -5.539   2.489  11.788  1.00  0.00    -0.064 C 
HETATM   28  C19 UNL     1      -6.306   1.235  11.461  1.00  0.00     0.045 C 
BRANCH  27  29
HETATM   29  C20 UNL     1      -4.089   2.460  11.384  1.00  0.00     0.197 C 
BRANCH  29  30
HETATM   30  O3  UNL     1      -3.622   1.122  11.451  1.00  0.00    -0.397 OA
HETATM   31  H29 UNL     1      -2.684   1.142  11.201  1.00  0.00     0.209 HD
ENDBRANCH  29  30
ENDBRANCH  27  29
ENDBRANCH  25  26
ENDBRANCH  24  25
ENDBRANCH  22  24
ENDBRANCH  14  22
BRANCH  20  32
HETATM   32  C27 UNL     1      -0.563   6.840  11.769  1.00  0.00     0.021 C 
BRANCH  32  33
HETATM   33  C28 UNL     1       0.777   6.139  11.557  1.00  0.00     0.112 C 
BRANCH  33  34
HETATM   34  C29 UNL     1       1.366   6.479  10.209  1.00  0.00     0.258 C 
HETATM   35  O4  UNL     1       1.235   7.547   9.627  1.00  0.00    -0.265 OA
BRANCH  34  36
HETATM   36  O5  UNL     1       2.049   5.401   9.726  1.00  0.00    -0.326 OA
HETATM   37  C30 UNL     1       3.085   5.735   8.803  1.00  0.00     0.213 C 
ENDBRANCH  34  36
ENDBRANCH  33  34
ENDBRANCH  32  33
ENDBRANCH  20  32
TORSDOF 10
ENDMDL
MODEL 7
REMARK minimizedAffinity -7.11955929
REMARK CNNscore 0.264554977
REMARK CNNaffinity 6.38910151
REMARK  10 active torsions:
REMARK  status: ('A' for Active; 'I' for Inactive)
REMARK    1  A    between atoms: C12_14  and  C13_15 
REMARK    2  A    between atoms: C13_15  and  C15_17 
REMARK    3  A    between atoms: C15_17  and  C16_18 
REMARK    4  A    between atoms: C16_18  and  C17_19 
REMARK    5  A    between atoms: C18_20  and  C20_22 
REMARK    6  A    between atoms: C20_22  and  O3_23 
REMARK    7  A    between atoms: C26_29  and  C27_30 
REMARK    8  A    between atoms: C27_30  and  C28_31 
REMARK    9  A    between atoms: C28_31  and  C29_32 
REMARK   10  A    between atoms: C29_32  and  O5_34 
ROOT
HETATM    1  C1  UNL     1      -2.375   3.815  10.725  1.00  0.00     0.025 C 
HETATM    2  C2  UNL     1      -3.056   4.209  11.808  1.00  0.00     0.015 C 
HETATM    3  C3  UNL     1      -4.518   4.007  11.913  1.00  0.00     0.289 C 
HETATM    4  O1  UNL     1      -5.219   3.380  11.141  1.00  0.00    -0.260 OA
HETATM    5  O2  UNL     1      -4.945   4.631  13.041  1.00  0.00    -0.311 OA
HETATM    6  C4  UNL     1      -3.890   5.430  13.611  1.00  0.00     0.142 C 
HETATM    7  C5  UNL     1      -4.187   6.890  13.304  1.00  0.00     0.039 C 
HETATM    8  C6  UNL     1      -3.073   7.885  13.659  1.00  0.00     0.006 C 
HETATM    9  C7  UNL     1      -1.664   7.401  13.243  1.00  0.00    -0.027 A 
HETATM   10  C8  UNL     1      -0.517   8.342  13.658  1.00  0.00     0.011 C 
HETATM   11  C9  UNL     1      -0.628   8.953  15.064  1.00  0.00     0.011 C 
HETATM   12  C10 UNL     1      -2.017   9.565  15.301  1.00  0.00    -0.032 C 
HETATM   13  C11 UNL     1      -2.229  10.750  14.307  1.00  0.00     0.016 C 
HETATM   14  C12 UNL     1      -2.337  10.075  16.746  1.00  0.00    -0.002 C 
HETATM   15  C21 UNL     1      -3.893   9.954  16.803  1.00  0.00     0.006 C 
HETATM   16  C22 UNL     1      -4.344   9.073  15.624  1.00  0.00     0.011 C 
HETATM   17  C23 UNL     1      -3.061   8.385  15.139  1.00  0.00    -0.032 C 
HETATM   18  C24 UNL     1      -2.802   7.184  16.104  1.00  0.00     0.016 C 
HETATM   19  C25 UNL     1      -1.505   6.905  11.827  1.00  0.00     0.022 A 
HETATM   20  C26 UNL     1      -1.426   5.885  12.951  1.00  0.00    -0.021 A 
HETATM   21  C31 UNL     1      -2.584   4.881  13.056  1.00  0.00     0.063 C 
ENDROOT
BRANCH  14  22
HETATM   22  C13 UNL     1      -1.847  11.482  17.216  1.00  0.00    -0.014 C 
HETATM   23  C14 UNL     1      -0.928  11.395  18.440  1.00  0.00     0.010 C 
BRANCH  22  24
HETATM   24  C15 UNL     1      -3.064  12.396  17.531  1.00  0.00     0.008 C 
BRANCH  24  25
HETATM   25  C16 UNL     1      -3.116  12.885  18.984  1.00  0.00     0.028 C 
BRANCH  25  26
HETATM   26  C17 UNL     1      -4.520  12.820  19.524  1.00  0.00    -0.022 C 
HETATM   27  C18 UNL     1      -5.466  13.780  19.476  1.00  0.00    -0.064 C 
HETATM   28  C19 UNL     1      -5.297  15.113  18.798  1.00  0.00     0.045 C 
BRANCH  27  29
HETATM   29  C20 UNL     1      -6.821  13.559  20.097  1.00  0.00     0.197 C 
BRANCH  29  30
HETATM   30  O3  UNL     1      -7.820  13.895  19.147  1.00  0.00    -0.397 OA
HETATM   31  H29 UNL     1      -8.676  13.757  19.583  1.00  0.00     0.209 HD
ENDBRANCH  29  30
ENDBRANCH  27  29
ENDBRANCH  25  26
ENDBRANCH  24  25
ENDBRANCH  22  24
ENDBRANCH  14  22
BRANCH  20  32
HETATM   32  C27 UNL     1      -0.077   5.273  13.370  1.00  0.00     0.021 C 
BRANCH  32  33
HETATM   33  C28 UNL     1       1.110   5.624  12.476  1.00  0.00     0.112 C 
BRANCH  33  34
HETATM   34  C29 UNL     1       1.163   4.730  11.260  1.00  0.00     0.258 C 
HETATM   35  O4  UNL     1       0.894   3.537  11.246  1.00  0.00    -0.265 OA
BRANCH  34  36
HETATM   36  O5  UNL     1       1.581   5.453  10.182  1.00  0.00    -0.326 OA
HETATM   37  C30 UNL     1       3.000   5.505  10.030  1.00  0.00     0.213 C 
ENDBRANCH  34  36
ENDBRANCH  33  34
ENDBRANCH  32  33
ENDBRANCH  20  32
TORSDOF 10
ENDMDL
MODEL 8
REMARK minimizedAffinity -8.29896641
REMARK CNNscore 0.242465198
REMARK CNNaffinity 6.82686758
REMARK  10 active torsions:
REMARK  status: ('A' for Active; 'I' for Inactive)
REMARK    1  A    between atoms: C12_14  and  C13_15 
REMARK    2  A    between atoms: C13_15  and  C15_17 
REMARK    3  A    between atoms: C15_17  and  C16_18 
REMARK    4  A    between atoms: C16_18  and  C17_19 
REMARK    5  A    between atoms: C18_20  and  C20_22 
REMARK    6  A    between atoms: C20_22  and  O3_23 
REMARK    7  A    between atoms: C26_29  and  C27_30 
REMARK    8  A    between atoms: C27_30  and  C28_31 
REMARK    9  A    between atoms: C28_31  and  C29_32 
REMARK   10  A    between atoms: C29_32  and  O5_34 
ROOT
HETATM    1  C1  UNL     1       2.107   7.367  13.737  1.00  0.00     0.025 C 
HETATM    2  C2  UNL     1       1.051   8.190  13.732  1.00  0.00     0.015 C 
HETATM    3  C3  UNL     1       1.114   9.525  14.366  1.00  0.00     0.289 C 
HETATM    4  O1  UNL     1       2.104  10.063  14.824  1.00  0.00    -0.260 OA
HETATM    5  O2  UNL     1      -0.134  10.061  14.332  1.00  0.00    -0.311 OA
HETATM    6  C4  UNL     1      -1.096   9.082  13.895  1.00  0.00     0.142 C 
HETATM    7  C5  UNL     1      -1.884   8.621  15.113  1.00  0.00     0.039 C 
HETATM    8  C6  UNL     1      -2.827   7.431  14.884  1.00  0.00     0.006 C 
HETATM    9  C7  UNL     1      -2.190   6.298  14.046  1.00  0.00    -0.027 A 
HETATM   10  C8  UNL     1      -3.139   5.125  13.733  1.00  0.00     0.011 C 
HETATM   11  C9  UNL     1      -4.577   5.511  13.355  1.00  0.00     0.011 C 
HETATM   12  C10 UNL     1      -5.173   6.508  14.360  1.00  0.00    -0.032 C 
HETATM   13  C11 UNL     1      -5.274   5.823  15.760  1.00  0.00     0.016 C 
HETATM   14  C12 UNL     1      -6.571   7.123  14.016  1.00  0.00    -0.002 C 
HETATM   15  C21 UNL     1      -6.530   8.486  14.779  1.00  0.00     0.006 C 
HETATM   16  C22 UNL     1      -5.069   8.762  15.178  1.00  0.00     0.011 C 
HETATM   17  C23 UNL     1      -4.242   7.789  14.328  1.00  0.00    -0.032 C 
HETATM   18  C24 UNL     1      -4.110   8.430  12.910  1.00  0.00     0.016 C 
HETATM   19  C25 UNL     1      -0.823   5.821  14.473  1.00  0.00     0.022 A 
HETATM   20  C26 UNL     1      -0.931   6.599  13.172  1.00  0.00    -0.021 A 
HETATM   21  C31 UNL     1      -0.315   8.007  13.156  1.00  0.00     0.063 C 
ENDROOT
BRANCH  14  22
HETATM   22  C13 UNL     1      -7.882   6.329  14.317  1.00  0.00    -0.014 C 
HETATM   23  C14 UNL     1      -8.464   5.677  13.057  1.00  0.00     0.010 C 
BRANCH  22  24
HETATM   24  C15 UNL     1      -8.940   7.266  14.965  1.00  0.00     0.008 C 
BRANCH  24  25
HETATM   25  C16 UNL     1     -10.366   7.047  14.446  1.00  0.00     0.028 C 
BRANCH  25  26
HETATM   26  C17 UNL     1     -10.969   8.341  13.967  1.00  0.00    -0.022 C 
HETATM   27  C18 UNL     1     -12.128   8.512  13.299  1.00  0.00    -0.064 C 
HETATM   28  C19 UNL     1     -13.086   7.403  12.952  1.00  0.00     0.045 C 
BRANCH  27  29
HETATM   29  C20 UNL     1     -12.573   9.884  12.865  1.00  0.00     0.197 C 
BRANCH  29  30
HETATM   30  O3  UNL     1     -12.486   9.966  11.450  1.00  0.00    -0.397 OA
HETATM   31  H29 UNL     1     -12.763  10.864  11.207  1.00  0.00     0.209 HD
ENDBRANCH  29  30
ENDBRANCH  27  29
ENDBRANCH  25  26
ENDBRANCH  24  25
ENDBRANCH  22  24
ENDBRANCH  14  22
BRANCH  20  32
HETATM   32  C27 UNL     1      -0.811   5.889  11.812  1.00  0.00     0.021 C 
BRANCH  32  33
HETATM   33  C28 UNL     1       0.002   6.631  10.753  1.00  0.00     0.112 C 
BRANCH  33  34
HETATM   34  C29 UNL     1       1.265   5.880  10.406  1.00  0.00     0.258 C 
HETATM   35  O4  UNL     1       1.612   4.814  10.894  1.00  0.00    -0.265 OA
BRANCH  34  36
HETATM   36  O5  UNL     1       1.974   6.587   9.480  1.00  0.00    -0.326 OA
HETATM   37  C30 UNL     1       2.401   7.872   9.931  1.00  0.00     0.213 C 
ENDBRANCH  34  36
ENDBRANCH  33  34
ENDBRANCH  32  33
ENDBRANCH  20  32
TORSDOF 10
ENDMDL
MODEL 9
REMARK minimizedAffinity -8.24547482
REMARK CNNscore 0.229407459
REMARK CNNaffinity 6.72099161
REMARK  10 active torsions:
REMARK  status: ('A' for Active; 'I' for Inactive)
REMARK    1  A    between atoms: C12_14  and  C13_15 
REMARK    2  A    between atoms: C13_15  and  C15_17 
REMARK    3  A    between atoms: C15_17  and  C16_18 
REMARK    4  A    between atoms: C16_18  and  C17_19 
REMARK    5  A    between atoms: C18_20  and  C20_22 
REMARK    6  A    between atoms: C20_22  and  O3_23 
REMARK    7  A    between atoms: C26_29  and  C27_30 
REMARK    8  A    between atoms: C27_30  and  C28_31 
REMARK    9  A    between atoms: C28_31  and  C29_32 
REMARK   10  A    between atoms: C29_32  and  O5_34 
ROOT
HETATM    1  C1  UNL     1       1.931   5.518  11.425  1.00  0.00     0.025 C 
HETATM    2  C2  UNL     1       1.168   6.603  11.610  1.00  0.00     0.015 C 
HETATM    3  C3  UNL     1       1.766   7.920  11.918  1.00  0.00     0.289 C 
HETATM    4  O1  UNL     1       2.950   8.196  11.911  1.00  0.00    -0.260 OA
HETATM    5  O2  UNL     1       0.753   8.783  12.193  1.00  0.00    -0.311 OA
HETATM    6  C4  UNL     1      -0.500   8.080  12.294  1.00  0.00     0.142 C 
HETATM    7  C5  UNL     1      -0.867   7.983  13.768  1.00  0.00     0.039 C 
HETATM    8  C6  UNL     1      -2.075   7.094  14.096  1.00  0.00     0.006 C 
HETATM    9  C7  UNL     1      -2.072   5.750  13.330  1.00  0.00    -0.027 A 
HETATM   10  C8  UNL     1      -3.313   4.871  13.579  1.00  0.00     0.011 C 
HETATM   11  C9  UNL     1      -4.658   5.611  13.628  1.00  0.00     0.011 C 
HETATM   12  C10 UNL     1      -4.595   6.830  14.561  1.00  0.00    -0.032 C 
HETATM   13  C11 UNL     1      -4.328   6.342  16.020  1.00  0.00     0.016 C 
HETATM   14  C12 UNL     1      -5.838   7.780  14.583  1.00  0.00    -0.002 C 
HETATM   15  C21 UNL     1      -5.206   9.143  15.012  1.00  0.00     0.006 C 
HETATM   16  C22 UNL     1      -3.679   9.030  14.848  1.00  0.00     0.011 C 
HETATM   17  C23 UNL     1      -3.472   7.784  13.978  1.00  0.00    -0.032 C 
HETATM   18  C24 UNL     1      -3.728   8.219  12.499  1.00  0.00     0.016 C 
HETATM   19  C25 UNL     1      -0.794   4.948  13.367  1.00  0.00     0.022 A 
HETATM   20  C26 UNL     1      -1.191   5.594  12.050  1.00  0.00    -0.021 A 
HETATM   21  C31 UNL     1      -0.317   6.760  11.561  1.00  0.00     0.063 C 
ENDROOT
BRANCH  14  22
HETATM   22  C13 UNL     1      -7.091   7.425  15.445  1.00  0.00    -0.014 C 
HETATM   23  C14 UNL     1      -7.584   5.996  15.187  1.00  0.00     0.010 C 
BRANCH  22  24
HETATM   24  C15 UNL     1      -8.237   8.439  15.170  1.00  0.00     0.008 C 
BRANCH  24  25
HETATM   25  C16 UNL     1      -9.634   7.911  15.522  1.00  0.00     0.028 C 
BRANCH  25  26
HETATM   26  C17 UNL     1     -10.533   7.921  14.315  1.00  0.00    -0.022 C 
HETATM   27  C18 UNL     1     -11.264   8.952  13.841  1.00  0.00    -0.064 C 
HETATM   28  C19 UNL     1     -11.263  10.339  14.425  1.00  0.00     0.045 C 
BRANCH  27  29
HETATM   29  C20 UNL     1     -12.141   8.781  12.628  1.00  0.00     0.197 C 
BRANCH  29  30
HETATM   30  O3  UNL     1     -11.576   9.509  11.549  1.00  0.00    -0.397 OA
HETATM   31  H29 UNL     1     -12.172   9.391  10.792  1.00  0.00     0.209 HD
ENDBRANCH  29  30
ENDBRANCH  27  29
ENDBRANCH  25  26
ENDBRANCH  24  25
ENDBRANCH  22  24
ENDBRANCH  14  22
BRANCH  20  32
HETATM   32  C27 UNL     1      -1.747   4.750  10.890  1.00  0.00     0.021 C 
BRANCH  32  33
HETATM   33  C28 UNL     1      -2.908   3.824  11.249  1.00  0.00     0.112 C 
BRANCH  33  34
HETATM   34  C29 UNL     1      -2.481   2.376  11.229  1.00  0.00     0.258 C 
HETATM   35  O4  UNL     1      -3.115   1.444  11.703  1.00  0.00    -0.265 OA
BRANCH  34  36
HETATM   36  O5  UNL     1      -1.264   2.269  10.622  1.00  0.00    -0.326 OA
HETATM   37  C30 UNL     1      -0.754   0.937  10.573  1.00  0.00     0.213 C 
ENDBRANCH  34  36
ENDBRANCH  33  34
ENDBRANCH  32  33
ENDBRANCH  20  32
TORSDOF 10
ENDMDL
