MODEL 1
REMARK minimizedAffinity -9.91405964
REMARK CNNscore 0.713421226
REMARK CNNaffinity 7.55797148
REMARK  4 active torsions:
REMARK  status: ('A' for Active; 'I' for Inactive)
REMARK    1  A    between atoms: C2_2  and  C3_3 
REMARK    2  A    between atoms: C6_6  and  C7_7 
REMARK    3  A    between atoms: C7_7  and  O1_9 
REMARK    4  A    between atoms: C23_29  and  O6_30 
ROOT
HETATM    1  C3  UNL     1      -4.031  47.615 -21.026  1.00  0.00     0.008 C 
HETATM    2  C4  UNL     1      -4.983  48.782 -20.943  1.00  0.00    -0.023 C 
HETATM    3  C5  UNL     1      -5.444  49.590 -21.915  1.00  0.00     0.004 C 
HETATM    4  C6  UNL     1      -5.241  49.598 -23.411  1.00  0.00     0.182 C 
HETATM    5  O2  UNL     1      -3.866  49.870 -23.766  1.00  0.00    -0.308 OA
HETATM    6  C9  UNL     1      -3.434  51.154 -23.610  1.00  0.00     0.276 C 
HETATM    7  O3  UNL     1      -4.112  52.066 -23.143  1.00  0.00    -0.264 OA
HETATM    8  C10 UNL     1      -1.974  51.358 -24.132  1.00  0.00     0.095 C 
HETATM    9  C11 UNL     1      -1.411  50.110 -24.846  1.00  0.00     0.036 C 
HETATM   10  C12 UNL     1      -2.146  52.412 -25.210  1.00  0.00     0.003 C 
HETATM   11  C13 UNL     1      -1.358  53.423 -25.586  1.00  0.00     0.072 C 
HETATM   12  C14 UNL     1      -0.042  53.821 -25.077  1.00  0.00     0.245 C 
HETATM   13  O4  UNL     1       0.642  54.585 -25.759  1.00  0.00    -0.268 OA
HETATM   14  N1  UNL     1       0.401  53.426 -23.866  1.00  0.00    -0.320 N 
HETATM   15  C15 UNL     1      -0.073  52.608 -22.873  1.00  0.00     0.098 C 
HETATM   16  C16 UNL     1      -1.089  51.732 -22.944  1.00  0.00     0.045 C 
HETATM   17  C17 UNL     1      -1.329  50.882 -21.734  1.00  0.00     0.194 C 
HETATM   18  O5  UNL     1      -1.861  49.790 -21.847  1.00  0.00    -0.287 OA
HETATM   19  C18 UNL     1      -0.839  51.290 -20.419  1.00  0.00     0.046 A 
HETATM   20  C19 UNL     1       0.263  52.128 -20.378  1.00  0.00     0.032 A 
HETATM   21  C20 UNL     1       0.883  52.427 -19.157  1.00  0.00     0.026 A 
HETATM   22  C21 UNL     1       0.372  51.918 -17.956  1.00  0.00    -0.027 A 
HETATM   23  C22 UNL     1       1.017  52.283 -16.649  1.00  0.00     0.051 C 
HETATM   24  C23 UNL     1      -0.794  51.144 -17.999  1.00  0.00     0.086 A 
HETATM   25  C24 UNL     1      -1.381  50.794 -19.224  1.00  0.00     0.059 A 
HETATM   26  C25 UNL     1      -2.689  50.112 -19.197  1.00  0.00     0.163 C 
HETATM   27  O7  UNL     1      -3.671  50.849 -19.248  1.00  0.00    -0.292 OA
HETATM   28  C26 UNL     1      -2.772  48.623 -18.892  1.00  0.00     0.084 C 
HETATM   29  C27 UNL     1      -2.789  47.663 -20.082  1.00  0.00     0.016 C 
HETATM   30  C28 UNL     1       0.763  52.724 -21.623  1.00  0.00     0.210 C 
HETATM   31  O8  UNL     1       1.821  53.348 -21.639  1.00  0.00    -0.285 OA
HETATM   32  H20 UNL     1       1.275  53.902 -23.629  1.00  0.00     0.169 HD
ENDROOT
BRANCH   4  33
HETATM   33  C7  UNL     1      -5.650  48.290 -24.131  1.00  0.00     0.147 C 
HETATM   34  C8  UNL     1      -7.075  47.852 -23.818  1.00  0.00     0.042 C 
BRANCH  33  35
HETATM   35  O1  UNL     1      -5.565  48.482 -25.553  1.00  0.00    -0.393 OA
HETATM   36  H14 UNL     1      -4.649  48.764 -25.728  1.00  0.00     0.210 HD
ENDBRANCH  33  35
ENDBRANCH   4  33
BRANCH   1  37
HETATM   37  C2  UNL     1      -4.807  46.285 -20.855  1.00  0.00     0.004 C 
HETATM   38  C1  UNL     1      -3.982  45.112 -20.340  1.00  0.00     0.006 C 
ENDBRANCH   1  37
BRANCH  24  39
HETATM   39  O6  UNL     1      -1.353  50.782 -16.801  1.00  0.00    -0.359 OA
HETATM   40  H25 UNL     1      -2.325  50.846 -16.872  1.00  0.00     0.217 HD
ENDBRANCH  24  39
TORSDOF 4
ENDMDL
MODEL 2
REMARK minimizedAffinity -11.0472326
REMARK CNNscore 0.560168743
REMARK CNNaffinity 6.85017443
REMARK  4 active torsions:
REMARK  status: ('A' for Active; 'I' for Inactive)
REMARK    1  A    between atoms: C2_2  and  C3_3 
REMARK    2  A    between atoms: C6_6  and  C7_7 
REMARK    3  A    between atoms: C7_7  and  O1_9 
REMARK    4  A    between atoms: C23_29  and  O6_30 
ROOT
HETATM    1  C3  UNL     1      -1.360  49.012 -17.070  1.00  0.00     0.008 C 
HETATM    2  C4  UNL     1      -2.612  49.852 -17.095  1.00  0.00    -0.023 C 
HETATM    3  C5  UNL     1      -3.830  49.573 -17.597  1.00  0.00     0.004 C 
HETATM    4  C6  UNL     1      -4.401  48.336 -18.247  1.00  0.00     0.182 C 
HETATM    5  O2  UNL     1      -3.756  48.045 -19.508  1.00  0.00    -0.308 OA
HETATM    6  C9  UNL     1      -4.073  48.854 -20.560  1.00  0.00     0.276 C 
HETATM    7  O3  UNL     1      -4.815  49.830 -20.491  1.00  0.00    -0.264 OA
HETATM    8  C10 UNL     1      -3.412  48.377 -21.895  1.00  0.00     0.095 C 
HETATM    9  C11 UNL     1      -2.686  47.021 -21.757  1.00  0.00     0.036 C 
HETATM   10  C12 UNL     1      -4.610  48.119 -22.790  1.00  0.00     0.003 C 
HETATM   11  C13 UNL     1      -4.783  48.298 -24.103  1.00  0.00     0.072 C 
HETATM   12  C14 UNL     1      -3.838  48.788 -25.111  1.00  0.00     0.245 C 
HETATM   13  O4  UNL     1      -4.095  48.589 -26.299  1.00  0.00    -0.268 OA
HETATM   14  N1  UNL     1      -2.743  49.499 -24.773  1.00  0.00    -0.320 N 
HETATM   15  C15 UNL     1      -2.163  49.896 -23.596  1.00  0.00     0.098 C 
HETATM   16  C16 UNL     1      -2.433  49.456 -22.356  1.00  0.00     0.045 C 
HETATM   17  C17 UNL     1      -1.570  49.986 -21.252  1.00  0.00     0.194 C 
HETATM   18  O5  UNL     1      -1.406  49.333 -20.234  1.00  0.00    -0.287 OA
HETATM   19  C18 UNL     1      -0.824  51.232 -21.412  1.00  0.00     0.046 A 
HETATM   20  C19 UNL     1      -0.488  51.617 -22.699  1.00  0.00     0.032 A 
HETATM   21  C20 UNL     1       0.362  52.711 -22.915  1.00  0.00     0.026 A 
HETATM   22  C21 UNL     1       0.849  53.457 -21.834  1.00  0.00    -0.027 A 
HETATM   23  C22 UNL     1       1.721  54.656 -22.079  1.00  0.00     0.051 C 
HETATM   24  C23 UNL     1       0.432  53.116 -20.541  1.00  0.00     0.086 A 
HETATM   25  C24 UNL     1      -0.369  51.985 -20.319  1.00  0.00     0.059 A 
HETATM   26  C25 UNL     1      -0.902  51.768 -18.961  1.00  0.00     0.163 C 
HETATM   27  O7  UNL     1      -2.007  52.259 -18.741  1.00  0.00    -0.292 OA
HETATM   28  C26 UNL     1      -0.014  51.179 -17.873  1.00  0.00     0.084 C 
HETATM   29  C27 UNL     1      -0.073  49.665 -17.663  1.00  0.00     0.016 C 
HETATM   30  C28 UNL     1      -1.050  50.885 -23.841  1.00  0.00     0.210 C 
HETATM   31  O8  UNL     1      -0.656  51.106 -24.982  1.00  0.00    -0.285 OA
HETATM   32  H20 UNL     1      -2.277  49.864 -25.608  1.00  0.00     0.169 HD
ENDROOT
BRANCH   4  33
HETATM   33  C7  UNL     1      -4.323  47.053 -17.385  1.00  0.00     0.147 C 
HETATM   34  C8  UNL     1      -3.094  46.203 -17.682  1.00  0.00     0.042 C 
BRANCH  33  35
HETATM   35  O1  UNL     1      -4.267  47.415 -15.995  1.00  0.00    -0.393 OA
HETATM   36  H14 UNL     1      -5.058  47.959 -15.830  1.00  0.00     0.210 HD
ENDBRANCH  33  35
ENDBRANCH   4  33
BRANCH   1  37
HETATM   37  C2  UNL     1      -1.105  48.483 -15.637  1.00  0.00     0.004 C 
HETATM   38  C1  UNL     1       0.357  48.456 -15.204  1.00  0.00     0.006 C 
ENDBRANCH   1  37
BRANCH  24  39
HETATM   39  O6  UNL     1       0.805  53.949 -19.520  1.00  0.00    -0.359 OA
HETATM   40  H25 UNL     1       0.059  54.038 -18.894  1.00  0.00     0.217 HD
ENDBRANCH  24  39
TORSDOF 4
ENDMDL
MODEL 3
REMARK minimizedAffinity -10.4159288
REMARK CNNscore 0.508812964
REMARK CNNaffinity 7.2962327
REMARK  4 active torsions:
REMARK  status: ('A' for Active; 'I' for Inactive)
REMARK    1  A    between atoms: C2_2  and  C3_3 
REMARK    2  A    between atoms: C6_6  and  C7_7 
REMARK    3  A    between atoms: C7_7  and  O1_9 
REMARK    4  A    between atoms: C23_29  and  O6_30 
ROOT
HETATM    1  C3  UNL     1      -5.269  49.333 -21.654  1.00  0.00     0.008 C 
HETATM    2  C4  UNL     1      -4.282  48.194 -21.693  1.00  0.00    -0.023 C 
HETATM    3  C5  UNL     1      -3.614  47.596 -20.690  1.00  0.00     0.004 C 
HETATM    4  C6  UNL     1      -3.644  47.790 -19.193  1.00  0.00     0.182 C 
HETATM    5  O2  UNL     1      -3.155  49.096 -18.810  1.00  0.00    -0.308 OA
HETATM    6  C9  UNL     1      -1.809  49.298 -18.900  1.00  0.00     0.276 C 
HETATM    7  O3  UNL     1      -1.007  48.474 -19.331  1.00  0.00    -0.264 OA
HETATM    8  C10 UNL     1      -1.382  50.699 -18.352  1.00  0.00     0.095 C 
HETATM    9  C11 UNL     1      -2.546  51.468 -17.691  1.00  0.00     0.036 C 
HETATM   10  C12 UNL     1      -0.426  50.343 -17.228  1.00  0.00     0.003 C 
HETATM   11  C13 UNL     1       0.686  50.942 -16.795  1.00  0.00     0.072 C 
HETATM   12  C14 UNL     1       1.331  52.171 -17.269  1.00  0.00     0.245 C 
HETATM   13  O4  UNL     1       2.168  52.710 -16.544  1.00  0.00    -0.268 OA
HETATM   14  N1  UNL     1       1.078  52.680 -18.493  1.00  0.00    -0.320 N 
HETATM   15  C15 UNL     1       0.239  52.358 -19.528  1.00  0.00     0.098 C 
HETATM   16  C16 UNL     1      -0.803  51.510 -19.511  1.00  0.00     0.045 C 
HETATM   17  C17 UNL     1      -1.621  51.425 -20.762  1.00  0.00     0.194 C 
HETATM   18  O5  UNL     1      -2.794  51.090 -20.707  1.00  0.00    -0.287 OA
HETATM   19  C18 UNL     1      -1.072  51.841 -22.051  1.00  0.00     0.046 A 
HETATM   20  C19 UNL     1      -0.054  52.780 -22.039  1.00  0.00     0.032 A 
HETATM   21  C20 UNL     1       0.407  53.343 -23.238  1.00  0.00     0.026 A 
HETATM   22  C21 UNL     1      -0.125  52.932 -24.467  1.00  0.00    -0.027 A 
HETATM   23  C22 UNL     1       0.410  53.508 -25.748  1.00  0.00     0.051 C 
HETATM   24  C23 UNL     1      -1.090  51.918 -24.475  1.00  0.00     0.086 A 
HETATM   25  C24 UNL     1      -1.596  51.397 -23.274  1.00  0.00     0.059 A 
HETATM   26  C25 UNL     1      -2.492  50.228 -23.348  1.00  0.00     0.163 C 
HETATM   27  O7  UNL     1      -1.939  49.132 -23.274  1.00  0.00    -0.292 OA
HETATM   28  C26 UNL     1      -3.956  50.405 -23.724  1.00  0.00     0.084 C 
HETATM   29  C27 UNL     1      -4.961  50.552 -22.580  1.00  0.00     0.016 C 
HETATM   30  C28 UNL     1       0.558  53.166 -20.762  1.00  0.00     0.210 C 
HETATM   31  O8  UNL     1       1.355  54.098 -20.704  1.00  0.00    -0.285 OA
HETATM   32  H20 UNL     1       1.709  53.458 -18.697  1.00  0.00     0.169 HD
ENDROOT
BRANCH   4  33
HETATM   33  C7  UNL     1      -5.036  47.612 -18.541  1.00  0.00     0.147 C 
HETATM   34  C8  UNL     1      -5.160  46.329 -17.729  1.00  0.00     0.042 C 
BRANCH  33  35
HETATM   35  O1  UNL     1      -5.287  48.710 -17.646  1.00  0.00    -0.393 OA
HETATM   36  H14 UNL     1      -5.198  49.516 -18.185  1.00  0.00     0.210 HD
ENDBRANCH  33  35
ENDBRANCH   4  33
BRANCH   1  37
HETATM   37  C2  UNL     1      -6.703  48.801 -21.897  1.00  0.00     0.004 C 
HETATM   38  C1  UNL     1      -7.543  49.614 -22.876  1.00  0.00     0.006 C 
ENDBRANCH   1  37
BRANCH  24  39
HETATM   39  O6  UNL     1      -1.485  51.435 -25.694  1.00  0.00    -0.359 OA
HETATM   40  H25 UNL     1      -1.595  50.465 -25.631  1.00  0.00     0.217 HD
ENDBRANCH  24  39
TORSDOF 4
ENDMDL
MODEL 4
REMARK minimizedAffinity -7.48481512
REMARK CNNscore 0.500332654
REMARK CNNaffinity 5.97086716
REMARK  4 active torsions:
REMARK  status: ('A' for Active; 'I' for Inactive)
REMARK    1  A    between atoms: C2_2  and  C3_3 
REMARK    2  A    between atoms: C6_6  and  C7_7 
REMARK    3  A    between atoms: C7_7  and  O1_9 
REMARK    4  A    between atoms: C23_29  and  O6_30 
ROOT
HETATM    1  C3  UNL     1     -11.211  46.740 -29.238  1.00  0.00     0.008 C 
HETATM    2  C4  UNL     1     -10.208  46.431 -28.156  1.00  0.00    -0.023 C 
HETATM    3  C5  UNL     1      -8.864  46.506 -28.176  1.00  0.00     0.004 C 
HETATM    4  C6  UNL     1      -7.889  46.970 -29.231  1.00  0.00     0.182 C 
HETATM    5  O2  UNL     1      -7.912  46.115 -30.398  1.00  0.00    -0.308 OA
HETATM    6  C9  UNL     1      -7.330  44.888 -30.271  1.00  0.00     0.276 C 
HETATM    7  O3  UNL     1      -6.846  44.450 -29.231  1.00  0.00    -0.264 OA
HETATM    8  C10 UNL     1      -7.308  44.099 -31.621  1.00  0.00     0.095 C 
HETATM    9  C11 UNL     1      -7.802  44.940 -32.818  1.00  0.00     0.036 C 
HETATM   10  C12 UNL     1      -5.826  43.872 -31.854  1.00  0.00     0.003 C 
HETATM   11  C13 UNL     1      -5.167  42.842 -32.391  1.00  0.00     0.072 C 
HETATM   12  C14 UNL     1      -5.687  41.592 -32.956  1.00  0.00     0.245 C 
HETATM   13  O4  UNL     1      -4.942  40.918 -33.668  1.00  0.00    -0.268 OA
HETATM   14  N1  UNL     1      -6.923  41.139 -32.662  1.00  0.00    -0.320 N 
HETATM   15  C15 UNL     1      -7.985  41.607 -31.933  1.00  0.00     0.098 C 
HETATM   16  C16 UNL     1      -8.175  42.850 -31.459  1.00  0.00     0.045 C 
HETATM   17  C17 UNL     1      -9.483  43.119 -30.782  1.00  0.00     0.194 C 
HETATM   18  O5  UNL     1      -9.939  44.251 -30.754  1.00  0.00    -0.287 OA
HETATM   19  C18 UNL     1     -10.288  42.027 -30.239  1.00  0.00     0.046 A 
HETATM   20  C19 UNL     1     -10.130  40.773 -30.805  1.00  0.00     0.032 A 
HETATM   21  C20 UNL     1     -10.982  39.719 -30.446  1.00  0.00     0.026 A 
HETATM   22  C21 UNL     1     -11.977  39.907 -29.478  1.00  0.00    -0.027 A 
HETATM   23  C22 UNL     1     -12.854  38.758 -29.067  1.00  0.00     0.051 C 
HETATM   24  C23 UNL     1     -12.071  41.154 -28.846  1.00  0.00     0.086 A 
HETATM   25  C24 UNL     1     -11.261  42.226 -29.248  1.00  0.00     0.059 A 
HETATM   26  C25 UNL     1     -11.297  43.462 -28.443  1.00  0.00     0.163 C 
HETATM   27  O7  UNL     1     -10.469  43.529 -27.537  1.00  0.00    -0.292 OA
HETATM   28  C26 UNL     1     -12.443  44.451 -28.607  1.00  0.00     0.084 C 
HETATM   29  C27 UNL     1     -12.234  45.612 -29.581  1.00  0.00     0.016 C 
HETATM   30  C28 UNL     1      -9.046  40.547 -31.768  1.00  0.00     0.210 C 
HETATM   31  O8  UNL     1      -8.973  39.494 -32.394  1.00  0.00    -0.285 OA
HETATM   32  H20 UNL     1      -7.062  40.199 -33.039  1.00  0.00     0.169 HD
ENDROOT
BRANCH   4  33
HETATM   33  C7  UNL     1      -8.104  48.422 -29.723  1.00  0.00     0.147 C 
HETATM   34  C8  UNL     1      -9.020  48.516 -30.936  1.00  0.00     0.042 C 
BRANCH  33  35
HETATM   35  O1  UNL     1      -8.707  49.196 -28.671  1.00  0.00    -0.393 OA
HETATM   36  H14 UNL     1      -8.107  49.118 -27.908  1.00  0.00     0.210 HD
ENDBRANCH  33  35
ENDBRANCH   4  33
BRANCH   1  37
HETATM   37  C2  UNL     1     -11.937  48.071 -28.922  1.00  0.00     0.004 C 
HETATM   38  C1  UNL     1     -12.601  48.141 -27.552  1.00  0.00     0.006 C 
ENDBRANCH   1  37
BRANCH  24  39
HETATM   39  O6  UNL     1     -12.954  41.266 -27.804  1.00  0.00    -0.359 OA
HETATM   40  H25 UNL     1     -12.550  41.815 -27.104  1.00  0.00     0.217 HD
ENDBRANCH  24  39
TORSDOF 4
ENDMDL
MODEL 5
REMARK minimizedAffinity -7.58736324
REMARK CNNscore 0.461492032
REMARK CNNaffinity 6.39029169
REMARK  4 active torsions:
REMARK  status: ('A' for Active; 'I' for Inactive)
REMARK    1  A    between atoms: C2_2  and  C3_3 
REMARK    2  A    between atoms: C6_6  and  C7_7 
REMARK    3  A    between atoms: C7_7  and  O1_9 
REMARK    4  A    between atoms: C23_29  and  O6_30 
ROOT
HETATM    1  C3  UNL     1      -0.191  50.026 -15.928  1.00  0.00     0.008 C 
HETATM    2  C4  UNL     1      -1.478  50.800 -15.797  1.00  0.00    -0.023 C 
HETATM    3  C5  UNL     1      -2.732  50.361 -15.579  1.00  0.00     0.004 C 
HETATM    4  C6  UNL     1      -3.296  48.982 -15.332  1.00  0.00     0.182 C 
HETATM    5  O2  UNL     1      -3.138  48.122 -16.484  1.00  0.00    -0.308 OA
HETATM    6  C9  UNL     1      -3.956  48.365 -17.548  1.00  0.00     0.276 C 
HETATM    7  O3  UNL     1      -4.765  49.286 -17.609  1.00  0.00    -0.264 OA
HETATM    8  C10 UNL     1      -3.780  47.306 -18.685  1.00  0.00     0.095 C 
HETATM    9  C11 UNL     1      -2.845  46.144 -18.288  1.00  0.00     0.036 C 
HETATM   10  C12 UNL     1      -5.168  46.703 -18.801  1.00  0.00     0.003 C 
HETATM   11  C13 UNL     1      -5.851  46.262 -19.861  1.00  0.00     0.072 C 
HETATM   12  C14 UNL     1      -5.452  46.203 -21.271  1.00  0.00     0.245 C 
HETATM   13  O4  UNL     1      -6.103  45.487 -22.033  1.00  0.00    -0.268 OA
HETATM   14  N1  UNL     1      -4.443  46.954 -21.757  1.00  0.00    -0.320 N 
HETATM   15  C15 UNL     1      -3.534  47.830 -21.221  1.00  0.00     0.098 C 
HETATM   16  C16 UNL     1      -3.239  48.020 -19.924  1.00  0.00     0.045 C 
HETATM   17  C17 UNL     1      -2.122  48.970 -19.621  1.00  0.00     0.194 C 
HETATM   18  O5  UNL     1      -1.481  48.855 -18.588  1.00  0.00    -0.287 OA
HETATM   19  C18 UNL     1      -1.707  49.979 -20.593  1.00  0.00     0.046 A 
HETATM   20  C19 UNL     1      -1.950  49.716 -21.931  1.00  0.00     0.032 A 
HETATM   21  C20 UNL     1      -1.436  50.560 -22.926  1.00  0.00     0.026 A 
HETATM   22  C21 UNL     1      -0.706  51.705 -22.580  1.00  0.00    -0.027 A 
HETATM   23  C22 UNL     1      -0.200  52.627 -23.653  1.00  0.00     0.051 C 
HETATM   24  C23 UNL     1      -0.542  52.010 -21.224  1.00  0.00     0.086 A 
HETATM   25  C24 UNL     1      -1.002  51.135 -20.228  1.00  0.00     0.059 A 
HETATM   26  C25 UNL     1      -0.939  51.586 -18.825  1.00  0.00     0.163 C 
HETATM   27  O7  UNL     1      -1.943  52.158 -18.406  1.00  0.00    -0.292 OA
HETATM   28  C26 UNL     1       0.378  51.536 -18.062  1.00  0.00     0.084 C 
HETATM   29  C27 UNL     1       0.651  50.292 -17.215  1.00  0.00     0.016 C 
HETATM   30  C28 UNL     1      -2.774  48.559 -22.301  1.00  0.00     0.210 C 
HETATM   31  O8  UNL     1      -2.883  48.217 -23.475  1.00  0.00    -0.285 OA
HETATM   32  H20 UNL     1      -4.393  46.878 -22.775  1.00  0.00     0.169 HD
ENDROOT
BRANCH   4  33
HETATM   33  C7  UNL     1      -2.689  48.238 -14.118  1.00  0.00     0.147 C 
HETATM   34  C8  UNL     1      -3.738  47.591 -13.224  1.00  0.00     0.042 C 
BRANCH  33  35
HETATM   35  O1  UNL     1      -1.821  47.192 -14.586  1.00  0.00    -0.393 OA
HETATM   36  H14 UNL     1      -1.163  47.628 -15.156  1.00  0.00     0.210 HD
ENDBRANCH  33  35
ENDBRANCH   4  33
BRANCH   1  37
HETATM   37  C2  UNL     1       0.670  50.209 -14.654  1.00  0.00     0.004 C 
HETATM   38  C1  UNL     1       1.575  49.032 -14.305  1.00  0.00     0.006 C 
ENDBRANCH   1  37
BRANCH  24  39
HETATM   39  O6  UNL     1       0.048  53.208 -20.916  1.00  0.00    -0.359 OA
HETATM   40  H25 UNL     1      -0.410  53.599 -20.146  1.00  0.00     0.217 HD
ENDBRANCH  24  39
TORSDOF 4
ENDMDL
MODEL 6
REMARK minimizedAffinity -7.44374847
REMARK CNNscore 0.381960839
REMARK CNNaffinity 5.83672333
REMARK  4 active torsions:
REMARK  status: ('A' for Active; 'I' for Inactive)
REMARK    1  A    between atoms: C2_2  and  C3_3 
REMARK    2  A    between atoms: C6_6  and  C7_7 
REMARK    3  A    between atoms: C7_7  and  O1_9 
REMARK    4  A    between atoms: C23_29  and  O6_30 
ROOT
HETATM    1  C3  UNL     1     -12.606  44.752 -27.781  1.00  0.00     0.008 C 
HETATM    2  C4  UNL     1     -11.796  43.885 -26.850  1.00  0.00    -0.023 C 
HETATM    3  C5  UNL     1     -10.996  44.230 -25.825  1.00  0.00     0.004 C 
HETATM    4  C6  UNL     1     -10.663  45.564 -25.202  1.00  0.00     0.182 C 
HETATM    5  O2  UNL     1      -9.948  46.424 -26.119  1.00  0.00    -0.308 OA
HETATM    6  C9  UNL     1      -8.644  46.111 -26.362  1.00  0.00     0.276 C 
HETATM    7  O3  UNL     1      -8.064  45.130 -25.903  1.00  0.00    -0.264 OA
HETATM    8  C10 UNL     1      -7.939  47.169 -27.272  1.00  0.00     0.095 C 
HETATM    9  C11 UNL     1      -8.823  48.403 -27.558  1.00  0.00     0.036 C 
HETATM   10  C12 UNL     1      -6.804  47.665 -26.395  1.00  0.00     0.003 C 
HETATM   11  C13 UNL     1      -5.559  48.044 -26.696  1.00  0.00     0.072 C 
HETATM   12  C14 UNL     1      -4.896  48.121 -28.001  1.00  0.00     0.245 C 
HETATM   13  O4  UNL     1      -3.859  48.779 -28.092  1.00  0.00    -0.268 OA
HETATM   14  N1  UNL     1      -5.355  47.444 -29.073  1.00  0.00    -0.320 N 
HETATM   15  C15 UNL     1      -6.438  46.643 -29.330  1.00  0.00     0.098 C 
HETATM   16  C16 UNL     1      -7.543  46.488 -28.582  1.00  0.00     0.045 C 
HETATM   17  C17 UNL     1      -8.627  45.627 -29.153  1.00  0.00     0.194 C 
HETATM   18  O5  UNL     1      -9.788  45.799 -28.819  1.00  0.00    -0.287 OA
HETATM   19  C18 UNL     1      -8.336  44.644 -30.195  1.00  0.00     0.046 A 
HETATM   20  C19 UNL     1      -7.238  44.876 -31.005  1.00  0.00     0.032 A 
HETATM   21  C20 UNL     1      -6.995  44.065 -32.123  1.00  0.00     0.026 A 
HETATM   22  C21 UNL     1      -7.835  42.981 -32.411  1.00  0.00    -0.027 A 
HETATM   23  C22 UNL     1      -7.538  42.091 -33.584  1.00  0.00     0.051 C 
HETATM   24  C23 UNL     1      -8.891  42.701 -31.536  1.00  0.00     0.086 A 
HETATM   25  C24 UNL     1      -9.172  43.547 -30.453  1.00  0.00     0.059 A 
HETATM   26  C25 UNL     1     -10.195  43.115 -29.481  1.00  0.00     0.163 C 
HETATM   27  O7  UNL     1      -9.775  42.473 -28.521  1.00  0.00    -0.292 OA
HETATM   28  C26 UNL     1     -11.674  43.270 -29.804  1.00  0.00     0.084 C 
HETATM   29  C27 UNL     1     -12.371  44.539 -29.310  1.00  0.00     0.016 C 
HETATM   30  C28 UNL     1      -6.312  45.965 -30.671  1.00  0.00     0.210 C 
HETATM   31  O8  UNL     1      -5.417  46.287 -31.448  1.00  0.00    -0.285 OA
HETATM   32  H20 UNL     1      -4.698  47.514 -29.854  1.00  0.00     0.169 HD
ENDROOT
BRANCH   4  33
HETATM   33  C7  UNL     1     -11.884  46.362 -24.683  1.00  0.00     0.147 C 
HETATM   34  C8  UNL     1     -11.834  46.629 -23.184  1.00  0.00     0.042 C 
BRANCH  33  35
HETATM   35  O1  UNL     1     -11.934  47.639 -25.343  1.00  0.00    -0.393 OA
HETATM   36  H14 UNL     1     -11.961  47.443 -26.297  1.00  0.00     0.210 HD
ENDBRANCH  33  35
ENDBRANCH   4  33
BRANCH   1  37
HETATM   37  C2  UNL     1     -14.110  44.646 -27.431  1.00  0.00     0.004 C 
HETATM   38  C1  UNL     1     -15.064  45.221 -28.472  1.00  0.00     0.006 C 
ENDBRANCH   1  37
BRANCH  24  39
HETATM   39  O6  UNL     1      -9.606  41.554 -31.760  1.00  0.00    -0.359 OA
HETATM   40  H25 UNL     1      -9.814  41.136 -30.901  1.00  0.00     0.217 HD
ENDBRANCH  24  39
TORSDOF 4
ENDMDL
MODEL 7
REMARK minimizedAffinity -7.58649588
REMARK CNNscore 0.336074471
REMARK CNNaffinity 5.43097734
REMARK  4 active torsions:
REMARK  status: ('A' for Active; 'I' for Inactive)
REMARK    1  A    between atoms: C2_2  and  C3_3 
REMARK    2  A    between atoms: C6_6  and  C7_7 
REMARK    3  A    between atoms: C7_7  and  O1_9 
REMARK    4  A    between atoms: C23_29  and  O6_30 
ROOT
HETATM    1  C3  UNL     1     -19.260  41.211 -24.501  1.00  0.00     0.008 C 
HETATM    2  C4  UNL     1     -20.045  42.238 -25.278  1.00  0.00    -0.023 C 
HETATM    3  C5  UNL     1     -19.792  42.793 -26.477  1.00  0.00     0.004 C 
HETATM    4  C6  UNL     1     -18.698  42.562 -27.492  1.00  0.00     0.182 C 
HETATM    5  O2  UNL     1     -17.400  42.946 -26.981  1.00  0.00    -0.308 OA
HETATM    6  C9  UNL     1     -17.151  44.283 -26.883  1.00  0.00     0.276 C 
HETATM    7  O3  UNL     1     -17.964  45.165 -27.144  1.00  0.00    -0.264 OA
HETATM    8  C10 UNL     1     -15.683  44.581 -26.433  1.00  0.00     0.095 C 
HETATM    9  C11 UNL     1     -14.807  43.312 -26.356  1.00  0.00     0.036 C 
HETATM   10  C12 UNL     1     -15.135  45.395 -27.590  1.00  0.00     0.003 C 
HETATM   11  C13 UNL     1     -14.277  46.418 -27.619  1.00  0.00     0.072 C 
HETATM   12  C14 UNL     1     -13.564  47.071 -26.515  1.00  0.00     0.245 C 
HETATM   13  O4  UNL     1     -12.598  47.785 -26.785  1.00  0.00    -0.268 OA
HETATM   14  N1  UNL     1     -13.979  46.959 -25.237  1.00  0.00    -0.320 N 
HETATM   15  C15 UNL     1     -14.976  46.275 -24.591  1.00  0.00     0.098 C 
HETATM   16  C16 UNL     1     -15.732  45.274 -25.071  1.00  0.00     0.045 C 
HETATM   17  C17 UNL     1     -16.682  44.629 -24.111  1.00  0.00     0.194 C 
HETATM   18  O5  UNL     1     -17.036  43.472 -24.280  1.00  0.00    -0.287 OA
HETATM   19  C18 UNL     1     -17.118  45.324 -22.902  1.00  0.00     0.046 A 
HETATM   20  C19 UNL     1     -16.277  46.294 -22.383  1.00  0.00     0.032 A 
HETATM   21  C20 UNL     1     -16.554  46.885 -21.142  1.00  0.00     0.026 A 
HETATM   22  C21 UNL     1     -17.707  46.534 -20.428  1.00  0.00    -0.027 A 
HETATM   23  C22 UNL     1     -18.018  47.207 -19.121  1.00  0.00     0.051 C 
HETATM   24  C23 UNL     1     -18.597  45.618 -21.002  1.00  0.00     0.086 A 
HETATM   25  C24 UNL     1     -18.292  44.981 -22.215  1.00  0.00     0.059 A 
HETATM   26  C25 UNL     1     -19.335  44.148 -22.843  1.00  0.00     0.163 C 
HETATM   27  O7  UNL     1     -20.065  44.728 -23.645  1.00  0.00    -0.292 OA
HETATM   28  C26 UNL     1     -19.603  42.739 -22.333  1.00  0.00     0.084 C 
HETATM   29  C27 UNL     1     -18.880  41.589 -23.035  1.00  0.00     0.016 C 
HETATM   30  C28 UNL     1     -15.104  46.720 -23.155  1.00  0.00     0.210 C 
HETATM   31  O8  UNL     1     -14.263  47.465 -22.659  1.00  0.00    -0.285 OA
HETATM   32  H20 UNL     1     -13.441  47.581 -24.627  1.00  0.00     0.169 HD
ENDROOT
BRANCH   4  33
HETATM   33  C7  UNL     1     -18.578  41.105 -27.999  1.00  0.00     0.147 C 
HETATM   34  C8  UNL     1     -19.325  40.859 -29.304  1.00  0.00     0.042 C 
BRANCH  33  35
HETATM   35  O1  UNL     1     -17.194  40.794 -28.234  1.00  0.00    -0.393 OA
HETATM   36  H14 UNL     1     -16.738  40.962 -27.389  1.00  0.00     0.210 HD
ENDBRANCH  33  35
ENDBRANCH   4  33
BRANCH   1  37
HETATM   37  C2  UNL     1     -19.983  39.842 -24.551  1.00  0.00     0.004 C 
HETATM   38  C1  UNL     1     -21.503  39.912 -24.659  1.00  0.00     0.006 C 
ENDBRANCH   1  37
BRANCH  24  39
HETATM   39  O6  UNL     1     -19.785  45.403 -20.353  1.00  0.00    -0.359 OA
HETATM   40  H25 UNL     1     -20.499  45.324 -21.016  1.00  0.00     0.217 HD
ENDBRANCH  24  39
TORSDOF 4
ENDMDL
MODEL 8
REMARK minimizedAffinity -11.3324566
REMARK CNNscore 0.325133711
REMARK CNNaffinity 7.05144835
REMARK  4 active torsions:
REMARK  status: ('A' for Active; 'I' for Inactive)
REMARK    1  A    between atoms: C2_2  and  C3_3 
REMARK    2  A    between atoms: C6_6  and  C7_7 
REMARK    3  A    between atoms: C7_7  and  O1_9 
REMARK    4  A    between atoms: C23_29  and  O6_30 
ROOT
HETATM    1  C3  UNL     1      -4.063  47.805 -21.849  1.00  0.00     0.008 C 
HETATM    2  C4  UNL     1      -5.031  48.961 -21.846  1.00  0.00    -0.023 C 
HETATM    3  C5  UNL     1      -5.636  49.583 -22.875  1.00  0.00     0.004 C 
HETATM    4  C6  UNL     1      -5.623  49.331 -24.363  1.00  0.00     0.182 C 
HETATM    5  O2  UNL     1      -4.312  49.548 -24.934  1.00  0.00    -0.308 OA
HETATM    6  C9  UNL     1      -3.904  50.843 -25.059  1.00  0.00     0.276 C 
HETATM    7  O3  UNL     1      -4.545  51.817 -24.672  1.00  0.00    -0.264 OA
HETATM    8  C10 UNL     1      -2.529  50.964 -25.793  1.00  0.00     0.095 C 
HETATM    9  C11 UNL     1      -2.021  49.615 -26.348  1.00  0.00     0.036 C 
HETATM   10  C12 UNL     1      -2.867  51.812 -27.005  1.00  0.00     0.003 C 
HETATM   11  C13 UNL     1      -2.164  52.748 -27.648  1.00  0.00     0.072 C 
HETATM   12  C14 UNL     1      -0.806  53.240 -27.390  1.00  0.00     0.245 C 
HETATM   13  O4  UNL     1      -0.238  53.878 -28.276  1.00  0.00    -0.268 OA
HETATM   14  N1  UNL     1      -0.203  53.067 -26.197  1.00  0.00    -0.320 N 
HETATM   15  C15 UNL     1      -0.523  52.431 -25.025  1.00  0.00     0.098 C 
HETATM   16  C16 UNL     1      -1.512  51.547 -24.811  1.00  0.00     0.045 C 
HETATM   17  C17 UNL     1      -1.572  50.921 -23.453  1.00  0.00     0.194 C 
HETATM   18  O5  UNL     1      -2.081  49.821 -23.305  1.00  0.00    -0.287 OA
HETATM   19  C18 UNL     1      -0.933  51.555 -22.302  1.00  0.00     0.046 A 
HETATM   20  C19 UNL     1       0.139  52.397 -22.549  1.00  0.00     0.032 A 
HETATM   21  C20 UNL     1       0.899  52.910 -21.488  1.00  0.00     0.026 A 
HETATM   22  C21 UNL     1       0.559  52.615 -20.162  1.00  0.00    -0.027 A 
HETATM   23  C22 UNL     1       1.352  53.208 -19.032  1.00  0.00     0.051 C 
HETATM   24  C23 UNL     1      -0.580  51.836 -19.919  1.00  0.00     0.086 A 
HETATM   25  C24 UNL     1      -1.305  51.272 -20.979  1.00  0.00     0.059 A 
HETATM   26  C25 UNL     1      -2.577  50.595 -20.667  1.00  0.00     0.163 C 
HETATM   27  O7  UNL     1      -3.581  51.304 -20.716  1.00  0.00    -0.292 OA
HETATM   28  C26 UNL     1      -2.577  49.181 -20.101  1.00  0.00     0.084 C 
HETATM   29  C27 UNL     1      -2.713  48.027 -21.096  1.00  0.00     0.016 C 
HETATM   30  C28 UNL     1       0.460  52.770 -23.932  1.00  0.00     0.210 C 
HETATM   31  O8  UNL     1       1.487  53.390 -24.192  1.00  0.00    -0.285 OA
HETATM   32  H20 UNL     1       0.679  53.584 -26.159  1.00  0.00     0.169 HD
ENDROOT
BRANCH   4  33
HETATM   33  C7  UNL     1      -6.079  47.914 -24.787  1.00  0.00     0.147 C 
HETATM   34  C8  UNL     1      -7.375  47.475 -24.119  1.00  0.00     0.042 C 
BRANCH  33  35
HETATM   35  O1  UNL     1      -6.301  47.891 -26.208  1.00  0.00    -0.393 OA
HETATM   36  H14 UNL     1      -5.463  48.178 -26.612  1.00  0.00     0.210 HD
ENDBRANCH  33  35
ENDBRANCH   4  33
BRANCH   1  37
HETATM   37  C2  UNL     1      -4.770  46.520 -21.353  1.00  0.00     0.004 C 
HETATM   38  C1  UNL     1      -3.865  45.504 -20.664  1.00  0.00     0.006 C 
ENDBRANCH   1  37
BRANCH  24  39
HETATM   39  O6  UNL     1      -0.972  51.684 -18.615  1.00  0.00    -0.359 OA
HETATM   40  H25 UNL     1      -1.947  51.726 -18.570  1.00  0.00     0.217 HD
ENDBRANCH  24  39
TORSDOF 4
ENDMDL
MODEL 9
REMARK minimizedAffinity -9.87018108
REMARK CNNscore 0.287535608
REMARK CNNaffinity 6.35950708
REMARK  4 active torsions:
REMARK  status: ('A' for Active; 'I' for Inactive)
REMARK    1  A    between atoms: C2_2  and  C3_3 
REMARK    2  A    between atoms: C6_6  and  C7_7 
REMARK    3  A    between atoms: C7_7  and  O1_9 
REMARK    4  A    between atoms: C23_29  and  O6_30 
ROOT
HETATM    1  C3  UNL     1      -4.775  50.352 -22.511  1.00  0.00     0.008 C 
HETATM    2  C4  UNL     1      -3.865  49.195 -22.836  1.00  0.00    -0.023 C 
HETATM    3  C5  UNL     1      -3.556  48.107 -22.107  1.00  0.00     0.004 C 
HETATM    4  C6  UNL     1      -4.035  47.618 -20.761  1.00  0.00     0.182 C 
HETATM    5  O2  UNL     1      -3.641  48.510 -19.693  1.00  0.00    -0.308 OA
HETATM    6  C9  UNL     1      -2.326  48.492 -19.333  1.00  0.00     0.276 C 
HETATM    7  O3  UNL     1      -1.460  47.819 -19.886  1.00  0.00    -0.264 OA
HETATM    8  C10 UNL     1      -2.037  49.404 -18.096  1.00  0.00     0.095 C 
HETATM    9  C11 UNL     1      -3.319  49.991 -17.467  1.00  0.00     0.036 C 
HETATM   10  C12 UNL     1      -1.484  48.425 -17.077  1.00  0.00     0.003 C 
HETATM   11  C13 UNL     1      -0.536  48.565 -16.146  1.00  0.00     0.072 C 
HETATM   12  C14 UNL     1       0.265  49.742 -15.798  1.00  0.00     0.245 C 
HETATM   13  O4  UNL     1       0.859  49.747 -14.719  1.00  0.00    -0.268 OA
HETATM   14  N1  UNL     1       0.416  50.777 -16.650  1.00  0.00    -0.320 N 
HETATM   15  C15 UNL     1      -0.077  51.101 -17.887  1.00  0.00     0.098 C 
HETATM   16  C16 UNL     1      -1.103  50.530 -18.540  1.00  0.00     0.045 C 
HETATM   17  C17 UNL     1      -1.503  51.155 -19.841  1.00  0.00     0.194 C 
HETATM   18  O5  UNL     1      -2.647  51.042 -20.251  1.00  0.00    -0.287 OA
HETATM   19  C18 UNL     1      -0.572  51.996 -20.589  1.00  0.00     0.046 A 
HETATM   20  C19 UNL     1       0.426  52.638 -19.875  1.00  0.00     0.032 A 
HETATM   21  C20 UNL     1       1.251  53.585 -20.500  1.00  0.00     0.026 A 
HETATM   22  C21 UNL     1       1.106  53.863 -21.866  1.00  0.00    -0.027 A 
HETATM   23  C22 UNL     1       2.026  54.844 -22.535  1.00  0.00     0.051 C 
HETATM   24  C23 UNL     1       0.154  53.143 -22.599  1.00  0.00     0.086 A 
HETATM   25  C24 UNL     1      -0.712  52.241 -21.963  1.00  0.00     0.059 A 
HETATM   26  C25 UNL     1      -1.583  51.403 -22.809  1.00  0.00     0.163 C 
HETATM   27  O7  UNL     1      -1.119  50.311 -23.129  1.00  0.00    -0.292 OA
HETATM   28  C26 UNL     1      -2.856  51.983 -23.412  1.00  0.00     0.084 C 
HETATM   29  C27 UNL     1      -4.156  51.780 -22.633  1.00  0.00     0.016 C 
HETATM   30  C28 UNL     1       0.632  52.303 -18.461  1.00  0.00     0.210 C 
HETATM   31  O8  UNL     1       1.405  52.957 -17.767  1.00  0.00    -0.285 OA
HETATM   32  H20 UNL     1       1.107  51.441 -16.292  1.00  0.00     0.169 HD
ENDROOT
BRANCH   4  33
HETATM   33  C7  UNL     1      -5.565  47.416 -20.648  1.00  0.00     0.147 C 
HETATM   34  C8  UNL     1      -6.036  46.072 -21.188  1.00  0.00     0.042 C 
BRANCH  33  35
HETATM   35  O1  UNL     1      -5.954  47.481 -19.265  1.00  0.00    -0.393 OA
HETATM   36  H14 UNL     1      -5.640  48.344 -18.942  1.00  0.00     0.210 HD
ENDBRANCH  33  35
ENDBRANCH   4  33
BRANCH   1  37
HETATM   37  C2  UNL     1      -6.085  50.243 -23.331  1.00  0.00     0.004 C 
HETATM   38  C1  UNL     1      -7.342  49.960 -22.515  1.00  0.00     0.006 C 
ENDBRANCH   1  37
BRANCH  24  39
HETATM   39  O6  UNL     1       0.134  53.330 -23.956  1.00  0.00    -0.359 OA
HETATM   40  H25 UNL     1      -0.024  52.469 -24.392  1.00  0.00     0.217 HD
ENDBRANCH  24  39
TORSDOF 4
ENDMDL
