MODEL 1
REMARK minimizedAffinity -5.74424744
REMARK CNNscore 0.465076625
REMARK CNNaffinity 6.36509371
REMARK  20 active torsions:
REMARK  status: ('A' for Active; 'I' for Inactive)
REMARK    1  A    between atoms: C2_2  and  C3_3 
REMARK    2  A    between atoms: C2_2  and  C28_35 
REMARK    3  A    between atoms: C4_4  and  C5_5 
REMARK    4  A    between atoms: C6_6  and  C7_7 
REMARK    5  A    between atoms: C6_6  and  C9_11 
REMARK    6  A    between atoms: C7_7  and  O1_8 
REMARK    7  A    between atoms: O1_8  and  C8_9 
REMARK    8  A    between atoms: C8_9  and  O2_10 
REMARK    9  A    between atoms: C13_15  and  O3_16 
REMARK   10  A    between atoms: C14_17  and  C15_18 
REMARK   11  A    between atoms: C15_18  and  C16_19 
REMARK   12  A    between atoms: C16_19  and  C17_20 
REMARK   13  A    between atoms: C17_20  and  O4_21 
REMARK   14  A    between atoms: C19_23  and  C21_25 
REMARK   15  A    between atoms: C24_29  and  O6_30 
REMARK   16  A    between atoms: C24_29  and  C25_31 
REMARK   17  A    between atoms: C25_31  and  C26_32 
REMARK   18  A    between atoms: C26_32  and  N1_33 
REMARK   19  A    between atoms: C28_35  and  C29_36 
REMARK   20  A    between atoms: C29_36  and  C30_37 
ROOT
HETATM    1  C9  UNL     1       2.205  10.690  18.141  1.00  0.00     0.046 C 
HETATM    2  C10 UNL     1       0.842  10.861  18.814  1.00  0.00     0.013 C 
HETATM    3  C11 UNL     1       1.168  11.321  20.244  1.00  0.00     0.017 C 
HETATM    4  C12 UNL     1       2.575  12.027  20.194  1.00  0.00     0.025 C 
HETATM    5  C13 UNL     1       2.914  11.974  18.659  1.00  0.00     0.138 C 
HETATM    6  C14 UNL     1       3.585  11.059  21.002  1.00  0.00     0.029 C 
HETATM    7  C18 UNL     1       3.252  11.052  22.505  1.00  0.00    -0.066 C 
HETATM    8  C19 UNL     1       2.963   9.947  23.235  1.00  0.00    -0.021 C 
HETATM    9  C20 UNL     1       2.569   9.958  24.690  1.00  0.00     0.052 C 
HETATM   10  C22 UNL     1       3.241  12.443  23.106  1.00  0.00     0.038 C 
HETATM   11  C23 UNL     1       2.269  13.364  22.369  1.00  0.00     0.043 C 
HETATM   12  C24 UNL     1       2.586  13.474  20.856  1.00  0.00     0.070 C 
ENDROOT
BRANCH   5  13
HETATM   13  O3  UNL     1       2.380  13.098  17.958  1.00  0.00    -0.394 OA
HETATM   14  H17 UNL     1       2.478  12.927  17.005  1.00  0.00     0.210 HD
ENDBRANCH   5  13
BRANCH   6  15
HETATM   15  C15 UNL     1       5.103  11.325  20.772  1.00  0.00     0.012 C 
BRANCH  15  16
HETATM   16  C16 UNL     1       5.888  11.467  22.087  1.00  0.00     0.027 C 
BRANCH  16  17
HETATM   17  C17 UNL     1       6.932  12.578  22.019  1.00  0.00     0.164 C 
BRANCH  17  18
HETATM   18  O4  UNL     1       8.090  12.156  21.316  1.00  0.00    -0.401 OA
HETATM   19  H25 UNL     1       8.556  11.511  21.877  1.00  0.00     0.209 HD
ENDBRANCH  17  18
ENDBRANCH  16  17
ENDBRANCH  15  16
ENDBRANCH   6  15
BRANCH  12  20
HETATM   20  O6  UNL     1       3.950  13.969  20.780  1.00  0.00    -0.389 OA
HETATM   21  H34 UNL     1       3.973  14.851  21.190  1.00  0.00     0.210 HD
ENDBRANCH  12  20
BRANCH  12  22
HETATM   22  C25 UNL     1       1.757  14.639  20.231  1.00  0.00     0.068 C 
BRANCH  22  23
HETATM   23  C26 UNL     1       1.172  15.758  21.091  1.00  0.00     0.272 C 
BRANCH  23  24
HETATM   24  N1  UNL     1      -0.289  15.696  21.188  1.00  0.00     0.079 N 
HETATM   25  C27 UNL     1      -0.909  16.065  19.920  1.00  0.00     0.306 C 
HETATM   26  H39 UNL     1      -0.604  16.343  21.910  1.00  0.00     0.315 HD
ENDBRANCH  23  24
ENDBRANCH  22  23
ENDBRANCH  12  22
BRANCH   1  27
HETATM   27  C6  UNL     1       2.337  10.444  16.633  1.00  0.00    -0.050 C 
HETATM   28  C5  UNL     1       1.500   9.830  15.769  1.00  0.00     0.005 C 
BRANCH  28  29
HETATM   29  C4  UNL     1       0.210   9.214  15.987  1.00  0.00     0.001 C 
HETATM   30  C3  UNL     1      -0.541   8.723  14.986  1.00  0.00     0.006 C 
BRANCH  30  31
HETATM   31  C2  UNL     1      -1.849   8.090  15.117  1.00  0.00    -0.067 C 
HETATM   32  C1  UNL     1      -2.387   7.929  16.339  1.00  0.00     0.019 C 
BRANCH  31  33
HETATM   33  C28 UNL     1      -2.579   7.571  13.893  1.00  0.00     0.041 C 
BRANCH  33  34
HETATM   34  C29 UNL     1      -3.697   6.575  14.236  1.00  0.00     0.032 C 
BRANCH  34  35
HETATM   35  C30 UNL     1      -3.595   5.332  13.390  1.00  0.00    -0.024 C 
HETATM   36  C31 UNL     1      -4.586   4.537  12.941  1.00  0.00    -0.091 C 
HETATM   37  C32 UNL     1      -6.052   4.728  13.214  1.00  0.00     0.042 C 
HETATM   38  C33 UNL     1      -4.274   3.331  12.094  1.00  0.00     0.042 C 
ENDBRANCH  34  35
ENDBRANCH  33  34
ENDBRANCH  31  33
ENDBRANCH  30  31
ENDBRANCH  28  29
BRANCH  27  39
HETATM   39  C7  UNL     1       3.654  10.964  16.049  1.00  0.00     0.205 C 
BRANCH  39  40
HETATM   40  O1  UNL     1       4.706  10.057  16.356  1.00  0.00    -0.363 OA
BRANCH  40  41
HETATM   41  C8  UNL     1       5.965  10.686  16.502  1.00  0.00     0.334 C 
BRANCH  41  42
HETATM   42  O2  UNL     1       6.016  11.902  15.792  1.00  0.00    -0.377 OA
HETATM   43  H10 UNL     1       5.872  11.648  14.866  1.00  0.00     0.212 HD
ENDBRANCH  41  42
ENDBRANCH  40  41
ENDBRANCH  39  40
ENDBRANCH  27  39
ENDBRANCH   1  27
BRANCH   8  44
HETATM   44  C21 UNL     1       2.974   8.571  22.651  1.00  0.00     0.265 C 
HETATM   45  O5  UNL     1       1.979   7.974  22.273  1.00  0.00    -0.302 OA
ENDBRANCH   8  44
TORSDOF 20
ENDMDL
MODEL 2
REMARK minimizedAffinity -7.43063164
REMARK CNNscore 0.317340344
REMARK CNNaffinity 6.91266251
REMARK  20 active torsions:
REMARK  status: ('A' for Active; 'I' for Inactive)
REMARK    1  A    between atoms: C2_2  and  C3_3 
REMARK    2  A    between atoms: C2_2  and  C28_35 
REMARK    3  A    between atoms: C4_4  and  C5_5 
REMARK    4  A    between atoms: C6_6  and  C7_7 
REMARK    5  A    between atoms: C6_6  and  C9_11 
REMARK    6  A    between atoms: C7_7  and  O1_8 
REMARK    7  A    between atoms: O1_8  and  C8_9 
REMARK    8  A    between atoms: C8_9  and  O2_10 
REMARK    9  A    between atoms: C13_15  and  O3_16 
REMARK   10  A    between atoms: C14_17  and  C15_18 
REMARK   11  A    between atoms: C15_18  and  C16_19 
REMARK   12  A    between atoms: C16_19  and  C17_20 
REMARK   13  A    between atoms: C17_20  and  O4_21 
REMARK   14  A    between atoms: C19_23  and  C21_25 
REMARK   15  A    between atoms: C24_29  and  O6_30 
REMARK   16  A    between atoms: C24_29  and  C25_31 
REMARK   17  A    between atoms: C25_31  and  C26_32 
REMARK   18  A    between atoms: C26_32  and  N1_33 
REMARK   19  A    between atoms: C28_35  and  C29_36 
REMARK   20  A    between atoms: C29_36  and  C30_37 
ROOT
HETATM    1  C9  UNL     1      -3.327   5.571  13.223  1.00  0.00     0.046 C 
HETATM    2  C10 UNL     1      -3.017   5.449  14.715  1.00  0.00     0.013 C 
HETATM    3  C11 UNL     1      -2.025   6.587  15.003  1.00  0.00     0.017 C 
HETATM    4  C12 UNL     1      -2.273   7.703  13.919  1.00  0.00     0.025 C 
HETATM    5  C13 UNL     1      -3.490   7.114  13.116  1.00  0.00     0.138 C 
HETATM    6  C14 UNL     1      -0.960   7.707  12.978  1.00  0.00     0.029 C 
HETATM    7  C18 UNL     1       0.264   8.237  13.749  1.00  0.00    -0.066 C 
HETATM    8  C19 UNL     1       1.429   7.565  13.919  1.00  0.00    -0.021 C 
HETATM    9  C20 UNL     1       2.595   8.062  14.734  1.00  0.00     0.052 C 
HETATM   10  C22 UNL     1       0.026   9.607  14.350  1.00  0.00     0.038 C 
HETATM   11  C23 UNL     1      -1.199   9.612  15.264  1.00  0.00     0.043 C 
HETATM   12  C24 UNL     1      -2.487   9.154  14.535  1.00  0.00     0.070 C 
ENDROOT
BRANCH   5  13
HETATM   13  O3  UNL     1      -4.741   7.476  13.705  1.00  0.00    -0.394 OA
HETATM   14  H17 UNL     1      -5.436   6.955  13.268  1.00  0.00     0.210 HD
ENDBRANCH   5  13
BRANCH   6  15
HETATM   15  C15 UNL     1      -1.112   8.438  11.611  1.00  0.00     0.012 C 
BRANCH  15  16
HETATM   16  C16 UNL     1       0.230   8.622  10.882  1.00  0.00     0.027 C 
BRANCH  16  17
HETATM   17  C17 UNL     1       0.165   8.163   9.428  1.00  0.00     0.164 C 
BRANCH  17  18
HETATM   18  O4  UNL     1      -0.396   9.163   8.594  1.00  0.00    -0.401 OA
HETATM   19  H25 UNL     1      -1.345   9.221   8.802  1.00  0.00     0.209 HD
ENDBRANCH  17  18
ENDBRANCH  16  17
ENDBRANCH  15  16
ENDBRANCH   6  15
BRANCH  12  20
HETATM   20  O6  UNL     1      -2.650  10.073  13.422  1.00  0.00    -0.389 OA
HETATM   21  H34 UNL     1      -2.774  10.966  13.785  1.00  0.00     0.210 HD
ENDBRANCH  12  20
BRANCH  12  22
HETATM   22  C25 UNL     1      -3.731   9.462  15.427  1.00  0.00     0.068 C 
BRANCH  22  23
HETATM   23  C26 UNL     1      -3.679  10.505  16.542  1.00  0.00     0.272 C 
BRANCH  23  24
HETATM   24  N1  UNL     1      -3.554   9.906  17.875  1.00  0.00     0.079 N 
HETATM   25  C27 UNL     1      -2.639  10.681  18.707  1.00  0.00     0.306 C 
HETATM   26  H39 UNL     1      -3.193   8.958  17.783  1.00  0.00     0.315 HD
ENDBRANCH  23  24
ENDBRANCH  22  23
ENDBRANCH  12  22
BRANCH   1  27
HETATM   27  C6  UNL     1      -4.444   4.755  12.560  1.00  0.00    -0.050 C 
HETATM   28  C5  UNL     1      -5.738   4.594  12.911  1.00  0.00     0.005 C 
BRANCH  28  29
HETATM   29  C4  UNL     1      -6.486   5.143  14.020  1.00  0.00     0.001 C 
HETATM   30  C3  UNL     1      -7.555   5.941  13.854  1.00  0.00     0.006 C 
BRANCH  30  31
HETATM   31  C2  UNL     1      -8.362   6.538  14.912  1.00  0.00    -0.067 C 
HETATM   32  C1  UNL     1      -7.938   6.469  16.187  1.00  0.00     0.019 C 
BRANCH  31  33
HETATM   33  C28 UNL     1      -9.694   7.189  14.591  1.00  0.00     0.041 C 
BRANCH  33  34
HETATM   34  C29 UNL     1     -10.308   6.685  13.276  1.00  0.00     0.032 C 
BRANCH  34  35
HETATM   35  C30 UNL     1     -11.578   7.429  12.951  1.00  0.00    -0.024 C 
HETATM   36  C31 UNL     1     -12.836   7.161  13.354  1.00  0.00    -0.091 C 
HETATM   37  C32 UNL     1     -13.246   6.015  14.237  1.00  0.00     0.042 C 
HETATM   38  C33 UNL     1     -13.980   8.038  12.919  1.00  0.00     0.042 C 
ENDBRANCH  34  35
ENDBRANCH  33  34
ENDBRANCH  31  33
ENDBRANCH  30  31
ENDBRANCH  28  29
BRANCH  27  39
HETATM   39  C7  UNL     1      -3.976   3.988  11.319  1.00  0.00     0.205 C 
BRANCH  39  40
HETATM   40  O1  UNL     1      -2.850   3.184  11.648  1.00  0.00    -0.363 OA
BRANCH  40  41
HETATM   41  C8  UNL     1      -3.165   1.816  11.816  1.00  0.00     0.334 C 
BRANCH  41  42
HETATM   42  O2  UNL     1      -4.409   1.502  11.231  1.00  0.00    -0.377 OA
HETATM   43  H10 UNL     1      -5.048   2.055  11.710  1.00  0.00     0.212 HD
ENDBRANCH  41  42
ENDBRANCH  40  41
ENDBRANCH  39  40
ENDBRANCH  27  39
ENDBRANCH   1  27
BRANCH   8  44
HETATM   44  C21 UNL     1       1.673   6.214  13.327  1.00  0.00     0.265 C 
HETATM   45  O5  UNL     1       1.995   6.017  12.165  1.00  0.00    -0.302 OA
ENDBRANCH   8  44
TORSDOF 20
ENDMDL
MODEL 3
REMARK minimizedAffinity -7.20744944
REMARK CNNscore 0.301341593
REMARK CNNaffinity 6.98614073
REMARK  20 active torsions:
REMARK  status: ('A' for Active; 'I' for Inactive)
REMARK    1  A    between atoms: C2_2  and  C3_3 
REMARK    2  A    between atoms: C2_2  and  C28_35 
REMARK    3  A    between atoms: C4_4  and  C5_5 
REMARK    4  A    between atoms: C6_6  and  C7_7 
REMARK    5  A    between atoms: C6_6  and  C9_11 
REMARK    6  A    between atoms: C7_7  and  O1_8 
REMARK    7  A    between atoms: O1_8  and  C8_9 
REMARK    8  A    between atoms: C8_9  and  O2_10 
REMARK    9  A    between atoms: C13_15  and  O3_16 
REMARK   10  A    between atoms: C14_17  and  C15_18 
REMARK   11  A    between atoms: C15_18  and  C16_19 
REMARK   12  A    between atoms: C16_19  and  C17_20 
REMARK   13  A    between atoms: C17_20  and  O4_21 
REMARK   14  A    between atoms: C19_23  and  C21_25 
REMARK   15  A    between atoms: C24_29  and  O6_30 
REMARK   16  A    between atoms: C24_29  and  C25_31 
REMARK   17  A    between atoms: C25_31  and  C26_32 
REMARK   18  A    between atoms: C26_32  and  N1_33 
REMARK   19  A    between atoms: C28_35  and  C29_36 
REMARK   20  A    between atoms: C29_36  and  C30_37 
ROOT
HETATM    1  C9  UNL     1      -1.302   6.018  12.255  1.00  0.00     0.046 C 
HETATM    2  C10 UNL     1      -0.730   7.036  11.268  1.00  0.00     0.013 C 
HETATM    3  C11 UNL     1      -0.190   8.173  12.151  1.00  0.00     0.017 C 
HETATM    4  C12 UNL     1       0.147   7.549  13.556  1.00  0.00     0.025 C 
HETATM    5  C13 UNL     1      -0.173   6.026  13.323  1.00  0.00     0.138 C 
HETATM    6  C14 UNL     1      -0.929   8.172  14.588  1.00  0.00     0.029 C 
HETATM    7  C18 UNL     1      -0.672   9.675  14.804  1.00  0.00    -0.066 C 
HETATM    8  C19 UNL     1      -1.579  10.660  14.589  1.00  0.00    -0.021 C 
HETATM    9  C20 UNL     1      -1.296  12.133  14.736  1.00  0.00     0.052 C 
HETATM   10  C22 UNL     1       0.743   9.965  15.260  1.00  0.00     0.038 C 
HETATM   11  C23 UNL     1       1.773   9.404  14.280  1.00  0.00     0.043 C 
HETATM   12  C24 UNL     1       1.618   7.878  14.064  1.00  0.00     0.070 C 
ENDROOT
BRANCH   5  13
HETATM   13  O3  UNL     1       0.953   5.322  12.796  1.00  0.00    -0.394 OA
HETATM   14  H17 UNL     1       0.648   4.439  12.522  1.00  0.00     0.210 HD
ENDBRANCH   5  13
BRANCH   6  15
HETATM   15  C15 UNL     1      -1.064   7.432  15.952  1.00  0.00     0.012 C 
BRANCH  15  16
HETATM   16  C16 UNL     1      -2.513   7.389  16.465  1.00  0.00     0.027 C 
BRANCH  16  17
HETATM   17  C17 UNL     1      -3.444   6.651  15.507  1.00  0.00     0.164 C 
BRANCH  17  18
HETATM   18  O4  UNL     1      -4.804   6.826  15.869  1.00  0.00    -0.401 OA
HETATM   19  H25 UNL     1      -4.958   6.321  16.687  1.00  0.00     0.209 HD
ENDBRANCH  17  18
ENDBRANCH  16  17
ENDBRANCH  15  16
ENDBRANCH   6  15
BRANCH  12  20
HETATM   20  O6  UNL     1       1.760   7.283  15.383  1.00  0.00    -0.389 OA
HETATM   21  H34 UNL     1       2.654   7.484  15.709  1.00  0.00     0.210 HD
ENDBRANCH  12  20
BRANCH  12  22
HETATM   22  C25 UNL     1       2.863   7.328  13.299  1.00  0.00     0.068 C 
BRANCH  22  23
HETATM   23  C26 UNL     1       4.224   8.018  13.382  1.00  0.00     0.272 C 
BRANCH  23  24
HETATM   24  N1  UNL     1       5.175   7.299  14.234  1.00  0.00     0.079 N 
HETATM   25  C27 UNL     1       6.115   8.224  14.857  1.00  0.00     0.306 C 
HETATM   26  H39 UNL     1       5.696   6.633  13.665  1.00  0.00     0.315 HD
ENDBRANCH  23  24
ENDBRANCH  22  23
ENDBRANCH  12  22
BRANCH   1  27
HETATM   27  C6  UNL     1      -1.755   4.623  11.805  1.00  0.00    -0.050 C 
HETATM   28  C5  UNL     1      -2.946   4.000  11.944  1.00  0.00     0.005 C 
BRANCH  28  29
HETATM   29  C4  UNL     1      -4.176   4.451  12.555  1.00  0.00     0.001 C 
HETATM   30  C3  UNL     1      -5.314   3.738  12.514  1.00  0.00     0.006 C 
BRANCH  30  31
HETATM   31  C2  UNL     1      -6.595   4.118  13.100  1.00  0.00    -0.067 C 
HETATM   32  C1  UNL     1      -7.465   3.160  13.466  1.00  0.00     0.019 C 
BRANCH  31  33
HETATM   33  C28 UNL     1      -6.969   5.580  13.250  1.00  0.00     0.041 C 
BRANCH  33  34
HETATM   34  C29 UNL     1      -8.470   5.840  13.049  1.00  0.00     0.032 C 
BRANCH  34  35
HETATM   35  C30 UNL     1      -9.007   6.763  14.113  1.00  0.00    -0.024 C 
HETATM   36  C31 UNL     1     -10.198   7.393  14.156  1.00  0.00    -0.091 C 
HETATM   37  C32 UNL     1     -11.269   7.311  13.105  1.00  0.00     0.042 C 
HETATM   38  C33 UNL     1     -10.552   8.278  15.322  1.00  0.00     0.042 C 
ENDBRANCH  34  35
ENDBRANCH  33  34
ENDBRANCH  31  33
ENDBRANCH  30  31
ENDBRANCH  28  29
BRANCH  27  39
HETATM   39  C7  UNL     1      -0.645   3.821  11.118  1.00  0.00     0.205 C 
BRANCH  39  40
HETATM   40  O1  UNL     1      -0.510   2.552  11.745  1.00  0.00    -0.363 OA
BRANCH  40  41
HETATM   41  C8  UNL     1      -0.921   1.473  10.928  1.00  0.00     0.334 C 
BRANCH  41  42
HETATM   42  O2  UNL     1       0.006   0.413  10.975  1.00  0.00    -0.377 OA
HETATM   43  H10 UNL     1       0.831   0.797  10.636  1.00  0.00     0.212 HD
ENDBRANCH  41  42
ENDBRANCH  40  41
ENDBRANCH  39  40
ENDBRANCH  27  39
ENDBRANCH   1  27
BRANCH   8  44
HETATM   44  C21 UNL     1      -2.978  10.383  14.142  1.00  0.00     0.265 C 
HETATM   45  O5  UNL     1      -3.932  10.262  14.895  1.00  0.00    -0.302 OA
ENDBRANCH   8  44
TORSDOF 20
ENDMDL
MODEL 4
REMARK minimizedAffinity -6.09635305
REMARK CNNscore 0.268408388
REMARK CNNaffinity 5.46099997
REMARK  20 active torsions:
REMARK  status: ('A' for Active; 'I' for Inactive)
REMARK    1  A    between atoms: C2_2  and  C3_3 
REMARK    2  A    between atoms: C2_2  and  C28_35 
REMARK    3  A    between atoms: C4_4  and  C5_5 
REMARK    4  A    between atoms: C6_6  and  C7_7 
REMARK    5  A    between atoms: C6_6  and  C9_11 
REMARK    6  A    between atoms: C7_7  and  O1_8 
REMARK    7  A    between atoms: O1_8  and  C8_9 
REMARK    8  A    between atoms: C8_9  and  O2_10 
REMARK    9  A    between atoms: C13_15  and  O3_16 
REMARK   10  A    between atoms: C14_17  and  C15_18 
REMARK   11  A    between atoms: C15_18  and  C16_19 
REMARK   12  A    between atoms: C16_19  and  C17_20 
REMARK   13  A    between atoms: C17_20  and  O4_21 
REMARK   14  A    between atoms: C19_23  and  C21_25 
REMARK   15  A    between atoms: C24_29  and  O6_30 
REMARK   16  A    between atoms: C24_29  and  C25_31 
REMARK   17  A    between atoms: C25_31  and  C26_32 
REMARK   18  A    between atoms: C26_32  and  N1_33 
REMARK   19  A    between atoms: C28_35  and  C29_36 
REMARK   20  A    between atoms: C29_36  and  C30_37 
ROOT
HETATM    1  C9  UNL     1       0.837  11.114  17.072  1.00  0.00     0.046 C 
HETATM    2  C10 UNL     1       0.355  10.807  15.654  1.00  0.00     0.013 C 
HETATM    3  C11 UNL     1       1.625  10.861  14.789  1.00  0.00     0.017 C 
HETATM    4  C12 UNL     1       2.843  10.541  15.735  1.00  0.00     0.025 C 
HETATM    5  C13 UNL     1       2.125  10.245  17.104  1.00  0.00     0.138 C 
HETATM    6  C14 UNL     1       3.683  11.915  15.856  1.00  0.00     0.029 C 
HETATM    7  C18 UNL     1       4.363  12.260  14.518  1.00  0.00    -0.066 C 
HETATM    8  C19 UNL     1       4.195  13.418  13.833  1.00  0.00    -0.021 C 
HETATM    9  C20 UNL     1       4.810  13.718  12.490  1.00  0.00     0.052 C 
HETATM   10  C22 UNL     1       5.238  11.136  14.001  1.00  0.00     0.038 C 
HETATM   11  C23 UNL     1       4.449   9.834  13.857  1.00  0.00     0.043 C 
HETATM   12  C24 UNL     1       3.791   9.387  15.186  1.00  0.00     0.070 C 
ENDROOT
BRANCH   5  13
HETATM   13  O3  UNL     1       1.741   8.873  17.216  1.00  0.00    -0.394 OA
HETATM   14  H17 UNL     1       1.166   8.790  17.996  1.00  0.00     0.210 HD
ENDBRANCH   5  13
BRANCH   6  15
HETATM   15  C15 UNL     1       4.706  11.980  17.030  1.00  0.00     0.012 C 
BRANCH  15  16
HETATM   16  C16 UNL     1       4.305  12.994  18.114  1.00  0.00     0.027 C 
BRANCH  16  17
HETATM   17  C17 UNL     1       5.467  13.339  19.040  1.00  0.00     0.164 C 
BRANCH  17  18
HETATM   18  O4  UNL     1       6.706  13.308  18.351  1.00  0.00    -0.401 OA
HETATM   19  H25 UNL     1       6.909  12.376  18.154  1.00  0.00     0.209 HD
ENDBRANCH  17  18
ENDBRANCH  16  17
ENDBRANCH  15  16
ENDBRANCH   6  15
BRANCH  12  20
HETATM   20  O6  UNL     1       4.884   9.245  16.132  1.00  0.00    -0.389 OA
HETATM   21  H34 UNL     1       5.477   8.547  15.804  1.00  0.00     0.210 HD
ENDBRANCH  12  20
BRANCH  12  22
HETATM   22  C25 UNL     1       3.261   7.926  15.042  1.00  0.00     0.068 C 
BRANCH  22  23
HETATM   23  C26 UNL     1       2.284   7.533  13.936  1.00  0.00     0.272 C 
BRANCH  23  24
HETATM   24  N1  UNL     1       1.651   6.232  14.171  1.00  0.00     0.079 N 
HETATM   25  C27 UNL     1       0.274   6.232  13.689  1.00  0.00     0.306 C 
HETATM   26  H39 UNL     1       1.650   6.038  15.172  1.00  0.00     0.315 HD
ENDBRANCH  23  24
ENDBRANCH  22  23
ENDBRANCH  12  22
BRANCH   1  27
HETATM   27  C6  UNL     1      -0.081  10.953  18.290  1.00  0.00    -0.050 C 
HETATM   28  C5  UNL     1       0.214  10.878  19.606  1.00  0.00     0.005 C 
BRANCH  28  29
HETATM   29  C4  UNL     1       1.488  10.933  20.288  1.00  0.00     0.001 C 
HETATM   30  C3  UNL     1       1.856  10.034  21.217  1.00  0.00     0.006 C 
BRANCH  30  31
HETATM   31  C2  UNL     1       3.116  10.016  21.952  1.00  0.00    -0.067 C 
HETATM   32  C1  UNL     1       3.338   9.050  22.861  1.00  0.00     0.019 C 
BRANCH  31  33
HETATM   33  C28 UNL     1       4.151  11.103  21.733  1.00  0.00     0.041 C 
BRANCH  33  34
HETATM   34  C29 UNL     1       5.179  11.193  22.871  1.00  0.00     0.032 C 
BRANCH  34  35
HETATM   35  C30 UNL     1       5.760  12.580  22.968  1.00  0.00    -0.024 C 
HETATM   36  C31 UNL     1       7.053  12.944  23.085  1.00  0.00    -0.091 C 
HETATM   37  C32 UNL     1       8.223  12.003  23.158  1.00  0.00     0.042 C 
HETATM   38  C33 UNL     1       7.433  14.399  23.162  1.00  0.00     0.042 C 
ENDBRANCH  34  35
ENDBRANCH  33  34
ENDBRANCH  31  33
ENDBRANCH  30  31
ENDBRANCH  28  29
BRANCH  27  39
HETATM   39  C7  UNL     1      -1.562  10.828  17.918  1.00  0.00     0.205 C 
BRANCH  39  40
HETATM   40  O1  UNL     1      -2.311  11.841  18.580  1.00  0.00    -0.363 OA
BRANCH  40  41
HETATM   41  C8  UNL     1      -3.628  11.442  18.907  1.00  0.00     0.334 C 
BRANCH  41  42
HETATM   42  O2  UNL     1      -3.749  10.038  18.923  1.00  0.00    -0.377 OA
HETATM   43  H10 UNL     1      -3.532   9.766  18.016  1.00  0.00     0.212 HD
ENDBRANCH  41  42
ENDBRANCH  40  41
ENDBRANCH  39  40
ENDBRANCH  27  39
ENDBRANCH   1  27
BRANCH   8  44
HETATM   44  C21 UNL     1       3.337  14.533  14.336  1.00  0.00     0.265 C 
HETATM   45  O5  UNL     1       2.137  14.628  14.130  1.00  0.00    -0.302 OA
ENDBRANCH   8  44
TORSDOF 20
ENDMDL
MODEL 5
REMARK minimizedAffinity -6.16574526
REMARK CNNscore 0.267377228
REMARK CNNaffinity 6.08590889
REMARK  20 active torsions:
REMARK  status: ('A' for Active; 'I' for Inactive)
REMARK    1  A    between atoms: C2_2  and  C3_3 
REMARK    2  A    between atoms: C2_2  and  C28_35 
REMARK    3  A    between atoms: C4_4  and  C5_5 
REMARK    4  A    between atoms: C6_6  and  C7_7 
REMARK    5  A    between atoms: C6_6  and  C9_11 
REMARK    6  A    between atoms: C7_7  and  O1_8 
REMARK    7  A    between atoms: O1_8  and  C8_9 
REMARK    8  A    between atoms: C8_9  and  O2_10 
REMARK    9  A    between atoms: C13_15  and  O3_16 
REMARK   10  A    between atoms: C14_17  and  C15_18 
REMARK   11  A    between atoms: C15_18  and  C16_19 
REMARK   12  A    between atoms: C16_19  and  C17_20 
REMARK   13  A    between atoms: C17_20  and  O4_21 
REMARK   14  A    between atoms: C19_23  and  C21_25 
REMARK   15  A    between atoms: C24_29  and  O6_30 
REMARK   16  A    between atoms: C24_29  and  C25_31 
REMARK   17  A    between atoms: C25_31  and  C26_32 
REMARK   18  A    between atoms: C26_32  and  N1_33 
REMARK   19  A    between atoms: C28_35  and  C29_36 
REMARK   20  A    between atoms: C29_36  and  C30_37 
ROOT
HETATM    1  C9  UNL     1       1.665  10.259  16.339  1.00  0.00     0.046 C 
HETATM    2  C10 UNL     1       0.793  10.686  15.158  1.00  0.00     0.013 C 
HETATM    3  C11 UNL     1       1.272   9.815  13.985  1.00  0.00     0.017 C 
HETATM    4  C12 UNL     1       1.893   8.507  14.603  1.00  0.00     0.025 C 
HETATM    5  C13 UNL     1       1.637   8.717  16.140  1.00  0.00     0.138 C 
HETATM    6  C14 UNL     1       3.479   8.586  14.306  1.00  0.00     0.029 C 
HETATM    7  C18 UNL     1       3.763   8.429  12.801  1.00  0.00    -0.066 C 
HETATM    8  C19 UNL     1       4.438   9.323  12.037  1.00  0.00    -0.021 C 
HETATM    9  C20 UNL     1       4.650   9.194  10.550  1.00  0.00     0.052 C 
HETATM   10  C22 UNL     1       3.170   7.159  12.225  1.00  0.00     0.038 C 
HETATM   11  C23 UNL     1       1.663   7.083  12.475  1.00  0.00     0.043 C 
HETATM   12  C24 UNL     1       1.305   7.166  13.979  1.00  0.00     0.070 C 
ENDROOT
BRANCH   5  13
HETATM   13  O3  UNL     1       0.351   8.235  16.535  1.00  0.00    -0.394 OA
HETATM   14  H17 UNL     1       0.188   8.538  17.445  1.00  0.00     0.210 HD
ENDBRANCH   5  13
BRANCH   6  15
HETATM   15  C15 UNL     1       4.371   7.620  15.142  1.00  0.00     0.012 C 
BRANCH  15  16
HETATM   16  C16 UNL     1       5.843   7.632  14.695  1.00  0.00     0.027 C 
BRANCH  16  17
HETATM   17  C17 UNL     1       6.690   8.591  15.526  1.00  0.00     0.164 C 
BRANCH  17  18
HETATM   18  O4  UNL     1       7.111   7.990  16.740  1.00  0.00    -0.401 OA
HETATM   19  H25 UNL     1       6.329   7.907  17.314  1.00  0.00     0.209 HD
ENDBRANCH  17  18
ENDBRANCH  16  17
ENDBRANCH  15  16
ENDBRANCH   6  15
BRANCH  12  20
HETATM   20  O6  UNL     1       2.006   6.059  14.607  1.00  0.00    -0.389 OA
HETATM   21  H34 UNL     1       1.661   5.231  14.229  1.00  0.00     0.210 HD
ENDBRANCH  12  20
BRANCH  12  22
HETATM   22  C25 UNL     1      -0.196   6.789  14.182  1.00  0.00     0.068 C 
BRANCH  22  23
HETATM   23  C26 UNL     1      -1.085   6.380  13.009  1.00  0.00     0.272 C 
BRANCH  23  24
HETATM   24  N1  UNL     1      -1.962   5.249  13.327  1.00  0.00     0.079 N 
HETATM   25  C27 UNL     1      -2.702   5.498  14.559  1.00  0.00     0.306 C 
HETATM   26  H39 UNL     1      -1.395   4.410  13.446  1.00  0.00     0.315 HD
ENDBRANCH  23  24
ENDBRANCH  22  23
ENDBRANCH  12  22
BRANCH   1  27
HETATM   27  C6  UNL     1       1.374  10.731  17.770  1.00  0.00    -0.050 C 
HETATM   28  C5  UNL     1       0.208  11.069  18.361  1.00  0.00     0.005 C 
BRANCH  28  29
HETATM   29  C4  UNL     1      -1.139  11.089  17.838  1.00  0.00     0.001 C 
HETATM   30  C3  UNL     1      -2.068  11.967  18.253  1.00  0.00     0.006 C 
BRANCH  30  31
HETATM   31  C2  UNL     1      -3.447  12.056  17.782  1.00  0.00    -0.067 C 
HETATM   32  C1  UNL     1      -4.356  12.719  18.518  1.00  0.00     0.019 C 
BRANCH  31  33
HETATM   33  C28 UNL     1      -3.868  11.365  16.499  1.00  0.00     0.041 C 
BRANCH  33  34
HETATM   34  C29 UNL     1      -4.122   9.860  16.682  1.00  0.00     0.032 C 
BRANCH  34  35
HETATM   35  C30 UNL     1      -4.569   9.226  15.390  1.00  0.00    -0.024 C 
HETATM   36  C31 UNL     1      -3.890   9.108  14.232  1.00  0.00    -0.091 C 
HETATM   37  C32 UNL     1      -2.498   9.617  13.979  1.00  0.00     0.042 C 
HETATM   38  C33 UNL     1      -4.517   8.428  13.044  1.00  0.00     0.042 C 
ENDBRANCH  34  35
ENDBRANCH  33  34
ENDBRANCH  31  33
ENDBRANCH  30  31
ENDBRANCH  28  29
BRANCH  27  39
HETATM   39  C7  UNL     1       2.635  10.857  18.631  1.00  0.00     0.205 C 
BRANCH  39  40
HETATM   40  O1  UNL     1       2.639   9.844  19.629  1.00  0.00    -0.363 OA
BRANCH  40  41
HETATM   41  C8  UNL     1       3.300  10.229  20.818  1.00  0.00     0.334 C 
BRANCH  41  42
HETATM   42  O2  UNL     1       4.668  10.478  20.587  1.00  0.00    -0.377 OA
HETATM   43  H10 UNL     1       5.018   9.630  20.267  1.00  0.00     0.212 HD
ENDBRANCH  41  42
ENDBRANCH  40  41
ENDBRANCH  39  40
ENDBRANCH  27  39
ENDBRANCH   1  27
BRANCH   8  44
HETATM   44  C21 UNL     1       5.030  10.576  12.597  1.00  0.00     0.265 C 
HETATM   45  O5  UNL     1       5.261  11.582  11.945  1.00  0.00    -0.302 OA
ENDBRANCH   8  44
TORSDOF 20
ENDMDL
MODEL 6
REMARK minimizedAffinity -6.35003757
REMARK CNNscore 0.247502923
REMARK CNNaffinity 6.04770422
REMARK  20 active torsions:
REMARK  status: ('A' for Active; 'I' for Inactive)
REMARK    1  A    between atoms: C2_2  and  C3_3 
REMARK    2  A    between atoms: C2_2  and  C28_35 
REMARK    3  A    between atoms: C4_4  and  C5_5 
REMARK    4  A    between atoms: C6_6  and  C7_7 
REMARK    5  A    between atoms: C6_6  and  C9_11 
REMARK    6  A    between atoms: C7_7  and  O1_8 
REMARK    7  A    between atoms: O1_8  and  C8_9 
REMARK    8  A    between atoms: C8_9  and  O2_10 
REMARK    9  A    between atoms: C13_15  and  O3_16 
REMARK   10  A    between atoms: C14_17  and  C15_18 
REMARK   11  A    between atoms: C15_18  and  C16_19 
REMARK   12  A    between atoms: C16_19  and  C17_20 
REMARK   13  A    between atoms: C17_20  and  O4_21 
REMARK   14  A    between atoms: C19_23  and  C21_25 
REMARK   15  A    between atoms: C24_29  and  O6_30 
REMARK   16  A    between atoms: C24_29  and  C25_31 
REMARK   17  A    between atoms: C25_31  and  C26_32 
REMARK   18  A    between atoms: C26_32  and  N1_33 
REMARK   19  A    between atoms: C28_35  and  C29_36 
REMARK   20  A    between atoms: C29_36  and  C30_37 
ROOT
HETATM    1  C9  UNL     1     -11.336   9.781  14.284  1.00  0.00     0.046 C 
HETATM    2  C10 UNL     1      -9.923   9.604  14.839  1.00  0.00     0.013 C 
HETATM    3  C11 UNL     1      -9.770  10.725  15.880  1.00  0.00     0.017 C 
HETATM    4  C12 UNL     1     -11.216  11.090  16.384  1.00  0.00     0.025 C 
HETATM    5  C13 UNL     1     -12.105  10.050  15.609  1.00  0.00     0.138 C 
HETATM    6  C14 UNL     1     -11.518  12.576  15.825  1.00  0.00     0.029 C 
HETATM    7  C18 UNL     1     -10.631  13.617  16.533  1.00  0.00    -0.066 C 
HETATM    8  C19 UNL     1      -9.786  14.475  15.909  1.00  0.00    -0.021 C 
HETATM    9  C20 UNL     1      -8.869  15.442  16.613  1.00  0.00     0.052 C 
HETATM   10  C22 UNL     1     -10.765  13.570  18.041  1.00  0.00     0.038 C 
HETATM   11  C23 UNL     1     -10.456  12.176  18.587  1.00  0.00     0.043 C 
HETATM   12  C24 UNL     1     -11.362  11.081  17.968  1.00  0.00     0.070 C 
ENDROOT
BRANCH   5  13
HETATM   13  O3  UNL     1     -12.222   8.816  16.321  1.00  0.00    -0.394 OA
HETATM   14  H17 UNL     1     -12.638   8.169  15.725  1.00  0.00     0.210 HD
ENDBRANCH   5  13
BRANCH   6  15
HETATM   15  C15 UNL     1     -13.013  13.015  15.849  1.00  0.00     0.012 C 
BRANCH  15  16
HETATM   16  C16 UNL     1     -13.384  13.928  14.668  1.00  0.00     0.027 C 
BRANCH  16  17
HETATM   17  C17 UNL     1     -14.584  13.402  13.887  1.00  0.00     0.164 C 
BRANCH  17  18
HETATM   18  O4  UNL     1     -14.811  12.027  14.150  1.00  0.00    -0.401 OA
HETATM   19  H25 UNL     1     -14.092  11.525  13.726  1.00  0.00     0.209 HD
ENDBRANCH  17  18
ENDBRANCH  16  17
ENDBRANCH  15  16
ENDBRANCH   6  15
BRANCH  12  20
HETATM   20  O6  UNL     1     -12.723  11.484  18.276  1.00  0.00    -0.389 OA
HETATM   21  H34 UNL     1     -12.824  11.491  19.244  1.00  0.00     0.210 HD
ENDBRANCH  12  20
BRANCH  12  22
HETATM   22  C25 UNL     1     -11.201   9.753  18.772  1.00  0.00     0.068 C 
BRANCH  22  23
HETATM   23  C26 UNL     1     -12.114   9.412  19.948  1.00  0.00     0.272 C 
BRANCH  23  24
HETATM   24  N1  UNL     1     -12.858   8.165  19.748  1.00  0.00     0.079 N 
HETATM   25  C27 UNL     1     -13.532   7.761  20.977  1.00  0.00     0.306 C 
HETATM   26  H39 UNL     1     -12.209   7.430  19.471  1.00  0.00     0.315 HD
ENDBRANCH  23  24
ENDBRANCH  22  23
ENDBRANCH  12  22
BRANCH   1  27
HETATM   27  C6  UNL     1     -11.980   8.734  13.365  1.00  0.00    -0.050 C 
HETATM   28  C5  UNL     1     -11.616   7.462  13.095  1.00  0.00     0.005 C 
BRANCH  28  29
HETATM   29  C4  UNL     1     -10.507   6.678  13.590  1.00  0.00     0.001 C 
HETATM   30  C3  UNL     1      -9.484   6.289  12.808  1.00  0.00     0.006 C 
BRANCH  30  31
HETATM   31  C2  UNL     1      -8.331   5.497  13.223  1.00  0.00    -0.067 C 
HETATM   32  C1  UNL     1      -7.343   6.084  13.921  1.00  0.00     0.019 C 
BRANCH  31  33
HETATM   33  C28 UNL     1      -8.219   4.036  12.831  1.00  0.00     0.041 C 
BRANCH  33  34
HETATM   34  C29 UNL     1      -6.887   3.400  13.257  1.00  0.00     0.032 C 
BRANCH  34  35
HETATM   35  C30 UNL     1      -5.951   3.264  12.083  1.00  0.00    -0.024 C 
HETATM   36  C31 UNL     1      -4.719   3.789  11.925  1.00  0.00    -0.091 C 
HETATM   37  C32 UNL     1      -4.005   4.660  12.921  1.00  0.00     0.042 C 
HETATM   38  C33 UNL     1      -3.934   3.529  10.666  1.00  0.00     0.042 C 
ENDBRANCH  34  35
ENDBRANCH  33  34
ENDBRANCH  31  33
ENDBRANCH  30  31
ENDBRANCH  28  29
BRANCH  27  39
HETATM   39  C7  UNL     1     -13.216   9.259  12.627  1.00  0.00     0.205 C 
BRANCH  39  40
HETATM   40  O1  UNL     1     -14.126   8.191  12.393  1.00  0.00    -0.363 OA
BRANCH  40  41
HETATM   41  C8  UNL     1     -15.464   8.618  12.231  1.00  0.00     0.334 C 
BRANCH  41  42
HETATM   42  O2  UNL     1     -15.958   8.281  10.955  1.00  0.00    -0.377 OA
HETATM   43  H10 UNL     1     -15.377   8.756  10.338  1.00  0.00     0.212 HD
ENDBRANCH  41  42
ENDBRANCH  40  41
ENDBRANCH  39  40
ENDBRANCH  27  39
ENDBRANCH   1  27
BRANCH   8  44
HETATM   44  C21 UNL     1      -9.650  14.530  14.421  1.00  0.00     0.265 C 
HETATM   45  O5  UNL     1     -10.221  15.338  13.705  1.00  0.00    -0.302 OA
ENDBRANCH   8  44
TORSDOF 20
ENDMDL
MODEL 7
REMARK minimizedAffinity -7.16369343
REMARK CNNscore 0.236316755
REMARK CNNaffinity 6.48262405
REMARK  20 active torsions:
REMARK  status: ('A' for Active; 'I' for Inactive)
REMARK    1  A    between atoms: C2_2  and  C3_3 
REMARK    2  A    between atoms: C2_2  and  C28_35 
REMARK    3  A    between atoms: C4_4  and  C5_5 
REMARK    4  A    between atoms: C6_6  and  C7_7 
REMARK    5  A    between atoms: C6_6  and  C9_11 
REMARK    6  A    between atoms: C7_7  and  O1_8 
REMARK    7  A    between atoms: O1_8  and  C8_9 
REMARK    8  A    between atoms: C8_9  and  O2_10 
REMARK    9  A    between atoms: C13_15  and  O3_16 
REMARK   10  A    between atoms: C14_17  and  C15_18 
REMARK   11  A    between atoms: C15_18  and  C16_19 
REMARK   12  A    between atoms: C16_19  and  C17_20 
REMARK   13  A    between atoms: C17_20  and  O4_21 
REMARK   14  A    between atoms: C19_23  and  C21_25 
REMARK   15  A    between atoms: C24_29  and  O6_30 
REMARK   16  A    between atoms: C24_29  and  C25_31 
REMARK   17  A    between atoms: C25_31  and  C26_32 
REMARK   18  A    between atoms: C26_32  and  N1_33 
REMARK   19  A    between atoms: C28_35  and  C29_36 
REMARK   20  A    between atoms: C29_36  and  C30_37 
ROOT
HETATM    1  C9  UNL     1      -0.008   7.219  13.118  1.00  0.00     0.046 C 
HETATM    2  C10 UNL     1       1.008   8.075  12.360  1.00  0.00     0.013 C 
HETATM    3  C11 UNL     1       1.439   9.153  13.368  1.00  0.00     0.017 C 
HETATM    4  C12 UNL     1       1.213   8.558  14.808  1.00  0.00     0.025 C 
HETATM    5  C13 UNL     1       0.722   7.098  14.486  1.00  0.00     0.138 C 
HETATM    6  C14 UNL     1      -0.003   9.404  15.452  1.00  0.00     0.029 C 
HETATM    7  C18 UNL     1       0.431  10.853  15.739  1.00  0.00    -0.066 C 
HETATM    8  C19 UNL     1      -0.180  11.962  15.252  1.00  0.00    -0.021 C 
HETATM    9  C20 UNL     1       0.294  13.374  15.481  1.00  0.00     0.052 C 
HETATM   10  C22 UNL     1       1.665  10.931  16.614  1.00  0.00     0.038 C 
HETATM   11  C23 UNL     1       2.833  10.156  16.004  1.00  0.00     0.043 C 
HETATM   12  C24 UNL     1       2.490   8.666  15.751  1.00  0.00     0.070 C 
ENDROOT
BRANCH   5  13
HETATM   13  O3  UNL     1       1.815   6.191  14.336  1.00  0.00    -0.394 OA
HETATM   14  H17 UNL     1       1.461   5.357  13.980  1.00  0.00     0.210 HD
ENDBRANCH   5  13
BRANCH   6  15
HETATM   15  C15 UNL     1      -0.678   8.770  16.705  1.00  0.00     0.012 C 
BRANCH  15  16
HETATM   16  C16 UNL     1      -2.079   9.342  16.981  1.00  0.00     0.027 C 
BRANCH  16  17
HETATM   17  C17 UNL     1      -3.116   8.832  15.985  1.00  0.00     0.164 C 
BRANCH  17  18
HETATM   18  O4  UNL     1      -4.422   8.864  16.536  1.00  0.00    -0.401 OA
HETATM   19  H25 UNL     1      -4.472   8.166  17.214  1.00  0.00     0.209 HD
ENDBRANCH  17  18
ENDBRANCH  16  17
ENDBRANCH  15  16
ENDBRANCH   6  15
BRANCH  12  20
HETATM   20  O6  UNL     1       2.114   8.128  17.047  1.00  0.00    -0.389 OA
HETATM   21  H34 UNL     1       2.884   8.196  17.636  1.00  0.00     0.210 HD
ENDBRANCH  12  20
BRANCH  12  22
HETATM   22  C25 UNL     1       3.795   7.879  15.412  1.00  0.00     0.068 C 
BRANCH  22  23
HETATM   23  C26 UNL     1       5.093   8.598  15.050  1.00  0.00     0.272 C 
BRANCH  23  24
HETATM   24  N1  UNL     1       6.287   7.805  15.358  1.00  0.00     0.079 N 
HETATM   25  C27 UNL     1       7.301   8.628  16.009  1.00  0.00     0.306 C 
HETATM   26  H39 UNL     1       6.673   7.432  14.491  1.00  0.00     0.315 HD
ENDBRANCH  23  24
ENDBRANCH  22  23
ENDBRANCH  12  22
BRANCH   1  27
HETATM   27  C6  UNL     1      -0.534   5.895  12.548  1.00  0.00    -0.050 C 
HETATM   28  C5  UNL     1      -1.800   5.453  12.387  1.00  0.00     0.005 C 
BRANCH  28  29
HETATM   29  C4  UNL     1      -3.063   6.086  12.694  1.00  0.00     0.001 C 
HETATM   30  C3  UNL     1      -4.108   5.415  13.208  1.00  0.00     0.006 C 
BRANCH  30  31
HETATM   31  C2  UNL     1      -5.414   5.973  13.543  1.00  0.00    -0.067 C 
HETATM   32  C1  UNL     1      -5.567   7.308  13.606  1.00  0.00     0.019 C 
BRANCH  31  33
HETATM   33  C28 UNL     1      -6.581   5.060  13.869  1.00  0.00     0.041 C 
BRANCH  33  34
HETATM   34  C29 UNL     1      -7.263   4.487  12.617  1.00  0.00     0.032 C 
BRANCH  34  35
HETATM   35  C30 UNL     1      -6.868   3.050  12.394  1.00  0.00    -0.024 C 
HETATM   36  C31 UNL     1      -5.998   2.547  11.496  1.00  0.00    -0.091 C 
HETATM   37  C32 UNL     1      -5.223   3.346  10.486  1.00  0.00     0.042 C 
HETATM   38  C33 UNL     1      -5.734   1.065  11.436  1.00  0.00     0.042 C 
ENDBRANCH  34  35
ENDBRANCH  33  34
ENDBRANCH  31  33
ENDBRANCH  30  31
ENDBRANCH  28  29
BRANCH  27  39
HETATM   39  C7  UNL     1       0.581   4.931  12.133  1.00  0.00     0.205 C 
BRANCH  39  40
HETATM   40  O1  UNL     1       0.792   5.017  10.729  1.00  0.00    -0.363 OA
BRANCH  40  41
HETATM   41  C8  UNL     1       2.132   5.308  10.379  1.00  0.00     0.334 C 
BRANCH  41  42
HETATM   42  O2  UNL     1       2.228   5.743   9.042  1.00  0.00    -0.377 OA
HETATM   43  H10 UNL     1       1.899   4.994   8.519  1.00  0.00     0.212 HD
ENDBRANCH  41  42
ENDBRANCH  40  41
ENDBRANCH  39  40
ENDBRANCH  27  39
ENDBRANCH   1  27
BRANCH   8  44
HETATM   44  C21 UNL     1      -1.400  11.895  14.391  1.00  0.00     0.265 C 
HETATM   45  O5  UNL     1      -1.636  10.998  13.596  1.00  0.00    -0.302 OA
ENDBRANCH   8  44
TORSDOF 20
ENDMDL
MODEL 8
REMARK minimizedAffinity -8.08022022
REMARK CNNscore 0.220032781
REMARK CNNaffinity 6.69532442
REMARK  20 active torsions:
REMARK  status: ('A' for Active; 'I' for Inactive)
REMARK    1  A    between atoms: C2_2  and  C3_3 
REMARK    2  A    between atoms: C2_2  and  C28_35 
REMARK    3  A    between atoms: C4_4  and  C5_5 
REMARK    4  A    between atoms: C6_6  and  C7_7 
REMARK    5  A    between atoms: C6_6  and  C9_11 
REMARK    6  A    between atoms: C7_7  and  O1_8 
REMARK    7  A    between atoms: O1_8  and  C8_9 
REMARK    8  A    between atoms: C8_9  and  O2_10 
REMARK    9  A    between atoms: C13_15  and  O3_16 
REMARK   10  A    between atoms: C14_17  and  C15_18 
REMARK   11  A    between atoms: C15_18  and  C16_19 
REMARK   12  A    between atoms: C16_19  and  C17_20 
REMARK   13  A    between atoms: C17_20  and  O4_21 
REMARK   14  A    between atoms: C19_23  and  C21_25 
REMARK   15  A    between atoms: C24_29  and  O6_30 
REMARK   16  A    between atoms: C24_29  and  C25_31 
REMARK   17  A    between atoms: C25_31  and  C26_32 
REMARK   18  A    between atoms: C26_32  and  N1_33 
REMARK   19  A    between atoms: C28_35  and  C29_36 
REMARK   20  A    between atoms: C29_36  and  C30_37 
ROOT
HETATM    1  C9  UNL     1      -0.703   4.898  11.872  1.00  0.00     0.046 C 
HETATM    2  C10 UNL     1      -0.074   4.773  13.260  1.00  0.00     0.013 C 
HETATM    3  C11 UNL     1       0.831   6.010  13.391  1.00  0.00     0.017 C 
HETATM    4  C12 UNL     1       0.242   7.117  12.439  1.00  0.00     0.025 C 
HETATM    5  C13 UNL     1      -1.049   6.414  11.878  1.00  0.00     0.138 C 
HETATM    6  C14 UNL     1       1.318   7.296  11.248  1.00  0.00     0.029 C 
HETATM    7  C18 UNL     1       2.613   7.942  11.773  1.00  0.00    -0.066 C 
HETATM    8  C19 UNL     1       3.853   7.403  11.664  1.00  0.00    -0.021 C 
HETATM    9  C20 UNL     1       5.106   8.009  12.244  1.00  0.00     0.052 C 
HETATM   10  C22 UNL     1       2.364   9.260  12.478  1.00  0.00     0.038 C 
HETATM   11  C23 UNL     1       1.367   9.101  13.625  1.00  0.00     0.043 C 
HETATM   12  C24 UNL     1       0.010   8.518  13.157  1.00  0.00     0.070 C 
ENDROOT
BRANCH   5  13
HETATM   13  O3  UNL     1      -2.177   6.616  12.730  1.00  0.00    -0.394 OA
HETATM   14  H17 UNL     1      -2.890   6.030  12.422  1.00  0.00     0.210 HD
ENDBRANCH   5  13
BRANCH   6  15
HETATM   15  C15 UNL     1       0.803   8.040   9.979  1.00  0.00     0.012 C 
BRANCH  15  16
HETATM   16  C16 UNL     1       1.065   7.256   8.682  1.00  0.00     0.027 C 
BRANCH  16  17
HETATM   17  C17 UNL     1       2.482   7.466   8.156  1.00  0.00     0.164 C 
BRANCH  17  18
HETATM   18  O4  UNL     1       2.653   8.776   7.640  1.00  0.00    -0.401 OA
HETATM   19  H25 UNL     1       2.147   8.833   6.810  1.00  0.00     0.209 HD
ENDBRANCH  17  18
ENDBRANCH  16  17
ENDBRANCH  15  16
ENDBRANCH   6  15
BRANCH  12  20
HETATM   20  O6  UNL     1      -0.482   9.441  12.149  1.00  0.00    -0.389 OA
HETATM   21  H34 UNL     1      -0.620  10.305  12.573  1.00  0.00     0.210 HD
ENDBRANCH  12  20
BRANCH  12  22
HETATM   22  C25 UNL     1      -1.042   8.659  14.302  1.00  0.00     0.068 C 
BRANCH  22  23
HETATM   23  C26 UNL     1      -2.043   9.813  14.333  1.00  0.00     0.272 C 
BRANCH  23  24
HETATM   24  N1  UNL     1      -2.577  10.066  15.674  1.00  0.00     0.079 N 
HETATM   25  C27 UNL     1      -4.007   9.779  15.725  1.00  0.00     0.306 C 
HETATM   26  H39 UNL     1      -2.430  11.046  15.913  1.00  0.00     0.315 HD
ENDBRANCH  23  24
ENDBRANCH  22  23
ENDBRANCH  12  22
BRANCH   1  27
HETATM   27  C6  UNL     1      -1.842   3.978  11.416  1.00  0.00    -0.050 C 
HETATM   28  C5  UNL     1      -3.153   3.977  11.744  1.00  0.00     0.005 C 
BRANCH  28  29
HETATM   29  C4  UNL     1      -3.901   4.845  12.624  1.00  0.00     0.001 C 
HETATM   30  C3  UNL     1      -5.183   4.613  12.957  1.00  0.00     0.006 C 
BRANCH  30  31
HETATM   31  C2  UNL     1      -6.011   5.436  13.834  1.00  0.00    -0.067 C 
HETATM   32  C1  UNL     1      -5.489   6.544  14.388  1.00  0.00     0.019 C 
BRANCH  31  33
HETATM   33  C28 UNL     1      -7.433   5.022  14.160  1.00  0.00     0.041 C 
BRANCH  33  34
HETATM   34  C29 UNL     1      -8.424   5.328  13.027  1.00  0.00     0.032 C 
BRANCH  34  35
HETATM   35  C30 UNL     1      -9.399   6.403  13.435  1.00  0.00    -0.024 C 
HETATM   36  C31 UNL     1      -9.571   6.965  14.648  1.00  0.00    -0.091 C 
HETATM   37  C32 UNL     1      -8.804   6.613  15.892  1.00  0.00     0.042 C 
HETATM   38  C33 UNL     1     -10.606   8.040  14.851  1.00  0.00     0.042 C 
ENDBRANCH  34  35
ENDBRANCH  33  34
ENDBRANCH  31  33
ENDBRANCH  30  31
ENDBRANCH  28  29
BRANCH  27  39
HETATM   39  C7  UNL     1      -1.381   2.875  10.458  1.00  0.00     0.205 C 
BRANCH  39  40
HETATM   40  O1  UNL     1      -0.562   1.945  11.155  1.00  0.00    -0.363 OA
BRANCH  40  41
HETATM   41  C8  UNL     1      -0.626   0.634  10.628  1.00  0.00     0.334 C 
BRANCH  41  42
HETATM   42  O2  UNL     1      -0.614   0.647   9.219  1.00  0.00    -0.377 OA
HETATM   43  H10 UNL     1      -1.410   1.147   8.974  1.00  0.00     0.212 HD
ENDBRANCH  41  42
ENDBRANCH  40  41
ENDBRANCH  39  40
ENDBRANCH  27  39
ENDBRANCH   1  27
BRANCH   8  44
HETATM   44  C21 UNL     1       4.109   6.105  10.969  1.00  0.00     0.265 C 
HETATM   45  O5  UNL     1       5.113   5.855  10.321  1.00  0.00    -0.302 OA
ENDBRANCH   8  44
TORSDOF 20
ENDMDL
MODEL 9
REMARK minimizedAffinity -6.08365488
REMARK CNNscore 0.219008759
REMARK CNNaffinity 5.56946325
REMARK  20 active torsions:
REMARK  status: ('A' for Active; 'I' for Inactive)
REMARK    1  A    between atoms: C2_2  and  C3_3 
REMARK    2  A    between atoms: C2_2  and  C28_35 
REMARK    3  A    between atoms: C4_4  and  C5_5 
REMARK    4  A    between atoms: C6_6  and  C7_7 
REMARK    5  A    between atoms: C6_6  and  C9_11 
REMARK    6  A    between atoms: C7_7  and  O1_8 
REMARK    7  A    between atoms: O1_8  and  C8_9 
REMARK    8  A    between atoms: C8_9  and  O2_10 
REMARK    9  A    between atoms: C13_15  and  O3_16 
REMARK   10  A    between atoms: C14_17  and  C15_18 
REMARK   11  A    between atoms: C15_18  and  C16_19 
REMARK   12  A    between atoms: C16_19  and  C17_20 
REMARK   13  A    between atoms: C17_20  and  O4_21 
REMARK   14  A    between atoms: C19_23  and  C21_25 
REMARK   15  A    between atoms: C24_29  and  O6_30 
REMARK   16  A    between atoms: C24_29  and  C25_31 
REMARK   17  A    between atoms: C25_31  and  C26_32 
REMARK   18  A    between atoms: C26_32  and  N1_33 
REMARK   19  A    between atoms: C28_35  and  C29_36 
REMARK   20  A    between atoms: C29_36  and  C30_37 
ROOT
HETATM    1  C9  UNL     1       2.108  10.517  16.388  1.00  0.00     0.046 C 
HETATM    2  C10 UNL     1       1.190  10.940  15.241  1.00  0.00     0.013 C 
HETATM    3  C11 UNL     1       1.575  10.017  14.073  1.00  0.00     0.017 C 
HETATM    4  C12 UNL     1       2.182   8.706  14.700  1.00  0.00     0.025 C 
HETATM    5  C13 UNL     1       2.016   8.972  16.241  1.00  0.00     0.138 C 
HETATM    6  C14 UNL     1       3.752   8.719  14.319  1.00  0.00     0.029 C 
HETATM    7  C18 UNL     1       3.950   8.505  12.807  1.00  0.00    -0.066 C 
HETATM    8  C19 UNL     1       4.614   9.350  11.980  1.00  0.00    -0.021 C 
HETATM    9  C20 UNL     1       4.741   9.168  10.489  1.00  0.00     0.052 C 
HETATM   10  C22 UNL     1       3.282   7.241  12.304  1.00  0.00     0.038 C 
HETATM   11  C23 UNL     1       1.790   7.227  12.634  1.00  0.00     0.043 C 
HETATM   12  C24 UNL     1       1.515   7.369  14.152  1.00  0.00     0.070 C 
ENDROOT
BRANCH   5  13
HETATM   13  O3  UNL     1       0.737   8.549  16.718  1.00  0.00    -0.394 OA
HETATM   14  H17 UNL     1       0.633   8.886  17.625  1.00  0.00     0.210 HD
ENDBRANCH   5  13
BRANCH   6  15
HETATM   15  C15 UNL     1       4.653   7.746  15.138  1.00  0.00     0.012 C 
BRANCH  15  16
HETATM   16  C16 UNL     1       6.110   7.729  14.647  1.00  0.00     0.027 C 
BRANCH  16  17
HETATM   17  C17 UNL     1       7.012   8.630  15.485  1.00  0.00     0.164 C 
BRANCH  17  18
HETATM   18  O4  UNL     1       7.226   8.088  16.779  1.00  0.00    -0.401 OA
HETATM   19  H25 UNL     1       6.390   8.168  17.272  1.00  0.00     0.209 HD
ENDBRANCH  17  18
ENDBRANCH  16  17
ENDBRANCH  15  16
ENDBRANCH   6  15
BRANCH  12  20
HETATM   20  O6  UNL     1       2.209   6.256  14.778  1.00  0.00    -0.389 OA
HETATM   21  H34 UNL     1       1.816   5.431  14.445  1.00  0.00     0.210 HD
ENDBRANCH  12  20
BRANCH  12  22
HETATM   22  C25 UNL     1       0.015   7.053  14.444  1.00  0.00     0.068 C 
BRANCH  22  23
HETATM   23  C26 UNL     1      -1.111   7.695  13.636  1.00  0.00     0.272 C 
BRANCH  23  24
HETATM   24  N1  UNL     1      -1.791   6.743  12.753  1.00  0.00     0.079 N 
HETATM   25  C27 UNL     1      -3.162   6.512  13.197  1.00  0.00     0.306 C 
HETATM   26  H39 UNL     1      -1.287   5.858  12.765  1.00  0.00     0.315 HD
ENDBRANCH  23  24
ENDBRANCH  22  23
ENDBRANCH  12  22
BRANCH   1  27
HETATM   27  C6  UNL     1       1.911  11.043  17.816  1.00  0.00    -0.050 C 
HETATM   28  C5  UNL     1       0.783  11.381  18.478  1.00  0.00     0.005 C 
BRANCH  28  29
HETATM   29  C4  UNL     1      -0.599  11.349  18.055  1.00  0.00     0.001 C 
HETATM   30  C3  UNL     1      -1.475  12.323  18.359  1.00  0.00     0.006 C 
BRANCH  30  31
HETATM   31  C2  UNL     1      -2.883  12.370  17.976  1.00  0.00    -0.067 C 
HETATM   32  C1  UNL     1      -3.215  12.703  16.717  1.00  0.00     0.019 C 
BRANCH  31  33
HETATM   33  C28 UNL     1      -3.968  12.094  18.999  1.00  0.00     0.041 C 
BRANCH  33  34
HETATM   34  C29 UNL     1      -4.505  13.371  19.666  1.00  0.00     0.032 C 
BRANCH  34  35
HETATM   35  C30 UNL     1      -5.542  13.043  20.708  1.00  0.00    -0.024 C 
HETATM   36  C31 UNL     1      -5.753  13.636  21.900  1.00  0.00    -0.091 C 
HETATM   37  C32 UNL     1      -4.958  14.783  22.459  1.00  0.00     0.042 C 
HETATM   38  C33 UNL     1      -6.858  13.159  22.806  1.00  0.00     0.042 C 
ENDBRANCH  34  35
ENDBRANCH  33  34
ENDBRANCH  31  33
ENDBRANCH  30  31
ENDBRANCH  28  29
BRANCH  27  39
HETATM   39  C7  UNL     1       3.227  11.232  18.576  1.00  0.00     0.205 C 
BRANCH  39  40
HETATM   40  O1  UNL     1       3.249  10.385  19.719  1.00  0.00    -0.363 OA
BRANCH  40  41
HETATM   41  C8  UNL     1       4.136  10.826  20.729  1.00  0.00     0.334 C 
BRANCH  41  42
HETATM   42  O2  UNL     1       5.456  10.919  20.245  1.00  0.00    -0.377 OA
HETATM   43  H10 UNL     1       5.679  10.013  19.973  1.00  0.00     0.212 HD
ENDBRANCH  41  42
ENDBRANCH  40  41
ENDBRANCH  39  40
ENDBRANCH  27  39
ENDBRANCH   1  27
BRANCH   8  44
HETATM   44  C21 UNL     1       5.277  10.597  12.468  1.00  0.00     0.265 C 
HETATM   45  O5  UNL     1       5.419  11.610  11.801  1.00  0.00    -0.302 OA
ENDBRANCH   8  44
TORSDOF 20
ENDMDL
