MODEL 1
REMARK minimizedAffinity -8.10116291
REMARK CNNscore 0.725632608
REMARK CNNaffinity 7.39742994
REMARK  8 active torsions:
REMARK  status: ('A' for Active; 'I' for Inactive)
REMARK    1  A    between atoms: C3_3  and  O1_4 
REMARK    2  A    between atoms: N1_14  and  O2_16 
REMARK    3  A    between atoms: O2_16  and  C13_17 
REMARK    4  A    between atoms: C13_17  and  C14_18 
REMARK       I    between atoms: C14_18  and  N2_20 
REMARK    5  A    between atoms: N2_20  and  C15_21 
REMARK    6  A    between atoms: C15_21  and  C16_22 
REMARK    7  A    between atoms: C16_22  and  O4_23 
REMARK    8  A    between atoms: C16_22  and  C17_24 
ROOT
HETATM    1  C1  UNL     1      -5.960   2.614  12.059  1.00  0.00     0.015 C 
HETATM    2  C2  UNL     1      -6.686   3.336  12.689  1.00  0.00    -0.078 C 
HETATM    3  C3  UNL     1      -7.596   4.183  13.481  1.00  0.00     0.128 C 
HETATM    4  C4  UNL     1      -7.325   4.048  14.981  1.00  0.00     0.052 C 
HETATM    5  C5  UNL     1      -8.114   5.210  15.566  1.00  0.00     0.010 C 
HETATM    6  C6  UNL     1      -7.918   6.380  14.576  1.00  0.00     0.002 C 
HETATM    7  C7  UNL     1      -9.123   7.349  14.452  1.00  0.00    -0.004 C 
HETATM    8  C8  UNL     1      -9.591   7.813  15.841  1.00  0.00     0.010 C 
HETATM    9  C9  UNL     1     -10.796   8.736  15.766  1.00  0.00     0.035 C 
HETATM   10  C10 UNL     1     -11.926   8.073  15.011  1.00  0.00    -0.069 C 
HETATM   11  C11 UNL     1     -13.135   7.938  15.590  1.00  0.00     0.030 C 
HETATM   12  C12 UNL     1     -14.290   7.365  14.846  1.00  0.00     0.032 C 
HETATM   13  N1  UNL     1     -15.423   6.997  15.360  1.00  0.00    -0.271 N 
ATOM     14  H1  UNL     1     -16.215   6.658  14.814  1.00  0.00     0.194 HD
HETATM   15  C23 UNL     1     -14.132   7.250  13.347  1.00  0.00     0.060 C 
HETATM   16  C24 UNL     1     -12.743   6.712  13.030  1.00  0.00     0.020 C 
HETATM   17  C25 UNL     1     -11.595   7.601  13.593  1.00  0.00    -0.016 C 
HETATM   18  C26 UNL     1     -11.454   8.863  12.711  1.00  0.00     0.020 C 
HETATM   19  C27 UNL     1     -10.277   6.734  13.625  1.00  0.00     0.002 C 
HETATM   20  C28 UNL     1      -9.802   6.305  12.215  1.00  0.00     0.007 C 
HETATM   21  C29 UNL     1      -8.286   6.243  12.031  1.00  0.00     0.014 C 
HETATM   22  C30 UNL     1      -7.467   5.722  13.229  1.00  0.00     0.003 C 
HETATM   23  C31 UNL     1      -5.984   6.125  12.983  1.00  0.00     0.020 C 
ENDROOT
BRANCH   3  24
HETATM   24  O1  UNL     1      -8.929   3.732  13.249  1.00  0.00    -0.377 OA
HETATM   25  H2  UNL     1      -8.913   2.759  13.283  1.00  0.00     0.211 HD
ENDBRANCH   3  24
BRANCH  13  26
HETATM   26  O2  UNL     1     -15.426   7.122  16.760  1.00  0.00    -0.271 OA
BRANCH  26  27
HETATM   27  C13 UNL     1     -16.649   6.616  17.281  1.00  0.00     0.303 C 
BRANCH  27  28
HETATM   28  C14 UNL     1     -16.775   6.816  18.791  1.00  0.00     0.243 C 
HETATM   29  O3  UNL     1     -17.199   7.860  19.289  1.00  0.00    -0.271 OA
HETATM   30  N2  UNL     1     -16.346   5.738  19.541  1.00  0.00    -0.356 N 
HETATM   31  H16 UNL     1     -15.861   4.995  19.030  1.00  0.00     0.162 HD
BRANCH  30  32
HETATM   32  C15 UNL     1     -16.235   5.813  20.988  1.00  0.00     0.159 C 
BRANCH  32  33
HETATM   33  C16 UNL     1     -14.809   6.171  21.475  1.00  0.00     0.170 C 
BRANCH  33  34
HETATM   34  O4  UNL     1     -14.785   7.422  22.168  1.00  0.00    -0.389 OA
HETATM   35  H20 UNL     1     -15.098   7.269  23.083  1.00  0.00     0.210 HD
ENDBRANCH  33  34
BRANCH  33  36
HETATM   36  C17 UNL     1     -14.188   5.107  22.347  1.00  0.00    -0.013 A 
HETATM   37  C18 UNL     1     -13.710   5.365  23.637  1.00  0.00     0.013 A 
HETATM   38  C19 UNL     1     -13.151   4.335  24.391  1.00  0.00     0.025 A 
HETATM   39  C20 UNL     1     -13.064   3.062  23.835  1.00  0.00     0.005 A 
HETATM   40  C21 UNL     1     -12.479   1.933  24.630  1.00  0.00     0.068 C 
HETATM   41  N3  UNL     1     -13.497   2.788  22.581  1.00  0.00    -0.369 N 
HETATM   42  C22 UNL     1     -14.033   3.808  21.869  1.00  0.00     0.097 A 
ATOM     43  H3  UNL     1     -13.422   1.850  22.188  1.00  0.00     0.165 HD
ENDBRANCH  33  36
ENDBRANCH  32  33
ENDBRANCH  30  32
ENDBRANCH  27  28
ENDBRANCH  26  27
ENDBRANCH  13  26
TORSDOF 8
ENDMDL
MODEL 2
REMARK minimizedAffinity -7.44639063
REMARK CNNscore 0.431793928
REMARK CNNaffinity 5.86949682
REMARK  8 active torsions:
REMARK  status: ('A' for Active; 'I' for Inactive)
REMARK    1  A    between atoms: C3_3  and  O1_4 
REMARK    2  A    between atoms: N1_14  and  O2_16 
REMARK    3  A    between atoms: O2_16  and  C13_17 
REMARK    4  A    between atoms: C13_17  and  C14_18 
REMARK       I    between atoms: C14_18  and  N2_20 
REMARK    5  A    between atoms: N2_20  and  C15_21 
REMARK    6  A    between atoms: C15_21  and  C16_22 
REMARK    7  A    between atoms: C16_22  and  O4_23 
REMARK    8  A    between atoms: C16_22  and  C17_24 
ROOT
HETATM    1  C1  UNL     1       9.839  17.923  22.087  1.00  0.00     0.015 C 
HETATM    2  C2  UNL     1       9.184  16.917  22.032  1.00  0.00    -0.078 C 
HETATM    3  C3  UNL     1       8.392  15.679  21.918  1.00  0.00     0.128 C 
HETATM    4  C4  UNL     1       9.282  14.469  21.621  1.00  0.00     0.052 C 
HETATM    5  C5  UNL     1       8.342  13.298  21.867  1.00  0.00     0.010 C 
HETATM    6  C6  UNL     1       7.508  13.695  23.105  1.00  0.00     0.002 C 
HETATM    7  C7  UNL     1       6.054  13.154  23.123  1.00  0.00    -0.004 C 
HETATM    8  C8  UNL     1       6.035  11.641  22.848  1.00  0.00     0.010 C 
HETATM    9  C9  UNL     1       4.625  11.077  22.819  1.00  0.00     0.035 C 
HETATM   10  C10 UNL     1       3.777  11.817  21.809  1.00  0.00    -0.069 C 
HETATM   11  C11 UNL     1       3.156  11.138  20.825  1.00  0.00     0.030 C 
HETATM   12  C12 UNL     1       2.249  11.825  19.864  1.00  0.00     0.032 C 
HETATM   13  N1  UNL     1       1.774  11.320  18.768  1.00  0.00    -0.271 N 
ATOM     14  H1  UNL     1       1.111  11.799  18.158  1.00  0.00     0.194 HD
HETATM   15  C23 UNL     1       1.813  13.224  20.237  1.00  0.00     0.060 C 
HETATM   16  C24 UNL     1       3.013  14.000  20.763  1.00  0.00     0.020 C 
HETATM   17  C25 UNL     1       3.683  13.333  22.000  1.00  0.00    -0.016 C 
HETATM   18  C26 UNL     1       2.805  13.584  23.248  1.00  0.00     0.020 C 
HETATM   19  C27 UNL     1       5.135  13.932  22.151  1.00  0.00     0.002 C 
HETATM   20  C28 UNL     1       5.132  15.449  22.461  1.00  0.00     0.007 C 
HETATM   21  C29 UNL     1       6.249  15.924  23.390  1.00  0.00     0.014 C 
HETATM   22  C30 UNL     1       7.626  15.253  23.213  1.00  0.00     0.003 C 
HETATM   23  C31 UNL     1       8.461  15.572  24.486  1.00  0.00     0.020 C 
ENDROOT
BRANCH   3  24
HETATM   24  O1  UNL     1       7.500  15.828  20.815  1.00  0.00    -0.377 OA
HETATM   25  H2  UNL     1       8.007  16.226  20.086  1.00  0.00     0.211 HD
ENDBRANCH   3  24
BRANCH  13  26
HETATM   26  O2  UNL     1       2.284  10.034  18.523  1.00  0.00    -0.271 OA
BRANCH  26  27
HETATM   27  C13 UNL     1       1.484   9.383  17.542  1.00  0.00     0.303 C 
BRANCH  27  28
HETATM   28  C14 UNL     1       2.315   8.775  16.412  1.00  0.00     0.243 C 
HETATM   29  O3  UNL     1       3.366   9.281  16.015  1.00  0.00    -0.271 OA
HETATM   30  N2  UNL     1       1.769   7.631  15.863  1.00  0.00    -0.356 N 
HETATM   31  H16 UNL     1       0.816   7.398  16.157  1.00  0.00     0.162 HD
BRANCH  30  32
HETATM   32  C15 UNL     1       2.331   7.015  14.673  1.00  0.00     0.159 C 
BRANCH  32  33
HETATM   33  C16 UNL     1       1.299   6.193  13.862  1.00  0.00     0.170 C 
BRANCH  33  34
HETATM   34  O4  UNL     1       0.051   6.084  14.552  1.00  0.00    -0.389 OA
HETATM   35  H20 UNL     1      -0.449   6.914  14.413  1.00  0.00     0.210 HD
ENDBRANCH  33  34
BRANCH  33  36
HETATM   36  C17 UNL     1       1.055   6.735  12.475  1.00  0.00    -0.013 A 
HETATM   37  C18 UNL     1       1.879   6.433  11.385  1.00  0.00     0.013 A 
HETATM   38  C19 UNL     1       1.594   6.963  10.129  1.00  0.00     0.025 A 
HETATM   39  C20 UNL     1       0.494   7.805   9.986  1.00  0.00     0.005 A 
HETATM   40  C21 UNL     1       0.158   8.379   8.642  1.00  0.00     0.068 C 
HETATM   41  N3  UNL     1      -0.307   8.133  11.027  1.00  0.00    -0.369 N 
HETATM   42  C22 UNL     1      -0.006   7.606  12.237  1.00  0.00     0.097 A 
ATOM     43  H3  UNL     1      -1.107   8.754  10.904  1.00  0.00     0.165 HD
ENDBRANCH  33  36
ENDBRANCH  32  33
ENDBRANCH  30  32
ENDBRANCH  27  28
ENDBRANCH  26  27
ENDBRANCH  13  26
TORSDOF 8
ENDMDL
MODEL 3
REMARK minimizedAffinity -7.48639011
REMARK CNNscore 0.423351496
REMARK CNNaffinity 5.55085516
REMARK  8 active torsions:
REMARK  status: ('A' for Active; 'I' for Inactive)
REMARK    1  A    between atoms: C3_3  and  O1_4 
REMARK    2  A    between atoms: N1_14  and  O2_16 
REMARK    3  A    between atoms: O2_16  and  C13_17 
REMARK    4  A    between atoms: C13_17  and  C14_18 
REMARK       I    between atoms: C14_18  and  N2_20 
REMARK    5  A    between atoms: N2_20  and  C15_21 
REMARK    6  A    between atoms: C15_21  and  C16_22 
REMARK    7  A    between atoms: C16_22  and  O4_23 
REMARK    8  A    between atoms: C16_22  and  C17_24 
ROOT
HETATM    1  C1  UNL     1      -8.536 -13.357  25.318  1.00  0.00     0.015 C 
HETATM    2  C2  UNL     1      -8.984 -13.377  24.202  1.00  0.00    -0.078 C 
HETATM    3  C3  UNL     1      -9.490 -13.414  22.818  1.00  0.00     0.128 C 
HETATM    4  C4  UNL     1      -9.472 -14.837  22.254  1.00  0.00     0.052 C 
HETATM    5  C5  UNL     1     -10.313 -14.702  20.992  1.00  0.00     0.010 C 
HETATM    6  C6  UNL     1     -11.468 -13.747  21.368  1.00  0.00     0.002 C 
HETATM    7  C7  UNL     1     -11.980 -12.843  20.216  1.00  0.00    -0.004 C 
HETATM    8  C8  UNL     1     -12.279 -13.680  18.962  1.00  0.00     0.010 C 
HETATM    9  C9  UNL     1     -12.747 -12.826  17.795  1.00  0.00     0.035 C 
HETATM   10  C10 UNL     1     -11.736 -11.744  17.491  1.00  0.00    -0.069 C 
HETATM   11  C11 UNL     1     -11.214 -11.639  16.253  1.00  0.00     0.030 C 
HETATM   12  C12 UNL     1     -10.279 -10.536  15.897  1.00  0.00     0.032 C 
HETATM   13  N1  UNL     1      -9.562 -10.460  14.820  1.00  0.00    -0.271 N 
ATOM     14  H1  UNL     1      -8.972  -9.663  14.581  1.00  0.00     0.194 HD
HETATM   15  C23 UNL     1     -10.204  -9.382  16.871  1.00  0.00     0.060 C 
HETATM   16  C24 UNL     1     -10.155  -9.927  18.292  1.00  0.00     0.020 C 
HETATM   17  C25 UNL     1     -11.383 -10.814  18.654  1.00  0.00    -0.016 C 
HETATM   18  C26 UNL     1     -12.608  -9.904  18.902  1.00  0.00     0.020 C 
HETATM   19  C27 UNL     1     -11.004 -11.679  19.918  1.00  0.00     0.002 C 
HETATM   20  C28 UNL     1     -10.739 -10.820  21.179  1.00  0.00     0.007 C 
HETATM   21  C29 UNL     1     -11.182 -11.451  22.499  1.00  0.00     0.014 C 
HETATM   22  C30 UNL     1     -10.980 -12.973  22.638  1.00  0.00     0.003 C 
HETATM   23  C31 UNL     1     -11.850 -13.446  23.839  1.00  0.00     0.020 C 
ENDROOT
BRANCH   3  24
HETATM   24  O1  UNL     1      -8.617 -12.627  22.010  1.00  0.00    -0.377 OA
HETATM   25  H2  UNL     1      -7.706 -12.850  22.269  1.00  0.00     0.211 HD
ENDBRANCH   3  24
BRANCH  13  26
HETATM   26  O2  UNL     1      -9.698 -11.608  14.021  1.00  0.00    -0.271 OA
BRANCH  26  27
HETATM   27  C13 UNL     1      -8.436 -11.951  13.459  1.00  0.00     0.303 C 
BRANCH  27  28
HETATM   28  C14 UNL     1      -8.442 -11.919  11.932  1.00  0.00     0.243 C 
HETATM   29  O3  UNL     1      -8.780 -12.888  11.249  1.00  0.00    -0.271 OA
HETATM   30  N2  UNL     1      -8.012 -10.723  11.390  1.00  0.00    -0.356 N 
HETATM   31  H16 UNL     1      -7.600 -10.052  12.045  1.00  0.00     0.162 HD
BRANCH  30  32
HETATM   32  C15 UNL     1      -7.792 -10.569   9.962  1.00  0.00     0.159 C 
BRANCH  32  33
HETATM   33  C16 UNL     1      -7.116  -9.227   9.587  1.00  0.00     0.170 C 
BRANCH  33  34
HETATM   34  O4  UNL     1      -6.661  -8.522  10.745  1.00  0.00    -0.389 OA
HETATM   35  H20 UNL     1      -5.809  -8.914  11.026  1.00  0.00     0.210 HD
ENDBRANCH  33  34
BRANCH  33  36
HETATM   36  C17 UNL     1      -5.970  -9.382   8.617  1.00  0.00    -0.013 A 
HETATM   37  C18 UNL     1      -4.797 -10.078   8.932  1.00  0.00     0.013 A 
HETATM   38  C19 UNL     1      -3.778 -10.188   7.987  1.00  0.00     0.025 A 
HETATM   39  C20 UNL     1      -3.943  -9.583   6.745  1.00  0.00     0.005 A 
HETATM   40  C21 UNL     1      -2.866  -9.697   5.706  1.00  0.00     0.068 C 
HETATM   41  N3  UNL     1      -5.056  -8.883   6.421  1.00  0.00    -0.369 N 
HETATM   42  C22 UNL     1      -6.029  -8.790   7.358  1.00  0.00     0.097 A 
ATOM     43  H3  UNL     1      -5.158  -8.444   5.506  1.00  0.00     0.165 HD
ENDBRANCH  33  36
ENDBRANCH  32  33
ENDBRANCH  30  32
ENDBRANCH  27  28
ENDBRANCH  26  27
ENDBRANCH  13  26
TORSDOF 8
ENDMDL
MODEL 4
REMARK minimizedAffinity -8.0828619
REMARK CNNscore 0.355974287
REMARK CNNaffinity 5.86880112
REMARK  8 active torsions:
REMARK  status: ('A' for Active; 'I' for Inactive)
REMARK    1  A    between atoms: C3_3  and  O1_4 
REMARK    2  A    between atoms: N1_14  and  O2_16 
REMARK    3  A    between atoms: O2_16  and  C13_17 
REMARK    4  A    between atoms: C13_17  and  C14_18 
REMARK       I    between atoms: C14_18  and  N2_20 
REMARK    5  A    between atoms: N2_20  and  C15_21 
REMARK    6  A    between atoms: C15_21  and  C16_22 
REMARK    7  A    between atoms: C16_22  and  O4_23 
REMARK    8  A    between atoms: C16_22  and  C17_24 
ROOT
HETATM    1  C1  UNL     1      -3.904 -10.608   8.311  1.00  0.00     0.015 C 
HETATM    2  C2  UNL     1      -4.021 -10.494   7.120  1.00  0.00    -0.078 C 
HETATM    3  C3  UNL     1      -4.178 -10.308   5.666  1.00  0.00     0.128 C 
HETATM    4  C4  UNL     1      -3.131  -9.340   5.110  1.00  0.00     0.052 C 
HETATM    5  C5  UNL     1      -3.257  -9.544   3.607  1.00  0.00     0.010 C 
HETATM    6  C6  UNL     1      -3.474 -11.062   3.416  1.00  0.00     0.002 C 
HETATM    7  C7  UNL     1      -4.368 -11.456   2.210  1.00  0.00    -0.004 C 
HETATM    8  C8  UNL     1      -3.889 -10.754   0.929  1.00  0.00     0.010 C 
HETATM    9  C9  UNL     1      -4.762 -11.082  -0.271  1.00  0.00     0.035 C 
HETATM   10  C10 UNL     1      -6.208 -10.747   0.018  1.00  0.00    -0.069 C 
HETATM   11  C11 UNL     1      -6.881  -9.910  -0.797  1.00  0.00     0.030 C 
HETATM   12  C12 UNL     1      -8.326  -9.623  -0.589  1.00  0.00     0.032 C 
HETATM   13  N1  UNL     1      -9.011  -8.687  -1.170  1.00  0.00    -0.271 N 
ATOM     14  H1  UNL     1     -10.014  -8.551  -1.046  1.00  0.00     0.194 HD
HETATM   15  C23 UNL     1      -9.064 -10.546   0.355  1.00  0.00     0.060 C 
HETATM   16  C24 UNL     1      -8.203 -10.796   1.586  1.00  0.00     0.020 C 
HETATM   17  C25 UNL     1      -6.816 -11.419   1.251  1.00  0.00    -0.016 C 
HETATM   18  C26 UNL     1      -7.003 -12.916   0.913  1.00  0.00     0.020 C 
HETATM   19  C27 UNL     1      -5.867 -11.192   2.492  1.00  0.00     0.002 C 
HETATM   20  C28 UNL     1      -6.348 -11.934   3.763  1.00  0.00     0.007 C 
HETATM   21  C29 UNL     1      -5.234 -12.474   4.659  1.00  0.00     0.014 C 
HETATM   22  C30 UNL     1      -3.975 -11.594   4.801  1.00  0.00     0.003 C 
HETATM   23  C31 UNL     1      -2.850 -12.493   5.392  1.00  0.00     0.020 C 
ENDROOT
BRANCH   3  24
HETATM   24  O1  UNL     1      -5.459  -9.725   5.433  1.00  0.00    -0.377 OA
HETATM   25  H2  UNL     1      -5.580  -9.022   6.095  1.00  0.00     0.211 HD
ENDBRANCH   3  24
BRANCH  13  26
HETATM   26  O2  UNL     1      -8.202  -7.883  -1.991  1.00  0.00    -0.271 OA
BRANCH  26  27
HETATM   27  C13 UNL     1      -8.802  -6.602  -2.145  1.00  0.00     0.303 C 
BRANCH  27  28
HETATM   28  C14 UNL     1      -9.288  -6.346  -3.571  1.00  0.00     0.243 C 
HETATM   29  O3  UNL     1      -9.456  -7.253  -4.388  1.00  0.00    -0.271 OA
HETATM   30  N2  UNL     1      -9.494  -5.012  -3.865  1.00  0.00    -0.356 N 
HETATM   31  H16 UNL     1      -9.164  -4.338  -3.168  1.00  0.00     0.162 HD
BRANCH  30  32
HETATM   32  C15 UNL     1      -9.792  -4.568  -5.217  1.00  0.00     0.159 C 
BRANCH  32  33
HETATM   33  C16 UNL     1     -10.422  -3.154  -5.273  1.00  0.00     0.170 C 
BRANCH  33  34
HETATM   34  O4  UNL     1     -10.884  -2.730  -3.988  1.00  0.00    -0.389 OA
HETATM   35  H20 UNL     1     -10.114  -2.405  -3.479  1.00  0.00     0.210 HD
ENDBRANCH  33  34
BRANCH  33  36
HETATM   36  C17 UNL     1      -9.496  -2.106  -5.840  1.00  0.00    -0.013 A 
HETATM   37  C18 UNL     1      -9.958  -0.934  -6.450  1.00  0.00     0.013 A 
HETATM   38  C19 UNL     1      -9.048  -0.004  -6.949  1.00  0.00     0.025 A 
HETATM   39  C20 UNL     1      -7.686  -0.270  -6.844  1.00  0.00     0.005 A 
HETATM   40  C21 UNL     1      -6.685   0.720  -7.362  1.00  0.00     0.068 C 
HETATM   41  N3  UNL     1      -7.211  -1.406  -6.281  1.00  0.00    -0.369 N 
HETATM   42  C22 UNL     1      -8.117  -2.294  -5.807  1.00  0.00     0.097 A 
ATOM     43  H3  UNL     1      -6.209  -1.586  -6.216  1.00  0.00     0.165 HD
ENDBRANCH  33  36
ENDBRANCH  32  33
ENDBRANCH  30  32
ENDBRANCH  27  28
ENDBRANCH  26  27
ENDBRANCH  13  26
TORSDOF 8
ENDMDL
MODEL 5
REMARK minimizedAffinity -7.9124608
REMARK CNNscore 0.277967125
REMARK CNNaffinity 5.58049965
REMARK  8 active torsions:
REMARK  status: ('A' for Active; 'I' for Inactive)
REMARK    1  A    between atoms: C3_3  and  O1_4 
REMARK    2  A    between atoms: N1_14  and  O2_16 
REMARK    3  A    between atoms: O2_16  and  C13_17 
REMARK    4  A    between atoms: C13_17  and  C14_18 
REMARK       I    between atoms: C14_18  and  N2_20 
REMARK    5  A    between atoms: N2_20  and  C15_21 
REMARK    6  A    between atoms: C15_21  and  C16_22 
REMARK    7  A    between atoms: C16_22  and  O4_23 
REMARK    8  A    between atoms: C16_22  and  C17_24 
ROOT
HETATM    1  C1  UNL     1       9.509  17.981  22.033  1.00  0.00     0.015 C 
HETATM    2  C2  UNL     1       8.903  16.945  21.977  1.00  0.00    -0.078 C 
HETATM    3  C3  UNL     1       8.169  15.672  21.862  1.00  0.00     0.128 C 
HETATM    4  C4  UNL     1       9.106  14.514  21.510  1.00  0.00     0.052 C 
HETATM    5  C5  UNL     1       8.233  13.293  21.761  1.00  0.00     0.010 C 
HETATM    6  C6  UNL     1       7.423  13.623  23.035  1.00  0.00     0.002 C 
HETATM    7  C7  UNL     1       5.998  13.010  23.088  1.00  0.00    -0.004 C 
HETATM    8  C8  UNL     1       6.044  11.504  22.781  1.00  0.00     0.010 C 
HETATM    9  C9  UNL     1       4.663  10.872  22.786  1.00  0.00     0.035 C 
HETATM   10  C10 UNL     1       3.747  11.590  21.821  1.00  0.00    -0.069 C 
HETATM   11  C11 UNL     1       3.126  10.901  20.843  1.00  0.00     0.030 C 
HETATM   12  C12 UNL     1       2.155  11.561  19.927  1.00  0.00     0.032 C 
HETATM   13  N1  UNL     1       1.669  11.055  18.836  1.00  0.00    -0.271 N 
ATOM     14  H1  UNL     1       0.963  11.513  18.259  1.00  0.00     0.194 HD
HETATM   15  C23 UNL     1       1.664  12.929  20.345  1.00  0.00     0.060 C 
HETATM   16  C24 UNL     1       2.842  13.752  20.848  1.00  0.00     0.020 C 
HETATM   17  C25 UNL     1       3.585  13.094  22.048  1.00  0.00    -0.016 C 
HETATM   18  C26 UNL     1       2.738  13.277  23.328  1.00  0.00     0.020 C 
HETATM   19  C27 UNL     1       5.010  13.762  22.164  1.00  0.00     0.002 C 
HETATM   20  C28 UNL     1       4.944  15.270  22.506  1.00  0.00     0.007 C 
HETATM   21  C29 UNL     1       6.067  15.781  23.409  1.00  0.00     0.014 C 
HETATM   22  C30 UNL     1       7.468  15.182  23.172  1.00  0.00     0.003 C 
HETATM   23  C31 UNL     1       8.329  15.517  24.424  1.00  0.00     0.020 C 
ENDROOT
BRANCH   3  24
HETATM   24  O1  UNL     1       7.233  15.799  20.793  1.00  0.00    -0.377 OA
HETATM   25  H2  UNL     1       7.696  16.236  20.057  1.00  0.00     0.211 HD
ENDBRANCH   3  24
BRANCH  13  26
HETATM   26  O2  UNL     1       2.232   9.801  18.547  1.00  0.00    -0.271 OA
BRANCH  26  27
HETATM   27  C13 UNL     1       2.208   9.580  17.141  1.00  0.00     0.303 C 
BRANCH  27  28
HETATM   28  C14 UNL     1       0.803   9.296  16.612  1.00  0.00     0.243 C 
HETATM   29  O3  UNL     1      -0.058  10.172  16.513  1.00  0.00    -0.271 OA
HETATM   30  N2  UNL     1       0.581   7.973  16.284  1.00  0.00    -0.356 N 
HETATM   31  H16 UNL     1       1.308   7.309  16.563  1.00  0.00     0.162 HD
BRANCH  30  32
HETATM   32  C15 UNL     1      -0.743   7.490  15.926  1.00  0.00     0.159 C 
BRANCH  32  33
HETATM   33  C16 UNL     1      -1.606   8.550  15.199  1.00  0.00     0.170 C 
BRANCH  33  34
HETATM   34  O4  UNL     1      -1.246   8.670  13.820  1.00  0.00    -0.389 OA
HETATM   35  H20 UNL     1      -1.669   7.937  13.329  1.00  0.00     0.210 HD
ENDBRANCH  33  34
BRANCH  33  36
HETATM   36  C17 UNL     1      -3.090   8.292  15.304  1.00  0.00    -0.013 A 
HETATM   37  C18 UNL     1      -4.047   9.306  15.188  1.00  0.00     0.013 A 
HETATM   38  C19 UNL     1      -5.403   8.998  15.291  1.00  0.00     0.025 A 
HETATM   39  C20 UNL     1      -5.778   7.678  15.526  1.00  0.00     0.005 A 
HETATM   40  C21 UNL     1      -7.231   7.318  15.629  1.00  0.00     0.068 C 
HETATM   41  N3  UNL     1      -4.873   6.681  15.667  1.00  0.00    -0.369 N 
HETATM   42  C22 UNL     1      -3.563   7.009  15.565  1.00  0.00     0.097 A 
ATOM     43  H3  UNL     1      -5.167   5.720  15.842  1.00  0.00     0.165 HD
ENDBRANCH  33  36
ENDBRANCH  32  33
ENDBRANCH  30  32
ENDBRANCH  27  28
ENDBRANCH  26  27
ENDBRANCH  13  26
TORSDOF 8
ENDMDL
MODEL 6
REMARK minimizedAffinity -8.36359978
REMARK CNNscore 0.228347406
REMARK CNNaffinity 7.00984335
REMARK  8 active torsions:
REMARK  status: ('A' for Active; 'I' for Inactive)
REMARK    1  A    between atoms: C3_3  and  O1_4 
REMARK    2  A    between atoms: N1_14  and  O2_16 
REMARK    3  A    between atoms: O2_16  and  C13_17 
REMARK    4  A    between atoms: C13_17  and  C14_18 
REMARK       I    between atoms: C14_18  and  N2_20 
REMARK    5  A    between atoms: N2_20  and  C15_21 
REMARK    6  A    between atoms: C15_21  and  C16_22 
REMARK    7  A    between atoms: C16_22  and  O4_23 
REMARK    8  A    between atoms: C16_22  and  C17_24 
ROOT
HETATM    1  C1  UNL     1      -5.825   2.972  12.289  1.00  0.00     0.015 C 
HETATM    2  C2  UNL     1      -6.617   3.655  12.881  1.00  0.00    -0.078 C 
HETATM    3  C3  UNL     1      -7.608   4.454  13.623  1.00  0.00     0.128 C 
HETATM    4  C4  UNL     1      -7.433   4.299  15.136  1.00  0.00     0.052 C 
HETATM    5  C5  UNL     1      -8.302   5.421  15.686  1.00  0.00     0.010 C 
HETATM    6  C6  UNL     1      -8.084   6.616  14.732  1.00  0.00     0.002 C 
HETATM    7  C7  UNL     1      -9.312   7.544  14.543  1.00  0.00    -0.004 C 
HETATM    8  C8  UNL     1      -9.889   7.964  15.905  1.00  0.00     0.010 C 
HETATM    9  C9  UNL     1     -11.120   8.844  15.764  1.00  0.00     0.035 C 
HETATM   10  C10 UNL     1     -12.171   8.157  14.923  1.00  0.00    -0.069 C 
HETATM   11  C11 UNL     1     -13.411   7.967  15.418  1.00  0.00     0.030 C 
HETATM   12  C12 UNL     1     -14.492   7.368  14.588  1.00  0.00     0.032 C 
HETATM   13  N1  UNL     1     -15.642   6.950  15.018  1.00  0.00    -0.271 N 
ATOM     14  H1  UNL     1     -16.383   6.594  14.414  1.00  0.00     0.194 HD
HETATM   15  C23 UNL     1     -14.229   7.288  13.101  1.00  0.00     0.060 C 
HETATM   16  C24 UNL     1     -12.804   6.806  12.869  1.00  0.00     0.020 C 
HETATM   17  C25 UNL     1     -11.729   7.725  13.523  1.00  0.00    -0.016 C 
HETATM   18  C26 UNL     1     -11.576   9.008  12.674  1.00  0.00     0.020 C 
HETATM   19  C27 UNL     1     -10.386   6.904  13.629  1.00  0.00     0.002 C 
HETATM   20  C28 UNL     1      -9.802   6.520  12.247  1.00  0.00     0.007 C 
HETATM   21  C29 UNL     1      -8.276   6.515  12.165  1.00  0.00     0.014 C 
HETATM   22  C30 UNL     1      -7.520   6.000  13.407  1.00  0.00     0.003 C 
HETATM   23  C31 UNL     1      -6.040   6.461  13.268  1.00  0.00     0.020 C 
ENDROOT
BRANCH   3  24
HETATM   24  O1  UNL     1      -8.905   3.960  13.295  1.00  0.00    -0.377 OA
HETATM   25  H2  UNL     1      -8.856   2.988  13.313  1.00  0.00     0.211 HD
ENDBRANCH   3  24
BRANCH  13  26
HETATM   26  O2  UNL     1     -15.743   7.049  16.416  1.00  0.00    -0.271 OA
BRANCH  26  27
HETATM   27  C13 UNL     1     -16.291   5.845  16.940  1.00  0.00     0.303 C 
BRANCH  27  28
HETATM   28  C14 UNL     1     -16.826   4.916  15.851  1.00  0.00     0.243 C 
HETATM   29  O3  UNL     1     -17.887   5.129  15.260  1.00  0.00    -0.271 OA
HETATM   30  N2  UNL     1     -16.032   3.812  15.610  1.00  0.00    -0.356 N 
HETATM   31  H16 UNL     1     -15.267   3.652  16.271  1.00  0.00     0.162 HD
BRANCH  30  32
HETATM   32  C15 UNL     1     -16.467   2.739  14.731  1.00  0.00     0.159 C 
BRANCH  32  33
HETATM   33  C16 UNL     1     -15.311   1.819  14.268  1.00  0.00     0.170 C 
BRANCH  33  34
HETATM   34  O4  UNL     1     -14.483   1.418  15.364  1.00  0.00    -0.389 OA
HETATM   35  H20 UNL     1     -14.930   0.682  15.829  1.00  0.00     0.210 HD
ENDBRANCH  33  34
BRANCH  33  36
HETATM   36  C17 UNL     1     -15.780   0.593  13.524  1.00  0.00    -0.013 A 
HETATM   37  C18 UNL     1     -15.614  -0.706  14.019  1.00  0.00     0.013 A 
HETATM   38  C19 UNL     1     -16.075  -1.796  13.282  1.00  0.00     0.025 A 
HETATM   39  C20 UNL     1     -16.683  -1.568  12.050  1.00  0.00     0.005 A 
HETATM   40  C21 UNL     1     -17.199  -2.723  11.243  1.00  0.00     0.068 C 
HETATM   41  N3  UNL     1     -16.835  -0.325  11.536  1.00  0.00    -0.369 N 
HETATM   42  C22 UNL     1     -16.376   0.715  12.271  1.00  0.00     0.097 A 
ATOM     43  H3  UNL     1     -17.280  -0.178  10.630  1.00  0.00     0.165 HD
ENDBRANCH  33  36
ENDBRANCH  32  33
ENDBRANCH  30  32
ENDBRANCH  27  28
ENDBRANCH  26  27
ENDBRANCH  13  26
TORSDOF 8
ENDMDL
MODEL 7
REMARK minimizedAffinity -7.52639866
REMARK CNNscore 0.216655105
REMARK CNNaffinity 5.21912909
REMARK  8 active torsions:
REMARK  status: ('A' for Active; 'I' for Inactive)
REMARK    1  A    between atoms: C3_3  and  O1_4 
REMARK    2  A    between atoms: N1_14  and  O2_16 
REMARK    3  A    between atoms: O2_16  and  C13_17 
REMARK    4  A    between atoms: C13_17  and  C14_18 
REMARK       I    between atoms: C14_18  and  N2_20 
REMARK    5  A    between atoms: N2_20  and  C15_21 
REMARK    6  A    between atoms: C15_21  and  C16_22 
REMARK    7  A    between atoms: C16_22  and  O4_23 
REMARK    8  A    between atoms: C16_22  and  C17_24 
ROOT
HETATM    1  C1  UNL     1      10.133  15.898  20.843  1.00  0.00     0.015 C 
HETATM    2  C2  UNL     1       9.213  15.127  20.908  1.00  0.00    -0.078 C 
HETATM    3  C3  UNL     1       8.086  14.178  20.941  1.00  0.00     0.128 C 
HETATM    4  C4  UNL     1       8.512  12.786  20.468  1.00  0.00     0.052 C 
HETATM    5  C5  UNL     1       7.332  11.920  20.883  1.00  0.00     0.010 C 
HETATM    6  C6  UNL     1       6.891  12.460  22.263  1.00  0.00     0.002 C 
HETATM    7  C7  UNL     1       5.371  12.357  22.558  1.00  0.00    -0.004 C 
HETATM    8  C8  UNL     1       4.860  10.934  22.281  1.00  0.00     0.010 C 
HETATM    9  C9  UNL     1       3.366  10.800  22.521  1.00  0.00     0.035 C 
HETATM   10  C10 UNL     1       2.603  11.815  21.700  1.00  0.00    -0.069 C 
HETATM   11  C11 UNL     1       1.640  11.407  20.849  1.00  0.00     0.030 C 
HETATM   12  C12 UNL     1       0.816  12.384  20.087  1.00  0.00     0.032 C 
HETATM   13  N1  UNL     1       0.021  12.107  19.100  1.00  0.00    -0.271 N 
ATOM     14  H1  UNL     1      -0.572  12.793  18.633  1.00  0.00     0.194 HD
HETATM   15  C23 UNL     1       0.884  13.822  20.547  1.00  0.00     0.060 C 
HETATM   16  C24 UNL     1       2.334  14.187  20.836  1.00  0.00     0.020 C 
HETATM   17  C25 UNL     1       2.994  13.279  21.916  1.00  0.00    -0.016 C 
HETATM   18  C26 UNL     1       2.471  13.692  23.312  1.00  0.00     0.020 C 
HETATM   19  C27 UNL     1       4.560  13.427  21.787  1.00  0.00     0.002 C 
HETATM   20  C28 UNL     1       5.059  14.858  22.102  1.00  0.00     0.007 C 
HETATM   21  C29 UNL     1       6.416  14.933  22.801  1.00  0.00     0.014 C 
HETATM   22  C30 UNL     1       7.479  13.908  22.356  1.00  0.00     0.003 C 
HETATM   23  C31 UNL     1       8.589  13.894  23.447  1.00  0.00     0.020 C 
ENDROOT
BRANCH   3  24
HETATM   24  O1  UNL     1       7.091  14.646  20.033  1.00  0.00    -0.377 OA
HETATM   25  H2  UNL     1       7.550  14.928  19.222  1.00  0.00     0.211 HD
ENDBRANCH   3  24
BRANCH  13  26
HETATM   26  O2  UNL     1       0.077  10.746  18.751  1.00  0.00    -0.271 OA
BRANCH  26  27
HETATM   27  C13 UNL     1      -0.714  10.518  17.591  1.00  0.00     0.303 C 
BRANCH  27  28
HETATM   28  C14 UNL     1       0.014   9.690  16.533  1.00  0.00     0.243 C 
HETATM   29  O3  UNL     1       0.686   8.695  16.815  1.00  0.00    -0.271 OA
HETATM   30  N2  UNL     1      -0.125  10.171  15.246  1.00  0.00    -0.356 N 
HETATM   31  H16 UNL     1      -0.562  11.091  15.151  1.00  0.00     0.162 HD
BRANCH  30  32
HETATM   32  C15 UNL     1       0.633   9.612  14.139  1.00  0.00     0.159 C 
BRANCH  32  33
HETATM   33  C16 UNL     1      -0.231   8.766  13.170  1.00  0.00     0.170 C 
BRANCH  33  34
HETATM   34  O4  UNL     1      -1.082   9.588  12.366  1.00  0.00    -0.389 OA
HETATM   35  H20 UNL     1      -0.549   9.951  11.630  1.00  0.00     0.210 HD
ENDBRANCH  33  34
BRANCH  33  36
HETATM   36  C17 UNL     1       0.581   7.864  12.273  1.00  0.00    -0.013 A 
HETATM   37  C18 UNL     1       0.218   7.581  10.951  1.00  0.00     0.013 A 
HETATM   38  C19 UNL     1       1.016   6.742  10.175  1.00  0.00     0.025 A 
HETATM   39  C20 UNL     1       2.159   6.185  10.741  1.00  0.00     0.005 A 
HETATM   40  C21 UNL     1       3.042   5.290   9.923  1.00  0.00     0.068 C 
HETATM   41  N3  UNL     1       2.522   6.423  12.024  1.00  0.00    -0.369 N 
HETATM   42  C22 UNL     1       1.727   7.239  12.756  1.00  0.00     0.097 A 
ATOM     43  H3  UNL     1       3.362   6.004  12.423  1.00  0.00     0.165 HD
ENDBRANCH  33  36
ENDBRANCH  32  33
ENDBRANCH  30  32
ENDBRANCH  27  28
ENDBRANCH  26  27
ENDBRANCH  13  26
TORSDOF 8
ENDMDL
MODEL 8
REMARK minimizedAffinity -6.84122038
REMARK CNNscore 0.216619194
REMARK CNNaffinity 5.5156498
REMARK  8 active torsions:
REMARK  status: ('A' for Active; 'I' for Inactive)
REMARK    1  A    between atoms: C3_3  and  O1_4 
REMARK    2  A    between atoms: N1_14  and  O2_16 
REMARK    3  A    between atoms: O2_16  and  C13_17 
REMARK    4  A    between atoms: C13_17  and  C14_18 
REMARK       I    between atoms: C14_18  and  N2_20 
REMARK    5  A    between atoms: N2_20  and  C15_21 
REMARK    6  A    between atoms: C15_21  and  C16_22 
REMARK    7  A    between atoms: C16_22  and  O4_23 
REMARK    8  A    between atoms: C16_22  and  C17_24 
ROOT
HETATM    1  C1  UNL     1      -7.060  18.507  13.622  1.00  0.00     0.015 C 
HETATM    2  C2  UNL     1      -6.143  17.845  14.029  1.00  0.00    -0.078 C 
HETATM    3  C3  UNL     1      -5.022  17.006  14.490  1.00  0.00     0.128 C 
HETATM    4  C4  UNL     1      -3.810  17.133  13.564  1.00  0.00     0.052 C 
HETATM    5  C5  UNL     1      -2.704  16.475  14.375  1.00  0.00     0.010 C 
HETATM    6  C6  UNL     1      -2.947  16.917  15.836  1.00  0.00     0.002 C 
HETATM    7  C7  UNL     1      -2.545  15.879  16.917  1.00  0.00    -0.004 C 
HETATM    8  C8  UNL     1      -1.113  15.372  16.675  1.00  0.00     0.010 C 
HETATM    9  C9  UNL     1      -0.693  14.323  17.691  1.00  0.00     0.035 C 
HETATM   10  C10 UNL     1      -1.676  13.174  17.704  1.00  0.00    -0.069 C 
HETATM   11  C11 UNL     1      -1.243  11.915  17.494  1.00  0.00     0.030 C 
HETATM   12  C12 UNL     1      -2.169  10.753  17.582  1.00  0.00     0.032 C 
HETATM   13  N1  UNL     1      -1.914   9.541  17.196  1.00  0.00    -0.271 N 
ATOM     14  H1  UNL     1      -2.552   8.755  17.320  1.00  0.00     0.194 HD
HETATM   15  C23 UNL     1      -3.513  11.014  18.225  1.00  0.00     0.060 C 
HETATM   16  C24 UNL     1      -4.070  12.331  17.704  1.00  0.00     0.020 C 
HETATM   17  C25 UNL     1      -3.135  13.546  17.976  1.00  0.00    -0.016 C 
HETATM   18  C26 UNL     1      -3.238  13.939  19.468  1.00  0.00     0.020 C 
HETATM   19  C27 UNL     1      -3.565  14.718  17.010  1.00  0.00     0.002 C 
HETATM   20  C28 UNL     1      -4.996  15.238  17.291  1.00  0.00     0.007 C 
HETATM   21  C29 UNL     1      -5.194  16.739  17.082  1.00  0.00     0.014 C 
HETATM   22  C30 UNL     1      -4.443  17.375  15.895  1.00  0.00     0.003 C 
HETATM   23  C31 UNL     1      -4.453  18.916  16.115  1.00  0.00     0.020 C 
ENDROOT
BRANCH   3  24
HETATM   24  O1  UNL     1      -5.446  15.645  14.447  1.00  0.00    -0.377 OA
HETATM   25  H2  UNL     1      -5.921  15.518  13.607  1.00  0.00     0.211 HD
ENDBRANCH   3  24
BRANCH  13  26
HETATM   26  O2  UNL     1      -0.651   9.443  16.587  1.00  0.00    -0.271 OA
BRANCH  26  27
HETATM   27  C13 UNL     1      -0.796   8.929  15.269  1.00  0.00     0.303 C 
BRANCH  27  28
HETATM   28  C14 UNL     1      -0.910   7.405  15.239  1.00  0.00     0.243 C 
HETATM   29  O3  UNL     1       0.018   6.664  15.569  1.00  0.00    -0.271 OA
HETATM   30  N2  UNL     1      -2.129   6.939  14.786  1.00  0.00    -0.356 N 
HETATM   31  H16 UNL     1      -2.760   7.638  14.384  1.00  0.00     0.162 HD
BRANCH  30  32
HETATM   32  C15 UNL     1      -2.357   5.527  14.532  1.00  0.00     0.159 C 
BRANCH  32  33
HETATM   33  C16 UNL     1      -2.203   5.139  13.040  1.00  0.00     0.170 C 
BRANCH  33  34
HETATM   34  O4  UNL     1      -0.913   4.584  12.769  1.00  0.00    -0.389 OA
HETATM   35  H20 UNL     1      -0.920   3.646  13.048  1.00  0.00     0.210 HD
ENDBRANCH  33  34
BRANCH  33  36
HETATM   36  C17 UNL     1      -3.267   4.186  12.554  1.00  0.00    -0.013 A 
HETATM   37  C18 UNL     1      -4.630   4.373  12.812  1.00  0.00     0.013 A 
HETATM   38  C19 UNL     1      -5.562   3.456  12.330  1.00  0.00     0.025 A 
HETATM   39  C20 UNL     1      -5.112   2.354  11.609  1.00  0.00     0.005 A 
HETATM   40  C21 UNL     1      -6.095   1.358  11.068  1.00  0.00     0.068 C 
HETATM   41  N3  UNL     1      -3.799   2.134  11.364  1.00  0.00    -0.369 N 
HETATM   42  C22 UNL     1      -2.914   3.039  11.847  1.00  0.00     0.097 A 
ATOM     43  H3  UNL     1      -3.487   1.319  10.837  1.00  0.00     0.165 HD
ENDBRANCH  33  36
ENDBRANCH  32  33
ENDBRANCH  30  32
ENDBRANCH  27  28
ENDBRANCH  26  27
ENDBRANCH  13  26
TORSDOF 8
ENDMDL
MODEL 9
REMARK minimizedAffinity -9.19429111
REMARK CNNscore 0.21207881
REMARK CNNaffinity 6.48549318
REMARK  8 active torsions:
REMARK  status: ('A' for Active; 'I' for Inactive)
REMARK    1  A    between atoms: C3_3  and  O1_4 
REMARK    2  A    between atoms: N1_14  and  O2_16 
REMARK    3  A    between atoms: O2_16  and  C13_17 
REMARK    4  A    between atoms: C13_17  and  C14_18 
REMARK       I    between atoms: C14_18  and  N2_20 
REMARK    5  A    between atoms: N2_20  and  C15_21 
REMARK    6  A    between atoms: C15_21  and  C16_22 
REMARK    7  A    between atoms: C16_22  and  O4_23 
REMARK    8  A    between atoms: C16_22  and  C17_24 
ROOT
HETATM    1  C1  UNL     1      -7.710   5.565  15.922  1.00  0.00     0.015 C 
HETATM    2  C2  UNL     1      -6.629   5.856  15.484  1.00  0.00    -0.078 C 
HETATM    3  C3  UNL     1      -5.285   6.176  14.969  1.00  0.00     0.128 C 
HETATM    4  C4  UNL     1      -4.783   5.097  14.006  1.00  0.00     0.052 C 
HETATM    5  C5  UNL     1      -3.576   5.765  13.362  1.00  0.00     0.010 C 
HETATM    6  C6  UNL     1      -3.987   7.239  13.150  1.00  0.00     0.002 C 
HETATM    7  C7  UNL     1      -2.834   8.270  13.266  1.00  0.00    -0.004 C 
HETATM    8  C8  UNL     1      -1.640   7.849  12.393  1.00  0.00     0.010 C 
HETATM    9  C9  UNL     1      -0.472   8.814  12.508  1.00  0.00     0.035 C 
HETATM   10  C10 UNL     1      -0.053   8.970  13.953  1.00  0.00    -0.069 C 
HETATM   11  C11 UNL     1       1.221   8.720  14.315  1.00  0.00     0.030 C 
HETATM   12  C12 UNL     1       1.686   8.942  15.712  1.00  0.00     0.032 C 
HETATM   13  N1  UNL     1       2.812   8.541  16.215  1.00  0.00    -0.271 N 
ATOM     14  H1  UNL     1       3.125   8.756  17.161  1.00  0.00     0.194 HD
HETATM   15  C23 UNL     1       0.771   9.752  16.602  1.00  0.00     0.060 C 
HETATM   16  C24 UNL     1      -0.665   9.293  16.395  1.00  0.00     0.020 C 
HETATM   17  C25 UNL     1      -1.148   9.426  14.920  1.00  0.00    -0.016 C 
HETATM   18  C26 UNL     1      -1.438  10.914  14.615  1.00  0.00     0.020 C 
HETATM   19  C27 UNL     1      -2.420   8.511  14.739  1.00  0.00     0.002 C 
HETATM   20  C28 UNL     1      -3.622   8.970  15.600  1.00  0.00     0.007 C 
HETATM   21  C29 UNL     1      -4.995   8.771  14.958  1.00  0.00     0.014 C 
HETATM   22  C30 UNL     1      -5.187   7.488  14.125  1.00  0.00     0.003 C 
HETATM   23  C31 UNL     1      -6.462   7.690  13.256  1.00  0.00     0.020 C 
ENDROOT
BRANCH   3  24
HETATM   24  O1  UNL     1      -4.386   6.205  16.076  1.00  0.00    -0.377 OA
HETATM   25  H2  UNL     1      -4.593   5.436  16.636  1.00  0.00     0.211 HD
ENDBRANCH   3  24
BRANCH  13  26
HETATM   26  O2  UNL     1       3.549   7.773  15.297  1.00  0.00    -0.271 OA
BRANCH  26  27
HETATM   27  C13 UNL     1       4.643   8.538  14.805  1.00  0.00     0.303 C 
BRANCH  27  28
HETATM   28  C14 UNL     1       4.807   8.426  13.290  1.00  0.00     0.243 C 
HETATM   29  O3  UNL     1       4.958   9.411  12.564  1.00  0.00    -0.271 OA
HETATM   30  N2  UNL     1       4.743   7.133  12.809  1.00  0.00    -0.356 N 
HETATM   31  H16 UNL     1       4.449   6.416  13.477  1.00  0.00     0.162 HD
BRANCH  30  32
HETATM   32  C15 UNL     1       4.710   6.852  11.383  1.00  0.00     0.159 C 
BRANCH  32  33
HETATM   33  C16 UNL     1       3.305   6.451  10.870  1.00  0.00     0.170 C 
BRANCH  33  34
HETATM   34  O4  UNL     1       2.433   7.581  10.777  1.00  0.00    -0.389 OA
HETATM   35  H20 UNL     1       2.638   8.058   9.948  1.00  0.00     0.210 HD
ENDBRANCH  33  34
BRANCH  33  36
HETATM   36  C17 UNL     1       3.332   5.734   9.542  1.00  0.00    -0.013 A 
HETATM   37  C18 UNL     1       2.749   6.259   8.383  1.00  0.00     0.013 A 
HETATM   38  C19 UNL     1       2.815   5.547   7.187  1.00  0.00     0.025 A 
HETATM   39  C20 UNL     1       3.451   4.309   7.173  1.00  0.00     0.005 A 
HETATM   40  C21 UNL     1       3.546   3.528   5.896  1.00  0.00     0.068 C 
HETATM   41  N3  UNL     1       4.003   3.765   8.284  1.00  0.00    -0.369 N 
HETATM   42  C22 UNL     1       3.922   4.477   9.433  1.00  0.00     0.097 A 
ATOM     43  H3  UNL     1       4.463   2.855   8.256  1.00  0.00     0.165 HD
ENDBRANCH  33  36
ENDBRANCH  32  33
ENDBRANCH  30  32
ENDBRANCH  27  28
ENDBRANCH  26  27
ENDBRANCH  13  26
TORSDOF 8
ENDMDL
