MODEL 1
REMARK minimizedAffinity -9.41968346
REMARK  7 active torsions:
REMARK  status: ('A' for Active; 'I' for Inactive)
REMARK    1  A    between atoms: C2_2  and  C30_32 
REMARK    2  A    between atoms: C3_3  and  C4_4 
REMARK    3  A    between atoms: C4_4  and  O1_5 
REMARK    4  A    between atoms: C4_4  and  C5_6 
REMARK    5  A    between atoms: C5_6  and  C6_7 
REMARK    6  A    between atoms: C6_7  and  C8_9 
REMARK    7  A    between atoms: C30_32  and  O3_33 
ROOT
HETATM    1  C8  UNL     1      -0.807  52.180 -21.162  1.00  0.00    -0.002 C 
HETATM    2  C9  UNL     1      -0.118  51.120 -20.249  1.00  0.00     0.007 C 
HETATM    3  C10 UNL     1      -1.129  49.980 -20.015  1.00  0.00     0.015 C 
HETATM    4  C11 UNL     1      -2.471  50.542 -20.518  1.00  0.00    -0.013 C 
HETATM    5  C12 UNL     1      -3.047  51.395 -19.341  1.00  0.00     0.021 C 
HETATM    6  C13 UNL     1      -3.568  49.551 -20.896  1.00  0.00    -0.070 C 
HETATM    7  C14 UNL     1      -3.715  48.371 -20.266  1.00  0.00    -0.022 C 
HETATM    8  C15 UNL     1      -4.845  47.418 -20.503  1.00  0.00     0.034 C 
HETATM    9  C16 UNL     1      -5.728  47.743 -21.730  1.00  0.00     0.013 C 
HETATM   10  C17 UNL     1      -7.020  46.848 -21.804  1.00  0.00     0.018 C 
HETATM   11  C18 UNL     1      -7.665  46.527 -20.440  1.00  0.00     0.023 C 
HETATM   12  C19 UNL     1      -6.673  45.500 -22.470  1.00  0.00     0.023 C 
HETATM   13  C20 UNL     1      -8.064  47.524 -22.698  1.00  0.00     0.135 C 
HETATM   14  O2  UNL     1      -9.271  47.304 -22.598  1.00  0.00    -0.297 OA
HETATM   15  C21 UNL     1      -7.537  48.420 -23.784  1.00  0.00     0.080 C 
HETATM   16  C22 UNL     1      -6.758  49.591 -23.203  1.00  0.00     0.017 C 
HETATM   17  C23 UNL     1      -5.964  49.293 -21.891  1.00  0.00    -0.031 C 
HETATM   18  C24 UNL     1      -6.768  49.870 -20.700  1.00  0.00     0.016 C 
HETATM   19  C25 UNL     1      -4.540  49.982 -21.995  1.00  0.00     0.024 C 
HETATM   20  C26 UNL     1      -4.576  51.520 -22.170  1.00  0.00     0.010 C 
HETATM   21  C27 UNL     1      -3.192  52.202 -22.300  1.00  0.00     0.011 C 
HETATM   22  C28 UNL     1      -2.003  51.371 -21.770  1.00  0.00    -0.029 C 
HETATM   23  C29 UNL     1      -1.447  50.487 -22.932  1.00  0.00     0.016 C 
ENDROOT
BRANCH   1  24
HETATM   24  C6  UNL     1       0.218  52.909 -22.093  1.00  0.00    -0.011 C 
HETATM   25  C7  UNL     1       1.534  53.213 -21.372  1.00  0.00     0.010 C 
BRANCH  24  26
HETATM   26  C5  UNL     1       0.452  52.053 -23.377  1.00  0.00     0.040 C 
BRANCH  26  27
HETATM   27  C4  UNL     1       0.370  52.815 -24.714  1.00  0.00     0.141 C 
BRANCH  27  28
HETATM   28  C3  UNL     1       1.235  52.176 -25.775  1.00  0.00     0.009 C 
HETATM   29  C2  UNL     1       1.107  52.316 -27.113  1.00  0.00    -0.062 C 
HETATM   30  C1  UNL     1       0.020  53.120 -27.777  1.00  0.00     0.045 C 
BRANCH  29  31
HETATM   31  C30 UNL     1       2.069  51.651 -28.061  1.00  0.00     0.198 C 
BRANCH  31  32
HETATM   32  O3  UNL     1       3.293  51.433 -27.376  1.00  0.00    -0.397 OA
HETATM   33  H48 UNL     1       3.901  51.023 -28.014  1.00  0.00     0.209 HD
ENDBRANCH  31  32
ENDBRANCH  29  31
ENDBRANCH  27  28
BRANCH  27  34
HETATM   34  O1  UNL     1       0.819  54.152 -24.511  1.00  0.00    -0.392 OA
HETATM   35  H6  UNL     1       1.754  54.192 -24.774  1.00  0.00     0.210 HD
ENDBRANCH  27  34
ENDBRANCH  26  27
ENDBRANCH  24  26
ENDBRANCH   1  24
TORSDOF 7
ENDMDL
MODEL 2
REMARK minimizedAffinity -9.3641901
REMARK  7 active torsions:
REMARK  status: ('A' for Active; 'I' for Inactive)
REMARK    1  A    between atoms: C2_2  and  C30_32 
REMARK    2  A    between atoms: C3_3  and  C4_4 
REMARK    3  A    between atoms: C4_4  and  O1_5 
REMARK    4  A    between atoms: C4_4  and  C5_6 
REMARK    5  A    between atoms: C5_6  and  C6_7 
REMARK    6  A    between atoms: C6_7  and  C8_9 
REMARK    7  A    between atoms: C30_32  and  O3_33 
ROOT
HETATM    1  C8  UNL     1      -3.331  48.387 -19.457  1.00  0.00    -0.002 C 
HETATM    2  C9  UNL     1      -3.842  47.222 -20.359  1.00  0.00     0.007 C 
HETATM    3  C10 UNL     1      -3.613  47.634 -21.826  1.00  0.00     0.015 C 
HETATM    4  C11 UNL     1      -3.280  49.135 -21.761  1.00  0.00    -0.013 C 
HETATM    5  C12 UNL     1      -4.655  49.877 -21.689  1.00  0.00     0.021 C 
HETATM    6  C13 UNL     1      -2.528  49.755 -22.935  1.00  0.00    -0.070 C 
HETATM    7  C14 UNL     1      -2.693  49.327 -24.199  1.00  0.00    -0.022 C 
HETATM    8  C15 UNL     1      -2.084  49.976 -25.403  1.00  0.00     0.034 C 
HETATM    9  C16 UNL     1      -1.013  51.047 -25.094  1.00  0.00     0.013 C 
HETATM   10  C17 UNL     1      -0.569  51.850 -26.373  1.00  0.00     0.018 C 
HETATM   11  C18 UNL     1      -1.700  52.144 -27.378  1.00  0.00     0.023 C 
HETATM   12  C19 UNL     1       0.514  51.051 -27.130  1.00  0.00     0.023 C 
HETATM   13  C20 UNL     1       0.076  53.173 -25.952  1.00  0.00     0.135 C 
HETATM   14  O2  UNL     1       0.115  54.160 -26.688  1.00  0.00    -0.297 OA
HETATM   15  C21 UNL     1       0.751  53.193 -24.610  1.00  0.00     0.080 C 
HETATM   16  C22 UNL     1      -0.240  52.911 -23.490  1.00  0.00     0.017 C 
HETATM   17  C23 UNL     1      -1.398  51.922 -23.842  1.00  0.00    -0.031 C 
HETATM   18  C24 UNL     1      -2.678  52.754 -24.104  1.00  0.00     0.016 C 
HETATM   19  C25 UNL     1      -1.608  50.936 -22.619  1.00  0.00     0.024 C 
HETATM   20  C26 UNL     1      -1.985  51.628 -21.286  1.00  0.00     0.010 C 
HETATM   21  C27 UNL     1      -2.167  50.677 -20.078  1.00  0.00     0.011 C 
HETATM   22  C28 UNL     1      -2.424  49.199 -20.444  1.00  0.00    -0.029 C 
HETATM   23  C29 UNL     1      -1.051  48.460 -20.555  1.00  0.00     0.016 C 
ENDROOT
BRANCH   1  24
HETATM   24  C6  UNL     1      -2.765  47.871 -18.094  1.00  0.00    -0.011 C 
HETATM   25  C7  UNL     1      -3.030  46.377 -17.891  1.00  0.00     0.010 C 
BRANCH  24  26
HETATM   26  C5  UNL     1      -1.242  48.200 -18.006  1.00  0.00     0.040 C 
BRANCH  26  27
HETATM   27  C4  UNL     1      -0.796  48.983 -16.757  1.00  0.00     0.141 C 
BRANCH  27  28
HETATM   28  C3  UNL     1       0.132  50.121 -17.112  1.00  0.00     0.009 C 
HETATM   29  C2  UNL     1       0.809  50.911 -16.249  1.00  0.00    -0.062 C 
HETATM   30  C1  UNL     1       0.704  50.805 -14.750  1.00  0.00     0.045 C 
BRANCH  29  31
HETATM   31  C30 UNL     1       1.737  51.988 -16.743  1.00  0.00     0.198 C 
BRANCH  31  32
HETATM   32  O3  UNL     1       1.305  53.230 -16.211  1.00  0.00    -0.397 OA
HETATM   33  H48 UNL     1       1.907  53.908 -16.561  1.00  0.00     0.209 HD
ENDBRANCH  31  32
ENDBRANCH  29  31
ENDBRANCH  27  28
BRANCH  27  34
HETATM   34  O1  UNL     1      -0.109  48.097 -15.878  1.00  0.00    -0.392 OA
HETATM   35  H6  UNL     1       0.845  48.202 -16.040  1.00  0.00     0.210 HD
ENDBRANCH  27  34
ENDBRANCH  26  27
ENDBRANCH  24  26
ENDBRANCH   1  24
TORSDOF 7
ENDMDL
MODEL 3
REMARK minimizedAffinity -9.13553143
REMARK  7 active torsions:
REMARK  status: ('A' for Active; 'I' for Inactive)
REMARK    1  A    between atoms: C2_2  and  C30_32 
REMARK    2  A    between atoms: C3_3  and  C4_4 
REMARK    3  A    between atoms: C4_4  and  O1_5 
REMARK    4  A    between atoms: C4_4  and  C5_6 
REMARK    5  A    between atoms: C5_6  and  C6_7 
REMARK    6  A    between atoms: C6_7  and  C8_9 
REMARK    7  A    between atoms: C30_32  and  O3_33 
ROOT
HETATM    1  C8  UNL     1      -1.847  51.027 -21.968  1.00  0.00    -0.002 C 
HETATM    2  C9  UNL     1      -1.108  49.758 -21.441  1.00  0.00     0.007 C 
HETATM    3  C10 UNL     1      -2.134  48.609 -21.390  1.00  0.00     0.015 C 
HETATM    4  C11 UNL     1      -3.498  49.298 -21.575  1.00  0.00    -0.013 C 
HETATM    5  C12 UNL     1      -3.907  49.826 -20.161  1.00  0.00     0.021 C 
HETATM    6  C13 UNL     1      -4.670  48.452 -22.063  1.00  0.00    -0.070 C 
HETATM    7  C14 UNL     1      -4.798  47.152 -21.743  1.00  0.00    -0.022 C 
HETATM    8  C15 UNL     1      -5.985  46.305 -22.082  1.00  0.00     0.034 C 
HETATM    9  C16 UNL     1      -6.981  46.947 -23.075  1.00  0.00     0.013 C 
HETATM   10  C17 UNL     1      -8.310  46.118 -23.225  1.00  0.00     0.018 C 
HETATM   11  C18 UNL     1      -8.816  45.464 -21.923  1.00  0.00     0.023 C 
HETATM   12  C19 UNL     1      -8.094  44.983 -24.249  1.00  0.00     0.023 C 
HETATM   13  C20 UNL     1      -9.416  47.015 -23.790  1.00  0.00     0.135 C 
HETATM   14  O2  UNL     1     -10.613  46.791 -23.611  1.00  0.00    -0.297 OA
HETATM   15  C21 UNL     1      -8.973  48.154 -24.665  1.00  0.00     0.080 C 
HETATM   16  C22 UNL     1      -8.088  49.125 -23.900  1.00  0.00     0.017 C 
HETATM   17  C23 UNL     1      -7.168  48.489 -22.807  1.00  0.00    -0.031 C 
HETATM   18  C24 UNL     1      -7.814  48.749 -21.424  1.00  0.00     0.016 C 
HETATM   19  C25 UNL     1      -5.737  49.164 -22.896  1.00  0.00     0.024 C 
HETATM   20  C26 UNL     1      -5.728  50.696 -22.668  1.00  0.00     0.010 C 
HETATM   21  C27 UNL     1      -4.339  51.371 -22.779  1.00  0.00     0.011 C 
HETATM   22  C28 UNL     1      -3.135  50.416 -22.619  1.00  0.00    -0.029 C 
HETATM   23  C29 UNL     1      -2.745  49.855 -24.024  1.00  0.00     0.016 C 
ENDROOT
BRANCH   1  24
HETATM   24  C6  UNL     1      -0.900  51.958 -22.794  1.00  0.00    -0.011 C 
HETATM   25  C7  UNL     1       0.400  52.265 -22.046  1.00  0.00     0.010 C 
BRANCH  24  26
HETATM   26  C5  UNL     1      -0.620  51.310 -24.186  1.00  0.00     0.040 C 
BRANCH  26  27
HETATM   27  C4  UNL     1      -0.489  52.290 -25.367  1.00  0.00     0.141 C 
BRANCH  27  28
HETATM   28  C3  UNL     1       0.877  52.214 -26.008  1.00  0.00     0.009 C 
HETATM   29  C2  UNL     1       1.146  51.953 -27.307  1.00  0.00    -0.062 C 
HETATM   30  C1  UNL     1       0.095  51.641 -28.340  1.00  0.00     0.045 C 
BRANCH  29  31
HETATM   31  C30 UNL     1       2.560  51.949 -27.823  1.00  0.00     0.198 C 
BRANCH  31  32
HETATM   32  O3  UNL     1       3.375  51.256 -26.890  1.00  0.00    -0.397 OA
HETATM   33  H48 UNL     1       4.282  51.286 -27.236  1.00  0.00     0.209 HD
ENDBRANCH  31  32
ENDBRANCH  29  31
ENDBRANCH  27  28
BRANCH  27  34
HETATM   34  O1  UNL     1      -0.691  53.617 -24.890  1.00  0.00    -0.392 OA
HETATM   35  H6  UNL     1       0.185  54.009 -24.727  1.00  0.00     0.210 HD
ENDBRANCH  27  34
ENDBRANCH  26  27
ENDBRANCH  24  26
ENDBRANCH   1  24
TORSDOF 7
ENDMDL
MODEL 4
REMARK minimizedAffinity -9.09187603
REMARK  7 active torsions:
REMARK  status: ('A' for Active; 'I' for Inactive)
REMARK    1  A    between atoms: C2_2  and  C30_32 
REMARK    2  A    between atoms: C3_3  and  C4_4 
REMARK    3  A    between atoms: C4_4  and  O1_5 
REMARK    4  A    between atoms: C4_4  and  C5_6 
REMARK    5  A    between atoms: C5_6  and  C6_7 
REMARK    6  A    between atoms: C6_7  and  C8_9 
REMARK    7  A    between atoms: C30_32  and  O3_33 
ROOT
HETATM    1  C8  UNL     1      -0.601  52.307 -21.599  1.00  0.00    -0.002 C 
HETATM    2  C9  UNL     1       0.597  53.304 -21.672  1.00  0.00     0.007 C 
HETATM    3  C10 UNL     1       1.277  53.318 -20.290  1.00  0.00     0.015 C 
HETATM    4  C11 UNL     1       0.287  52.590 -19.362  1.00  0.00    -0.013 C 
HETATM    5  C12 UNL     1      -0.769  53.662 -18.936  1.00  0.00     0.021 C 
HETATM    6  C13 UNL     1       0.825  51.991 -18.066  1.00  0.00    -0.070 C 
HETATM    7  C14 UNL     1       1.840  52.551 -17.385  1.00  0.00    -0.022 C 
HETATM    8  C15 UNL     1       2.325  52.085 -16.047  1.00  0.00     0.034 C 
HETATM    9  C16 UNL     1       1.754  50.725 -15.584  1.00  0.00     0.013 C 
HETATM   10  C17 UNL     1       2.117  50.390 -14.089  1.00  0.00     0.018 C 
HETATM   11  C18 UNL     1       2.120  51.602 -13.136  1.00  0.00     0.023 C 
HETATM   12  C19 UNL     1       3.527  49.765 -14.032  1.00  0.00     0.023 C 
HETATM   13  C20 UNL     1       1.147  49.337 -13.547  1.00  0.00     0.135 C 
HETATM   14  O2  UNL     1       0.906  49.206 -12.347  1.00  0.00    -0.297 OA
HETATM   15  C21 UNL     1       0.554  48.391 -14.553  1.00  0.00     0.080 C 
HETATM   16  C22 UNL     1      -0.276  49.135 -15.588  1.00  0.00     0.017 C 
HETATM   17  C23 UNL     1       0.233  50.564 -15.966  1.00  0.00    -0.031 C 
HETATM   18  C24 UNL     1      -0.649  51.600 -15.228  1.00  0.00     0.016 C 
HETATM   19  C25 UNL     1       0.117  50.742 -17.537  1.00  0.00     0.024 C 
HETATM   20  C26 UNL     1      -1.319  50.603 -18.100  1.00  0.00     0.010 C 
HETATM   21  C27 UNL     1      -1.442  50.749 -19.636  1.00  0.00     0.011 C 
HETATM   22  C28 UNL     1      -0.258  51.468 -20.320  1.00  0.00    -0.029 C 
HETATM   23  C29 UNL     1       0.819  50.407 -20.714  1.00  0.00     0.016 C 
ENDROOT
BRANCH   1  24
HETATM   24  C6  UNL     1      -0.863  51.601 -22.969  1.00  0.00    -0.011 C 
HETATM   25  C7  UNL     1      -1.701  50.330 -22.809  1.00  0.00     0.010 C 
BRANCH  24  26
HETATM   26  C5  UNL     1      -1.534  52.609 -23.953  1.00  0.00     0.040 C 
BRANCH  26  27
HETATM   27  C4  UNL     1      -0.819  52.804 -25.304  1.00  0.00     0.141 C 
BRANCH  27  28
HETATM   28  C3  UNL     1       0.512  52.090 -25.341  1.00  0.00     0.009 C 
HETATM   29  C2  UNL     1       1.243  51.801 -26.440  1.00  0.00    -0.062 C 
HETATM   30  C1  UNL     1       0.810  52.117 -27.847  1.00  0.00     0.045 C 
BRANCH  29  31
HETATM   31  C30 UNL     1       2.580  51.118 -26.328  1.00  0.00     0.198 C 
BRANCH  31  32
HETATM   32  O3  UNL     1       3.363  51.481 -27.454  1.00  0.00    -0.397 OA
HETATM   33  H48 UNL     1       4.210  51.011 -27.367  1.00  0.00     0.209 HD
ENDBRANCH  31  32
ENDBRANCH  29  31
ENDBRANCH  27  28
BRANCH  27  34
HETATM   34  O1  UNL     1      -0.590  54.196 -25.508  1.00  0.00    -0.392 OA
HETATM   35  H6  UNL     1       0.320  54.390 -25.225  1.00  0.00     0.210 HD
ENDBRANCH  27  34
ENDBRANCH  26  27
ENDBRANCH  24  26
ENDBRANCH   1  24
TORSDOF 7
ENDMDL
MODEL 5
REMARK minimizedAffinity -9.064641
REMARK  7 active torsions:
REMARK  status: ('A' for Active; 'I' for Inactive)
REMARK    1  A    between atoms: C2_2  and  C30_32 
REMARK    2  A    between atoms: C3_3  and  C4_4 
REMARK    3  A    between atoms: C4_4  and  O1_5 
REMARK    4  A    between atoms: C4_4  and  C5_6 
REMARK    5  A    between atoms: C5_6  and  C6_7 
REMARK    6  A    between atoms: C6_7  and  C8_9 
REMARK    7  A    between atoms: C30_32  and  O3_33 
ROOT
HETATM    1  C8  UNL     1      -1.663  51.552 -22.810  1.00  0.00    -0.002 C 
HETATM    2  C9  UNL     1      -2.611  52.640 -23.404  1.00  0.00     0.007 C 
HETATM    3  C10 UNL     1      -4.051  52.101 -23.313  1.00  0.00     0.015 C 
HETATM    4  C11 UNL     1      -3.889  50.609 -22.975  1.00  0.00    -0.013 C 
HETATM    5  C12 UNL     1      -3.624  49.886 -24.337  1.00  0.00     0.021 C 
HETATM    6  C13 UNL     1      -5.069  49.884 -22.336  1.00  0.00    -0.070 C 
HETATM    7  C14 UNL     1      -6.345  50.203 -22.620  1.00  0.00    -0.022 C 
HETATM    8  C15 UNL     1      -7.540  49.448 -22.126  1.00  0.00     0.034 C 
HETATM    9  C16 UNL     1      -7.242  48.400 -21.030  1.00  0.00     0.013 C 
HETATM   10  C17 UNL     1      -8.483  47.487 -20.707  1.00  0.00     0.018 C 
HETATM   11  C18 UNL     1      -9.348  47.116 -21.928  1.00  0.00     0.023 C 
HETATM   12  C19 UNL     1      -9.404  48.210 -19.701  1.00  0.00     0.023 C 
HETATM   13  C20 UNL     1      -8.011  46.200 -20.025  1.00  0.00     0.135 C 
HETATM   14  O2  UNL     1      -8.659  45.153 -20.055  1.00  0.00    -0.297 OA
HETATM   15  C21 UNL     1      -6.741  46.290 -19.227  1.00  0.00     0.080 C 
HETATM   16  C22 UNL     1      -5.562  46.674 -20.108  1.00  0.00     0.017 C 
HETATM   17  C23 UNL     1      -5.888  47.638 -21.295  1.00  0.00    -0.031 C 
HETATM   18  C24 UNL     1      -5.957  46.797 -22.593  1.00  0.00     0.016 C 
HETATM   19  C25 UNL     1      -4.740  48.728 -21.390  1.00  0.00     0.024 C 
HETATM   20  C26 UNL     1      -3.323  48.156 -21.640  1.00  0.00     0.010 C 
HETATM   21  C27 UNL     1      -2.190  49.208 -21.708  1.00  0.00     0.011 C 
HETATM   22  C28 UNL     1      -2.656  50.651 -21.999  1.00  0.00    -0.029 C 
HETATM   23  C29 UNL     1      -2.959  51.368 -20.643  1.00  0.00     0.016 C 
ENDROOT
BRANCH   1  24
HETATM   24  C6  UNL     1      -0.408  52.179 -22.118  1.00  0.00    -0.011 C 
HETATM   25  C7  UNL     1      -0.022  51.430 -20.840  1.00  0.00     0.010 C 
BRANCH  24  26
HETATM   26  C5  UNL     1       0.775  52.227 -23.134  1.00  0.00     0.040 C 
BRANCH  26  27
HETATM   27  C4  UNL     1       0.453  52.846 -24.508  1.00  0.00     0.141 C 
BRANCH  27  28
HETATM   28  C3  UNL     1       1.242  52.188 -25.616  1.00  0.00     0.009 C 
HETATM   29  C2  UNL     1       1.036  52.324 -26.945  1.00  0.00    -0.062 C 
HETATM   30  C1  UNL     1      -0.075  53.145 -27.546  1.00  0.00     0.045 C 
BRANCH  29  31
HETATM   31  C30 UNL     1       1.928  51.639 -27.945  1.00  0.00     0.198 C 
BRANCH  31  32
HETATM   32  O3  UNL     1       3.230  51.541 -27.389  1.00  0.00    -0.397 OA
HETATM   33  H48 UNL     1       3.789  51.115 -28.061  1.00  0.00     0.209 HD
ENDBRANCH  31  32
ENDBRANCH  29  31
ENDBRANCH  27  28
BRANCH  27  34
HETATM   34  O1  UNL     1       0.786  54.231 -24.479  1.00  0.00    -0.392 OA
HETATM   35  H6  UNL     1       1.674  54.330 -24.865  1.00  0.00     0.210 HD
ENDBRANCH  27  34
ENDBRANCH  26  27
ENDBRANCH  24  26
ENDBRANCH   1  24
TORSDOF 7
ENDMDL
MODEL 6
REMARK minimizedAffinity -8.95176315
REMARK  7 active torsions:
REMARK  status: ('A' for Active; 'I' for Inactive)
REMARK    1  A    between atoms: C2_2  and  C30_32 
REMARK    2  A    between atoms: C3_3  and  C4_4 
REMARK    3  A    between atoms: C4_4  and  O1_5 
REMARK    4  A    between atoms: C4_4  and  C5_6 
REMARK    5  A    between atoms: C5_6  and  C6_7 
REMARK    6  A    between atoms: C6_7  and  C8_9 
REMARK    7  A    between atoms: C30_32  and  O3_33 
ROOT
HETATM    1  C8  UNL     1      -2.439  50.773 -23.286  1.00  0.00    -0.002 C 
HETATM    2  C9  UNL     1      -1.441  50.078 -22.310  1.00  0.00     0.007 C 
HETATM    3  C10 UNL     1      -2.151  48.846 -21.717  1.00  0.00     0.015 C 
HETATM    4  C11 UNL     1      -3.630  49.026 -22.104  1.00  0.00    -0.013 C 
HETATM    5  C12 UNL     1      -4.240  49.986 -21.030  1.00  0.00     0.021 C 
HETATM    6  C13 UNL     1      -4.524  47.790 -22.120  1.00  0.00    -0.070 C 
HETATM    7  C14 UNL     1      -4.344  46.764 -21.269  1.00  0.00    -0.022 C 
HETATM    8  C15 UNL     1      -5.262  45.588 -21.150  1.00  0.00     0.034 C 
HETATM    9  C16 UNL     1      -6.327  45.475 -22.265  1.00  0.00     0.013 C 
HETATM   10  C17 UNL     1      -7.397  44.359 -21.975  1.00  0.00     0.018 C 
HETATM   11  C18 UNL     1      -7.801  44.219 -20.493  1.00  0.00     0.023 C 
HETATM   12  C19 UNL     1      -6.846  42.989 -22.426  1.00  0.00     0.023 C 
HETATM   13  C20 UNL     1      -8.655  44.623 -22.807  1.00  0.00     0.135 C 
HETATM   14  O2  UNL     1      -9.768  44.206 -22.485  1.00  0.00    -0.297 OA
HETATM   15  C21 UNL     1      -8.458  45.351 -24.107  1.00  0.00     0.080 C 
HETATM   16  C22 UNL     1      -7.888  46.742 -23.879  1.00  0.00     0.017 C 
HETATM   17  C23 UNL     1      -6.906  46.884 -22.672  1.00  0.00    -0.031 C 
HETATM   18  C24 UNL     1      -7.676  47.538 -21.498  1.00  0.00     0.016 C 
HETATM   19  C25 UNL     1      -5.683  47.789 -23.118  1.00  0.00     0.024 C 
HETATM   20  C26 UNL     1      -6.068  49.221 -23.566  1.00  0.00     0.010 C 
HETATM   21  C27 UNL     1      -4.886  50.106 -24.030  1.00  0.00     0.011 C 
HETATM   22  C28 UNL     1      -3.495  49.644 -23.544  1.00  0.00    -0.029 C 
HETATM   23  C29 UNL     1      -2.895  48.654 -24.594  1.00  0.00     0.016 C 
ENDROOT
BRANCH   1  24
HETATM   24  C6  UNL     1      -1.705  51.467 -24.481  1.00  0.00    -0.011 C 
HETATM   25  C7  UNL     1      -2.660  52.310 -25.330  1.00  0.00     0.010 C 
BRANCH  24  26
HETATM   26  C5  UNL     1      -0.518  52.320 -23.936  1.00  0.00     0.040 C 
BRANCH  26  27
HETATM   27  C4  UNL     1       0.208  53.198 -24.974  1.00  0.00     0.141 C 
BRANCH  27  28
HETATM   28  C3  UNL     1       1.080  52.375 -25.892  1.00  0.00     0.009 C 
HETATM   29  C2  UNL     1       1.042  52.358 -27.243  1.00  0.00    -0.062 C 
HETATM   30  C1  UNL     1       0.060  53.149 -28.068  1.00  0.00     0.045 C 
BRANCH  29  31
HETATM   31  C30 UNL     1       2.003  51.516 -28.038  1.00  0.00     0.198 C 
BRANCH  31  32
HETATM   32  O3  UNL     1       3.285  51.612 -27.437  1.00  0.00    -0.397 OA
HETATM   33  H48 UNL     1       3.888  51.078 -27.980  1.00  0.00     0.209 HD
ENDBRANCH  31  32
ENDBRANCH  29  31
ENDBRANCH  27  28
BRANCH  27  34
HETATM   34  O1  UNL     1       1.032  54.136 -24.287  1.00  0.00    -0.392 OA
HETATM   35  H6  UNL     1       1.934  53.771 -24.261  1.00  0.00     0.210 HD
ENDBRANCH  27  34
ENDBRANCH  26  27
ENDBRANCH  24  26
ENDBRANCH   1  24
TORSDOF 7
ENDMDL
MODEL 7
REMARK minimizedAffinity -8.93097782
REMARK  7 active torsions:
REMARK  status: ('A' for Active; 'I' for Inactive)
REMARK    1  A    between atoms: C2_2  and  C30_32 
REMARK    2  A    between atoms: C3_3  and  C4_4 
REMARK    3  A    between atoms: C4_4  and  O1_5 
REMARK    4  A    between atoms: C4_4  and  C5_6 
REMARK    5  A    between atoms: C5_6  and  C6_7 
REMARK    6  A    between atoms: C6_7  and  C8_9 
REMARK    7  A    between atoms: C30_32  and  O3_33 
ROOT
HETATM    1  C8  UNL     1      -1.233  50.694 -22.336  1.00  0.00    -0.002 C 
HETATM    2  C9  UNL     1      -1.543  50.226 -23.792  1.00  0.00     0.007 C 
HETATM    3  C10 UNL     1      -2.768  49.293 -23.730  1.00  0.00     0.015 C 
HETATM    4  C11 UNL     1      -2.945  48.982 -22.233  1.00  0.00    -0.013 C 
HETATM    5  C12 UNL     1      -1.948  47.819 -21.916  1.00  0.00     0.021 C 
HETATM    6  C13 UNL     1      -4.313  48.506 -21.755  1.00  0.00    -0.070 C 
HETATM    7  C14 UNL     1      -5.122  47.758 -22.527  1.00  0.00    -0.022 C 
HETATM    8  C15 UNL     1      -6.414  47.156 -22.070  1.00  0.00     0.034 C 
HETATM    9  C16 UNL     1      -6.921  47.661 -20.700  1.00  0.00     0.013 C 
HETATM   10  C17 UNL     1      -8.155  46.841 -20.168  1.00  0.00     0.018 C 
HETATM   11  C18 UNL     1      -8.111  45.331 -20.476  1.00  0.00     0.023 C 
HETATM   12  C19 UNL     1      -9.450  47.395 -20.799  1.00  0.00     0.023 C 
HETATM   13  C20 UNL     1      -8.286  47.033 -18.654  1.00  0.00     0.135 C 
HETATM   14  O2  UNL     1      -8.846  46.215 -17.924  1.00  0.00    -0.297 OA
HETATM   15  C21 UNL     1      -7.770  48.329 -18.096  1.00  0.00     0.080 C 
HETATM   16  C22 UNL     1      -6.277  48.480 -18.342  1.00  0.00     0.017 C 
HETATM   17  C23 UNL     1      -5.742  47.859 -19.673  1.00  0.00    -0.031 C 
HETATM   18  C24 UNL     1      -5.055  46.514 -19.334  1.00  0.00     0.016 C 
HETATM   19  C25 UNL     1      -4.710  48.871 -20.324  1.00  0.00     0.024 C 
HETATM   20  C26 UNL     1      -3.479  49.196 -19.442  1.00  0.00     0.010 C 
HETATM   21  C27 UNL     1      -2.477  50.204 -20.056  1.00  0.00     0.011 C 
HETATM   22  C28 UNL     1      -2.571  50.367 -21.589  1.00  0.00    -0.029 C 
HETATM   23  C29 UNL     1      -3.595  51.502 -21.914  1.00  0.00     0.016 C 
ENDROOT
BRANCH   1  24
HETATM   24  C6  UNL     1      -0.630  52.136 -22.298  1.00  0.00    -0.011 C 
HETATM   25  C7  UNL     1      -0.348  52.603 -20.867  1.00  0.00     0.010 C 
BRANCH  24  26
HETATM   26  C5  UNL     1       0.657  52.184 -23.180  1.00  0.00     0.040 C 
BRANCH  26  27
HETATM   27  C4  UNL     1       0.527  52.946 -24.512  1.00  0.00     0.141 C 
BRANCH  27  28
HETATM   28  C3  UNL     1       1.277  52.254 -25.627  1.00  0.00     0.009 C 
HETATM   29  C2  UNL     1       1.054  52.386 -26.954  1.00  0.00    -0.062 C 
HETATM   30  C1  UNL     1      -0.040  53.236 -27.544  1.00  0.00     0.045 C 
BRANCH  29  31
HETATM   31  C30 UNL     1       1.909  51.666 -27.962  1.00  0.00     0.198 C 
BRANCH  31  32
HETATM   32  O3  UNL     1       3.224  51.562 -27.440  1.00  0.00    -0.397 OA
HETATM   33  H48 UNL     1       3.758  51.112 -28.117  1.00  0.00     0.209 HD
ENDBRANCH  31  32
ENDBRANCH  29  31
ENDBRANCH  27  28
BRANCH  27  34
HETATM   34  O1  UNL     1       1.067  54.254 -24.350  1.00  0.00    -0.392 OA
HETATM   35  H6  UNL     1       1.983  54.239 -24.677  1.00  0.00     0.210 HD
ENDBRANCH  27  34
ENDBRANCH  26  27
ENDBRANCH  24  26
ENDBRANCH   1  24
TORSDOF 7
ENDMDL
MODEL 8
REMARK minimizedAffinity -8.92335129
REMARK  7 active torsions:
REMARK  status: ('A' for Active; 'I' for Inactive)
REMARK    1  A    between atoms: C2_2  and  C30_32 
REMARK    2  A    between atoms: C3_3  and  C4_4 
REMARK    3  A    between atoms: C4_4  and  O1_5 
REMARK    4  A    between atoms: C4_4  and  C5_6 
REMARK    5  A    between atoms: C5_6  and  C6_7 
REMARK    6  A    between atoms: C6_7  and  C8_9 
REMARK    7  A    between atoms: C30_32  and  O3_33 
ROOT
HETATM    1  C8  UNL     1      -3.438  51.298 -25.215  1.00  0.00    -0.002 C 
HETATM    2  C9  UNL     1      -3.252  52.519 -24.262  1.00  0.00     0.007 C 
HETATM    3  C10 UNL     1      -3.685  52.079 -22.851  1.00  0.00     0.015 C 
HETATM    4  C11 UNL     1      -4.408  50.737 -23.066  1.00  0.00    -0.013 C 
HETATM    5  C12 UNL     1      -5.871  51.099 -23.484  1.00  0.00     0.021 C 
HETATM    6  C13 UNL     1      -4.532  49.789 -21.877  1.00  0.00    -0.070 C 
HETATM    7  C14 UNL     1      -4.658  50.235 -20.615  1.00  0.00    -0.022 C 
HETATM    8  C15 UNL     1      -4.911  49.361 -19.426  1.00  0.00     0.034 C 
HETATM    9  C16 UNL     1      -4.763  47.845 -19.688  1.00  0.00     0.013 C 
HETATM   10  C17 UNL     1      -5.253  46.967 -18.477  1.00  0.00     0.018 C 
HETATM   11  C18 UNL     1      -6.491  47.516 -17.739  1.00  0.00     0.023 C 
HETATM   12  C19 UNL     1      -4.119  46.851 -17.435  1.00  0.00     0.023 C 
HETATM   13  C20 UNL     1      -5.554  45.546 -18.959  1.00  0.00     0.135 C 
HETATM   14  O2  UNL     1      -6.334  44.793 -18.374  1.00  0.00    -0.297 OA
HETATM   15  C21 UNL     1      -4.775  45.063 -20.150  1.00  0.00     0.080 C 
HETATM   16  C22 UNL     1      -5.057  45.918 -21.376  1.00  0.00     0.017 C 
HETATM   17  C23 UNL     1      -5.330  47.432 -21.099  1.00  0.00    -0.031 C 
HETATM   18  C24 UNL     1      -6.858  47.669 -21.186  1.00  0.00     0.016 C 
HETATM   19  C25 UNL     1      -4.564  48.292 -22.189  1.00  0.00     0.024 C 
HETATM   20  C26 UNL     1      -4.988  48.009 -23.651  1.00  0.00     0.010 C 
HETATM   21  C27 UNL     1      -4.227  48.823 -24.727  1.00  0.00     0.011 C 
HETATM   22  C28 UNL     1      -3.533  50.101 -24.208  1.00  0.00    -0.029 C 
HETATM   23  C29 UNL     1      -2.082  49.738 -23.753  1.00  0.00     0.016 C 
ENDROOT
BRANCH   1  24
HETATM   24  C6  UNL     1      -2.384  51.287 -26.370  1.00  0.00    -0.011 C 
HETATM   25  C7  UNL     1      -3.024  50.991 -27.729  1.00  0.00     0.010 C 
BRANCH  24  26
HETATM   26  C5  UNL     1      -1.614  52.644 -26.383  1.00  0.00     0.040 C 
BRANCH  26  27
HETATM   27  C4  UNL     1      -0.708  52.890 -27.604  1.00  0.00     0.141 C 
BRANCH  27  28
HETATM   28  C3  UNL     1       0.622  52.188 -27.465  1.00  0.00     0.009 C 
HETATM   29  C2  UNL     1       1.315  51.990 -26.321  1.00  0.00    -0.062 C 
HETATM   30  C1  UNL     1       0.876  52.495 -24.972  1.00  0.00     0.045 C 
BRANCH  29  31
HETATM   31  C30 UNL     1       2.616  51.234 -26.320  1.00  0.00     0.198 C 
BRANCH  31  32
HETATM   32  O3  UNL     1       3.295  51.510 -27.536  1.00  0.00    -0.397 OA
HETATM   33  H48 UNL     1       4.119  50.995 -27.518  1.00  0.00     0.209 HD
ENDBRANCH  31  32
ENDBRANCH  29  31
ENDBRANCH  27  28
BRANCH  27  34
HETATM   34  O1  UNL     1      -0.470  54.289 -27.728  1.00  0.00    -0.392 OA
HETATM   35  H6  UNL     1       0.386  54.481 -27.306  1.00  0.00     0.210 HD
ENDBRANCH  27  34
ENDBRANCH  26  27
ENDBRANCH  24  26
ENDBRANCH   1  24
TORSDOF 7
ENDMDL
MODEL 9
REMARK minimizedAffinity -8.85573006
REMARK  7 active torsions:
REMARK  status: ('A' for Active; 'I' for Inactive)
REMARK    1  A    between atoms: C2_2  and  C30_32 
REMARK    2  A    between atoms: C3_3  and  C4_4 
REMARK    3  A    between atoms: C4_4  and  O1_5 
REMARK    4  A    between atoms: C4_4  and  C5_6 
REMARK    5  A    between atoms: C5_6  and  C6_7 
REMARK    6  A    between atoms: C6_7  and  C8_9 
REMARK    7  A    between atoms: C30_32  and  O3_33 
ROOT
HETATM    1  C8  UNL     1      -1.820  50.777 -21.766  1.00  0.00    -0.002 C 
HETATM    2  C9  UNL     1      -1.174  52.182 -21.971  1.00  0.00     0.007 C 
HETATM    3  C10 UNL     1      -0.485  52.575 -20.651  1.00  0.00     0.015 C 
HETATM    4  C11 UNL     1      -1.008  51.558 -19.621  1.00  0.00    -0.013 C 
HETATM    5  C12 UNL     1      -2.395  52.103 -19.146  1.00  0.00     0.021 C 
HETATM    6  C13 UNL     1      -0.188  51.331 -18.354  1.00  0.00    -0.070 C 
HETATM    7  C14 UNL     1       0.526  52.315 -17.778  1.00  0.00    -0.022 C 
HETATM    8  C15 UNL     1       1.243  52.189 -16.469  1.00  0.00     0.034 C 
HETATM    9  C16 UNL     1       1.341  50.749 -15.915  1.00  0.00     0.013 C 
HETATM   10  C17 UNL     1       1.902  50.700 -14.445  1.00  0.00     0.018 C 
HETATM   11  C18 UNL     1       1.440  51.857 -13.537  1.00  0.00     0.023 C 
HETATM   12  C19 UNL     1       3.444  50.741 -14.483  1.00  0.00     0.023 C 
HETATM   13  C20 UNL     1       1.513  49.371 -13.790  1.00  0.00     0.135 C 
HETATM   14  O2  UNL     1       1.425  49.230 -12.570  1.00  0.00    -0.297 OA
HETATM   15  C21 UNL     1       1.326  48.199 -14.712  1.00  0.00     0.080 C 
HETATM   16  C22 UNL     1       0.197  48.449 -15.699  1.00  0.00     0.017 C 
HETATM   17  C23 UNL     1       0.018  49.930 -16.166  1.00  0.00    -0.031 C 
HETATM   18  C24 UNL     1      -1.179  50.537 -15.393  1.00  0.00     0.016 C 
HETATM   19  C25 UNL     1      -0.257  49.938 -17.727  1.00  0.00     0.024 C 
HETATM   20  C26 UNL     1      -1.525  49.164 -18.164  1.00  0.00     0.010 C 
HETATM   21  C27 UNL     1      -1.790  49.142 -19.690  1.00  0.00     0.011 C 
HETATM   22  C28 UNL     1      -1.074  50.250 -20.492  1.00  0.00    -0.029 C 
HETATM   23  C29 UNL     1       0.329  49.726 -20.938  1.00  0.00     0.016 C 
ENDROOT
BRANCH   1  24
HETATM   24  C6  UNL     1      -1.834  49.938 -23.086  1.00  0.00    -0.011 C 
HETATM   25  C7  UNL     1      -2.782  48.739 -22.994  1.00  0.00     0.010 C 
BRANCH  24  26
HETATM   26  C5  UNL     1      -2.198  50.866 -24.287  1.00  0.00     0.040 C 
BRANCH  26  27
HETATM   27  C4  UNL     1      -1.315  50.717 -25.540  1.00  0.00     0.141 C 
BRANCH  27  28
HETATM   28  C3  UNL     1      -1.313  51.975 -26.376  1.00  0.00     0.009 C 
HETATM   29  C2  UNL     1      -0.338  52.386 -27.217  1.00  0.00    -0.062 C 
HETATM   30  C1  UNL     1       0.960  51.651 -27.424  1.00  0.00     0.045 C 
BRANCH  29  31
HETATM   31  C30 UNL     1      -0.486  53.647 -28.024  1.00  0.00     0.198 C 
BRANCH  31  32
HETATM   32  O3  UNL     1      -1.870  53.931 -28.161  1.00  0.00    -0.397 OA
HETATM   33  H48 UNL     1      -1.937  54.736 -28.701  1.00  0.00     0.209 HD
ENDBRANCH  31  32
ENDBRANCH  29  31
ENDBRANCH  27  28
BRANCH  27  34
HETATM   34  O1  UNL     1      -1.819  49.648 -26.335  1.00  0.00    -0.392 OA
HETATM   35  H6  UNL     1      -2.386  50.035 -27.025  1.00  0.00     0.210 HD
ENDBRANCH  27  34
ENDBRANCH  26  27
ENDBRANCH  24  26
ENDBRANCH   1  24
TORSDOF 7
ENDMDL
