MODEL 1
REMARK minimizedAffinity -9.92964554
REMARK  7 active torsions:
REMARK  status: ('A' for Active; 'I' for Inactive)
REMARK    1  A    between atoms: C2_2  and  C30_32 
REMARK    2  A    between atoms: C3_3  and  C4_4 
REMARK    3  A    between atoms: C4_4  and  O1_5 
REMARK    4  A    between atoms: C4_4  and  C5_6 
REMARK    5  A    between atoms: C5_6  and  C6_7 
REMARK    6  A    between atoms: C6_7  and  C8_9 
REMARK    7  A    between atoms: C30_32  and  O3_33 
ROOT
HETATM    1  C8  UNL     1      -4.295  50.373 -24.558  1.00  0.00    -0.002 C 
HETATM    2  C9  UNL     1      -5.077  49.390 -23.677  1.00  0.00     0.006 C 
HETATM    3  C10 UNL     1      -5.252  50.149 -22.377  1.00  0.00     0.011 C 
HETATM    4  C11 UNL     1      -3.856  50.729 -22.072  1.00  0.00    -0.032 C 
HETATM    5  C12 UNL     1      -4.043  51.929 -21.121  1.00  0.00     0.016 C 
HETATM    6  C13 UNL     1      -2.900  49.653 -21.416  1.00  0.00     0.004 C 
HETATM    7  C14 UNL     1      -3.387  48.925 -20.153  1.00  0.00     0.007 C 
HETATM    8  C15 UNL     1      -3.149  49.599 -18.812  1.00  0.00     0.007 C 
HETATM    9  C16 UNL     1      -1.918  50.512 -18.663  1.00  0.00     0.010 C 
HETATM   10  C17 UNL     1      -1.130  50.298 -17.325  1.00  0.00     0.018 C 
HETATM   11  C18 UNL     1      -0.516  48.893 -17.199  1.00  0.00     0.023 C 
HETATM   12  C19 UNL     1      -2.038  50.583 -16.114  1.00  0.00     0.023 C 
HETATM   13  C20 UNL     1       0.030  51.302 -17.250  1.00  0.00     0.135 C 
HETATM   14  O2  UNL     1       0.824  51.317 -16.307  1.00  0.00    -0.297 OA
HETATM   15  C21 UNL     1       0.115  52.350 -18.329  1.00  0.00     0.080 C 
HETATM   16  C22 UNL     1       0.075  51.717 -19.711  1.00  0.00     0.018 C 
HETATM   17  C23 UNL     1      -0.961  50.595 -19.850  1.00  0.00    -0.026 A 
HETATM   18  C24 UNL     1      -0.467  49.341 -20.541  1.00  0.00     0.021 A 
HETATM   19  C25 UNL     1      -1.482  50.213 -21.251  1.00  0.00    -0.027 A 
HETATM   20  C26 UNL     1      -0.994  50.992 -22.463  1.00  0.00     0.011 C 
HETATM   21  C27 UNL     1      -1.826  50.680 -23.705  1.00  0.00     0.011 C 
HETATM   22  C28 UNL     1      -3.310  51.110 -23.544  1.00  0.00    -0.032 C 
HETATM   23  C29 UNL     1      -3.409  52.631 -23.830  1.00  0.00     0.016 C 
ENDROOT
BRANCH   1  24
HETATM   24  C6  UNL     1      -3.718  49.720 -25.860  1.00  0.00    -0.011 C 
HETATM   25  C7  UNL     1      -4.312  48.324 -26.088  1.00  0.00     0.010 C 
BRANCH  24  26
HETATM   26  C5  UNL     1      -2.164  49.631 -25.810  1.00  0.00     0.040 C 
BRANCH  26  27
HETATM   27  C4  UNL     1      -1.417  50.455 -26.876  1.00  0.00     0.141 C 
BRANCH  27  28
HETATM   28  C3  UNL     1      -0.013  50.760 -26.419  1.00  0.00     0.009 C 
HETATM   29  C2  UNL     1       0.975  51.386 -27.094  1.00  0.00    -0.062 C 
HETATM   30  C1  UNL     1       0.858  51.928 -28.495  1.00  0.00     0.045 C 
BRANCH  29  31
HETATM   31  C30 UNL     1       2.326  51.590 -26.459  1.00  0.00     0.198 C 
BRANCH  31  32
HETATM   32  O3  UNL     1       3.320  51.484 -27.466  1.00  0.00    -0.397 OA
HETATM   33  H48 UNL     1       4.177  51.641 -27.033  1.00  0.00     0.209 HD
ENDBRANCH  31  32
ENDBRANCH  29  31
ENDBRANCH  27  28
BRANCH  27  34
HETATM   34  O1  UNL     1      -2.109  51.683 -27.086  1.00  0.00    -0.392 OA
HETATM   35  H6  UNL     1      -1.500  52.419 -26.895  1.00  0.00     0.210 HD
ENDBRANCH  27  34
ENDBRANCH  26  27
ENDBRANCH  24  26
ENDBRANCH   1  24
TORSDOF 7
ENDMDL
MODEL 2
REMARK minimizedAffinity -9.75720596
REMARK  7 active torsions:
REMARK  status: ('A' for Active; 'I' for Inactive)
REMARK    1  A    between atoms: C2_2  and  C30_32 
REMARK    2  A    between atoms: C3_3  and  C4_4 
REMARK    3  A    between atoms: C4_4  and  O1_5 
REMARK    4  A    between atoms: C4_4  and  C5_6 
REMARK    5  A    between atoms: C5_6  and  C6_7 
REMARK    6  A    between atoms: C6_7  and  C8_9 
REMARK    7  A    between atoms: C30_32  and  O3_33 
ROOT
HETATM    1  C8  UNL     1      -1.569  51.016 -19.254  1.00  0.00    -0.002 C 
HETATM    2  C9  UNL     1      -2.957  51.487 -19.708  1.00  0.00     0.006 C 
HETATM    3  C10 UNL     1      -3.238  50.629 -20.925  1.00  0.00     0.011 C 
HETATM    4  C11 UNL     1      -1.940  50.693 -21.756  1.00  0.00    -0.032 C 
HETATM    5  C12 UNL     1      -1.914  49.461 -22.683  1.00  0.00     0.016 C 
HETATM    6  C13 UNL     1      -1.849  52.023 -22.607  1.00  0.00     0.004 C 
HETATM    7  C14 UNL     1      -3.019  52.365 -23.544  1.00  0.00     0.007 C 
HETATM    8  C15 UNL     1      -3.008  51.759 -24.938  1.00  0.00     0.007 C 
HETATM    9  C16 UNL     1      -1.647  51.466 -25.596  1.00  0.00     0.010 C 
HETATM   10  C17 UNL     1      -1.566  51.896 -27.101  1.00  0.00     0.018 C 
HETATM   11  C18 UNL     1      -1.712  53.413 -27.308  1.00  0.00     0.023 C 
HETATM   12  C19 UNL     1      -2.626  51.150 -27.932  1.00  0.00     0.023 C 
HETATM   13  C20 UNL     1      -0.198  51.495 -27.672  1.00  0.00     0.135 C 
HETATM   14  O2  UNL     1       0.129  51.754 -28.833  1.00  0.00    -0.297 OA
HETATM   15  C21 UNL     1       0.711  50.677 -26.793  1.00  0.00     0.080 C 
HETATM   16  C22 UNL     1       0.899  51.335 -25.436  1.00  0.00     0.018 C 
HETATM   17  C23 UNL     1      -0.396  51.901 -24.837  1.00  0.00    -0.026 A 
HETATM   18  C24 UNL     1      -0.283  53.294 -24.255  1.00  0.00     0.021 A 
HETATM   19  C25 UNL     1      -0.492  52.125 -23.314  1.00  0.00    -0.027 A 
HETATM   20  C26 UNL     1       0.683  51.735 -22.429  1.00  0.00     0.011 C 
HETATM   21  C27 UNL     1       0.302  51.749 -20.950  1.00  0.00     0.011 C 
HETATM   22  C28 UNL     1      -0.797  50.705 -20.613  1.00  0.00    -0.032 C 
HETATM   23  C29 UNL     1      -0.118  49.320 -20.450  1.00  0.00     0.016 C 
ENDROOT
BRANCH   1  24
HETATM   24  C6  UNL     1      -0.910  51.954 -18.188  1.00  0.00    -0.011 C 
HETATM   25  C7  UNL     1      -0.188  53.130 -18.857  1.00  0.00     0.010 C 
BRANCH  24  26
HETATM   26  C5  UNL     1       0.085  51.172 -17.280  1.00  0.00     0.040 C 
BRANCH  26  27
HETATM   27  C4  UNL     1       1.344  51.949 -16.851  1.00  0.00     0.141 C 
BRANCH  27  28
HETATM   28  C3  UNL     1       1.952  51.331 -15.617  1.00  0.00     0.009 C 
HETATM   29  C2  UNL     1       3.207  51.466 -15.138  1.00  0.00    -0.062 C 
HETATM   30  C1  UNL     1       4.290  52.300 -15.772  1.00  0.00     0.045 C 
BRANCH  29  31
HETATM   31  C30 UNL     1       3.627  50.753 -13.879  1.00  0.00     0.198 C 
BRANCH  31  32
HETATM   32  O3  UNL     1       4.725  49.906 -14.183  1.00  0.00    -0.397 OA
HETATM   33  H48 UNL     1       4.988  49.478 -13.350  1.00  0.00     0.209 HD
ENDBRANCH  31  32
ENDBRANCH  29  31
ENDBRANCH  27  28
BRANCH  27  34
HETATM   34  O1  UNL     1       0.984  53.297 -16.561  1.00  0.00    -0.392 OA
HETATM   35  H6  UNL     1       1.231  53.493 -15.638  1.00  0.00     0.210 HD
ENDBRANCH  27  34
ENDBRANCH  26  27
ENDBRANCH  24  26
ENDBRANCH   1  24
TORSDOF 7
ENDMDL
MODEL 3
REMARK minimizedAffinity -9.48086357
REMARK  7 active torsions:
REMARK  status: ('A' for Active; 'I' for Inactive)
REMARK    1  A    between atoms: C2_2  and  C30_32 
REMARK    2  A    between atoms: C3_3  and  C4_4 
REMARK    3  A    between atoms: C4_4  and  O1_5 
REMARK    4  A    between atoms: C4_4  and  C5_6 
REMARK    5  A    between atoms: C5_6  and  C6_7 
REMARK    6  A    between atoms: C6_7  and  C8_9 
REMARK    7  A    between atoms: C30_32  and  O3_33 
ROOT
HETATM    1  C8  UNL     1      -4.518  49.230 -25.140  1.00  0.00    -0.002 C 
HETATM    2  C9  UNL     1      -5.180  48.314 -24.102  1.00  0.00     0.006 C 
HETATM    3  C10 UNL     1      -5.436  49.239 -22.930  1.00  0.00     0.011 C 
HETATM    4  C11 UNL     1      -4.114  50.013 -22.746  1.00  0.00    -0.032 C 
HETATM    5  C12 UNL     1      -4.434  51.316 -21.986  1.00  0.00     0.016 C 
HETATM    6  C13 UNL     1      -3.040  49.165 -21.954  1.00  0.00     0.004 C 
HETATM    7  C14 UNL     1      -3.436  48.590 -20.585  1.00  0.00     0.007 C 
HETATM    8  C15 UNL     1      -3.271  49.485 -19.368  1.00  0.00     0.007 C 
HETATM    9  C16 UNL     1      -2.152  50.542 -19.385  1.00  0.00     0.010 C 
HETATM   10  C17 UNL     1      -1.340  50.627 -18.047  1.00  0.00     0.018 C 
HETATM   11  C18 UNL     1      -0.570  49.336 -17.721  1.00  0.00     0.023 C 
HETATM   12  C19 UNL     1      -2.271  50.992 -16.876  1.00  0.00     0.023 C 
HETATM   13  C20 UNL     1      -0.302  51.754 -18.151  1.00  0.00     0.135 C 
HETATM   14  O2  UNL     1       0.489  52.003 -17.238  1.00  0.00    -0.297 OA
HETATM   15  C21 UNL     1      -0.341  52.626 -19.379  1.00  0.00     0.080 C 
HETATM   16  C22 UNL     1      -0.313  51.788 -20.647  1.00  0.00     0.018 C 
HETATM   17  C23 UNL     1      -1.215  50.548 -20.591  1.00  0.00    -0.026 A 
HETATM   18  C24 UNL     1      -0.584  49.266 -21.093  1.00  0.00     0.021 A 
HETATM   19  C25 UNL     1      -1.694  49.899 -21.906  1.00  0.00    -0.027 A 
HETATM   20  C26 UNL     1      -1.302  50.532 -23.233  1.00  0.00     0.011 C 
HETATM   21  C27 UNL     1      -2.097  49.940 -24.395  1.00  0.00     0.011 C 
HETATM   22  C28 UNL     1      -3.620  50.221 -24.271  1.00  0.00    -0.032 C 
HETATM   23  C29 UNL     1      -3.893  51.659 -24.784  1.00  0.00     0.016 C 
ENDROOT
BRANCH   1  24
HETATM   24  C6  UNL     1      -3.875  48.454 -26.337  1.00  0.00    -0.011 C 
HETATM   25  C7  UNL     1      -2.344  48.544 -26.296  1.00  0.00     0.010 C 
BRANCH  24  26
HETATM   26  C5  UNL     1      -4.398  48.986 -27.705  1.00  0.00     0.040 C 
BRANCH  26  27
HETATM   27  C4  UNL     1      -5.381  48.060 -28.446  1.00  0.00     0.141 C 
BRANCH  27  28
HETATM   28  C3  UNL     1      -5.217  48.199 -29.938  1.00  0.00     0.009 C 
HETATM   29  C2  UNL     1      -5.589  47.340 -30.910  1.00  0.00    -0.062 C 
HETATM   30  C1  UNL     1      -6.274  46.018 -30.682  1.00  0.00     0.045 C 
BRANCH  29  31
HETATM   31  C30 UNL     1      -5.327  47.662 -32.359  1.00  0.00     0.198 C 
BRANCH  31  32
HETATM   32  O3  UNL     1      -4.159  48.464 -32.441  1.00  0.00    -0.397 OA
HETATM   33  H48 UNL     1      -4.002  48.636 -33.386  1.00  0.00     0.209 HD
ENDBRANCH  31  32
ENDBRANCH  29  31
ENDBRANCH  27  28
BRANCH  27  34
HETATM   34  O1  UNL     1      -6.715  48.419 -28.094  1.00  0.00    -0.392 OA
HETATM   35  H6  UNL     1      -7.197  48.655 -28.908  1.00  0.00     0.210 HD
ENDBRANCH  27  34
ENDBRANCH  26  27
ENDBRANCH  24  26
ENDBRANCH   1  24
TORSDOF 7
ENDMDL
MODEL 4
REMARK minimizedAffinity -9.42130947
REMARK  7 active torsions:
REMARK  status: ('A' for Active; 'I' for Inactive)
REMARK    1  A    between atoms: C2_2  and  C30_32 
REMARK    2  A    between atoms: C3_3  and  C4_4 
REMARK    3  A    between atoms: C4_4  and  O1_5 
REMARK    4  A    between atoms: C4_4  and  C5_6 
REMARK    5  A    between atoms: C5_6  and  C6_7 
REMARK    6  A    between atoms: C6_7  and  C8_9 
REMARK    7  A    between atoms: C30_32  and  O3_33 
ROOT
HETATM    1  C8  UNL     1      -1.093  52.275 -22.151  1.00  0.00    -0.002 C 
HETATM    2  C9  UNL     1      -2.230  52.142 -23.173  1.00  0.00     0.006 C 
HETATM    3  C10 UNL     1      -3.447  51.876 -22.311  1.00  0.00     0.011 C 
HETATM    4  C11 UNL     1      -2.990  50.790 -21.314  1.00  0.00    -0.032 C 
HETATM    5  C12 UNL     1      -3.926  50.852 -20.090  1.00  0.00     0.016 C 
HETATM    6  C13 UNL     1      -3.023  49.346 -21.957  1.00  0.00     0.004 C 
HETATM    7  C14 UNL     1      -4.336  48.868 -22.596  1.00  0.00     0.007 C 
HETATM    8  C15 UNL     1      -5.370  48.222 -21.689  1.00  0.00     0.007 C 
HETATM    9  C16 UNL     1      -4.874  47.455 -20.449  1.00  0.00     0.010 C 
HETATM   10  C17 UNL     1      -5.597  46.082 -20.223  1.00  0.00     0.018 C 
HETATM   11  C18 UNL     1      -5.350  45.072 -21.356  1.00  0.00     0.023 C 
HETATM   12  C19 UNL     1      -7.110  46.296 -20.033  1.00  0.00     0.023 C 
HETATM   13  C20 UNL     1      -5.078  45.440 -18.928  1.00  0.00     0.135 C 
HETATM   14  O2  UNL     1      -5.466  44.334 -18.544  1.00  0.00    -0.297 OA
HETATM   15  C21 UNL     1      -4.139  46.252 -18.075  1.00  0.00     0.080 C 
HETATM   16  C22 UNL     1      -2.968  46.773 -18.892  1.00  0.00     0.018 C 
HETATM   17  C23 UNL     1      -3.365  47.310 -20.273  1.00  0.00    -0.026 A 
HETATM   18  C24 UNL     1      -2.488  46.855 -21.421  1.00  0.00     0.021 A 
HETATM   19  C25 UNL     1      -2.435  48.308 -20.995  1.00  0.00    -0.027 A 
HETATM   20  C26 UNL     1      -1.165  48.777 -20.300  1.00  0.00     0.011 C 
HETATM   21  C27 UNL     1      -0.535  49.966 -21.021  1.00  0.00     0.011 C 
HETATM   22  C28 UNL     1      -1.459  51.215 -21.018  1.00  0.00    -0.032 C 
HETATM   23  C29 UNL     1      -1.304  51.931 -19.651  1.00  0.00     0.016 C 
ENDROOT
BRANCH   1  24
HETATM   24  C6  UNL     1       0.333  52.254 -22.797  1.00  0.00    -0.011 C 
HETATM   25  C7  UNL     1       1.423  52.114 -21.727  1.00  0.00     0.010 C 
BRANCH  24  26
HETATM   26  C5  UNL     1       0.590  53.533 -23.648  1.00  0.00     0.040 C 
BRANCH  26  27
HETATM   27  C4  UNL     1       0.156  53.449 -25.123  1.00  0.00     0.141 C 
BRANCH  27  28
HETATM   28  C3  UNL     1       1.105  52.575 -25.904  1.00  0.00     0.009 C 
HETATM   29  C2  UNL     1       1.045  52.220 -27.205  1.00  0.00    -0.062 C 
HETATM   30  C1  UNL     1      -0.028  52.650 -28.172  1.00  0.00     0.045 C 
BRANCH  29  31
HETATM   31  C30 UNL     1       2.097  51.323 -27.803  1.00  0.00     0.198 C 
BRANCH  31  32
HETATM   32  O3  UNL     1       3.344  51.616 -27.192  1.00  0.00    -0.397 OA
HETATM   33  H48 UNL     1       3.997  51.008 -27.581  1.00  0.00     0.209 HD
ENDBRANCH  31  32
ENDBRANCH  29  31
ENDBRANCH  27  28
BRANCH  27  34
HETATM   34  O1  UNL     1       0.165  54.757 -25.688  1.00  0.00    -0.392 OA
HETATM   35  H6  UNL     1       0.774  54.762 -26.450  1.00  0.00     0.210 HD
ENDBRANCH  27  34
ENDBRANCH  26  27
ENDBRANCH  24  26
ENDBRANCH   1  24
TORSDOF 7
ENDMDL
MODEL 5
REMARK minimizedAffinity -9.3660202
REMARK  7 active torsions:
REMARK  status: ('A' for Active; 'I' for Inactive)
REMARK    1  A    between atoms: C2_2  and  C30_32 
REMARK    2  A    between atoms: C3_3  and  C4_4 
REMARK    3  A    between atoms: C4_4  and  O1_5 
REMARK    4  A    between atoms: C4_4  and  C5_6 
REMARK    5  A    between atoms: C5_6  and  C6_7 
REMARK    6  A    between atoms: C6_7  and  C8_9 
REMARK    7  A    between atoms: C30_32  and  O3_33 
ROOT
HETATM    1  C8  UNL     1      -1.168  51.521 -23.308  1.00  0.00    -0.002 C 
HETATM    2  C9  UNL     1       0.009  52.204 -22.599  1.00  0.00     0.006 C 
HETATM    3  C10 UNL     1       0.584  51.103 -21.732  1.00  0.00     0.011 C 
HETATM    4  C11 UNL     1      -0.642  50.464 -21.047  1.00  0.00    -0.032 C 
HETATM    5  C12 UNL     1      -0.245  49.041 -20.607  1.00  0.00     0.016 C 
HETATM    6  C13 UNL     1      -1.128  51.309 -19.802  1.00  0.00     0.004 C 
HETATM    7  C14 UNL     1      -0.104  51.640 -18.706  1.00  0.00     0.007 C 
HETATM    8  C15 UNL     1       0.120  50.609 -17.612  1.00  0.00     0.007 C 
HETATM    9  C16 UNL     1      -1.056  49.697 -17.218  1.00  0.00     0.010 C 
HETATM   10  C17 UNL     1      -1.228  49.519 -15.670  1.00  0.00     0.018 C 
HETATM   11  C18 UNL     1      -1.569  50.831 -14.942  1.00  0.00     0.023 C 
HETATM   12  C19 UNL     1       0.038  48.894 -15.057  1.00  0.00     0.023 C 
HETATM   13  C20 UNL     1      -2.379  48.540 -15.394  1.00  0.00     0.135 C 
HETATM   14  O2  UNL     1      -2.738  48.257 -14.249  1.00  0.00    -0.297 OA
HETATM   15  C21 UNL     1      -3.003  47.848 -16.577  1.00  0.00     0.080 C 
HETATM   16  C22 UNL     1      -3.430  48.852 -17.637  1.00  0.00     0.018 C 
HETATM   17  C23 UNL     1      -2.403  49.963 -17.888  1.00  0.00    -0.026 A 
HETATM   18  C24 UNL     1      -2.971  51.365 -17.962  1.00  0.00     0.021 A 
HETATM   19  C25 UNL     1      -2.427  50.730 -19.226  1.00  0.00    -0.027 A 
HETATM   20  C26 UNL     1      -3.439  50.335 -20.291  1.00  0.00     0.011 C 
HETATM   21  C27 UNL     1      -3.126  50.989 -21.635  1.00  0.00     0.011 C 
HETATM   22  C28 UNL     1      -1.760  50.526 -22.212  1.00  0.00    -0.032 C 
HETATM   23  C29 UNL     1      -1.965  49.151 -22.901  1.00  0.00     0.016 C 
ENDROOT
BRANCH   1  24
HETATM   24  C6  UNL     1      -2.122  52.522 -24.041  1.00  0.00    -0.011 C 
HETATM   25  C7  UNL     1      -3.593  52.204 -23.739  1.00  0.00     0.010 C 
BRANCH  24  26
HETATM   26  C5  UNL     1      -1.886  52.511 -25.580  1.00  0.00     0.040 C 
BRANCH  26  27
HETATM   27  C4  UNL     1      -1.445  51.160 -26.175  1.00  0.00     0.141 C 
BRANCH  27  28
HETATM   28  C3  UNL     1       0.046  50.984 -26.039  1.00  0.00     0.009 C 
HETATM   29  C2  UNL     1       1.027  51.481 -26.822  1.00  0.00    -0.062 C 
HETATM   30  C1  UNL     1       0.812  52.347 -28.036  1.00  0.00     0.045 C 
BRANCH  29  31
HETATM   31  C30 UNL     1       2.473  51.182 -26.520  1.00  0.00     0.198 C 
BRANCH  31  32
HETATM   32  O3  UNL     1       3.287  52.046 -27.298  1.00  0.00    -0.397 OA
HETATM   33  H48 UNL     1       4.210  51.846 -27.066  1.00  0.00     0.209 HD
ENDBRANCH  31  32
ENDBRANCH  29  31
ENDBRANCH  27  28
BRANCH  27  34
HETATM   34  O1  UNL     1      -1.788  51.125 -27.558  1.00  0.00    -0.392 OA
HETATM   35  H6  UNL     1      -0.975  50.983 -28.076  1.00  0.00     0.210 HD
ENDBRANCH  27  34
ENDBRANCH  26  27
ENDBRANCH  24  26
ENDBRANCH   1  24
TORSDOF 7
ENDMDL
MODEL 6
REMARK minimizedAffinity -9.22593212
REMARK  7 active torsions:
REMARK  status: ('A' for Active; 'I' for Inactive)
REMARK    1  A    between atoms: C2_2  and  C30_32 
REMARK    2  A    between atoms: C3_3  and  C4_4 
REMARK    3  A    between atoms: C4_4  and  O1_5 
REMARK    4  A    between atoms: C4_4  and  C5_6 
REMARK    5  A    between atoms: C5_6  and  C6_7 
REMARK    6  A    between atoms: C6_7  and  C8_9 
REMARK    7  A    between atoms: C30_32  and  O3_33 
ROOT
HETATM    1  C8  UNL     1      -2.138  50.589 -19.258  1.00  0.00    -0.002 C 
HETATM    2  C9  UNL     1      -3.513  51.014 -19.789  1.00  0.00     0.006 C 
HETATM    3  C10 UNL     1      -3.669  50.195 -21.054  1.00  0.00     0.011 C 
HETATM    4  C11 UNL     1      -2.323  50.353 -21.791  1.00  0.00    -0.032 C 
HETATM    5  C12 UNL     1      -2.175  49.163 -22.760  1.00  0.00     0.016 C 
HETATM    6  C13 UNL     1      -2.241  51.719 -22.583  1.00  0.00     0.004 C 
HETATM    7  C14 UNL     1      -3.360  52.045 -23.585  1.00  0.00     0.007 C 
HETATM    8  C15 UNL     1      -3.226  51.498 -24.996  1.00  0.00     0.007 C 
HETATM    9  C16 UNL     1      -1.812  51.295 -25.569  1.00  0.00     0.010 C 
HETATM   10  C17 UNL     1      -1.651  51.790 -27.048  1.00  0.00     0.018 C 
HETATM   11  C18 UNL     1      -1.856  53.306 -27.207  1.00  0.00     0.023 C 
HETATM   12  C19 UNL     1      -2.615  51.030 -27.977  1.00  0.00     0.023 C 
HETATM   13  C20 UNL     1      -0.229  51.476 -27.538  1.00  0.00     0.135 C 
HETATM   14  O2  UNL     1       0.162  51.798 -28.663  1.00  0.00    -0.297 OA
HETATM   15  C21 UNL     1       0.658  50.666 -26.630  1.00  0.00     0.080 C 
HETATM   16  C22 UNL     1       0.721  51.276 -25.239  1.00  0.00     0.018 C 
HETATM   17  C23 UNL     1      -0.637  51.756 -24.710  1.00  0.00    -0.026 A 
HETATM   18  C24 UNL     1      -0.632  53.128 -24.069  1.00  0.00     0.021 A 
HETATM   19  C25 UNL     1      -0.846  51.913 -23.190  1.00  0.00    -0.027 A 
HETATM   20  C26 UNL     1       0.284  51.541 -22.241  1.00  0.00     0.011 C 
HETATM   21  C27 UNL     1      -0.195  51.478 -20.793  1.00  0.00     0.011 C 
HETATM   22  C28 UNL     1      -1.262  50.371 -20.572  1.00  0.00    -0.032 C 
HETATM   23  C29 UNL     1      -0.528  49.013 -20.415  1.00  0.00     0.016 C 
ENDROOT
BRANCH   1  24
HETATM   24  C6  UNL     1      -1.598  51.512 -18.115  1.00  0.00    -0.011 C 
HETATM   25  C7  UNL     1      -0.167  51.980 -18.410  1.00  0.00     0.010 C 
BRANCH  24  26
HETATM   26  C5  UNL     1      -1.643  50.792 -16.734  1.00  0.00     0.040 C 
BRANCH  26  27
HETATM   27  C4  UNL     1      -3.051  50.494 -16.185  1.00  0.00     0.141 C 
BRANCH  27  28
HETATM   28  C3  UNL     1      -3.425  51.492 -15.119  1.00  0.00     0.009 C 
HETATM   29  C2  UNL     1      -2.937  51.606 -13.865  1.00  0.00    -0.062 C 
HETATM   30  C1  UNL     1      -1.877  50.721 -13.264  1.00  0.00     0.045 C 
BRANCH  29  31
HETATM   31  C30 UNL     1      -3.451  52.677 -12.938  1.00  0.00     0.198 C 
BRANCH  31  32
HETATM   32  O3  UNL     1      -4.233  53.592 -13.691  1.00  0.00    -0.397 OA
HETATM   33  H48 UNL     1      -4.568  54.257 -13.064  1.00  0.00     0.209 HD
ENDBRANCH  31  32
ENDBRANCH  29  31
ENDBRANCH  27  28
BRANCH  27  34
HETATM   34  O1  UNL     1      -3.064  49.187 -15.618  1.00  0.00    -0.392 OA
HETATM   35  H6  UNL     1      -3.324  49.258 -14.681  1.00  0.00     0.210 HD
ENDBRANCH  27  34
ENDBRANCH  26  27
ENDBRANCH  24  26
ENDBRANCH   1  24
TORSDOF 7
ENDMDL
MODEL 7
REMARK minimizedAffinity -9.2120657
REMARK  7 active torsions:
REMARK  status: ('A' for Active; 'I' for Inactive)
REMARK    1  A    between atoms: C2_2  and  C30_32 
REMARK    2  A    between atoms: C3_3  and  C4_4 
REMARK    3  A    between atoms: C4_4  and  O1_5 
REMARK    4  A    between atoms: C4_4  and  C5_6 
REMARK    5  A    between atoms: C5_6  and  C6_7 
REMARK    6  A    between atoms: C6_7  and  C8_9 
REMARK    7  A    between atoms: C30_32  and  O3_33 
ROOT
HETATM    1  C8  UNL     1      -6.318  48.140 -24.572  1.00  0.00    -0.002 C 
HETATM    2  C9  UNL     1      -5.829  48.282 -26.020  1.00  0.00     0.006 C 
HETATM    3  C10 UNL     1      -4.332  48.078 -25.906  1.00  0.00     0.011 C 
HETATM    4  C11 UNL     1      -3.907  48.960 -24.714  1.00  0.00    -0.032 C 
HETATM    5  C12 UNL     1      -2.567  48.415 -24.181  1.00  0.00     0.016 C 
HETATM    6  C13 UNL     1      -3.756  50.479 -25.127  1.00  0.00     0.004 C 
HETATM    7  C14 UNL     1      -2.835  50.820 -26.309  1.00  0.00     0.007 C 
HETATM    8  C15 UNL     1      -1.354  51.003 -26.022  1.00  0.00     0.007 C 
HETATM    9  C16 UNL     1      -0.940  51.532 -24.636  1.00  0.00     0.010 C 
HETATM   10  C17 UNL     1       0.175  52.632 -24.687  1.00  0.00     0.018 C 
HETATM   11  C18 UNL     1      -0.269  53.915 -25.410  1.00  0.00     0.023 C 
HETATM   12  C19 UNL     1       1.451  52.076 -25.345  1.00  0.00     0.023 C 
HETATM   13  C20 UNL     1       0.559  53.034 -23.255  1.00  0.00     0.135 C 
HETATM   14  O2  UNL     1       1.395  53.911 -23.022  1.00  0.00    -0.297 OA
HETATM   15  C21 UNL     1      -0.050  52.248 -22.124  1.00  0.00     0.080 C 
HETATM   16  C22 UNL     1      -1.563  52.191 -22.249  1.00  0.00     0.018 C 
HETATM   17  C23 UNL     1      -2.058  51.934 -23.678  1.00  0.00    -0.026 A 
HETATM   18  C24 UNL     1      -3.196  52.822 -24.138  1.00  0.00     0.021 A 
HETATM   19  C25 UNL     1      -3.469  51.351 -23.899  1.00  0.00    -0.027 A 
HETATM   20  C26 UNL     1      -4.325  50.997 -22.691  1.00  0.00     0.011 C 
HETATM   21  C27 UNL     1      -5.546  50.171 -23.090  1.00  0.00     0.011 C 
HETATM   22  C28 UNL     1      -5.156  48.798 -23.701  1.00  0.00    -0.032 C 
HETATM   23  C29 UNL     1      -4.843  47.820 -22.538  1.00  0.00     0.016 C 
ENDROOT
BRANCH   1  24
HETATM   24  C6  UNL     1      -7.798  48.606 -24.365  1.00  0.00    -0.011 C 
HETATM   25  C7  UNL     1      -8.226  48.449 -22.900  1.00  0.00     0.010 C 
BRANCH  24  26
HETATM   26  C5  UNL     1      -8.776  47.821 -25.288  1.00  0.00     0.040 C 
BRANCH  26  27
HETATM   27  C4  UNL     1      -9.548  48.672 -26.314  1.00  0.00     0.141 C 
BRANCH  27  28
HETATM   28  C3  UNL     1      -8.947  48.518 -27.688  1.00  0.00     0.009 C 
HETATM   29  C2  UNL     1      -9.541  48.095 -28.824  1.00  0.00    -0.062 C 
HETATM   30  C1  UNL     1     -10.984  47.679 -28.945  1.00  0.00     0.045 C 
BRANCH  29  31
HETATM   31  C30 UNL     1      -8.758  48.002 -30.109  1.00  0.00     0.198 C 
BRANCH  31  32
HETATM   32  O3  UNL     1      -7.865  49.103 -30.176  1.00  0.00    -0.397 OA
HETATM   33  H48 UNL     1      -7.359  49.004 -31.002  1.00  0.00     0.209 HD
ENDBRANCH  31  32
ENDBRANCH  29  31
ENDBRANCH  27  28
BRANCH  27  34
HETATM   34  O1  UNL     1      -9.477  50.043 -25.932  1.00  0.00    -0.392 OA
HETATM   35  H6  UNL     1      -9.068  50.547 -26.659  1.00  0.00     0.210 HD
ENDBRANCH  27  34
ENDBRANCH  26  27
ENDBRANCH  24  26
ENDBRANCH   1  24
TORSDOF 7
ENDMDL
MODEL 8
REMARK minimizedAffinity -9.16583061
REMARK  7 active torsions:
REMARK  status: ('A' for Active; 'I' for Inactive)
REMARK    1  A    between atoms: C2_2  and  C30_32 
REMARK    2  A    between atoms: C3_3  and  C4_4 
REMARK    3  A    between atoms: C4_4  and  O1_5 
REMARK    4  A    between atoms: C4_4  and  C5_6 
REMARK    5  A    between atoms: C5_6  and  C6_7 
REMARK    6  A    between atoms: C6_7  and  C8_9 
REMARK    7  A    between atoms: C30_32  and  O3_33 
ROOT
HETATM    1  C8  UNL     1      -1.228  49.920 -22.482  1.00  0.00    -0.002 C 
HETATM    2  C9  UNL     1      -0.957  49.588 -21.008  1.00  0.00     0.006 C 
HETATM    3  C10 UNL     1      -1.731  48.304 -20.790  1.00  0.00     0.011 C 
HETATM    4  C11 UNL     1      -3.113  48.569 -21.422  1.00  0.00    -0.032 C 
HETATM    5  C12 UNL     1      -3.752  47.203 -21.744  1.00  0.00     0.016 C 
HETATM    6  C13 UNL     1      -4.053  49.400 -20.459  1.00  0.00     0.004 C 
HETATM    7  C14 UNL     1      -4.286  48.868 -19.037  1.00  0.00     0.007 C 
HETATM    8  C15 UNL     1      -5.393  47.847 -18.837  1.00  0.00     0.007 C 
HETATM    9  C16 UNL     1      -6.615  47.902 -19.773  1.00  0.00     0.010 C 
HETATM   10  C17 UNL     1      -7.986  47.734 -19.033  1.00  0.00     0.018 C 
HETATM   11  C18 UNL     1      -8.283  48.868 -18.036  1.00  0.00     0.023 C 
HETATM   12  C19 UNL     1      -8.046  46.375 -18.312  1.00  0.00     0.023 C 
HETATM   13  C20 UNL     1      -9.125  47.734 -20.064  1.00  0.00     0.135 C 
HETATM   14  O2  UNL     1     -10.310  47.650 -19.732  1.00  0.00    -0.297 OA
HETATM   15  C21 UNL     1      -8.744  47.743 -21.521  1.00  0.00     0.080 C 
HETATM   16  C22 UNL     1      -7.777  48.874 -21.829  1.00  0.00     0.018 C 
HETATM   17  C23 UNL     1      -6.675  49.051 -20.776  1.00  0.00    -0.026 A 
HETATM   18  C24 UNL     1      -6.420  50.479 -20.341  1.00  0.00     0.021 A 
HETATM   19  C25 UNL     1      -5.365  49.768 -21.163  1.00  0.00    -0.027 A 
HETATM   20  C26 UNL     1      -5.172  50.242 -22.596  1.00  0.00     0.011 C 
HETATM   21  C27 UNL     1      -3.725  50.653 -22.862  1.00  0.00     0.011 C 
HETATM   22  C28 UNL     1      -2.737  49.463 -22.714  1.00  0.00    -0.032 C 
HETATM   23  C29 UNL     1      -2.771  48.638 -24.027  1.00  0.00     0.016 C 
ENDROOT
BRANCH   1  24
HETATM   24  C6  UNL     1      -0.787  51.367 -22.886  1.00  0.00    -0.011 C 
HETATM   25  C7  UNL     1      -0.778  52.302 -21.670  1.00  0.00     0.010 C 
BRANCH  24  26
HETATM   26  C5  UNL     1      -1.710  51.953 -23.996  1.00  0.00     0.040 C 
BRANCH  26  27
HETATM   27  C4  UNL     1      -0.988  52.486 -25.248  1.00  0.00     0.141 C 
BRANCH  27  28
HETATM   28  C3  UNL     1       0.415  51.937 -25.323  1.00  0.00     0.009 C 
HETATM   29  C2  UNL     1       1.129  51.599 -26.417  1.00  0.00    -0.062 C 
HETATM   30  C1  UNL     1       0.642  51.712 -27.839  1.00  0.00     0.045 C 
BRANCH  29  31
HETATM   31  C30 UNL     1       2.528  51.055 -26.281  1.00  0.00     0.198 C 
BRANCH  31  32
HETATM   32  O3  UNL     1       3.305  51.524 -27.372  1.00  0.00    -0.397 OA
HETATM   33  H48 UNL     1       4.205  51.176 -27.245  1.00  0.00     0.209 HD
ENDBRANCH  31  32
ENDBRANCH  29  31
ENDBRANCH  27  28
BRANCH  27  34
HETATM   34  O1  UNL     1      -0.922  53.908 -25.179  1.00  0.00    -0.392 OA
HETATM   35  H6  UNL     1       0.014  54.177 -25.211  1.00  0.00     0.210 HD
ENDBRANCH  27  34
ENDBRANCH  26  27
ENDBRANCH  24  26
ENDBRANCH   1  24
TORSDOF 7
ENDMDL
MODEL 9
REMARK minimizedAffinity -9.12076664
REMARK  7 active torsions:
REMARK  status: ('A' for Active; 'I' for Inactive)
REMARK    1  A    between atoms: C2_2  and  C30_32 
REMARK    2  A    between atoms: C3_3  and  C4_4 
REMARK    3  A    between atoms: C4_4  and  O1_5 
REMARK    4  A    between atoms: C4_4  and  C5_6 
REMARK    5  A    between atoms: C5_6  and  C6_7 
REMARK    6  A    between atoms: C6_7  and  C8_9 
REMARK    7  A    between atoms: C30_32  and  O3_33 
ROOT
HETATM    1  C8  UNL     1      -1.943  51.824 -22.975  1.00  0.00    -0.002 C 
HETATM    2  C9  UNL     1      -3.220  52.608 -23.309  1.00  0.00     0.006 C 
HETATM    3  C10 UNL     1      -4.130  52.311 -22.135  1.00  0.00     0.011 C 
HETATM    4  C11 UNL     1      -4.028  50.784 -21.937  1.00  0.00    -0.032 C 
HETATM    5  C12 UNL     1      -4.448  50.470 -20.488  1.00  0.00     0.016 C 
HETATM    6  C13 UNL     1      -4.942  49.994 -22.958  1.00  0.00     0.004 C 
HETATM    7  C14 UNL     1      -6.434  50.355 -23.024  1.00  0.00     0.007 C 
HETATM    8  C15 UNL     1      -7.370  49.678 -22.036  1.00  0.00     0.007 C 
HETATM    9  C16 UNL     1      -7.013  48.263 -21.546  1.00  0.00     0.010 C 
HETATM   10  C17 UNL     1      -8.232  47.278 -21.516  1.00  0.00     0.018 C 
HETATM   11  C18 UNL     1      -8.828  47.005 -22.907  1.00  0.00     0.023 C 
HETATM   12  C19 UNL     1      -9.327  47.807 -20.571  1.00  0.00     0.023 C 
HETATM   13  C20 UNL     1      -7.779  45.924 -20.948  1.00  0.00     0.135 C 
HETATM   14  O2  UNL     1      -8.548  44.964 -20.851  1.00  0.00    -0.297 OA
HETATM   15  C21 UNL     1      -6.375  45.828 -20.413  1.00  0.00     0.080 C 
HETATM   16  C22 UNL     1      -5.364  46.315 -21.438  1.00  0.00     0.018 C 
HETATM   17  C23 UNL     1      -5.790  47.594 -22.170  1.00  0.00    -0.026 A 
HETATM   18  C24 UNL     1      -5.594  47.576 -23.672  1.00  0.00     0.021 A 
HETATM   19  C25 UNL     1      -4.716  48.483 -22.832  1.00  0.00    -0.027 A 
HETATM   20  C26 UNL     1      -3.250  48.097 -22.704  1.00  0.00     0.011 C 
HETATM   21  C27 UNL     1      -2.329  49.229 -23.157  1.00  0.00     0.011 C 
HETATM   22  C28 UNL     1      -2.473  50.496 -22.270  1.00  0.00    -0.032 C 
HETATM   23  C29 UNL     1      -1.628  50.289 -20.986  1.00  0.00     0.016 C 
ENDROOT
BRANCH   1  24
HETATM   24  C6  UNL     1      -0.945  51.716 -24.177  1.00  0.00    -0.011 C 
HETATM   25  C7  UNL     1       0.098  52.840 -24.131  1.00  0.00     0.010 C 
BRANCH  24  26
HETATM   26  C5  UNL     1      -1.694  51.747 -25.542  1.00  0.00     0.040 C 
BRANCH  26  27
HETATM   27  C4  UNL     1      -1.171  50.765 -26.608  1.00  0.00     0.141 C 
BRANCH  27  28
HETATM   28  C3  UNL     1       0.325  50.885 -26.749  1.00  0.00     0.009 C 
HETATM   29  C2  UNL     1       1.033  51.775 -27.476  1.00  0.00    -0.062 C 
HETATM   30  C1  UNL     1       0.439  52.870 -28.323  1.00  0.00     0.045 C 
BRANCH  29  31
HETATM   31  C30 UNL     1       2.539  51.724 -27.493  1.00  0.00     0.198 C 
BRANCH  31  32
HETATM   32  O3  UNL     1       2.981  50.996 -26.358  1.00  0.00    -0.397 OA
HETATM   33  H48 UNL     1       3.952  50.961 -26.407  1.00  0.00     0.209 HD
ENDBRANCH  31  32
ENDBRANCH  29  31
ENDBRANCH  27  28
BRANCH  27  34
HETATM   34  O1  UNL     1      -1.778  51.071 -27.861  1.00  0.00    -0.392 OA
HETATM   35  H6  UNL     1      -1.074  51.270 -28.506  1.00  0.00     0.210 HD
ENDBRANCH  27  34
ENDBRANCH  26  27
ENDBRANCH  24  26
ENDBRANCH   1  24
TORSDOF 7
ENDMDL
