MODEL 1
REMARK minimizedAffinity -9.58195305
REMARK CNNscore 0.358362615
REMARK CNNaffinity 7.13182831
REMARK  9 active torsions:
REMARK  status: ('A' for Active; 'I' for Inactive)
REMARK    1  A    between atoms: C2_2  and  C30_36 
REMARK    2  A    between atoms: C3_3  and  C4_4 
REMARK    3  A    between atoms: C4_4  and  C5_5 
REMARK    4  A    between atoms: C4_4  and  N1_8 
REMARK       I    between atoms: N1_8  and  C9_10 
REMARK    5  A    between atoms: C9_10  and  C10_12 
REMARK    6  A    between atoms: C10_12  and  N2_13 
REMARK    7  A    between atoms: C10_12  and  C26_32 
REMARK       I    between atoms: N2_13  and  C11_14 
REMARK    8  A    between atoms: C11_14  and  C12_16 
REMARK    9  A    between atoms: C30_36  and  O4_38 
ROOT
HETATM    1  N2  UNL     1      -0.604   7.563  12.554  1.00  0.00    -0.345 N 
HETATM    2  C11 UNL     1      -0.531   6.245  12.992  1.00  0.00     0.253 C 
HETATM    3  O2  UNL     1       0.405   5.841  13.674  1.00  0.00    -0.271 OA
HETATM    4  H17 UNL     1      -1.231   7.740  11.783  1.00  0.00     0.163 HD
ENDROOT
BRANCH   1   5
HETATM    5  C10 UNL     1       0.562   8.445  12.696  1.00  0.00     0.184 C 
BRANCH   5   6
HETATM    6  C9  UNL     1       1.545   8.461  11.476  1.00  0.00     0.243 C 
HETATM    7  N1  UNL     1       1.658   7.394  10.588  1.00  0.00    -0.346 N 
HETATM    8  C8  UNL     1       0.982   6.111  10.727  1.00  0.00     0.153 C 
HETATM    9  O1  UNL     1       2.315   9.429  11.403  1.00  0.00    -0.271 OA
BRANCH   7  10
HETATM   10  C4  UNL     1       2.527   7.493   9.390  1.00  0.00     0.113 C 
BRANCH  10  11
HETATM   11  C3  UNL     1       3.824   8.188   9.737  1.00  0.00     0.012 C 
HETATM   12  C2  UNL     1       4.890   7.676  10.391  1.00  0.00     0.010 C 
HETATM   13  C1  UNL     1       5.036   6.269  10.888  1.00  0.00     0.055 C 
BRANCH  12  14
HETATM   14  C30 UNL     1       6.032   8.601  10.618  1.00  0.00     0.171 C 
HETATM   15  O3  UNL     1       7.100   8.339  11.140  1.00  0.00    -0.646 OA
BRANCH  14  16
HETATM   16  O4  UNL     1       5.783   9.839  10.158  1.00  0.00    -0.773 OA
HETATM   17  H44 UNL     1       6.608  10.324  10.374  1.00  0.00     0.167 HD
ENDBRANCH  14  16
ENDBRANCH  12  14
ENDBRANCH  10  11
BRANCH  10  18
HETATM   18  C5  UNL     1       1.856   7.979   8.070  1.00  0.00     0.004 C 
HETATM   19  C6  UNL     1       2.043   6.964   6.938  1.00  0.00     0.012 C 
HETATM   20  C7  UNL     1       0.390   8.401   8.145  1.00  0.00     0.012 C 
ENDBRANCH  10  18
ENDBRANCH   7  10
ENDBRANCH   5   6
BRANCH   5  21
HETATM   21  C26 UNL     1       1.287   8.293  14.086  1.00  0.00    -0.022 C 
HETATM   22  C27 UNL     1       1.915   9.599  14.594  1.00  0.00     0.017 C 
HETATM   23  C28 UNL     1       0.304   7.787  15.165  1.00  0.00     0.017 C 
HETATM   24  C29 UNL     1       2.408   7.232  13.969  1.00  0.00     0.017 C 
ENDBRANCH   5  21
ENDBRANCH   1   5
BRANCH   2  25
HETATM   25  C12 UNL     1      -1.707   5.359  12.493  1.00  0.00     0.326 C 
HETATM   26  N3  UNL     1      -1.308   3.909  12.440  1.00  0.00     0.104 N 
HETATM   27  C13 UNL     1       0.017   3.672  11.869  1.00  0.00     0.311 C 
HETATM   28  C14 UNL     1      -2.309   3.121  11.692  1.00  0.00     0.330 C 
HETATM   29  C15 UNL     1      -3.689   3.495  12.098  1.00  0.00     0.046 A 
HETATM   30  C16 UNL     1      -4.079   4.604  12.827  1.00  0.00    -0.011 A 
HETATM   31  N4  UNL     1      -4.803   2.770  11.783  1.00  0.00    -0.357 N 
HETATM   32  C17 UNL     1      -5.499   4.522  12.989  1.00  0.00    -0.000 A 
HETATM   33  C23 UNL     1      -3.036   5.592  13.343  1.00  0.00     0.022 C 
HETATM   34  C18 UNL     1      -6.476   5.290  13.657  1.00  0.00     0.014 A 
HETATM   35  C22 UNL     1      -5.922   3.376  12.307  1.00  0.00     0.043 A 
HETATM   36  C19 UNL     1      -7.822   4.909  13.598  1.00  0.00     0.001 A 
HETATM   37  C20 UNL     1      -8.209   3.775  12.893  1.00  0.00     0.002 A 
HETATM   38  C21 UNL     1      -7.265   2.984  12.237  1.00  0.00     0.030 A 
HETATM   39  C24 UNL     1      -3.495   7.048  13.136  1.00  0.00     0.023 C 
HETATM   40  C25 UNL     1      -2.840   5.331  14.853  1.00  0.00     0.023 C 
HETATM   41  H28 UNL     1      -4.815   1.903  11.262  1.00  0.00     0.166 HD
ENDBRANCH   2  25
TORSDOF 9
ENDMDL
MODEL 2
REMARK minimizedAffinity -8.0904665
REMARK CNNscore 0.25507617
REMARK CNNaffinity 6.87278605
REMARK  9 active torsions:
REMARK  status: ('A' for Active; 'I' for Inactive)
REMARK    1  A    between atoms: C2_2  and  C30_36 
REMARK    2  A    between atoms: C3_3  and  C4_4 
REMARK    3  A    between atoms: C4_4  and  C5_5 
REMARK    4  A    between atoms: C4_4  and  N1_8 
REMARK       I    between atoms: N1_8  and  C9_10 
REMARK    5  A    between atoms: C9_10  and  C10_12 
REMARK    6  A    between atoms: C10_12  and  N2_13 
REMARK    7  A    between atoms: C10_12  and  C26_32 
REMARK       I    between atoms: N2_13  and  C11_14 
REMARK    8  A    between atoms: C11_14  and  C12_16 
REMARK    9  A    between atoms: C30_36  and  O4_38 
ROOT
HETATM    1  N2  UNL     1      -9.822   8.080  14.513  1.00  0.00    -0.345 N 
HETATM    2  C11 UNL     1      -8.947   7.223  15.173  1.00  0.00     0.253 C 
HETATM    3  O2  UNL     1      -9.207   6.761  16.279  1.00  0.00    -0.271 OA
HETATM    4  H17 UNL     1      -9.425   8.630  13.766  1.00  0.00     0.163 HD
ENDROOT
BRANCH   1   5
HETATM    5  C10 UNL     1     -10.973   8.643  15.231  1.00  0.00     0.184 C 
BRANCH   5   6
HETATM    6  C9  UNL     1     -12.368   8.055  14.828  1.00  0.00     0.243 C 
HETATM    7  N1  UNL     1     -12.676   7.674  13.523  1.00  0.00    -0.346 N 
HETATM    8  C8  UNL     1     -11.809   7.865  12.368  1.00  0.00     0.153 C 
HETATM    9  O1  UNL     1     -13.240   8.056  15.708  1.00  0.00    -0.271 OA
BRANCH   7  10
HETATM   10  C4  UNL     1     -13.973   7.030  13.207  1.00  0.00     0.113 C 
BRANCH  10  11
HETATM   11  C3  UNL     1     -14.805   7.929  12.320  1.00  0.00     0.012 C 
HETATM   12  C2  UNL     1     -15.276   9.163  12.601  1.00  0.00     0.010 C 
HETATM   13  C1  UNL     1     -15.040   9.940  13.862  1.00  0.00     0.055 C 
BRANCH  12  14
HETATM   14  C30 UNL     1     -16.094   9.815  11.543  1.00  0.00     0.171 C 
HETATM   15  O3  UNL     1     -16.586  10.927  11.572  1.00  0.00    -0.646 OA
BRANCH  14  16
HETATM   16  O4  UNL     1     -16.251   9.026  10.465  1.00  0.00    -0.773 OA
HETATM   17  H44 UNL     1     -16.799   9.579   9.867  1.00  0.00     0.167 HD
ENDBRANCH  14  16
ENDBRANCH  12  14
ENDBRANCH  10  11
BRANCH  10  18
HETATM   18  C5  UNL     1     -14.748   6.383  14.394  1.00  0.00     0.004 C 
HETATM   19  C6  UNL     1     -16.261   6.578  14.250  1.00  0.00     0.012 C 
HETATM   20  C7  UNL     1     -14.447   4.919  14.712  1.00  0.00     0.012 C 
ENDBRANCH  10  18
ENDBRANCH   7  10
ENDBRANCH   5   6
BRANCH   5  21
HETATM   21  C26 UNL     1     -10.949  10.215  15.303  1.00  0.00    -0.022 C 
HETATM   22  C27 UNL     1      -9.533  10.803  15.390  1.00  0.00     0.017 C 
HETATM   23  C28 UNL     1     -11.644  10.832  14.068  1.00  0.00     0.017 C 
HETATM   24  C29 UNL     1     -11.744  10.687  16.544  1.00  0.00     0.017 C 
ENDBRANCH   5  21
ENDBRANCH   1   5
BRANCH   2  25
HETATM   25  C12 UNL     1      -7.624   6.969  14.398  1.00  0.00     0.326 C 
HETATM   26  N3  UNL     1      -6.444   7.534  15.141  1.00  0.00     0.104 N 
HETATM   27  C13 UNL     1      -6.667   8.870  15.693  1.00  0.00     0.311 C 
HETATM   28  C14 UNL     1      -5.247   7.559  14.274  1.00  0.00     0.330 C 
HETATM   29  C15 UNL     1      -5.109   6.282  13.525  1.00  0.00     0.046 A 
HETATM   30  C16 UNL     1      -6.062   5.293  13.369  1.00  0.00    -0.011 A 
HETATM   31  N4  UNL     1      -3.979   5.906  12.857  1.00  0.00    -0.357 N 
HETATM   32  C17 UNL     1      -5.461   4.250  12.594  1.00  0.00    -0.000 A 
HETATM   33  C23 UNL     1      -7.430   5.428  14.033  1.00  0.00     0.022 C 
HETATM   34  C18 UNL     1      -5.870   2.978  12.139  1.00  0.00     0.014 A 
HETATM   35  C22 UNL     1      -4.168   4.674  12.272  1.00  0.00     0.043 A 
HETATM   36  C19 UNL     1      -4.997   2.199  11.370  1.00  0.00     0.001 A 
HETATM   37  C20 UNL     1      -3.725   2.661  11.053  1.00  0.00     0.002 A 
HETATM   38  C21 UNL     1      -3.284   3.907  11.502  1.00  0.00     0.030 A 
HETATM   39  C24 UNL     1      -8.562   5.011  13.074  1.00  0.00     0.023 C 
HETATM   40  C25 UNL     1      -7.450   4.507  15.273  1.00  0.00     0.023 C 
HETATM   41  H28 UNL     1      -3.118   6.434  12.809  1.00  0.00     0.166 HD
ENDBRANCH   2  25
TORSDOF 9
ENDMDL
MODEL 3
REMARK minimizedAffinity -7.97201586
REMARK CNNscore 0.24551937
REMARK CNNaffinity 6.56905746
REMARK  9 active torsions:
REMARK  status: ('A' for Active; 'I' for Inactive)
REMARK    1  A    between atoms: C2_2  and  C30_36 
REMARK    2  A    between atoms: C3_3  and  C4_4 
REMARK    3  A    between atoms: C4_4  and  C5_5 
REMARK    4  A    between atoms: C4_4  and  N1_8 
REMARK       I    between atoms: N1_8  and  C9_10 
REMARK    5  A    between atoms: C9_10  and  C10_12 
REMARK    6  A    between atoms: C10_12  and  N2_13 
REMARK    7  A    between atoms: C10_12  and  C26_32 
REMARK       I    between atoms: N2_13  and  C11_14 
REMARK    8  A    between atoms: C11_14  and  C12_16 
REMARK    9  A    between atoms: C30_36  and  O4_38 
ROOT
HETATM    1  N2  UNL     1      -1.956   7.631  16.052  1.00  0.00    -0.345 N 
HETATM    2  C11 UNL     1      -2.961   8.161  15.248  1.00  0.00     0.253 C 
HETATM    3  O2  UNL     1      -2.980   9.347  14.936  1.00  0.00    -0.271 OA
HETATM    4  H17 UNL     1      -2.159   6.745  16.490  1.00  0.00     0.163 HD
ENDROOT
BRANCH   1   5
HETATM    5  C10 UNL     1      -1.024   8.532  16.744  1.00  0.00     0.184 C 
BRANCH   5   6
HETATM    6  C9  UNL     1      -1.649   9.869  17.270  1.00  0.00     0.243 C 
HETATM    7  N1  UNL     1      -1.318  11.114  16.739  1.00  0.00    -0.346 N 
HETATM    8  C8  UNL     1      -0.295  11.349  15.728  1.00  0.00     0.153 C 
HETATM    9  O1  UNL     1      -2.371   9.781  18.273  1.00  0.00    -0.271 OA
BRANCH   7  10
HETATM   10  C4  UNL     1      -2.008  12.343  17.199  1.00  0.00     0.113 C 
BRANCH  10  11
HETATM   11  C3  UNL     1      -1.128  13.113  18.158  1.00  0.00     0.012 C 
HETATM   12  C2  UNL     1      -0.394  12.626  19.182  1.00  0.00     0.010 C 
HETATM   13  C1  UNL     1      -0.259  11.184  19.573  1.00  0.00     0.055 C 
BRANCH  12  14
HETATM   14  C30 UNL     1       0.365  13.623  19.983  1.00  0.00     0.171 C 
HETATM   15  O3  UNL     1      -0.067  14.634  20.503  1.00  0.00    -0.646 OA
BRANCH  14  16
HETATM   16  O4  UNL     1       1.662  13.291  20.110  1.00  0.00    -0.773 OA
HETATM   17  H44 UNL     1       2.025  14.025  20.650  1.00  0.00     0.167 HD
ENDBRANCH  14  16
ENDBRANCH  12  14
ENDBRANCH  10  11
BRANCH  10  18
HETATM   18  C5  UNL     1      -3.493  12.192  17.650  1.00  0.00     0.004 C 
HETATM   19  C6  UNL     1      -4.398  11.797  16.479  1.00  0.00     0.012 C 
HETATM   20  C7  UNL     1      -3.771  11.281  18.844  1.00  0.00     0.012 C 
ENDBRANCH  10  18
ENDBRANCH   7  10
ENDBRANCH   5   6
BRANCH   5  21
HETATM   21  C26 UNL     1       0.332   8.732  15.970  1.00  0.00    -0.022 C 
HETATM   22  C27 UNL     1       1.087   7.421  15.710  1.00  0.00     0.017 C 
HETATM   23  C28 UNL     1       0.090   9.420  14.607  1.00  0.00     0.017 C 
HETATM   24  C29 UNL     1       1.257   9.668  16.785  1.00  0.00     0.017 C 
ENDBRANCH   5  21
ENDBRANCH   1   5
BRANCH   2  25
HETATM   25  C12 UNL     1      -4.046   7.123  14.848  1.00  0.00     0.326 C 
HETATM   26  N3  UNL     1      -5.308   7.807  14.394  1.00  0.00     0.104 N 
HETATM   27  C13 UNL     1      -5.715   8.933  15.234  1.00  0.00     0.311 C 
HETATM   28  C14 UNL     1      -6.421   6.840  14.304  1.00  0.00     0.330 C 
HETATM   29  C15 UNL     1      -5.979   5.584  13.641  1.00  0.00     0.046 A 
HETATM   30  C16 UNL     1      -4.681   5.179  13.391  1.00  0.00    -0.011 A 
HETATM   31  N4  UNL     1      -6.832   4.621  13.182  1.00  0.00    -0.357 N 
HETATM   32  C17 UNL     1      -4.758   3.920  12.712  1.00  0.00    -0.000 A 
HETATM   33  C23 UNL     1      -3.506   6.074  13.774  1.00  0.00     0.022 C 
HETATM   34  C18 UNL     1      -3.822   3.026  12.152  1.00  0.00     0.014 A 
HETATM   35  C22 UNL     1      -6.114   3.590  12.617  1.00  0.00     0.043 A 
HETATM   36  C19 UNL     1      -4.262   1.841  11.550  1.00  0.00     0.001 A 
HETATM   37  C20 UNL     1      -5.617   1.536  11.492  1.00  0.00     0.002 A 
HETATM   38  C21 UNL     1      -6.570   2.408  12.021  1.00  0.00     0.030 A 
HETATM   39  C24 UNL     1      -2.371   5.259  14.423  1.00  0.00     0.023 C 
HETATM   40  C25 UNL     1      -2.978   6.745  12.487  1.00  0.00     0.023 C 
HETATM   41  H28 UNL     1      -7.841   4.657  13.224  1.00  0.00     0.166 HD
ENDBRANCH   2  25
TORSDOF 9
ENDMDL
MODEL 4
REMARK minimizedAffinity -9.2808733
REMARK CNNscore 0.243038043
REMARK CNNaffinity 6.69888258
REMARK  9 active torsions:
REMARK  status: ('A' for Active; 'I' for Inactive)
REMARK    1  A    between atoms: C2_2  and  C30_36 
REMARK    2  A    between atoms: C3_3  and  C4_4 
REMARK    3  A    between atoms: C4_4  and  C5_5 
REMARK    4  A    between atoms: C4_4  and  N1_8 
REMARK       I    between atoms: N1_8  and  C9_10 
REMARK    5  A    between atoms: C9_10  and  C10_12 
REMARK    6  A    between atoms: C10_12  and  N2_13 
REMARK    7  A    between atoms: C10_12  and  C26_32 
REMARK       I    between atoms: N2_13  and  C11_14 
REMARK    8  A    between atoms: C11_14  and  C12_16 
REMARK    9  A    between atoms: C30_36  and  O4_38 
ROOT
HETATM    1  N2  UNL     1      -0.910   7.764  12.487  1.00  0.00    -0.345 N 
HETATM    2  C11 UNL     1      -0.649   6.423  12.750  1.00  0.00     0.253 C 
HETATM    3  O2  UNL     1       0.422   6.053  13.219  1.00  0.00    -0.271 OA
HETATM    4  H17 UNL     1      -1.673   7.952  11.854  1.00  0.00     0.163 HD
ENDROOT
BRANCH   1   5
HETATM    5  C10 UNL     1       0.182   8.744  12.544  1.00  0.00     0.184 C 
BRANCH   5   6
HETATM    6  C9  UNL     1       1.471   8.360  11.741  1.00  0.00     0.243 C 
HETATM    7  N1  UNL     1       2.540   7.676  12.316  1.00  0.00    -0.346 N 
HETATM    8  C8  UNL     1       2.652   7.330  13.727  1.00  0.00     0.153 C 
HETATM    9  O1  UNL     1       1.552   8.802  10.586  1.00  0.00    -0.271 OA
BRANCH   7  10
HETATM   10  C4  UNL     1       3.696   7.244  11.494  1.00  0.00     0.113 C 
BRANCH  10  11
HETATM   11  C3  UNL     1       4.564   8.431  11.143  1.00  0.00     0.012 C 
HETATM   12  C2  UNL     1       5.903   8.454  10.963  1.00  0.00     0.010 C 
HETATM   13  C1  UNL     1       6.830   7.279  11.035  1.00  0.00     0.055 C 
BRANCH  12  14
HETATM   14  C30 UNL     1       6.504   9.778  10.644  1.00  0.00     0.171 C 
HETATM   15  O3  UNL     1       7.567   9.991  10.093  1.00  0.00    -0.646 OA
BRANCH  14  16
HETATM   16  O4  UNL     1       5.719  10.798  11.031  1.00  0.00    -0.773 OA
HETATM   17  H44 UNL     1       6.235  11.587  10.761  1.00  0.00     0.167 HD
ENDBRANCH  14  16
ENDBRANCH  12  14
ENDBRANCH  10  11
BRANCH  10  18
HETATM   18  C5  UNL     1       3.397   6.278  10.307  1.00  0.00     0.004 C 
HETATM   19  C6  UNL     1       2.251   5.318  10.641  1.00  0.00     0.012 C 
HETATM   20  C7  UNL     1       3.157   6.908   8.936  1.00  0.00     0.012 C 
ENDBRANCH  10  18
ENDBRANCH   7  10
ENDBRANCH   5   6
BRANCH   5  21
HETATM   21  C26 UNL     1       0.479   9.257  14.002  1.00  0.00    -0.022 C 
HETATM   22  C27 UNL     1      -0.569  10.251  14.526  1.00  0.00     0.017 C 
HETATM   23  C28 UNL     1       0.552   8.076  14.996  1.00  0.00     0.017 C 
HETATM   24  C29 UNL     1       1.861   9.953  14.033  1.00  0.00     0.017 C 
ENDBRANCH   5  21
ENDBRANCH   1   5
BRANCH   2  25
HETATM   25  C12 UNL     1      -1.812   5.474  12.345  1.00  0.00     0.326 C 
HETATM   26  N3  UNL     1      -1.362   4.038  12.340  1.00  0.00     0.104 N 
HETATM   27  C13 UNL     1      -0.056   3.821  11.720  1.00  0.00     0.311 C 
HETATM   28  C14 UNL     1      -2.365   3.181  11.674  1.00  0.00     0.330 C 
HETATM   29  C15 UNL     1      -3.739   3.525  12.125  1.00  0.00     0.046 A 
HETATM   30  C16 UNL     1      -4.137   4.652  12.820  1.00  0.00    -0.011 A 
HETATM   31  N4  UNL     1      -4.838   2.747  11.894  1.00  0.00    -0.357 N 
HETATM   32  C17 UNL     1      -5.544   4.528  13.051  1.00  0.00    -0.000 A 
HETATM   33  C23 UNL     1      -3.110   5.699  13.244  1.00  0.00     0.022 C 
HETATM   34  C18 UNL     1      -6.519   5.292  13.726  1.00  0.00     0.014 A 
HETATM   35  C22 UNL     1      -5.954   3.338  12.441  1.00  0.00     0.043 A 
HETATM   36  C19 UNL     1      -7.852   4.862  13.747  1.00  0.00     0.001 A 
HETATM   37  C20 UNL     1      -8.227   3.683  13.112  1.00  0.00     0.002 A 
HETATM   38  C21 UNL     1      -7.283   2.896  12.450  1.00  0.00     0.030 A 
HETATM   39  C24 UNL     1      -3.631   7.128  12.991  1.00  0.00     0.023 C 
HETATM   40  C25 UNL     1      -2.839   5.517  14.753  1.00  0.00     0.023 C 
HETATM   41  H28 UNL     1      -4.840   1.857  11.414  1.00  0.00     0.166 HD
ENDBRANCH   2  25
TORSDOF 9
ENDMDL
MODEL 5
REMARK minimizedAffinity -8.35645294
REMARK CNNscore 0.216145471
REMARK CNNaffinity 6.48629427
REMARK  9 active torsions:
REMARK  status: ('A' for Active; 'I' for Inactive)
REMARK    1  A    between atoms: C2_2  and  C30_36 
REMARK    2  A    between atoms: C3_3  and  C4_4 
REMARK    3  A    between atoms: C4_4  and  C5_5 
REMARK    4  A    between atoms: C4_4  and  N1_8 
REMARK       I    between atoms: N1_8  and  C9_10 
REMARK    5  A    between atoms: C9_10  and  C10_12 
REMARK    6  A    between atoms: C10_12  and  N2_13 
REMARK    7  A    between atoms: C10_12  and  C26_32 
REMARK       I    between atoms: N2_13  and  C11_14 
REMARK    8  A    between atoms: C11_14  and  C12_16 
REMARK    9  A    between atoms: C30_36  and  O4_38 
ROOT
HETATM    1  N2  UNL     1      -3.758   9.458  14.959  1.00  0.00    -0.345 N 
HETATM    2  C11 UNL     1      -3.608   8.232  15.599  1.00  0.00     0.253 C 
HETATM    3  O2  UNL     1      -2.790   8.068  16.497  1.00  0.00    -0.271 OA
HETATM    4  H17 UNL     1      -4.229   9.438  14.067  1.00  0.00     0.163 HD
ENDROOT
BRANCH   1   5
HETATM    5  C10 UNL     1      -2.771  10.523  15.181  1.00  0.00     0.184 C 
BRANCH   5   6
HETATM    6  C9  UNL     1      -1.456  10.406  14.338  1.00  0.00     0.243 C 
HETATM    7  N1  UNL     1      -0.615   9.297  14.406  1.00  0.00    -0.346 N 
HETATM    8  C8  UNL     1      -0.778   8.176  15.322  1.00  0.00     0.153 C 
HETATM    9  O1  UNL     1      -1.129  11.409  13.688  1.00  0.00    -0.271 OA
BRANCH   7  10
HETATM   10  C4  UNL     1       0.565   9.185  13.515  1.00  0.00     0.113 C 
BRANCH  10  11
HETATM   11  C3  UNL     1       0.707   7.768  13.006  1.00  0.00     0.012 C 
HETATM   12  C2  UNL     1       0.477   7.310  11.757  1.00  0.00     0.010 C 
HETATM   13  C1  UNL     1       0.062   8.128  10.571  1.00  0.00     0.055 C 
BRANCH  12  14
HETATM   14  C30 UNL     1       0.676   5.851  11.541  1.00  0.00     0.171 C 
HETATM   15  O3  UNL     1       0.837   5.278  10.480  1.00  0.00    -0.646 OA
BRANCH  14  16
HETATM   16  O4  UNL     1       0.676   5.163  12.695  1.00  0.00    -0.773 OA
HETATM   17  H44 UNL     1       0.814   4.237  12.399  1.00  0.00     0.167 HD
ENDBRANCH  14  16
ENDBRANCH  12  14
ENDBRANCH  10  11
BRANCH  10  18
HETATM   18  C5  UNL     1       1.890   9.837  14.014  1.00  0.00     0.004 C 
HETATM   19  C6  UNL     1       2.365   9.208  15.328  1.00  0.00     0.012 C 
HETATM   20  C7  UNL     1       3.054   9.901  13.026  1.00  0.00     0.012 C 
ENDBRANCH  10  18
ENDBRANCH   7  10
ENDBRANCH   5   6
BRANCH   5  21
HETATM   21  C26 UNL     1      -2.517  10.822  16.706  1.00  0.00    -0.022 C 
HETATM   22  C27 UNL     1      -3.632  10.303  17.625  1.00  0.00     0.017 C 
HETATM   23  C28 UNL     1      -1.184  10.196  17.174  1.00  0.00     0.017 C 
HETATM   24  C29 UNL     1      -2.391  12.351  16.917  1.00  0.00     0.017 C 
ENDBRANCH   5  21
ENDBRANCH   1   5
BRANCH   2  25
HETATM   25  C12 UNL     1      -4.530   7.118  15.029  1.00  0.00     0.326 C 
HETATM   26  N3  UNL     1      -5.774   7.705  14.419  1.00  0.00     0.104 N 
HETATM   27  C13 UNL     1      -6.393   8.761  15.218  1.00  0.00     0.311 C 
HETATM   28  C14 UNL     1      -6.772   6.648  14.153  1.00  0.00     0.330 C 
HETATM   29  C15 UNL     1      -6.132   5.459  13.532  1.00  0.00     0.046 A 
HETATM   30  C16 UNL     1      -4.780   5.176  13.456  1.00  0.00    -0.011 A 
HETATM   31  N4  UNL     1      -6.822   4.441  12.937  1.00  0.00    -0.357 N 
HETATM   32  C17 UNL     1      -4.649   3.940  12.746  1.00  0.00    -0.000 A 
HETATM   33  C23 UNL     1      -3.755   6.157  14.019  1.00  0.00     0.022 C 
HETATM   34  C18 UNL     1      -3.567   3.150  12.303  1.00  0.00     0.014 A 
HETATM   35  C22 UNL     1      -5.944   3.497  12.456  1.00  0.00     0.043 A 
HETATM   36  C19 UNL     1      -3.811   1.952  11.620  1.00  0.00     0.001 A 
HETATM   37  C20 UNL     1      -5.112   1.533  11.367  1.00  0.00     0.002 A 
HETATM   38  C21 UNL     1      -6.204   2.300  11.776  1.00  0.00     0.030 A 
HETATM   39  C24 UNL     1      -2.650   5.422  14.803  1.00  0.00     0.023 C 
HETATM   40  C25 UNL     1      -3.119   6.914  12.833  1.00  0.00     0.023 C 
HETATM   41  H28 UNL     1      -7.827   4.388  12.839  1.00  0.00     0.166 HD
ENDBRANCH   2  25
TORSDOF 9
ENDMDL
MODEL 6
REMARK minimizedAffinity -8.51339436
REMARK CNNscore 0.210108951
REMARK CNNaffinity 5.80440378
REMARK  9 active torsions:
REMARK  status: ('A' for Active; 'I' for Inactive)
REMARK    1  A    between atoms: C2_2  and  C30_36 
REMARK    2  A    between atoms: C3_3  and  C4_4 
REMARK    3  A    between atoms: C4_4  and  C5_5 
REMARK    4  A    between atoms: C4_4  and  N1_8 
REMARK       I    between atoms: N1_8  and  C9_10 
REMARK    5  A    between atoms: C9_10  and  C10_12 
REMARK    6  A    between atoms: C10_12  and  N2_13 
REMARK    7  A    between atoms: C10_12  and  C26_32 
REMARK       I    between atoms: N2_13  and  C11_14 
REMARK    8  A    between atoms: C11_14  and  C12_16 
REMARK    9  A    between atoms: C30_36  and  O4_38 
ROOT
HETATM    1  N2  UNL     1      -0.507   9.635  16.679  1.00  0.00    -0.345 N 
HETATM    2  C11 UNL     1      -0.244   9.697  15.314  1.00  0.00     0.253 C 
HETATM    3  O2  UNL     1       0.195  10.714  14.787  1.00  0.00    -0.271 OA
HETATM    4  H17 UNL     1      -1.118   8.890  16.979  1.00  0.00     0.163 HD
ENDROOT
BRANCH   1   5
HETATM    5  C10 UNL     1      -0.492  10.865  17.482  1.00  0.00     0.184 C 
BRANCH   5   6
HETATM    6  C9  UNL     1       0.484  10.854  18.707  1.00  0.00     0.243 C 
HETATM    7  N1  UNL     1       1.849  11.104  18.583  1.00  0.00    -0.346 N 
HETATM    8  C8  UNL     1       2.556  11.295  17.324  1.00  0.00     0.153 C 
HETATM    9  O1  UNL     1       0.003  10.492  19.790  1.00  0.00    -0.271 OA
BRANCH   7  10
HETATM   10  C4  UNL     1       2.718  11.184  19.783  1.00  0.00     0.113 C 
BRANCH  10  11
HETATM   11  C3  UNL     1       2.293  10.157  20.809  1.00  0.00     0.012 C 
HETATM   12  C2  UNL     1       3.047   9.596  21.779  1.00  0.00     0.010 C 
HETATM   13  C1  UNL     1       4.483   9.902  22.080  1.00  0.00     0.055 C 
BRANCH  12  14
HETATM   14  C30 UNL     1       2.371   8.588  22.639  1.00  0.00     0.171 C 
HETATM   15  O3  UNL     1       1.618   7.701  22.284  1.00  0.00    -0.646 OA
BRANCH  14  16
HETATM   16  O4  UNL     1       2.688   8.734  23.938  1.00  0.00    -0.773 OA
HETATM   17  H44 UNL     1       2.178   8.016  24.370  1.00  0.00     0.167 HD
ENDBRANCH  14  16
ENDBRANCH  12  14
ENDBRANCH  10  11
BRANCH  10  18
HETATM   18  C5  UNL     1       2.999  12.606  20.357  1.00  0.00     0.004 C 
HETATM   19  C6  UNL     1       2.142  12.892  21.594  1.00  0.00     0.012 C 
HETATM   20  C7  UNL     1       4.455  12.967  20.647  1.00  0.00     0.012 C 
ENDBRANCH  10  18
ENDBRANCH   7  10
ENDBRANCH   5   6
BRANCH   5  21
HETATM   21  C26 UNL     1      -1.934  11.393  17.831  1.00  0.00    -0.022 C 
HETATM   22  C27 UNL     1      -1.928  12.623  18.751  1.00  0.00     0.017 C 
HETATM   23  C28 UNL     1      -2.708  11.764  16.546  1.00  0.00     0.017 C 
HETATM   24  C29 UNL     1      -2.739  10.271  18.530  1.00  0.00     0.017 C 
ENDBRANCH   5  21
ENDBRANCH   1   5
BRANCH   2  25
HETATM   25  C12 UNL     1      -0.605   8.392  14.552  1.00  0.00     0.326 C 
HETATM   26  N3  UNL     1       0.326   7.271  14.928  1.00  0.00     0.104 N 
HETATM   27  C13 UNL     1       1.735   7.657  14.990  1.00  0.00     0.311 C 
HETATM   28  C14 UNL     1       0.175   6.134  13.995  1.00  0.00     0.330 C 
HETATM   29  C15 UNL     1      -1.261   5.849  13.737  1.00  0.00     0.046 A 
HETATM   30  C16 UNL     1      -2.345   6.656  14.035  1.00  0.00    -0.011 A 
HETATM   31  N4  UNL     1      -1.720   4.711  13.137  1.00  0.00    -0.357 N 
HETATM   32  C17 UNL     1      -3.520   5.948  13.624  1.00  0.00    -0.000 A 
HETATM   33  C23 UNL     1      -2.139   7.994  14.739  1.00  0.00     0.022 C 
HETATM   34  C18 UNL     1      -4.908   6.190  13.691  1.00  0.00     0.014 A 
HETATM   35  C22 UNL     1      -3.093   4.747  13.048  1.00  0.00     0.043 A 
HETATM   36  C19 UNL     1      -5.806   5.252  13.166  1.00  0.00     0.001 A 
HETATM   37  C20 UNL     1      -5.344   4.078  12.582  1.00  0.00     0.002 A 
HETATM   38  C21 UNL     1      -3.978   3.801  12.516  1.00  0.00     0.030 A 
HETATM   39  C24 UNL     1      -3.006   9.099  14.106  1.00  0.00     0.023 C 
HETATM   40  C25 UNL     1      -2.541   7.819  16.220  1.00  0.00     0.023 C 
HETATM   41  H28 UNL     1      -1.148   3.939  12.821  1.00  0.00     0.166 HD
ENDBRANCH   2  25
TORSDOF 9
ENDMDL
MODEL 7
REMARK minimizedAffinity -8.11276245
REMARK CNNscore 0.179409504
REMARK CNNaffinity 6.52196836
REMARK  9 active torsions:
REMARK  status: ('A' for Active; 'I' for Inactive)
REMARK    1  A    between atoms: C2_2  and  C30_36 
REMARK    2  A    between atoms: C3_3  and  C4_4 
REMARK    3  A    between atoms: C4_4  and  C5_5 
REMARK    4  A    between atoms: C4_4  and  N1_8 
REMARK       I    between atoms: N1_8  and  C9_10 
REMARK    5  A    between atoms: C9_10  and  C10_12 
REMARK    6  A    between atoms: C10_12  and  N2_13 
REMARK    7  A    between atoms: C10_12  and  C26_32 
REMARK       I    between atoms: N2_13  and  C11_14 
REMARK    8  A    between atoms: C11_14  and  C12_16 
REMARK    9  A    between atoms: C30_36  and  O4_38 
ROOT
HETATM    1  N2  UNL     1     -10.171   7.419  13.888  1.00  0.00    -0.345 N 
HETATM    2  C11 UNL     1      -9.225   6.899  14.766  1.00  0.00     0.253 C 
HETATM    3  O2  UNL     1      -9.518   6.569  15.910  1.00  0.00    -0.271 OA
HETATM    4  H17 UNL     1      -9.808   7.921  13.091  1.00  0.00     0.163 HD
ENDROOT
BRANCH   1   5
HETATM    5  C10 UNL     1     -11.495   7.810  14.390  1.00  0.00     0.184 C 
BRANCH   5   6
HETATM    6  C9  UNL     1     -12.712   7.260  13.572  1.00  0.00     0.243 C 
HETATM    7  N1  UNL     1     -13.933   6.942  14.162  1.00  0.00    -0.346 N 
HETATM    8  C8  UNL     1     -14.206   6.971  15.593  1.00  0.00     0.153 C 
HETATM    9  O1  UNL     1     -12.501   7.002  12.378  1.00  0.00    -0.271 OA
BRANCH   7  10
HETATM   10  C4  UNL     1     -15.089   6.520  13.335  1.00  0.00     0.113 C 
BRANCH  10  11
HETATM   11  C3  UNL     1     -15.518   7.643  12.418  1.00  0.00     0.012 C 
HETATM   12  C2  UNL     1     -16.084   8.821  12.759  1.00  0.00     0.010 C 
HETATM   13  C1  UNL     1     -16.380   9.295  14.150  1.00  0.00     0.055 C 
BRANCH  12  14
HETATM   14  C30 UNL     1     -16.427   9.738  11.640  1.00  0.00     0.171 C 
HETATM   15  O3  UNL     1     -16.688  10.925  11.712  1.00  0.00    -0.646 OA
BRANCH  14  16
HETATM   16  O4  UNL     1     -16.415   9.113  10.450  1.00  0.00    -0.773 OA
HETATM   17  H44 UNL     1     -16.655   9.829   9.823  1.00  0.00     0.167 HD
ENDBRANCH  14  16
ENDBRANCH  12  14
ENDBRANCH  10  11
BRANCH  10  18
HETATM   18  C5  UNL     1     -16.257   5.794  14.071  1.00  0.00     0.004 C 
HETATM   19  C6  UNL     1     -17.503   5.694  13.185  1.00  0.00     0.012 C 
HETATM   20  C7  UNL     1     -15.954   4.429  14.686  1.00  0.00     0.012 C 
ENDBRANCH  10  18
ENDBRANCH   7  10
ENDBRANCH   5   6
BRANCH   5  21
HETATM   21  C26 UNL     1     -11.602   9.345  14.722  1.00  0.00    -0.022 C 
HETATM   22  C27 UNL     1     -11.971   9.630  16.185  1.00  0.00     0.017 C 
HETATM   23  C28 UNL     1     -10.270  10.067  14.418  1.00  0.00     0.017 C 
HETATM   24  C29 UNL     1     -12.679   9.994  13.819  1.00  0.00     0.017 C 
ENDBRANCH   5  21
ENDBRANCH   1   5
BRANCH   2  25
HETATM   25  C12 UNL     1      -7.792   6.834  14.166  1.00  0.00     0.326 C 
HETATM   26  N3  UNL     1      -6.808   7.567  15.037  1.00  0.00     0.104 N 
HETATM   27  C13 UNL     1      -7.286   8.859  15.526  1.00  0.00     0.311 C 
HETATM   28  C14 UNL     1      -5.527   7.760  14.326  1.00  0.00     0.330 C 
HETATM   29  C15 UNL     1      -5.115   6.513  13.629  1.00  0.00     0.046 A 
HETATM   30  C16 UNL     1      -5.890   5.396  13.377  1.00  0.00    -0.011 A 
HETATM   31  N4  UNL     1      -3.867   6.300  13.114  1.00  0.00    -0.357 N 
HETATM   32  C17 UNL     1      -5.054   4.447  12.707  1.00  0.00    -0.000 A 
HETATM   33  C23 UNL     1      -7.336   5.336  13.863  1.00  0.00     0.022 C 
HETATM   34  C18 UNL     1      -5.216   3.128  12.234  1.00  0.00     0.014 A 
HETATM   35  C22 UNL     1      -3.804   5.052  12.539  1.00  0.00     0.043 A 
HETATM   36  C19 UNL     1      -4.152   2.478  11.597  1.00  0.00     0.001 A 
HETATM   37  C20 UNL     1      -2.929   3.118  11.430  1.00  0.00     0.002 A 
HETATM   38  C21 UNL     1      -2.730   4.417  11.902  1.00  0.00     0.030 A 
HETATM   39  C24 UNL     1      -8.267   4.756  12.781  1.00  0.00     0.023 C 
HETATM   40  C25 UNL     1      -7.380   4.427  15.112  1.00  0.00     0.023 C 
HETATM   41  H28 UNL     1      -3.091   6.947  13.162  1.00  0.00     0.166 HD
ENDBRANCH   2  25
TORSDOF 9
ENDMDL
MODEL 8
REMARK minimizedAffinity -8.76716137
REMARK CNNscore 0.163385704
REMARK CNNaffinity 6.69920158
REMARK  9 active torsions:
REMARK  status: ('A' for Active; 'I' for Inactive)
REMARK    1  A    between atoms: C2_2  and  C30_36 
REMARK    2  A    between atoms: C3_3  and  C4_4 
REMARK    3  A    between atoms: C4_4  and  C5_5 
REMARK    4  A    between atoms: C4_4  and  N1_8 
REMARK       I    between atoms: N1_8  and  C9_10 
REMARK    5  A    between atoms: C9_10  and  C10_12 
REMARK    6  A    between atoms: C10_12  and  N2_13 
REMARK    7  A    between atoms: C10_12  and  C26_32 
REMARK       I    between atoms: N2_13  and  C11_14 
REMARK    8  A    between atoms: C11_14  and  C12_16 
REMARK    9  A    between atoms: C30_36  and  O4_38 
ROOT
HETATM    1  N2  UNL     1       0.562   6.312  10.561  1.00  0.00    -0.345 N 
HETATM    2  C11 UNL     1       0.224   5.426  11.579  1.00  0.00     0.253 C 
HETATM    3  O2  UNL     1       1.077   4.880  12.270  1.00  0.00    -0.271 OA
HETATM    4  H17 UNL     1      -0.154   6.489   9.871  1.00  0.00     0.163 HD
ENDROOT
BRANCH   1   5
HETATM    5  C10 UNL     1       1.962   6.430  10.131  1.00  0.00     0.184 C 
BRANCH   5   6
HETATM    6  C9  UNL     1       2.971   6.871  11.245  1.00  0.00     0.243 C 
HETATM    7  N1  UNL     1       2.748   7.972  12.069  1.00  0.00    -0.346 N 
HETATM    8  C8  UNL     1       1.635   8.903  11.942  1.00  0.00     0.153 C 
HETATM    9  O1  UNL     1       4.049   6.260  11.283  1.00  0.00    -0.271 OA
BRANCH   7  10
HETATM   10  C4  UNL     1       3.681   8.292  13.176  1.00  0.00     0.113 C 
BRANCH  10  11
HETATM   11  C3  UNL     1       5.070   7.786  12.857  1.00  0.00     0.012 C 
HETATM   12  C2  UNL     1       6.236   8.463  12.929  1.00  0.00     0.010 C 
HETATM   13  C1  UNL     1       6.415   9.880  13.387  1.00  0.00     0.055 C 
BRANCH  12  14
HETATM   14  C30 UNL     1       7.459   7.717  12.530  1.00  0.00     0.171 C 
HETATM   15  O3  UNL     1       8.549   7.744  13.072  1.00  0.00    -0.646 OA
BRANCH  14  16
HETATM   16  O4  UNL     1       7.253   6.944  11.450  1.00  0.00    -0.773 OA
HETATM   17  H44 UNL     1       8.128   6.524  11.310  1.00  0.00     0.167 HD
ENDBRANCH  14  16
ENDBRANCH  12  14
ENDBRANCH  10  11
BRANCH  10  18
HETATM   18  C5  UNL     1       3.190   7.988  14.624  1.00  0.00     0.004 C 
HETATM   19  C6  UNL     1       2.997   9.274  15.434  1.00  0.00     0.012 C 
HETATM   20  C7  UNL     1       1.956   7.098  14.771  1.00  0.00     0.012 C 
ENDBRANCH  10  18
ENDBRANCH   7  10
ENDBRANCH   5   6
BRANCH   5  21
HETATM   21  C26 UNL     1       2.129   7.222   8.781  1.00  0.00    -0.022 C 
HETATM   22  C27 UNL     1       0.894   8.052   8.401  1.00  0.00     0.017 C 
HETATM   23  C28 UNL     1       3.341   8.178   8.851  1.00  0.00     0.017 C 
HETATM   24  C29 UNL     1       2.413   6.226   7.630  1.00  0.00     0.017 C 
ENDBRANCH   5  21
ENDBRANCH   1   5
BRANCH   2  25
HETATM   25  C12 UNL     1      -1.305   5.178  11.702  1.00  0.00     0.326 C 
HETATM   26  N3  UNL     1      -1.599   3.720  11.933  1.00  0.00     0.104 N 
HETATM   27  C13 UNL     1      -0.825   2.811  11.089  1.00  0.00     0.311 C 
HETATM   28  C14 UNL     1      -3.040   3.444  11.751  1.00  0.00     0.330 C 
HETATM   29  C15 UNL     1      -3.867   4.482  12.422  1.00  0.00     0.046 A 
HETATM   30  C16 UNL     1      -3.447   5.709  12.902  1.00  0.00    -0.011 A 
HETATM   31  N4  UNL     1      -5.207   4.361  12.653  1.00  0.00    -0.357 N 
HETATM   32  C17 UNL     1      -4.589   6.345  13.485  1.00  0.00    -0.000 A 
HETATM   33  C23 UNL     1      -1.978   6.114  12.805  1.00  0.00     0.022 C 
HETATM   34  C18 UNL     1      -4.820   7.555  14.172  1.00  0.00     0.014 A 
HETATM   35  C22 UNL     1      -5.677   5.486  13.293  1.00  0.00     0.043 A 
HETATM   36  C19 UNL     1      -6.110   7.874  14.612  1.00  0.00     0.001 A 
HETATM   37  C20 UNL     1      -7.172   7.004  14.386  1.00  0.00     0.002 A 
HETATM   38  C21 UNL     1      -6.973   5.791  13.725  1.00  0.00     0.030 A 
HETATM   39  C24 UNL     1      -1.830   7.579  12.351  1.00  0.00     0.023 C 
HETATM   40  C25 UNL     1      -1.346   5.949  14.204  1.00  0.00     0.023 C 
HETATM   41  H28 UNL     1      -5.778   3.561  12.414  1.00  0.00     0.166 HD
ENDBRANCH   2  25
TORSDOF 9
ENDMDL
MODEL 9
REMARK minimizedAffinity -7.93896627
REMARK CNNscore 0.152451053
REMARK CNNaffinity 6.5714016
REMARK  9 active torsions:
REMARK  status: ('A' for Active; 'I' for Inactive)
REMARK    1  A    between atoms: C2_2  and  C30_36 
REMARK    2  A    between atoms: C3_3  and  C4_4 
REMARK    3  A    between atoms: C4_4  and  C5_5 
REMARK    4  A    between atoms: C4_4  and  N1_8 
REMARK       I    between atoms: N1_8  and  C9_10 
REMARK    5  A    between atoms: C9_10  and  C10_12 
REMARK    6  A    between atoms: C10_12  and  N2_13 
REMARK    7  A    between atoms: C10_12  and  C26_32 
REMARK       I    between atoms: N2_13  and  C11_14 
REMARK    8  A    between atoms: C11_14  and  C12_16 
REMARK    9  A    between atoms: C30_36  and  O4_38 
ROOT
HETATM    1  N2  UNL     1      -9.908   7.779  14.204  1.00  0.00    -0.345 N 
HETATM    2  C11 UNL     1      -8.991   7.067  14.970  1.00  0.00     0.253 C 
HETATM    3  O2  UNL     1      -9.268   6.656  16.092  1.00  0.00    -0.271 OA
HETATM    4  H17 UNL     1      -9.526   8.316  13.439  1.00  0.00     0.163 HD
ENDROOT
BRANCH   1   5
HETATM    5  C10 UNL     1     -11.151   8.265  14.818  1.00  0.00     0.184 C 
BRANCH   5   6
HETATM    6  C9  UNL     1     -12.473   7.713  14.184  1.00  0.00     0.243 C 
HETATM    7  N1  UNL     1     -13.658   7.588  14.905  1.00  0.00    -0.346 N 
HETATM    8  C8  UNL     1     -13.801   7.840  16.333  1.00  0.00     0.153 C 
HETATM    9  O1  UNL     1     -12.387   7.275  13.028  1.00  0.00    -0.271 OA
BRANCH   7  10
HETATM   10  C4  UNL     1     -14.911   7.157  14.239  1.00  0.00     0.113 C 
BRANCH  10  11
HETATM   11  C3  UNL     1     -14.990   5.647  14.194  1.00  0.00     0.012 C 
HETATM   12  C2  UNL     1     -15.684   4.829  15.014  1.00  0.00     0.010 C 
HETATM   13  C1  UNL     1     -16.576   5.250  16.144  1.00  0.00     0.055 C 
BRANCH  12  14
HETATM   14  C30 UNL     1     -15.560   3.370  14.752  1.00  0.00     0.171 C 
HETATM   15  O3  UNL     1     -14.549   2.696  14.800  1.00  0.00    -0.646 OA
BRANCH  14  16
HETATM   16  O4  UNL     1     -16.742   2.807  14.445  1.00  0.00    -0.773 OA
HETATM   17  H44 UNL     1     -16.506   1.866  14.302  1.00  0.00     0.167 HD
ENDBRANCH  14  16
ENDBRANCH  12  14
ENDBRANCH  10  11
BRANCH  10  18
HETATM   18  C5  UNL     1     -15.282   7.871  12.904  1.00  0.00     0.004 C 
HETATM   19  C6  UNL     1     -16.408   7.138  12.169  1.00  0.00     0.012 C 
HETATM   20  C7  UNL     1     -15.602   9.364  12.975  1.00  0.00     0.012 C 
ENDBRANCH  10  18
ENDBRANCH   7  10
ENDBRANCH   5   6
BRANCH   5  21
HETATM   21  C26 UNL     1     -11.163   9.823  15.041  1.00  0.00    -0.022 C 
HETATM   22  C27 UNL     1      -9.814  10.495  14.741  1.00  0.00     0.017 C 
HETATM   23  C28 UNL     1     -12.236  10.497  14.157  1.00  0.00     0.017 C 
HETATM   24  C29 UNL     1     -11.538  10.131  16.511  1.00  0.00     0.017 C 
ENDBRANCH   5  21
ENDBRANCH   1   5
BRANCH   2  25
HETATM   25  C12 UNL     1      -7.606   6.901  14.284  1.00  0.00     0.326 C 
HETATM   26  N3  UNL     1      -6.519   7.549  15.098  1.00  0.00     0.104 N 
HETATM   27  C13 UNL     1      -6.868   8.868  15.623  1.00  0.00     0.311 C 
HETATM   28  C14 UNL     1      -5.272   7.653  14.311  1.00  0.00     0.330 C 
HETATM   29  C15 UNL     1      -4.997   6.386  13.583  1.00  0.00     0.046 A 
HETATM   30  C16 UNL     1      -5.869   5.333  13.373  1.00  0.00    -0.011 A 
HETATM   31  N4  UNL     1      -3.803   6.086  12.993  1.00  0.00    -0.357 N 
HETATM   32  C17 UNL     1      -5.148   4.331  12.647  1.00  0.00    -0.000 A 
HETATM   33  C23 UNL     1      -7.283   5.376  13.945  1.00  0.00     0.022 C 
HETATM   34  C18 UNL     1      -5.438   3.033  12.177  1.00  0.00     0.014 A 
HETATM   35  C22 UNL     1      -3.868   4.842  12.407  1.00  0.00     0.043 A 
HETATM   36  C19 UNL     1      -4.466   2.312  11.473  1.00  0.00     0.001 A 
HETATM   37  C20 UNL     1      -3.210   2.860  11.236  1.00  0.00     0.002 A 
HETATM   38  C21 UNL     1      -2.886   4.135  11.703  1.00  0.00     0.030 A 
HETATM   39  C24 UNL     1      -8.318   4.879  12.918  1.00  0.00     0.023 C 
HETATM   40  C25 UNL     1      -7.321   4.461  15.189  1.00  0.00     0.023 C 
HETATM   41  H28 UNL     1      -2.979   6.672  12.997  1.00  0.00     0.166 HD
ENDBRANCH   2  25
TORSDOF 9
ENDMDL
