MODEL 1
REMARK minimizedAffinity -9.30596066
REMARK CNNscore 0.613208592
REMARK CNNaffinity 7.59013176
REMARK  18 active torsions:
REMARK  status: ('A' for Active; 'I' for Inactive)
REMARK    1  A    between atoms: C2_2  and  C4_4 
REMARK    2  A    between atoms: C4_4  and  N1_5 
REMARK    3  A    between atoms: C4_4  and  C30_38 
REMARK       I    between atoms: N1_5  and  C5_6 
REMARK    4  A    between atoms: C5_6  and  C6_8 
REMARK    5  A    between atoms: C6_8  and  C7_9 
REMARK    6  A    between atoms: C7_9  and  C8_10 
REMARK    7  A    between atoms: C8_10  and  O3_12 
REMARK    8  A    between atoms: O3_12  and  C9_13 
REMARK    9  A    between atoms: C9_13  and  C10_14 
REMARK   10  A    between atoms: C10_14  and  C11_16 
REMARK   11  A    between atoms: C11_16  and  O5_17 
REMARK   12  A    between atoms: C26_33  and  O7_34 
REMARK       I    between atoms: C30_38  and  N2_40 
REMARK   13  A    between atoms: N2_40  and  C31_41 
REMARK   14  A    between atoms: C31_41  and  C32_42 
REMARK   15  A    between atoms: C32_42  and  C33_43 
REMARK   16  A    between atoms: C32_42  and  C35_47 
REMARK   17  A    between atoms: C33_43  and  C34_44 
REMARK   18  A    between atoms: C34_44  and  O10_46 
ROOT
HETATM    1  C8  UNL     1      -3.760   3.967  12.604  1.00  0.00     0.259 C 
HETATM    2  O2  UNL     1      -3.487   2.802  12.342  1.00  0.00    -0.265 OA
ENDROOT
BRANCH   1   3
HETATM    3  C7  UNL     1      -5.153   4.543  12.540  1.00  0.00     0.120 C 
BRANCH   3   4
HETATM    4  C6  UNL     1      -6.245   3.489  12.411  1.00  0.00     0.112 C 
BRANCH   4   5
HETATM    5  C5  UNL     1      -7.503   3.911  13.143  1.00  0.00     0.218 C 
HETATM    6  N1  UNL     1      -7.499   5.225  13.552  1.00  0.00    -0.347 N 
HETATM    7  H9  UNL     1      -6.695   5.812  13.366  1.00  0.00     0.163 HD
HETATM    8  O1  UNL     1      -8.445   3.152  13.327  1.00  0.00    -0.274 OA
BRANCH   6   9
HETATM    9  C4  UNL     1      -8.599   5.770  14.365  1.00  0.00     0.179 C 
BRANCH   9  10
HETATM   10  C2  UNL     1      -8.042   6.811  15.368  1.00  0.00     0.009 C 
HETATM   11  C1  UNL     1      -9.151   7.478  16.190  1.00  0.00     0.012 C 
HETATM   12  C3  UNL     1      -7.044   6.163  16.336  1.00  0.00     0.012 C 
ENDBRANCH   9  10
BRANCH   9  13
HETATM   13  C30 UNL     1      -9.675   6.408  13.450  1.00  0.00     0.240 C 
HETATM   14  O8  UNL     1      -9.529   6.517  12.234  1.00  0.00    -0.271 OA
HETATM   15  N2  UNL     1     -10.881   6.664  14.072  1.00  0.00    -0.359 N 
HETATM   16  H43 UNL     1     -10.960   6.457  15.060  1.00  0.00     0.162 HD
BRANCH  15  17
HETATM   17  C31 UNL     1     -12.090   6.949  13.318  1.00  0.00     0.132 C 
BRANCH  17  18
HETATM   18  C32 UNL     1     -13.046   7.866  14.115  1.00  0.00     0.046 C 
BRANCH  18  19
HETATM   19  C33 UNL     1     -12.314   8.873  15.012  1.00  0.00     0.120 C 
BRANCH  19  20
HETATM   20  C34 UNL     1     -12.337  10.296  14.524  1.00  0.00     0.140 C 
HETATM   21  O9  UNL     1     -13.120  11.173  14.845  1.00  0.00    -0.650 OA
BRANCH  20  22
HETATM   22  O10 UNL     1     -11.319  10.560  13.683  1.00  0.00    -0.776 OA
HETATM   23  H49 UNL     1     -11.430  11.506  13.452  1.00  0.00     0.167 HD
ENDBRANCH  20  22
ENDBRANCH  19  20
ENDBRANCH  18  19
BRANCH  18  24
HETATM   24  C35 UNL     1     -14.147   7.119  14.860  1.00  0.00    -0.052 A 
HETATM   25  C36 UNL     1     -14.734   7.621  16.030  1.00  0.00     0.007 A 
HETATM   26  C37 UNL     1     -15.738   6.905  16.688  1.00  0.00     0.001 A 
HETATM   27  C38 UNL     1     -16.169   5.679  16.187  1.00  0.00     0.000 A 
HETATM   28  C39 UNL     1     -15.601   5.171  15.022  1.00  0.00     0.001 A 
HETATM   29  C40 UNL     1     -14.604   5.888  14.360  1.00  0.00     0.007 A 
ENDBRANCH  18  24
ENDBRANCH  17  18
ENDBRANCH  15  17
ENDBRANCH   9  13
ENDBRANCH   6   9
ENDBRANCH   4   5
ENDBRANCH   3   4
ENDBRANCH   1   3
BRANCH   1  30
HETATM   30  O3  UNL     1      -2.864   4.892  13.049  1.00  0.00    -0.314 OA
BRANCH  30  31
HETATM   31  C9  UNL     1      -2.795   4.962  14.476  1.00  0.00     0.260 C 
BRANCH  31  32
HETATM   32  C10 UNL     1      -2.500   6.371  14.992  1.00  0.00     0.185 C 
HETATM   33  O4  UNL     1      -3.298   6.954  15.746  1.00  0.00    -0.292 OA
BRANCH  32  34
HETATM   34  C11 UNL     1      -1.232   7.127  14.533  1.00  0.00     0.128 C 
HETATM   35  C12 UNL     1      -0.194   7.513  15.614  1.00  0.00     0.047 C 
HETATM   36  C13 UNL     1       1.192   7.432  14.941  1.00  0.00     0.009 C 
HETATM   37  C14 UNL     1       0.884   7.285  13.457  1.00  0.00     0.002 C 
HETATM   38  C15 UNL     1       1.989   6.789  12.513  1.00  0.00    -0.002 C 
HETATM   39  C28 UNL     1      -0.387   6.401  13.438  1.00  0.00     0.001 C 
HETATM   40  C16 UNL     1       3.268   7.641  12.669  1.00  0.00     0.010 C 
HETATM   41  C25 UNL     1       1.432   6.823  11.042  1.00  0.00     0.031 C 
HETATM   42  C17 UNL     1       4.331   7.322  11.619  1.00  0.00     0.035 C 
HETATM   43  C18 UNL     1       3.702   7.423  10.253  1.00  0.00    -0.068 C 
HETATM   44  C19 UNL     1       4.063   8.412   9.415  1.00  0.00     0.053 C 
HETATM   45  C23 UNL     1       2.547   6.444   9.995  1.00  0.00    -0.014 C 
HETATM   46  C20 UNL     1       3.256   8.731   8.212  1.00  0.00     0.149 C 
HETATM   47  O6  UNL     1       3.609   9.640   7.469  1.00  0.00    -0.293 OA
HETATM   48  C21 UNL     1       1.948   8.005   8.031  1.00  0.00     0.084 C 
HETATM   49  C22 UNL     1       2.076   6.571   8.520  1.00  0.00     0.022 C 
HETATM   50  C24 UNL     1       3.055   4.988  10.146  1.00  0.00     0.020 C 
HETATM   51  C26 UNL     1       0.078   6.064  10.912  1.00  0.00     0.124 C 
HETATM   52  C27 UNL     1      -0.954   6.451  11.999  1.00  0.00     0.045 C 
HETATM   53  C29 UNL     1      -0.111   4.937  13.863  1.00  0.00     0.019 C 
BRANCH  34  54
HETATM   54  O5  UNL     1      -1.714   8.378  13.985  1.00  0.00    -0.381 OA
HETATM   55  H16 UNL     1      -2.603   8.195  13.618  1.00  0.00     0.211 HD
ENDBRANCH  34  54
BRANCH  51  56
HETATM   56  O7  UNL     1       0.268   4.657  10.931  1.00  0.00    -0.395 OA
HETATM   57  H37 UNL     1      -0.584   4.244  10.710  1.00  0.00     0.210 HD
ENDBRANCH  51  56
ENDBRANCH  32  34
ENDBRANCH  31  32
ENDBRANCH  30  31
ENDBRANCH   1  30
TORSDOF 18
ENDMDL
MODEL 2
REMARK minimizedAffinity -8.81998539
REMARK CNNscore 0.588417709
REMARK CNNaffinity 7.45396805
REMARK  18 active torsions:
REMARK  status: ('A' for Active; 'I' for Inactive)
REMARK    1  A    between atoms: C2_2  and  C4_4 
REMARK    2  A    between atoms: C4_4  and  N1_5 
REMARK    3  A    between atoms: C4_4  and  C30_38 
REMARK       I    between atoms: N1_5  and  C5_6 
REMARK    4  A    between atoms: C5_6  and  C6_8 
REMARK    5  A    between atoms: C6_8  and  C7_9 
REMARK    6  A    between atoms: C7_9  and  C8_10 
REMARK    7  A    between atoms: C8_10  and  O3_12 
REMARK    8  A    between atoms: O3_12  and  C9_13 
REMARK    9  A    between atoms: C9_13  and  C10_14 
REMARK   10  A    between atoms: C10_14  and  C11_16 
REMARK   11  A    between atoms: C11_16  and  O5_17 
REMARK   12  A    between atoms: C26_33  and  O7_34 
REMARK       I    between atoms: C30_38  and  N2_40 
REMARK   13  A    between atoms: N2_40  and  C31_41 
REMARK   14  A    between atoms: C31_41  and  C32_42 
REMARK   15  A    between atoms: C32_42  and  C33_43 
REMARK   16  A    between atoms: C32_42  and  C35_47 
REMARK   17  A    between atoms: C33_43  and  C34_44 
REMARK   18  A    between atoms: C34_44  and  O10_46 
ROOT
HETATM    1  C8  UNL     1       0.884   9.634  16.113  1.00  0.00     0.259 C 
HETATM    2  O2  UNL     1       0.752   8.500  16.560  1.00  0.00    -0.265 OA
ENDROOT
BRANCH   1   3
HETATM    3  C7  UNL     1       0.944  10.877  16.964  1.00  0.00     0.120 C 
BRANCH   3   4
HETATM    4  C6  UNL     1       0.623  10.628  18.433  1.00  0.00     0.112 C 
BRANCH   4   5
HETATM    5  C5  UNL     1       1.860  10.770  19.296  1.00  0.00     0.218 C 
HETATM    6  N1  UNL     1       1.607  11.232  20.567  1.00  0.00    -0.347 N 
HETATM    7  H9  UNL     1       0.660  11.455  20.847  1.00  0.00     0.163 HD
HETATM    8  O1  UNL     1       2.980  10.473  18.899  1.00  0.00    -0.274 OA
BRANCH   6   9
HETATM    9  C4  UNL     1       2.706  11.523  21.502  1.00  0.00     0.179 C 
BRANCH   9  10
HETATM   10  C2  UNL     1       3.460  10.215  21.848  1.00  0.00     0.009 C 
HETATM   11  C1  UNL     1       4.261  10.331  23.151  1.00  0.00     0.012 C 
HETATM   12  C3  UNL     1       2.486   9.037  21.981  1.00  0.00     0.012 C 
ENDBRANCH   9  10
BRANCH   9  13
HETATM   13  C30 UNL     1       3.670  12.568  20.886  1.00  0.00     0.240 C 
HETATM   14  O8  UNL     1       3.270  13.571  20.297  1.00  0.00    -0.271 OA
HETATM   15  N2  UNL     1       5.000  12.388  21.213  1.00  0.00    -0.359 N 
HETATM   16  H43 UNL     1       5.245  11.590  21.785  1.00  0.00     0.162 HD
BRANCH  15  17
HETATM   17  C31 UNL     1       5.990  13.431  21.006  1.00  0.00     0.132 C 
BRANCH  17  18
HETATM   18  C32 UNL     1       6.648  13.854  22.340  1.00  0.00     0.046 C 
BRANCH  18  19
HETATM   19  C33 UNL     1       6.991  12.668  23.251  1.00  0.00     0.120 C 
BRANCH  19  20
HETATM   20  C34 UNL     1       8.396  12.148  23.118  1.00  0.00     0.140 C 
HETATM   21  O9  UNL     1       8.769  10.994  23.237  1.00  0.00    -0.650 OA
BRANCH  20  22
HETATM   22  O10 UNL     1       9.266  13.118  22.779  1.00  0.00    -0.776 OA
HETATM   23  H49 UNL     1      10.129  12.660  22.706  1.00  0.00     0.167 HD
ENDBRANCH  20  22
ENDBRANCH  19  20
ENDBRANCH  18  19
BRANCH  18  24
HETATM   24  C35 UNL     1       5.896  14.956  23.080  1.00  0.00    -0.052 A 
HETATM   25  C36 UNL     1       4.524  14.872  23.356  1.00  0.00     0.007 A 
HETATM   26  C37 UNL     1       3.869  15.904  24.033  1.00  0.00     0.001 A 
HETATM   27  C38 UNL     1       4.574  17.033  24.444  1.00  0.00     0.000 A 
HETATM   28  C39 UNL     1       5.939  17.127  24.185  1.00  0.00     0.001 A 
HETATM   29  C40 UNL     1       6.595  16.094  23.515  1.00  0.00     0.007 A 
ENDBRANCH  18  24
ENDBRANCH  17  18
ENDBRANCH  15  17
ENDBRANCH   9  13
ENDBRANCH   6   9
ENDBRANCH   4   5
ENDBRANCH   3   4
ENDBRANCH   1   3
BRANCH   1  30
HETATM   30  O3  UNL     1       1.055   9.931  14.794  1.00  0.00    -0.314 OA
BRANCH  30  31
HETATM   31  C9  UNL     1       0.366   9.030  13.923  1.00  0.00     0.260 C 
BRANCH  31  32
HETATM   32  C10 UNL     1      -1.029   9.522  13.536  1.00  0.00     0.185 C 
HETATM   33  O4  UNL     1      -1.353  10.712  13.694  1.00  0.00    -0.292 OA
BRANCH  32  34
HETATM   34  C11 UNL     1      -2.090   8.534  12.998  1.00  0.00     0.128 C 
HETATM   35  C12 UNL     1      -1.591   7.185  12.426  1.00  0.00     0.047 C 
HETATM   36  C13 UNL     1      -2.676   6.139  12.757  1.00  0.00     0.009 C 
HETATM   37  C14 UNL     1      -3.860   6.964  13.244  1.00  0.00     0.002 C 
HETATM   38  C15 UNL     1      -4.982   6.265  14.026  1.00  0.00    -0.002 C 
HETATM   39  C28 UNL     1      -3.195   8.125  14.023  1.00  0.00     0.001 C 
HETATM   40  C16 UNL     1      -5.519   5.046  13.245  1.00  0.00     0.010 C 
HETATM   41  C25 UNL     1      -6.110   7.322  14.319  1.00  0.00     0.031 C 
HETATM   42  C17 UNL     1      -6.766   4.430  13.878  1.00  0.00     0.035 C 
HETATM   43  C18 UNL     1      -7.790   5.518  14.076  1.00  0.00    -0.068 C 
HETATM   44  C19 UNL     1      -8.921   5.520  13.349  1.00  0.00     0.053 C 
HETATM   45  C23 UNL     1      -7.358   6.656  15.013  1.00  0.00    -0.014 C 
HETATM   46  C20 UNL     1      -9.790   6.720  13.284  1.00  0.00     0.149 C 
HETATM   47  O6  UNL     1     -10.814   6.692  12.609  1.00  0.00    -0.293 OA
HETATM   48  C21 UNL     1      -9.297   7.981  13.947  1.00  0.00     0.084 C 
HETATM   49  C22 UNL     1      -8.544   7.637  15.222  1.00  0.00     0.022 C 
HETATM   50  C24 UNL     1      -7.040   6.082  16.417  1.00  0.00     0.020 C 
HETATM   51  C26 UNL     1      -5.547   8.605  14.998  1.00  0.00     0.124 C 
HETATM   52  C27 UNL     1      -4.295   9.180  14.292  1.00  0.00     0.045 C 
HETATM   53  C29 UNL     1      -2.545   7.667  15.352  1.00  0.00     0.019 C 
BRANCH  34  54
HETATM   54  O5  UNL     1      -2.722   9.223  11.892  1.00  0.00    -0.381 OA
HETATM   55  H16 UNL     1      -2.684  10.177  12.103  1.00  0.00     0.211 HD
ENDBRANCH  34  54
BRANCH  51  56
HETATM   56  O7  UNL     1      -5.244   8.377  16.368  1.00  0.00    -0.395 OA
HETATM   57  H37 UNL     1      -5.031   9.237  16.766  1.00  0.00     0.210 HD
ENDBRANCH  51  56
ENDBRANCH  32  34
ENDBRANCH  31  32
ENDBRANCH  30  31
ENDBRANCH   1  30
TORSDOF 18
ENDMDL
MODEL 3
REMARK minimizedAffinity -9.00230789
REMARK CNNscore 0.364429593
REMARK CNNaffinity 7.16467524
REMARK  18 active torsions:
REMARK  status: ('A' for Active; 'I' for Inactive)
REMARK    1  A    between atoms: C2_2  and  C4_4 
REMARK    2  A    between atoms: C4_4  and  N1_5 
REMARK    3  A    between atoms: C4_4  and  C30_38 
REMARK       I    between atoms: N1_5  and  C5_6 
REMARK    4  A    between atoms: C5_6  and  C6_8 
REMARK    5  A    between atoms: C6_8  and  C7_9 
REMARK    6  A    between atoms: C7_9  and  C8_10 
REMARK    7  A    between atoms: C8_10  and  O3_12 
REMARK    8  A    between atoms: O3_12  and  C9_13 
REMARK    9  A    between atoms: C9_13  and  C10_14 
REMARK   10  A    between atoms: C10_14  and  C11_16 
REMARK   11  A    between atoms: C11_16  and  O5_17 
REMARK   12  A    between atoms: C26_33  and  O7_34 
REMARK       I    between atoms: C30_38  and  N2_40 
REMARK   13  A    between atoms: N2_40  and  C31_41 
REMARK   14  A    between atoms: C31_41  and  C32_42 
REMARK   15  A    between atoms: C32_42  and  C33_43 
REMARK   16  A    between atoms: C32_42  and  C35_47 
REMARK   17  A    between atoms: C33_43  and  C34_44 
REMARK   18  A    between atoms: C34_44  and  O10_46 
ROOT
HETATM    1  C8  UNL     1      -5.321   6.378  15.541  1.00  0.00     0.259 C 
HETATM    2  O2  UNL     1      -6.222   6.246  16.361  1.00  0.00    -0.265 OA
ENDROOT
BRANCH   1   3
HETATM    3  C7  UNL     1      -5.331   5.756  14.167  1.00  0.00     0.120 C 
BRANCH   3   4
HETATM    4  C6  UNL     1      -6.471   6.246  13.283  1.00  0.00     0.112 C 
BRANCH   4   5
HETATM    5  C5  UNL     1      -7.798   6.172  14.009  1.00  0.00     0.218 C 
HETATM    6  N1  UNL     1      -8.389   7.396  14.224  1.00  0.00    -0.347 N 
HETATM    7  H9  UNL     1      -7.928   8.243  13.914  1.00  0.00     0.163 HD
HETATM    8  O1  UNL     1      -8.307   5.111  14.348  1.00  0.00    -0.274 OA
BRANCH   6   9
HETATM    9  C4  UNL     1      -9.632   7.514  15.004  1.00  0.00     0.179 C 
BRANCH   9  10
HETATM   10  C2  UNL     1      -9.766   8.953  15.562  1.00  0.00     0.009 C 
HETATM   11  C1  UNL     1     -10.557   9.870  14.622  1.00  0.00     0.012 C 
HETATM   12  C3  UNL     1     -10.456   8.950  16.932  1.00  0.00     0.012 C 
ENDBRANCH   9  10
BRANCH   9  13
HETATM   13  C30 UNL     1     -10.853   7.149  14.123  1.00  0.00     0.240 C 
HETATM   14  O8  UNL     1     -10.803   7.140  12.894  1.00  0.00    -0.271 OA
HETATM   15  N2  UNL     1     -11.937   6.650  14.818  1.00  0.00    -0.359 N 
HETATM   16  H43 UNL     1     -11.870   6.595  15.827  1.00  0.00     0.162 HD
BRANCH  15  17
HETATM   17  C31 UNL     1     -13.027   5.960  14.151  1.00  0.00     0.132 C 
BRANCH  17  18
HETATM   18  C32 UNL     1     -14.237   6.900  13.935  1.00  0.00     0.046 C 
BRANCH  18  19
HETATM   19  C33 UNL     1     -14.285   7.515  12.529  1.00  0.00     0.120 C 
BRANCH  19  20
HETATM   20  C34 UNL     1     -15.629   7.462  11.857  1.00  0.00     0.140 C 
HETATM   21  O9  UNL     1     -16.081   8.255  11.048  1.00  0.00    -0.650 OA
BRANCH  20  22
HETATM   22  O10 UNL     1     -16.326   6.364  12.202  1.00  0.00    -0.776 OA
HETATM   23  H49 UNL     1     -17.162   6.433  11.695  1.00  0.00     0.167 HD
ENDBRANCH  20  22
ENDBRANCH  19  20
ENDBRANCH  18  19
BRANCH  18  24
HETATM   24  C35 UNL     1     -14.415   7.945  15.031  1.00  0.00    -0.052 A 
HETATM   25  C36 UNL     1     -14.221   9.315  14.799  1.00  0.00     0.007 A 
HETATM   26  C37 UNL     1     -14.390  10.243  15.830  1.00  0.00     0.001 A 
HETATM   27  C38 UNL     1     -14.754   9.817  17.105  1.00  0.00     0.000 A 
HETATM   28  C39 UNL     1     -14.957   8.461  17.350  1.00  0.00     0.001 A 
HETATM   29  C40 UNL     1     -14.796   7.535  16.319  1.00  0.00     0.007 A 
ENDBRANCH  18  24
ENDBRANCH  17  18
ENDBRANCH  15  17
ENDBRANCH   9  13
ENDBRANCH   6   9
ENDBRANCH   4   5
ENDBRANCH   3   4
ENDBRANCH   1   3
BRANCH   1  30
HETATM   30  O3  UNL     1      -4.213   7.149  15.725  1.00  0.00    -0.314 OA
BRANCH  30  31
HETATM   31  C9  UNL     1      -2.998   6.470  15.396  1.00  0.00     0.260 C 
BRANCH  31  32
HETATM   32  C10 UNL     1      -1.951   7.390  14.764  1.00  0.00     0.185 C 
HETATM   33  O4  UNL     1      -1.306   8.193  15.459  1.00  0.00    -0.292 OA
BRANCH  32  34
HETATM   34  C11 UNL     1      -1.720   7.384  13.236  1.00  0.00     0.128 C 
HETATM   35  C12 UNL     1      -2.446   8.462  12.395  1.00  0.00     0.047 C 
HETATM   36  C13 UNL     1      -1.506   8.813  11.223  1.00  0.00     0.009 C 
HETATM   37  C14 UNL     1      -0.424   7.742  11.273  1.00  0.00     0.002 C 
HETATM   38  C15 UNL     1       0.892   7.977  10.516  1.00  0.00    -0.002 C 
HETATM   39  C28 UNL     1      -0.227   7.498  12.790  1.00  0.00     0.001 C 
HETATM   40  C16 UNL     1       0.618   8.332   9.038  1.00  0.00     0.010 C 
HETATM   41  C25 UNL     1       1.779   6.686  10.659  1.00  0.00     0.031 C 
HETATM   42  C17 UNL     1       1.888   8.383   8.190  1.00  0.00     0.035 C 
HETATM   43  C18 UNL     1       2.637   7.087   8.370  1.00  0.00    -0.068 C 
HETATM   44  C19 UNL     1       2.735   6.218   7.348  1.00  0.00     0.053 C 
HETATM   45  C23 UNL     1       3.099   6.797   9.805  1.00  0.00    -0.014 C 
HETATM   46  C20 UNL     1       3.178   4.820   7.571  1.00  0.00     0.149 C 
HETATM   47  O6  UNL     1       3.255   4.050   6.619  1.00  0.00    -0.293 OA
HETATM   48  C21 UNL     1       3.383   4.365   8.993  1.00  0.00     0.084 C 
HETATM   49  C22 UNL     1       3.957   5.502   9.824  1.00  0.00     0.022 C 
HETATM   50  C24 UNL     1       4.043   7.928  10.287  1.00  0.00     0.020 C 
HETATM   51  C26 UNL     1       1.954   6.257  12.146  1.00  0.00     0.124 C 
HETATM   52  C27 UNL     1       0.623   6.214  12.937  1.00  0.00     0.045 C 
HETATM   53  C29 UNL     1       0.454   8.687  13.511  1.00  0.00     0.019 C 
BRANCH  34  54
HETATM   54  O5  UNL     1      -2.240   6.112  12.779  1.00  0.00    -0.381 OA
HETATM   55  H16 UNL     1      -2.116   5.482  13.518  1.00  0.00     0.211 HD
ENDBRANCH  34  54
BRANCH  51  56
HETATM   56  O7  UNL     1       2.871   7.103  12.825  1.00  0.00    -0.395 OA
HETATM   57  H37 UNL     1       3.041   6.708  13.696  1.00  0.00     0.210 HD
ENDBRANCH  51  56
ENDBRANCH  32  34
ENDBRANCH  31  32
ENDBRANCH  30  31
ENDBRANCH   1  30
TORSDOF 18
ENDMDL
MODEL 4
REMARK minimizedAffinity -9.19663143
REMARK CNNscore 0.312819421
REMARK CNNaffinity 6.90165186
REMARK  18 active torsions:
REMARK  status: ('A' for Active; 'I' for Inactive)
REMARK    1  A    between atoms: C2_2  and  C4_4 
REMARK    2  A    between atoms: C4_4  and  N1_5 
REMARK    3  A    between atoms: C4_4  and  C30_38 
REMARK       I    between atoms: N1_5  and  C5_6 
REMARK    4  A    between atoms: C5_6  and  C6_8 
REMARK    5  A    between atoms: C6_8  and  C7_9 
REMARK    6  A    between atoms: C7_9  and  C8_10 
REMARK    7  A    between atoms: C8_10  and  O3_12 
REMARK    8  A    between atoms: O3_12  and  C9_13 
REMARK    9  A    between atoms: C9_13  and  C10_14 
REMARK   10  A    between atoms: C10_14  and  C11_16 
REMARK   11  A    between atoms: C11_16  and  O5_17 
REMARK   12  A    between atoms: C26_33  and  O7_34 
REMARK       I    between atoms: C30_38  and  N2_40 
REMARK   13  A    between atoms: N2_40  and  C31_41 
REMARK   14  A    between atoms: C31_41  and  C32_42 
REMARK   15  A    between atoms: C32_42  and  C33_43 
REMARK   16  A    between atoms: C32_42  and  C35_47 
REMARK   17  A    between atoms: C33_43  and  C34_44 
REMARK   18  A    between atoms: C34_44  and  O10_46 
ROOT
HETATM    1  C8  UNL     1      -3.593   3.932  11.716  1.00  0.00     0.259 C 
HETATM    2  O2  UNL     1      -3.747   3.156  10.779  1.00  0.00    -0.265 OA
ENDROOT
BRANCH   1   3
HETATM    3  C7  UNL     1      -4.624   4.175  12.790  1.00  0.00     0.120 C 
BRANCH   3   4
HETATM    4  C6  UNL     1      -6.056   3.938  12.327  1.00  0.00     0.112 C 
BRANCH   4   5
HETATM    5  C5  UNL     1      -7.049   4.292  13.415  1.00  0.00     0.218 C 
HETATM    6  N1  UNL     1      -7.445   5.610  13.405  1.00  0.00    -0.347 N 
HETATM    7  H9  UNL     1      -7.066   6.249  12.716  1.00  0.00     0.163 HD
HETATM    8  O1  UNL     1      -7.477   3.468  14.212  1.00  0.00    -0.274 OA
BRANCH   6   9
HETATM    9  C4  UNL     1      -8.328   6.146  14.454  1.00  0.00     0.179 C 
BRANCH   9  10
HETATM   10  C2  UNL     1      -7.656   7.367  15.130  1.00  0.00     0.009 C 
HETATM   11  C1  UNL     1      -7.939   7.428  16.636  1.00  0.00     0.012 C 
HETATM   12  C3  UNL     1      -6.136   7.344  14.922  1.00  0.00     0.012 C 
ENDBRANCH   9  10
BRANCH   9  13
HETATM   13  C30 UNL     1      -9.700   6.536  13.851  1.00  0.00     0.240 C 
HETATM   14  O8  UNL     1      -9.898   6.594  12.638  1.00  0.00    -0.271 OA
HETATM   15  N2  UNL     1     -10.729   6.625  14.768  1.00  0.00    -0.359 N 
HETATM   16  H43 UNL     1     -10.510   6.468  15.744  1.00  0.00     0.162 HD
BRANCH  15  17
HETATM   17  C31 UNL     1     -12.123   6.655  14.360  1.00  0.00     0.132 C 
BRANCH  17  18
HETATM   18  C32 UNL     1     -12.684   8.096  14.388  1.00  0.00     0.046 C 
BRANCH  18  19
HETATM   19  C33 UNL     1     -13.229   8.563  13.031  1.00  0.00     0.120 C 
BRANCH  19  20
HETATM   20  C34 UNL     1     -14.667   8.213  12.768  1.00  0.00     0.140 C 
HETATM   21  O9  UNL     1     -15.403   7.541  13.471  1.00  0.00    -0.650 OA
BRANCH  20  22
HETATM   22  O10 UNL     1     -15.131   8.783  11.640  1.00  0.00    -0.776 OA
HETATM   23  H49 UNL     1     -16.067   8.500  11.587  1.00  0.00     0.167 HD
ENDBRANCH  20  22
ENDBRANCH  19  20
ENDBRANCH  18  19
BRANCH  18  24
HETATM   24  C35 UNL     1     -11.743   9.118  15.017  1.00  0.00    -0.052 A 
HETATM   25  C36 UNL     1     -10.902   9.936  14.248  1.00  0.00     0.007 A 
HETATM   26  C37 UNL     1     -10.049  10.858  14.861  1.00  0.00     0.001 A 
HETATM   27  C38 UNL     1     -10.023  10.975  16.249  1.00  0.00     0.000 A 
HETATM   28  C39 UNL     1     -10.857  10.176  17.026  1.00  0.00     0.001 A 
HETATM   29  C40 UNL     1     -11.714   9.260  16.415  1.00  0.00     0.007 A 
ENDBRANCH  18  24
ENDBRANCH  17  18
ENDBRANCH  15  17
ENDBRANCH   9  13
ENDBRANCH   6   9
ENDBRANCH   4   5
ENDBRANCH   3   4
ENDBRANCH   1   3
BRANCH   1  30
HETATM   30  O3  UNL     1      -2.453   4.638  11.958  1.00  0.00    -0.314 OA
BRANCH  30  31
HETATM   31  C9  UNL     1      -2.635   5.680  12.920  1.00  0.00     0.260 C 
BRANCH  31  32
HETATM   32  C10 UNL     1      -1.474   6.676  12.950  1.00  0.00     0.185 C 
HETATM   33  O4  UNL     1      -1.681   7.892  13.103  1.00  0.00    -0.292 OA
BRANCH  32  34
HETATM   34  C11 UNL     1      -0.022   6.196  12.725  1.00  0.00     0.128 C 
HETATM   35  C12 UNL     1       0.241   5.230  11.544  1.00  0.00     0.047 C 
HETATM   36  C13 UNL     1       1.650   5.563  11.009  1.00  0.00     0.009 C 
HETATM   37  C14 UNL     1       2.244   6.492  12.060  1.00  0.00     0.002 C 
HETATM   38  C15 UNL     1       3.472   7.339  11.696  1.00  0.00    -0.002 C 
HETATM   39  C28 UNL     1       1.029   7.334  12.525  1.00  0.00     0.001 C 
HETATM   40  C16 UNL     1       4.601   6.452  11.129  1.00  0.00     0.010 C 
HETATM   41  C25 UNL     1       3.926   8.124  12.982  1.00  0.00     0.031 C 
HETATM   42  C17 UNL     1       5.916   7.207  10.935  1.00  0.00     0.035 C 
HETATM   43  C18 UNL     1       6.276   7.885  12.232  1.00  0.00    -0.068 C 
HETATM   44  C19 UNL     1       7.341   7.467  12.939  1.00  0.00     0.053 C 
HETATM   45  C23 UNL     1       5.259   8.925  12.726  1.00  0.00    -0.014 C 
HETATM   46  C20 UNL     1       7.539   7.886  14.347  1.00  0.00     0.149 C 
HETATM   47  O6  UNL     1       8.520   7.485  14.967  1.00  0.00    -0.293 OA
HETATM   48  C21 UNL     1       6.442   8.681  15.006  1.00  0.00     0.084 C 
HETATM   49  C22 UNL     1       5.810   9.628  13.998  1.00  0.00     0.022 C 
HETATM   50  C24 UNL     1       5.103  10.045  11.667  1.00  0.00     0.020 C 
HETATM   51  C26 UNL     1       2.754   8.923  13.624  1.00  0.00     0.124 C 
HETATM   52  C27 UNL     1       1.463   8.089  13.804  1.00  0.00     0.045 C 
HETATM   53  C29 UNL     1       0.536   8.330  11.447  1.00  0.00     0.019 C 
BRANCH  34  54
HETATM   54  O5  UNL     1       0.323   5.458  13.922  1.00  0.00    -0.381 OA
HETATM   55  H16 UNL     1      -0.185   5.865  14.653  1.00  0.00     0.211 HD
ENDBRANCH  34  54
BRANCH  51  56
HETATM   56  O7  UNL     1       2.452  10.093  12.876  1.00  0.00    -0.395 OA
HETATM   57  H37 UNL     1       1.816  10.614  13.394  1.00  0.00     0.210 HD
ENDBRANCH  51  56
ENDBRANCH  32  34
ENDBRANCH  31  32
ENDBRANCH  30  31
ENDBRANCH   1  30
TORSDOF 18
ENDMDL
MODEL 5
REMARK minimizedAffinity -8.82426929
REMARK CNNscore 0.263648838
REMARK CNNaffinity 7.23256159
REMARK  18 active torsions:
REMARK  status: ('A' for Active; 'I' for Inactive)
REMARK    1  A    between atoms: C2_2  and  C4_4 
REMARK    2  A    between atoms: C4_4  and  N1_5 
REMARK    3  A    between atoms: C4_4  and  C30_38 
REMARK       I    between atoms: N1_5  and  C5_6 
REMARK    4  A    between atoms: C5_6  and  C6_8 
REMARK    5  A    between atoms: C6_8  and  C7_9 
REMARK    6  A    between atoms: C7_9  and  C8_10 
REMARK    7  A    between atoms: C8_10  and  O3_12 
REMARK    8  A    between atoms: O3_12  and  C9_13 
REMARK    9  A    between atoms: C9_13  and  C10_14 
REMARK   10  A    between atoms: C10_14  and  C11_16 
REMARK   11  A    between atoms: C11_16  and  O5_17 
REMARK   12  A    between atoms: C26_33  and  O7_34 
REMARK       I    between atoms: C30_38  and  N2_40 
REMARK   13  A    between atoms: N2_40  and  C31_41 
REMARK   14  A    between atoms: C31_41  and  C32_42 
REMARK   15  A    between atoms: C32_42  and  C33_43 
REMARK   16  A    between atoms: C32_42  and  C35_47 
REMARK   17  A    between atoms: C33_43  and  C34_44 
REMARK   18  A    between atoms: C34_44  and  O10_46 
ROOT
HETATM    1  C8  UNL     1       1.220   9.360  16.032  1.00  0.00     0.259 C 
HETATM    2  O2  UNL     1       1.085   8.214  16.447  1.00  0.00    -0.265 OA
ENDROOT
BRANCH   1   3
HETATM    3  C7  UNL     1       1.707  10.512  16.875  1.00  0.00     0.120 C 
BRANCH   3   4
HETATM    4  C6  UNL     1       1.040  10.593  18.243  1.00  0.00     0.112 C 
BRANCH   4   5
HETATM    5  C5  UNL     1       2.070  10.633  19.353  1.00  0.00     0.218 C 
HETATM    6  N1  UNL     1       1.569  11.038  20.569  1.00  0.00    -0.347 N 
HETATM    7  H9  UNL     1       0.591  11.287  20.657  1.00  0.00     0.163 HD
HETATM    8  O1  UNL     1       3.238  10.309  19.182  1.00  0.00    -0.274 OA
BRANCH   6   9
HETATM    9  C4  UNL     1       2.454  11.230  21.730  1.00  0.00     0.179 C 
BRANCH   9  10
HETATM   10  C2  UNL     1       3.267   9.937  21.988  1.00  0.00     0.009 C 
HETATM   11  C1  UNL     1       4.222  10.078  23.179  1.00  0.00     0.012 C 
HETATM   12  C3  UNL     1       2.337   8.745  22.250  1.00  0.00     0.012 C 
ENDBRANCH   9  10
BRANCH   9  13
HETATM   13  C30 UNL     1       3.397  12.435  21.489  1.00  0.00     0.240 C 
HETATM   14  O8  UNL     1       3.185  13.547  21.969  1.00  0.00    -0.271 OA
HETATM   15  N2  UNL     1       4.586  12.119  20.861  1.00  0.00    -0.359 N 
HETATM   16  H43 UNL     1       4.734  11.158  20.579  1.00  0.00     0.162 HD
BRANCH  15  17
HETATM   17  C31 UNL     1       5.714  13.035  20.845  1.00  0.00     0.132 C 
BRANCH  17  18
HETATM   18  C32 UNL     1       6.949  12.416  21.540  1.00  0.00     0.046 C 
BRANCH  18  19
HETATM   19  C33 UNL     1       7.041  12.759  23.034  1.00  0.00     0.120 C 
BRANCH  19  20
HETATM   20  C34 UNL     1       8.186  13.658  23.411  1.00  0.00     0.140 C 
HETATM   21  O9  UNL     1       9.314  13.322  23.730  1.00  0.00    -0.650 OA
BRANCH  20  22
HETATM   22  O10 UNL     1       7.863  14.961  23.311  1.00  0.00    -0.776 OA
HETATM   23  H49 UNL     1       8.682  15.438  23.562  1.00  0.00     0.167 HD
ENDBRANCH  20  22
ENDBRANCH  19  20
ENDBRANCH  18  19
BRANCH  18  24
HETATM   24  C35 UNL     1       8.263  12.663  20.807  1.00  0.00    -0.052 A 
HETATM   25  C36 UNL     1       9.306  11.725  20.801  1.00  0.00     0.007 A 
HETATM   26  C37 UNL     1      10.498  11.988  20.120  1.00  0.00     0.001 A 
HETATM   27  C38 UNL     1      10.666  13.191  19.438  1.00  0.00     0.000 A 
HETATM   28  C39 UNL     1       9.637  14.130  19.428  1.00  0.00     0.001 A 
HETATM   29  C40 UNL     1       8.444  13.864  20.101  1.00  0.00     0.007 A 
ENDBRANCH  18  24
ENDBRANCH  17  18
ENDBRANCH  15  17
ENDBRANCH   9  13
ENDBRANCH   6   9
ENDBRANCH   4   5
ENDBRANCH   3   4
ENDBRANCH   1   3
BRANCH   1  30
HETATM   30  O3  UNL     1       1.010   9.747  14.743  1.00  0.00    -0.314 OA
BRANCH  30  31
HETATM   31  C9  UNL     1       0.250   8.798  13.990  1.00  0.00     0.260 C 
BRANCH  31  32
HETATM   32  C10 UNL     1      -1.096   9.349  13.518  1.00  0.00     0.185 C 
HETATM   33  O4  UNL     1      -1.348  10.564  13.590  1.00  0.00    -0.292 OA
BRANCH  32  34
HETATM   34  C11 UNL     1      -2.197   8.396  13.001  1.00  0.00     0.128 C 
HETATM   35  C12 UNL     1      -1.755   7.020  12.446  1.00  0.00     0.047 C 
HETATM   36  C13 UNL     1      -2.878   6.022  12.798  1.00  0.00     0.009 C 
HETATM   37  C14 UNL     1      -4.027   6.900  13.278  1.00  0.00     0.002 C 
HETATM   38  C15 UNL     1      -5.171   6.258  14.076  1.00  0.00    -0.002 C 
HETATM   39  C28 UNL     1      -3.313   8.045  14.037  1.00  0.00     0.001 C 
HETATM   40  C16 UNL     1      -5.760   5.049  13.316  1.00  0.00     0.010 C 
HETATM   41  C25 UNL     1      -6.255   7.362  14.358  1.00  0.00     0.031 C 
HETATM   42  C17 UNL     1      -7.026   4.492  13.965  1.00  0.00     0.035 C 
HETATM   43  C18 UNL     1      -8.006   5.623  14.151  1.00  0.00    -0.068 C 
HETATM   44  C19 UNL     1      -9.140   5.658  13.429  1.00  0.00     0.053 C 
HETATM   45  C23 UNL     1      -7.524   6.757  15.068  1.00  0.00    -0.014 C 
HETATM   46  C20 UNL     1      -9.961   6.891  13.350  1.00  0.00     0.149 C 
HETATM   47  O6  UNL     1     -10.989   6.893  12.680  1.00  0.00    -0.293 OA
HETATM   48  C21 UNL     1      -9.416   8.140  13.991  1.00  0.00     0.084 C 
HETATM   49  C22 UNL     1      -8.670   7.787  15.268  1.00  0.00     0.022 C 
HETATM   50  C24 UNL     1      -7.221   6.192  16.479  1.00  0.00     0.020 C 
HETATM   51  C26 UNL     1      -5.638   8.633  15.015  1.00  0.00     0.124 C 
HETATM   52  C27 UNL     1      -4.368   9.147  14.294  1.00  0.00     0.045 C 
HETATM   53  C29 UNL     1      -2.674   7.583  15.369  1.00  0.00     0.019 C 
BRANCH  34  54
HETATM   54  O5  UNL     1      -2.808   9.092  11.887  1.00  0.00    -0.381 OA
HETATM   55  H16 UNL     1      -2.731  10.047  12.083  1.00  0.00     0.211 HD
ENDBRANCH  34  54
BRANCH  51  56
HETATM   56  O7  UNL     1      -5.338   8.413  16.387  1.00  0.00    -0.395 OA
HETATM   57  H37 UNL     1      -5.088   9.270  16.771  1.00  0.00     0.210 HD
ENDBRANCH  51  56
ENDBRANCH  32  34
ENDBRANCH  31  32
ENDBRANCH  30  31
ENDBRANCH   1  30
TORSDOF 18
ENDMDL
MODEL 6
REMARK minimizedAffinity -8.53664684
REMARK CNNscore 0.260742545
REMARK CNNaffinity 6.4311595
REMARK  18 active torsions:
REMARK  status: ('A' for Active; 'I' for Inactive)
REMARK    1  A    between atoms: C2_2  and  C4_4 
REMARK    2  A    between atoms: C4_4  and  N1_5 
REMARK    3  A    between atoms: C4_4  and  C30_38 
REMARK       I    between atoms: N1_5  and  C5_6 
REMARK    4  A    between atoms: C5_6  and  C6_8 
REMARK    5  A    between atoms: C6_8  and  C7_9 
REMARK    6  A    between atoms: C7_9  and  C8_10 
REMARK    7  A    between atoms: C8_10  and  O3_12 
REMARK    8  A    between atoms: O3_12  and  C9_13 
REMARK    9  A    between atoms: C9_13  and  C10_14 
REMARK   10  A    between atoms: C10_14  and  C11_16 
REMARK   11  A    between atoms: C11_16  and  O5_17 
REMARK   12  A    between atoms: C26_33  and  O7_34 
REMARK       I    between atoms: C30_38  and  N2_40 
REMARK   13  A    between atoms: N2_40  and  C31_41 
REMARK   14  A    between atoms: C31_41  and  C32_42 
REMARK   15  A    between atoms: C32_42  and  C33_43 
REMARK   16  A    between atoms: C32_42  and  C35_47 
REMARK   17  A    between atoms: C33_43  and  C34_44 
REMARK   18  A    between atoms: C34_44  and  O10_46 
ROOT
HETATM    1  C8  UNL     1       0.060   9.983  16.890  1.00  0.00     0.259 C 
HETATM    2  O2  UNL     1      -0.659  10.976  16.903  1.00  0.00    -0.265 OA
ENDROOT
BRANCH   1   3
HETATM    3  C7  UNL     1       1.563  10.029  16.775  1.00  0.00     0.120 C 
BRANCH   3   4
HETATM    4  C6  UNL     1       2.090  11.323  16.167  1.00  0.00     0.112 C 
BRANCH   4   5
HETATM    5  C5  UNL     1       2.718  12.209  17.223  1.00  0.00     0.218 C 
HETATM    6  N1  UNL     1       1.819  13.010  17.890  1.00  0.00    -0.347 N 
HETATM    7  H9  UNL     1       0.836  12.980  17.648  1.00  0.00     0.163 HD
HETATM    8  O1  UNL     1       3.916  12.190  17.474  1.00  0.00    -0.274 OA
BRANCH   6   9
HETATM    9  C4  UNL     1       2.273  14.004  18.876  1.00  0.00     0.179 C 
BRANCH   9  10
HETATM   10  C2  UNL     1       1.429  15.296  18.744  1.00  0.00     0.009 C 
HETATM   11  C1  UNL     1       2.175  16.533  19.257  1.00  0.00     0.012 C 
HETATM   12  C3  UNL     1       1.025  15.543  17.285  1.00  0.00     0.012 C 
ENDBRANCH   9  10
BRANCH   9  13
HETATM   13  C30 UNL     1       2.170  13.422  20.308  1.00  0.00     0.240 C 
HETATM   14  O8  UNL     1       1.188  13.603  21.027  1.00  0.00    -0.271 OA
HETATM   15  N2  UNL     1       3.171  12.530  20.641  1.00  0.00    -0.359 N 
HETATM   16  H43 UNL     1       3.898  12.355  19.959  1.00  0.00     0.162 HD
BRANCH  15  17
HETATM   17  C31 UNL     1       3.064  11.650  21.792  1.00  0.00     0.132 C 
BRANCH  17  18
HETATM   18  C32 UNL     1       4.457  11.173  22.265  1.00  0.00     0.046 C 
BRANCH  18  19
HETATM   19  C33 UNL     1       4.392  10.091  23.352  1.00  0.00     0.120 C 
BRANCH  19  20
HETATM   20  C34 UNL     1       3.112   9.302  23.389  1.00  0.00     0.140 C 
HETATM   21  O9  UNL     1       2.692   8.537  22.538  1.00  0.00    -0.650 OA
BRANCH  20  22
HETATM   22  O10 UNL     1       2.442   9.477  24.543  1.00  0.00    -0.776 OA
HETATM   23  H49 UNL     1       1.649   8.908  24.456  1.00  0.00     0.167 HD
ENDBRANCH  20  22
ENDBRANCH  19  20
ENDBRANCH  18  19
BRANCH  18  24
HETATM   24  C35 UNL     1       5.410  12.306  22.632  1.00  0.00    -0.052 A 
HETATM   25  C36 UNL     1       6.796  12.116  22.735  1.00  0.00     0.007 A 
HETATM   26  C37 UNL     1       7.638  13.178  23.077  1.00  0.00     0.001 A 
HETATM   27  C38 UNL     1       7.108  14.442  23.321  1.00  0.00     0.000 A 
HETATM   28  C39 UNL     1       5.735  14.649  23.216  1.00  0.00     0.001 A 
HETATM   29  C40 UNL     1       4.895  13.592  22.867  1.00  0.00     0.007 A 
ENDBRANCH  18  24
ENDBRANCH  17  18
ENDBRANCH  15  17
ENDBRANCH   9  13
ENDBRANCH   6   9
ENDBRANCH   4   5
ENDBRANCH   3   4
ENDBRANCH   1   3
BRANCH   1  30
HETATM   30  O3  UNL     1      -0.384   8.703  17.036  1.00  0.00    -0.314 OA
BRANCH  30  31
HETATM   31  C9  UNL     1      -0.215   7.914  15.855  1.00  0.00     0.260 C 
BRANCH  31  32
HETATM   32  C10 UNL     1      -1.469   7.871  14.980  1.00  0.00     0.185 C 
HETATM   33  O4  UNL     1      -2.603   7.924  15.487  1.00  0.00    -0.292 OA
BRANCH  32  34
HETATM   34  C11 UNL     1      -1.353   7.694  13.449  1.00  0.00     0.128 C 
HETATM   35  C12 UNL     1      -2.207   8.622  12.551  1.00  0.00     0.047 C 
HETATM   36  C13 UNL     1      -1.380   8.880  11.274  1.00  0.00     0.009 C 
HETATM   37  C14 UNL     1      -0.231   7.883  11.359  1.00  0.00     0.002 C 
HETATM   38  C15 UNL     1       1.006   8.097  10.475  1.00  0.00    -0.002 C 
HETATM   39  C28 UNL     1       0.092   7.834  12.873  1.00  0.00     0.001 C 
HETATM   40  C16 UNL     1       0.601   8.256   8.993  1.00  0.00     0.010 C 
HETATM   41  C25 UNL     1       1.982   6.882  10.693  1.00  0.00     0.031 C 
HETATM   42  C17 UNL     1       1.799   8.273   8.044  1.00  0.00     0.035 C 
HETATM   43  C18 UNL     1       2.640   7.051   8.311  1.00  0.00    -0.068 C 
HETATM   44  C19 UNL     1       2.717   6.071   7.393  1.00  0.00     0.053 C 
HETATM   45  C23 UNL     1       3.225   6.961   9.728  1.00  0.00    -0.014 C 
HETATM   46  C20 UNL     1       3.263   4.737   7.738  1.00  0.00     0.149 C 
HETATM   47  O6  UNL     1       3.318   3.863   6.879  1.00  0.00    -0.293 OA
HETATM   48  C21 UNL     1       3.602   4.468   9.182  1.00  0.00     0.084 C 
HETATM   49  C22 UNL     1       4.163   5.726   9.827  1.00  0.00     0.022 C 
HETATM   50  C24 UNL     1       4.128   8.191   9.998  1.00  0.00     0.020 C 
HETATM   51  C26 UNL     1       2.294   6.646  12.201  1.00  0.00     0.124 C 
HETATM   52  C27 UNL     1       1.032   6.625  13.097  1.00  0.00     0.045 C 
HETATM   53  C29 UNL     1       0.749   9.137  13.393  1.00  0.00     0.019 C 
BRANCH  34  54
HETATM   54  O5  UNL     1      -1.823   6.349  13.186  1.00  0.00    -0.381 OA
HETATM   55  H16 UNL     1      -1.605   5.821  13.980  1.00  0.00     0.211 HD
ENDBRANCH  34  54
BRANCH  51  56
HETATM   56  O7  UNL     1       3.204   7.616  12.700  1.00  0.00    -0.395 OA
HETATM   57  H37 UNL     1       3.463   7.339  13.595  1.00  0.00     0.210 HD
ENDBRANCH  51  56
ENDBRANCH  32  34
ENDBRANCH  31  32
ENDBRANCH  30  31
ENDBRANCH   1  30
TORSDOF 18
ENDMDL
MODEL 7
REMARK minimizedAffinity -9.09244728
REMARK CNNscore 0.235049069
REMARK CNNaffinity 7.02765656
REMARK  18 active torsions:
REMARK  status: ('A' for Active; 'I' for Inactive)
REMARK    1  A    between atoms: C2_2  and  C4_4 
REMARK    2  A    between atoms: C4_4  and  N1_5 
REMARK    3  A    between atoms: C4_4  and  C30_38 
REMARK       I    between atoms: N1_5  and  C5_6 
REMARK    4  A    between atoms: C5_6  and  C6_8 
REMARK    5  A    between atoms: C6_8  and  C7_9 
REMARK    6  A    between atoms: C7_9  and  C8_10 
REMARK    7  A    between atoms: C8_10  and  O3_12 
REMARK    8  A    between atoms: O3_12  and  C9_13 
REMARK    9  A    between atoms: C9_13  and  C10_14 
REMARK   10  A    between atoms: C10_14  and  C11_16 
REMARK   11  A    between atoms: C11_16  and  O5_17 
REMARK   12  A    between atoms: C26_33  and  O7_34 
REMARK       I    between atoms: C30_38  and  N2_40 
REMARK   13  A    between atoms: N2_40  and  C31_41 
REMARK   14  A    between atoms: C31_41  and  C32_42 
REMARK   15  A    between atoms: C32_42  and  C33_43 
REMARK   16  A    between atoms: C32_42  and  C35_47 
REMARK   17  A    between atoms: C33_43  and  C34_44 
REMARK   18  A    between atoms: C34_44  and  O10_46 
ROOT
HETATM    1  C8  UNL     1      -3.275   9.832  17.085  1.00  0.00     0.259 C 
HETATM    2  O2  UNL     1      -3.907  10.269  18.040  1.00  0.00    -0.265 OA
ENDROOT
BRANCH   1   3
HETATM    3  C7  UNL     1      -3.855   9.637  15.706  1.00  0.00     0.120 C 
BRANCH   3   4
HETATM    4  C6  UNL     1      -5.308   9.177  15.714  1.00  0.00     0.112 C 
BRANCH   4   5
HETATM    5  C5  UNL     1      -5.664   8.466  14.425  1.00  0.00     0.218 C 
HETATM    6  N1  UNL     1      -6.561   7.433  14.584  1.00  0.00    -0.347 N 
HETATM    7  H9  UNL     1      -6.911   7.202  15.506  1.00  0.00     0.163 HD
HETATM    8  O1  UNL     1      -5.212   8.802  13.338  1.00  0.00    -0.274 OA
BRANCH   6   9
HETATM    9  C4  UNL     1      -6.937   6.573  13.450  1.00  0.00     0.179 C 
BRANCH   9  10
HETATM   10  C2  UNL     1      -6.297   5.172  13.621  1.00  0.00     0.009 C 
HETATM   11  C1  UNL     1      -4.836   5.252  14.079  1.00  0.00     0.012 C 
HETATM   12  C3  UNL     1      -7.079   4.330  14.637  1.00  0.00     0.012 C 
ENDBRANCH   9  10
BRANCH   9  13
HETATM   13  C30 UNL     1      -8.479   6.465  13.349  1.00  0.00     0.240 C 
HETATM   14  O8  UNL     1      -9.039   5.703  12.563  1.00  0.00    -0.271 OA
HETATM   15  N2  UNL     1      -9.169   7.140  14.337  1.00  0.00    -0.359 N 
HETATM   16  H43 UNL     1      -8.634   7.671  15.013  1.00  0.00     0.162 HD
BRANCH  15  17
HETATM   17  C31 UNL     1     -10.577   6.893  14.597  1.00  0.00     0.132 C 
BRANCH  17  18
HETATM   18  C32 UNL     1     -11.419   8.175  14.397  1.00  0.00     0.046 C 
BRANCH  18  19
HETATM   19  C33 UNL     1     -11.504   8.624  12.932  1.00  0.00     0.120 C 
BRANCH  19  20
HETATM   20  C34 UNL     1     -12.767   9.351  12.561  1.00  0.00     0.140 C 
HETATM   21  O9  UNL     1     -13.834   9.324  13.150  1.00  0.00    -0.650 OA
BRANCH  20  22
HETATM   22  O10 UNL     1     -12.602  10.135  11.480  1.00  0.00    -0.776 OA
HETATM   23  H49 UNL     1     -13.474  10.563  11.350  1.00  0.00     0.167 HD
ENDBRANCH  20  22
ENDBRANCH  19  20
ENDBRANCH  18  19
BRANCH  18  24
HETATM   24  C35 UNL     1     -11.040   9.319  15.332  1.00  0.00    -0.052 A 
HETATM   25  C36 UNL     1     -11.486   9.380  16.660  1.00  0.00     0.007 A 
HETATM   26  C37 UNL     1     -11.122  10.447  17.487  1.00  0.00     0.001 A 
HETATM   27  C38 UNL     1     -10.308  11.466  16.999  1.00  0.00     0.000 A 
HETATM   28  C39 UNL     1      -9.850  11.416  15.684  1.00  0.00     0.001 A 
HETATM   29  C40 UNL     1     -10.207  10.348  14.861  1.00  0.00     0.007 A 
ENDBRANCH  18  24
ENDBRANCH  17  18
ENDBRANCH  15  17
ENDBRANCH   9  13
ENDBRANCH   6   9
ENDBRANCH   4   5
ENDBRANCH   3   4
ENDBRANCH   1   3
BRANCH   1  30
HETATM   30  O3  UNL     1      -1.950   9.519  17.111  1.00  0.00    -0.314 OA
BRANCH  30  31
HETATM   31  C9  UNL     1      -1.346   9.536  15.815  1.00  0.00     0.260 C 
BRANCH  31  32
HETATM   32  C10 UNL     1      -1.052   8.137  15.273  1.00  0.00     0.185 C 
HETATM   33  O4  UNL     1      -0.776   7.200  16.041  1.00  0.00    -0.292 OA
BRANCH  32  34
HETATM   34  C11 UNL     1      -1.030   7.873  13.750  1.00  0.00     0.128 C 
HETATM   35  C12 UNL     1      -1.976   8.715  12.860  1.00  0.00     0.047 C 
HETATM   36  C13 UNL     1      -1.246   8.926  11.517  1.00  0.00     0.009 C 
HETATM   37  C14 UNL     1      -0.056   7.976  11.581  1.00  0.00     0.002 C 
HETATM   38  C15 UNL     1       1.111   8.179  10.605  1.00  0.00    -0.002 C 
HETATM   39  C28 UNL     1       0.368   8.028  13.069  1.00  0.00     0.001 C 
HETATM   40  C16 UNL     1       0.604   8.236   9.147  1.00  0.00     0.010 C 
HETATM   41  C25 UNL     1       2.145   7.014  10.825  1.00  0.00     0.031 C 
HETATM   42  C17 UNL     1       1.735   8.238   8.119  1.00  0.00     0.035 C 
HETATM   43  C18 UNL     1       2.638   7.064   8.398  1.00  0.00    -0.068 C 
HETATM   44  C19 UNL     1       2.693   6.035   7.534  1.00  0.00     0.053 C 
HETATM   45  C23 UNL     1       3.318   7.079   9.775  1.00  0.00    -0.014 C 
HETATM   46  C20 UNL     1       3.311   4.743   7.917  1.00  0.00     0.149 C 
HETATM   47  O6  UNL     1       3.343   3.821   7.108  1.00  0.00    -0.293 OA
HETATM   48  C21 UNL     1       3.754   4.572   9.347  1.00  0.00     0.084 C 
HETATM   49  C22 UNL     1       4.307   5.885   9.880  1.00  0.00     0.022 C 
HETATM   50  C24 UNL     1       4.189   8.353   9.912  1.00  0.00     0.020 C 
HETATM   51  C26 UNL     1       2.564   6.879  12.319  1.00  0.00     0.124 C 
HETATM   52  C27 UNL     1       1.366   6.868  13.299  1.00  0.00     0.045 C 
HETATM   53  C29 UNL     1       1.006   9.381  13.469  1.00  0.00     0.019 C 
BRANCH  34  54
HETATM   54  O5  UNL     1      -1.465   6.500  13.597  1.00  0.00    -0.381 OA
HETATM   55  H16 UNL     1      -1.175   6.027  14.403  1.00  0.00     0.211 HD
ENDBRANCH  34  54
BRANCH  51  56
HETATM   56  O7  UNL     1       3.467   7.908  12.699  1.00  0.00    -0.395 OA
HETATM   57  H37 UNL     1       3.795   7.694  13.589  1.00  0.00     0.210 HD
ENDBRANCH  51  56
ENDBRANCH  32  34
ENDBRANCH  31  32
ENDBRANCH  30  31
ENDBRANCH   1  30
TORSDOF 18
ENDMDL
MODEL 8
REMARK minimizedAffinity -9.06488323
REMARK CNNscore 0.234272778
REMARK CNNaffinity 6.90481329
REMARK  18 active torsions:
REMARK  status: ('A' for Active; 'I' for Inactive)
REMARK    1  A    between atoms: C2_2  and  C4_4 
REMARK    2  A    between atoms: C4_4  and  N1_5 
REMARK    3  A    between atoms: C4_4  and  C30_38 
REMARK       I    between atoms: N1_5  and  C5_6 
REMARK    4  A    between atoms: C5_6  and  C6_8 
REMARK    5  A    between atoms: C6_8  and  C7_9 
REMARK    6  A    between atoms: C7_9  and  C8_10 
REMARK    7  A    between atoms: C8_10  and  O3_12 
REMARK    8  A    between atoms: O3_12  and  C9_13 
REMARK    9  A    between atoms: C9_13  and  C10_14 
REMARK   10  A    between atoms: C10_14  and  C11_16 
REMARK   11  A    between atoms: C11_16  and  O5_17 
REMARK   12  A    between atoms: C26_33  and  O7_34 
REMARK       I    between atoms: C30_38  and  N2_40 
REMARK   13  A    between atoms: N2_40  and  C31_41 
REMARK   14  A    between atoms: C31_41  and  C32_42 
REMARK   15  A    between atoms: C32_42  and  C33_43 
REMARK   16  A    between atoms: C32_42  and  C35_47 
REMARK   17  A    between atoms: C33_43  and  C34_44 
REMARK   18  A    between atoms: C34_44  and  O10_46 
ROOT
HETATM    1  C8  UNL     1      -3.758   3.196  11.434  1.00  0.00     0.259 C 
HETATM    2  O2  UNL     1      -3.071   2.245  11.786  1.00  0.00    -0.265 OA
ENDROOT
BRANCH   1   3
HETATM    3  C7  UNL     1      -5.132   3.067  10.823  1.00  0.00     0.120 C 
BRANCH   3   4
HETATM    4  C6  UNL     1      -6.039   2.090  11.560  1.00  0.00     0.112 C 
BRANCH   4   5
HETATM    5  C5  UNL     1      -6.948   2.813  12.532  1.00  0.00     0.218 C 
HETATM    6  N1  UNL     1      -6.565   4.107  12.802  1.00  0.00    -0.347 N 
HETATM    7  H9  UNL     1      -5.732   4.490  12.371  1.00  0.00     0.163 HD
HETATM    8  O1  UNL     1      -7.948   2.294  13.011  1.00  0.00    -0.274 OA
BRANCH   6   9
HETATM    9  C4  UNL     1      -7.279   4.918  13.802  1.00  0.00     0.179 C 
BRANCH   9  10
HETATM   10  C2  UNL     1      -6.288   5.885  14.496  1.00  0.00     0.009 C 
HETATM   11  C1  UNL     1      -5.992   7.126  13.644  1.00  0.00     0.012 C 
HETATM   12  C3  UNL     1      -6.830   6.347  15.855  1.00  0.00     0.012 C 
ENDBRANCH   9  10
BRANCH   9  13
HETATM   13  C30 UNL     1      -8.434   5.702  13.129  1.00  0.00     0.240 C 
HETATM   14  O8  UNL     1      -8.542   5.803  11.908  1.00  0.00    -0.271 OA
HETATM   15  N2  UNL     1      -9.432   6.110  13.992  1.00  0.00    -0.359 N 
HETATM   16  H43 UNL     1      -9.322   5.906  14.977  1.00  0.00     0.162 HD
BRANCH  15  17
HETATM   17  C31 UNL     1     -10.727   6.560  13.511  1.00  0.00     0.132 C 
BRANCH  17  18
HETATM   18  C32 UNL     1     -10.897   8.085  13.701  1.00  0.00     0.046 C 
BRANCH  18  19
HETATM   19  C33 UNL     1     -10.461   8.578  15.088  1.00  0.00     0.120 C 
BRANCH  19  20
HETATM   20  C34 UNL     1      -9.587   9.801  15.084  1.00  0.00     0.140 C 
HETATM   21  O9  UNL     1      -9.949  10.966  15.077  1.00  0.00    -0.650 OA
BRANCH  20  22
HETATM   22  O10 UNL     1      -8.279   9.491  15.145  1.00  0.00    -0.776 OA
HETATM   23  H49 UNL     1      -7.820  10.357  15.154  1.00  0.00     0.167 HD
ENDBRANCH  20  22
ENDBRANCH  19  20
ENDBRANCH  18  19
BRANCH  18  24
HETATM   24  C35 UNL     1     -12.273   8.611  13.305  1.00  0.00    -0.052 A 
HETATM   25  C36 UNL     1     -13.452   7.903  13.576  1.00  0.00     0.007 A 
HETATM   26  C37 UNL     1     -14.695   8.415  13.194  1.00  0.00     0.001 A 
HETATM   27  C38 UNL     1     -14.777   9.640  12.536  1.00  0.00     0.000 A 
HETATM   28  C39 UNL     1     -13.616  10.359  12.267  1.00  0.00     0.001 A 
HETATM   29  C40 UNL     1     -12.375   9.853  12.655  1.00  0.00     0.007 A 
ENDBRANCH  18  24
ENDBRANCH  17  18
ENDBRANCH  15  17
ENDBRANCH   9  13
ENDBRANCH   6   9
ENDBRANCH   4   5
ENDBRANCH   3   4
ENDBRANCH   1   3
BRANCH   1  30
HETATM   30  O3  UNL     1      -3.413   4.504  11.596  1.00  0.00    -0.314 OA
BRANCH  30  31
HETATM   31  C9  UNL     1      -2.117   4.672  12.177  1.00  0.00     0.260 C 
BRANCH  31  32
HETATM   32  C10 UNL     1      -2.169   5.180  13.618  1.00  0.00     0.185 C 
HETATM   33  O4  UNL     1      -3.192   5.034  14.309  1.00  0.00    -0.292 OA
BRANCH  32  34
HETATM   34  C11 UNL     1      -0.971   5.944  14.226  1.00  0.00     0.128 C 
HETATM   35  C12 UNL     1       0.348   5.975  13.416  1.00  0.00     0.047 C 
HETATM   36  C13 UNL     1       1.007   7.341  13.699  1.00  0.00     0.009 C 
HETATM   37  C14 UNL     1       0.203   7.915  14.859  1.00  0.00     0.002 C 
HETATM   38  C15 UNL     1       0.307   9.416  15.165  1.00  0.00    -0.002 C 
HETATM   39  C28 UNL     1      -1.243   7.445  14.563  1.00  0.00     0.001 C 
HETATM   40  C16 UNL     1       1.783   9.841  15.332  1.00  0.00     0.010 C 
HETATM   41  C25 UNL     1      -0.542   9.715  16.455  1.00  0.00     0.031 C 
HETATM   42  C17 UNL     1       1.940  11.276  15.832  1.00  0.00     0.035 C 
HETATM   43  C18 UNL     1       1.121  11.439  17.087  1.00  0.00    -0.068 C 
HETATM   44  C19 UNL     1       1.731  11.620  18.272  1.00  0.00     0.053 C 
HETATM   45  C23 UNL     1      -0.388  11.216  16.912  1.00  0.00    -0.014 C 
HETATM   46  C20 UNL     1       0.990  11.467  19.547  1.00  0.00     0.149 C 
HETATM   47  O6  UNL     1       1.575  11.635  20.612  1.00  0.00    -0.293 OA
HETATM   48  C21 UNL     1      -0.431  10.971  19.479  1.00  0.00     0.084 C 
HETATM   49  C22 UNL     1      -1.120  11.533  18.245  1.00  0.00     0.022 C 
HETATM   50  C24 UNL     1      -0.948  12.227  15.879  1.00  0.00     0.020 C 
HETATM   51  C26 UNL     1      -1.998   9.177  16.334  1.00  0.00     0.124 C 
HETATM   52  C27 UNL     1      -2.078   7.713  15.838  1.00  0.00     0.045 C 
HETATM   53  C29 UNL     1      -1.873   8.158  13.341  1.00  0.00     0.019 C 
BRANCH  34  54
HETATM   54  O5  UNL     1      -0.661   5.247  15.457  1.00  0.00    -0.381 OA
HETATM   55  H16 UNL     1      -1.505   4.876  15.784  1.00  0.00     0.211 HD
ENDBRANCH  34  54
BRANCH  51  56
HETATM   56  O7  UNL     1      -2.786  10.000  15.485  1.00  0.00    -0.395 OA
HETATM   57  H37 UNL     1      -3.707   9.697  15.557  1.00  0.00     0.210 HD
ENDBRANCH  51  56
ENDBRANCH  32  34
ENDBRANCH  31  32
ENDBRANCH  30  31
ENDBRANCH   1  30
TORSDOF 18
ENDMDL
MODEL 9
REMARK minimizedAffinity -8.45802021
REMARK CNNscore 0.195805013
REMARK CNNaffinity 6.74630213
REMARK  18 active torsions:
REMARK  status: ('A' for Active; 'I' for Inactive)
REMARK    1  A    between atoms: C2_2  and  C4_4 
REMARK    2  A    between atoms: C4_4  and  N1_5 
REMARK    3  A    between atoms: C4_4  and  C30_38 
REMARK       I    between atoms: N1_5  and  C5_6 
REMARK    4  A    between atoms: C5_6  and  C6_8 
REMARK    5  A    between atoms: C6_8  and  C7_9 
REMARK    6  A    between atoms: C7_9  and  C8_10 
REMARK    7  A    between atoms: C8_10  and  O3_12 
REMARK    8  A    between atoms: O3_12  and  C9_13 
REMARK    9  A    between atoms: C9_13  and  C10_14 
REMARK   10  A    between atoms: C10_14  and  C11_16 
REMARK   11  A    between atoms: C11_16  and  O5_17 
REMARK   12  A    between atoms: C26_33  and  O7_34 
REMARK       I    between atoms: C30_38  and  N2_40 
REMARK   13  A    between atoms: N2_40  and  C31_41 
REMARK   14  A    between atoms: C31_41  and  C32_42 
REMARK   15  A    between atoms: C32_42  and  C33_43 
REMARK   16  A    between atoms: C32_42  and  C35_47 
REMARK   17  A    between atoms: C33_43  and  C34_44 
REMARK   18  A    between atoms: C34_44  and  O10_46 
ROOT
HETATM    1  C8  UNL     1       6.621   7.124  11.809  1.00  0.00     0.259 C 
HETATM    2  O2  UNL     1       7.807   6.940  11.559  1.00  0.00    -0.265 OA
ENDROOT
BRANCH   1   3
HETATM    3  C7  UNL     1       6.073   7.339  13.197  1.00  0.00     0.120 C 
BRANCH   3   4
HETATM    4  C6  UNL     1       7.137   7.698  14.226  1.00  0.00     0.112 C 
BRANCH   4   5
HETATM    5  C5  UNL     1       6.804   8.998  14.929  1.00  0.00     0.218 C 
HETATM    6  N1  UNL     1       5.463   9.307  14.929  1.00  0.00    -0.347 N 
HETATM    7  H9  UNL     1       4.800   8.692  14.474  1.00  0.00     0.163 HD
HETATM    8  O1  UNL     1       7.654   9.693  15.469  1.00  0.00    -0.274 OA
BRANCH   6   9
HETATM    9  C4  UNL     1       4.978  10.584  15.480  1.00  0.00     0.179 C 
BRANCH   9  10
HETATM   10  C2  UNL     1       4.500  11.503  14.329  1.00  0.00     0.009 C 
HETATM   11  C1  UNL     1       5.638  12.351  13.749  1.00  0.00     0.012 C 
HETATM   12  C3  UNL     1       3.878  10.682  13.192  1.00  0.00     0.012 C 
ENDBRANCH   9  10
BRANCH   9  13
HETATM   13  C30 UNL     1       3.834  10.328  16.493  1.00  0.00     0.240 C 
HETATM   14  O8  UNL     1       3.178   9.288  16.502  1.00  0.00    -0.271 OA
HETATM   15  N2  UNL     1       3.736  11.268  17.501  1.00  0.00    -0.359 N 
HETATM   16  H43 UNL     1       4.377  12.052  17.484  1.00  0.00     0.162 HD
BRANCH  15  17
HETATM   17  C31 UNL     1       2.955  11.029  18.702  1.00  0.00     0.132 C 
BRANCH  17  18
HETATM   18  C32 UNL     1       3.738  11.439  19.971  1.00  0.00     0.046 C 
BRANCH  18  19
HETATM   19  C33 UNL     1       5.245  11.600  19.730  1.00  0.00     0.120 C 
BRANCH  19  20
HETATM   20  C34 UNL     1       5.763  13.006  19.858  1.00  0.00     0.140 C 
HETATM   21  O9  UNL     1       6.715  13.497  19.275  1.00  0.00    -0.650 OA
BRANCH  20  22
HETATM   22  O10 UNL     1       5.009  13.752  20.686  1.00  0.00    -0.776 OA
HETATM   23  H49 UNL     1       5.430  14.637  20.673  1.00  0.00     0.167 HD
ENDBRANCH  20  22
ENDBRANCH  19  20
ENDBRANCH  18  19
BRANCH  18  24
HETATM   24  C35 UNL     1       3.435  10.578  21.193  1.00  0.00    -0.052 A 
HETATM   25  C36 UNL     1       4.095  10.756  22.418  1.00  0.00     0.007 A 
HETATM   26  C37 UNL     1       3.794   9.945  23.515  1.00  0.00     0.001 A 
HETATM   27  C38 UNL     1       2.830   8.945  23.405  1.00  0.00     0.000 A 
HETATM   28  C39 UNL     1       2.160   8.761  22.198  1.00  0.00     0.001 A 
HETATM   29  C40 UNL     1       2.455   9.575  21.104  1.00  0.00     0.007 A 
ENDBRANCH  18  24
ENDBRANCH  17  18
ENDBRANCH  15  17
ENDBRANCH   9  13
ENDBRANCH   6   9
ENDBRANCH   4   5
ENDBRANCH   3   4
ENDBRANCH   1   3
BRANCH   1  30
HETATM   30  O3  UNL     1       5.638   7.222  10.870  1.00  0.00    -0.314 OA
BRANCH  30  31
HETATM   31  C9  UNL     1       4.828   6.046  10.784  1.00  0.00     0.260 C 
BRANCH  31  32
HETATM   32  C10 UNL     1       3.621   6.217   9.860  1.00  0.00     0.185 C 
HETATM   33  O4  UNL     1       3.532   5.572   8.802  1.00  0.00    -0.292 OA
BRANCH  32  34
HETATM   34  C11 UNL     1       2.517   7.247  10.192  1.00  0.00     0.128 C 
HETATM   35  C12 UNL     1       1.546   7.651   9.057  1.00  0.00     0.047 C 
HETATM   36  C13 UNL     1       0.179   7.919   9.722  1.00  0.00     0.009 C 
HETATM   37  C14 UNL     1       0.482   7.938  11.214  1.00  0.00     0.002 C 
HETATM   38  C15 UNL     1      -0.677   7.790  12.211  1.00  0.00    -0.002 C 
HETATM   39  C28 UNL     1       1.575   6.852  11.374  1.00  0.00     0.001 C 
HETATM   40  C16 UNL     1      -1.785   8.827  11.921  1.00  0.00     0.010 C 
HETATM   41  C25 UNL     1      -0.097   7.938  13.666  1.00  0.00     0.031 C 
HETATM   42  C17 UNL     1      -2.870   8.860  12.996  1.00  0.00     0.035 C 
HETATM   43  C18 UNL     1      -2.208   9.045  14.338  1.00  0.00    -0.068 C 
HETATM   44  C19 UNL     1      -2.372  10.193  15.019  1.00  0.00     0.053 C 
HETATM   45  C23 UNL     1      -1.242   7.922  14.747  1.00  0.00    -0.014 C 
HETATM   46  C20 UNL     1      -1.500  10.534  16.169  1.00  0.00     0.149 C 
HETATM   47  O6  UNL     1      -1.671  11.591  16.768  1.00  0.00    -0.293 OA
HETATM   48  C21 UNL     1      -0.339   9.620  16.466  1.00  0.00     0.084 C 
HETATM   49  C22 UNL     1      -0.731   8.176  16.192  1.00  0.00     0.022 C 
HETATM   50  C24 UNL     1      -2.005   6.575  14.807  1.00  0.00     0.020 C 
HETATM   51  C26 UNL     1       1.102   6.976  13.918  1.00  0.00     0.124 C 
HETATM   52  C27 UNL     1       2.167   7.008  12.795  1.00  0.00     0.045 C 
HETATM   53  C29 UNL     1       1.035   5.415  11.166  1.00  0.00     0.019 C 
BRANCH  34  54
HETATM   54  O5  UNL     1       3.225   8.457  10.555  1.00  0.00    -0.381 OA
HETATM   55  H16 UNL     1       4.072   8.173  10.952  1.00  0.00     0.211 HD
ENDBRANCH  34  54
BRANCH  51  56
HETATM   56  O7  UNL     1       0.663   5.638  14.104  1.00  0.00    -0.395 OA
HETATM   57  H37 UNL     1       1.431   5.116  14.390  1.00  0.00     0.210 HD
ENDBRANCH  51  56
ENDBRANCH  32  34
ENDBRANCH  31  32
ENDBRANCH  30  31
ENDBRANCH   1  30
TORSDOF 18
ENDMDL
