MODEL 1
REMARK minimizedAffinity -7.41757774
REMARK CNNscore 0.722236216
REMARK CNNaffinity 6.81451654
REMARK  13 active torsions:
REMARK  status: ('A' for Active; 'I' for Inactive)
REMARK    1  A    between atoms: C2_2  and  C3_3 
REMARK    2  A    between atoms: C2_2  and  C4_5 
REMARK    3  A    between atoms: C3_3  and  O1_4 
REMARK    4  A    between atoms: C4_5  and  C5_6 
REMARK    5  A    between atoms: C5_6  and  C6_7 
REMARK    6  A    between atoms: C6_7  and  O2_8 
REMARK    7  A    between atoms: C6_7  and  C7_9 
REMARK    8  A    between atoms: C7_9  and  C9_11 
REMARK    9  A    between atoms: C10_12  and  O3_13 
REMARK   10  A    between atoms: O3_13  and  C11_14 
REMARK   11  A    between atoms: C13_17  and  O5_18 
REMARK   12  A    between atoms: C14_19  and  O6_20 
REMARK   13  A    between atoms: C15_21  and  O7_22 
ROOT
HETATM    1  C9  UNL     1      13.491  42.534 -26.096  1.00  0.00     0.029 C 
HETATM    2  C10 UNL     1      12.567  41.626 -26.965  1.00  0.00     0.130 C 
HETATM    3  C16 UNL     1      11.832  40.704 -25.963  1.00  0.00     0.038 C 
HETATM    4  C17 UNL     1      12.100  41.336 -24.604  1.00  0.00     0.001 C 
HETATM    5  C18 UNL     1      11.828  40.514 -23.340  1.00  0.00    -0.004 C 
HETATM    6  C19 UNL     1      10.383  39.984 -23.297  1.00  0.00     0.010 C 
HETATM    7  C20 UNL     1      10.055  39.282 -21.977  1.00  0.00     0.035 C 
HETATM    8  C21 UNL     1      10.393  40.207 -20.832  1.00  0.00    -0.068 C 
HETATM    9  C22 UNL     1       9.411  40.703 -20.058  1.00  0.00     0.053 C 
HETATM   10  C23 UNL     1       9.659  41.831 -19.131  1.00  0.00     0.149 C 
HETATM   11  O8  UNL     1       8.760  42.215 -18.388  1.00  0.00    -0.293 OA
HETATM   12  C24 UNL     1      10.989  42.533 -19.228  1.00  0.00     0.084 C 
HETATM   13  C25 UNL     1      12.085  41.512 -19.474  1.00  0.00     0.022 C 
HETATM   14  C26 UNL     1      11.862  40.643 -20.746  1.00  0.00    -0.016 C 
HETATM   15  C27 UNL     1      12.790  39.413 -20.568  1.00  0.00     0.020 C 
HETATM   16  C28 UNL     1      12.157  41.405 -22.088  1.00  0.00     0.002 C 
HETATM   17  C29 UNL     1      13.573  42.029 -22.175  1.00  0.00     0.007 C 
HETATM   18  C30 UNL     1      13.859  42.722 -23.522  1.00  0.00     0.010 C 
HETATM   19  C31 UNL     1      13.572  41.801 -24.719  1.00  0.00    -0.034 C 
HETATM   20  C32 UNL     1      14.582  40.636 -24.710  1.00  0.00     0.016 C 
ENDROOT
BRANCH   2  21
HETATM   21  O3  UNL     1      13.290  40.864 -27.915  1.00  0.00    -0.353 OA
BRANCH  21  22
HETATM   22  C11 UNL     1      12.527  40.548 -29.088  1.00  0.00     0.291 C 
HETATM   23  O4  UNL     1      13.384  40.071 -30.122  1.00  0.00    -0.356 OA
HETATM   24  C12 UNL     1      12.673  39.767 -31.315  1.00  0.00     0.205 C 
HETATM   25  C13 UNL     1      12.027  41.019 -31.894  1.00  0.00     0.173 C 
HETATM   26  C14 UNL     1      11.098  41.668 -30.864  1.00  0.00     0.182 C 
HETATM   27  C15 UNL     1      11.783  41.836 -29.502  1.00  0.00     0.204 C 
BRANCH  25  28
HETATM   28  O5  UNL     1      11.290  40.720 -33.086  1.00  0.00    -0.391 OA
HETATM   29  H24 UNL     1      10.580  40.091 -32.863  1.00  0.00     0.210 HD
ENDBRANCH  25  28
BRANCH  26  30
HETATM   30  O6  UNL     1      10.672  42.942 -31.377  1.00  0.00    -0.390 OA
HETATM   31  H26 UNL     1      10.400  42.790 -32.301  1.00  0.00     0.210 HD
ENDBRANCH  26  30
BRANCH  27  32
HETATM   32  O7  UNL     1      10.781  42.143 -28.513  1.00  0.00    -0.388 OA
HETATM   33  H28 UNL     1      11.258  42.192 -27.652  1.00  0.00     0.210 HD
ENDBRANCH  27  32
ENDBRANCH  21  22
ENDBRANCH   2  21
BRANCH   1  34
HETATM   34  C7  UNL     1      14.777  43.166 -26.712  1.00  0.00     0.017 C 
HETATM   35  C8  UNL     1      16.008  42.397 -26.196  1.00  0.00     0.013 C 
BRANCH  34  36
HETATM   36  C6  UNL     1      14.991  44.702 -26.585  1.00  0.00     0.122 C 
BRANCH  36  37
HETATM   37  C5  UNL     1      16.388  45.074 -26.040  1.00  0.00     0.032 C 
BRANCH  37  38
HETATM   38  C4  UNL     1      17.425  45.382 -27.129  1.00  0.00     0.009 C 
BRANCH  38  39
HETATM   39  C2  UNL     1      18.850  45.586 -26.574  1.00  0.00     0.005 C 
HETATM   40  C1  UNL     1      19.358  44.337 -25.847  1.00  0.00     0.012 C 
BRANCH  39  41
HETATM   41  C3  UNL     1      18.896  46.803 -25.635  1.00  0.00     0.168 C 
BRANCH  41  42
HETATM   42  O1  UNL     1      19.977  47.660 -25.972  1.00  0.00    -0.400 OA
HETATM   43  H7  UNL     1      19.941  48.418 -25.363  1.00  0.00     0.209 HD
ENDBRANCH  41  42
ENDBRANCH  39  41
ENDBRANCH  38  39
ENDBRANCH  37  38
ENDBRANCH  36  37
BRANCH  36  44
HETATM   44  O2  UNL     1      14.042  45.281 -25.680  1.00  0.00    -0.395 OA
HETATM   45  H13 UNL     1      14.167  46.247 -25.733  1.00  0.00     0.210 HD
ENDBRANCH  36  44
ENDBRANCH  34  36
ENDBRANCH   1  34
TORSDOF 13
ENDMDL
MODEL 2
REMARK minimizedAffinity -8.26349735
REMARK CNNscore 0.566698313
REMARK CNNaffinity 6.91010427
REMARK  13 active torsions:
REMARK  status: ('A' for Active; 'I' for Inactive)
REMARK    1  A    between atoms: C2_2  and  C3_3 
REMARK    2  A    between atoms: C2_2  and  C4_5 
REMARK    3  A    between atoms: C3_3  and  O1_4 
REMARK    4  A    between atoms: C4_5  and  C5_6 
REMARK    5  A    between atoms: C5_6  and  C6_7 
REMARK    6  A    between atoms: C6_7  and  O2_8 
REMARK    7  A    between atoms: C6_7  and  C7_9 
REMARK    8  A    between atoms: C7_9  and  C9_11 
REMARK    9  A    between atoms: C10_12  and  O3_13 
REMARK   10  A    between atoms: O3_13  and  C11_14 
REMARK   11  A    between atoms: C13_17  and  O5_18 
REMARK   12  A    between atoms: C14_19  and  O6_20 
REMARK   13  A    between atoms: C15_21  and  O7_22 
ROOT
HETATM    1  C9  UNL     1      -1.126  49.392 -18.981  1.00  0.00     0.029 C 
HETATM    2  C10 UNL     1      -1.994  48.126 -19.261  1.00  0.00     0.130 C 
HETATM    3  C16 UNL     1      -2.502  48.285 -20.714  1.00  0.00     0.038 C 
HETATM    4  C17 UNL     1      -1.655  49.413 -21.287  1.00  0.00     0.001 C 
HETATM    5  C18 UNL     1      -2.105  50.090 -22.586  1.00  0.00    -0.004 C 
HETATM    6  C19 UNL     1      -2.304  49.072 -23.725  1.00  0.00     0.010 C 
HETATM    7  C20 UNL     1      -2.615  49.746 -25.064  1.00  0.00     0.035 C 
HETATM    8  C21 UNL     1      -1.550  50.776 -25.355  1.00  0.00    -0.068 C 
HETATM    9  C22 UNL     1      -0.706  50.594 -26.386  1.00  0.00     0.053 C 
HETATM   10  C23 UNL     1       0.524  51.409 -26.524  1.00  0.00     0.149 C 
HETATM   11  O8  UNL     1       1.238  51.267 -27.513  1.00  0.00    -0.293 OA
HETATM   12  C24 UNL     1       0.900  52.304 -25.371  1.00  0.00     0.084 C 
HETATM   13  C25 UNL     1      -0.353  52.934 -24.788  1.00  0.00     0.022 C 
HETATM   14  C26 UNL     1      -1.416  51.899 -24.318  1.00  0.00    -0.016 C 
HETATM   15  C27 UNL     1      -2.740  52.698 -24.201  1.00  0.00     0.020 C 
HETATM   16  C28 UNL     1      -1.046  51.186 -22.967  1.00  0.00     0.002 C 
HETATM   17  C29 UNL     1      -0.760  52.152 -21.789  1.00  0.00     0.007 C 
HETATM   18  C30 UNL     1      -0.455  51.430 -20.462  1.00  0.00     0.010 C 
HETATM   19  C31 UNL     1      -1.538  50.401 -20.100  1.00  0.00    -0.034 C 
HETATM   20  C32 UNL     1      -2.854  51.143 -19.793  1.00  0.00     0.016 C 
ENDROOT
BRANCH   2  21
HETATM   21  O3  UNL     1      -3.078  47.998 -18.358  1.00  0.00    -0.353 OA
BRANCH  21  22
HETATM   22  C11 UNL     1      -2.946  46.884 -17.465  1.00  0.00     0.291 C 
HETATM   23  O4  UNL     1      -3.137  45.660 -18.169  1.00  0.00    -0.356 OA
HETATM   24  C12 UNL     1      -3.039  44.527 -17.317  1.00  0.00     0.205 C 
HETATM   25  C13 UNL     1      -4.139  44.544 -16.263  1.00  0.00     0.173 C 
HETATM   26  C14 UNL     1      -4.078  45.838 -15.447  1.00  0.00     0.182 C 
HETATM   27  C15 UNL     1      -3.991  47.078 -16.345  1.00  0.00     0.204 C 
BRANCH  25  28
HETATM   28  O5  UNL     1      -4.036  43.416 -15.385  1.00  0.00    -0.391 OA
HETATM   29  H24 UNL     1      -3.178  43.457 -14.925  1.00  0.00     0.210 HD
ENDBRANCH  25  28
BRANCH  26  30
HETATM   30  O6  UNL     1      -5.244  45.901 -14.609  1.00  0.00    -0.390 OA
HETATM   31  H26 UNL     1      -5.331  45.025 -14.190  1.00  0.00     0.210 HD
ENDBRANCH  26  30
BRANCH  27  32
HETATM   32  O7  UNL     1      -3.617  48.211 -15.538  1.00  0.00    -0.388 OA
HETATM   33  H28 UNL     1      -3.525  48.968 -16.163  1.00  0.00     0.210 HD
ENDBRANCH  27  32
ENDBRANCH  21  22
ENDBRANCH   2  21
BRANCH   1  34
HETATM   34  C7  UNL     1      -0.922  49.898 -17.520  1.00  0.00     0.017 C 
HETATM   35  C8  UNL     1      -2.054  50.884 -17.171  1.00  0.00     0.013 C 
BRANCH  34  36
HETATM   36  C6  UNL     1       0.463  50.480 -17.115  1.00  0.00     0.122 C 
BRANCH  36  37
HETATM   37  C5  UNL     1       0.794  50.268 -15.621  1.00  0.00     0.032 C 
BRANCH  37  38
HETATM   38  C4  UNL     1       0.894  51.568 -14.811  1.00  0.00     0.009 C 
BRANCH  38  39
HETATM   39  C2  UNL     1      -0.346  51.837 -13.934  1.00  0.00     0.005 C 
HETATM   40  C1  UNL     1       0.014  52.621 -12.668  1.00  0.00     0.012 C 
BRANCH  39  41
HETATM   41  C3  UNL     1      -1.042  50.517 -13.561  1.00  0.00     0.168 C 
BRANCH  41  42
HETATM   42  O1  UNL     1      -2.094  50.744 -12.634  1.00  0.00    -0.400 OA
HETATM   43  H7  UNL     1      -2.508  49.882 -12.456  1.00  0.00     0.209 HD
ENDBRANCH  41  42
ENDBRANCH  39  41
ENDBRANCH  38  39
ENDBRANCH  37  38
ENDBRANCH  36  37
BRANCH  36  44
HETATM   44  O2  UNL     1       0.511  51.895 -17.338  1.00  0.00    -0.395 OA
HETATM   45  H13 UNL     1       1.432  52.169 -17.166  1.00  0.00     0.210 HD
ENDBRANCH  36  44
ENDBRANCH  34  36
ENDBRANCH   1  34
TORSDOF 13
ENDMDL
MODEL 3
REMARK minimizedAffinity -8.67212868
REMARK CNNscore 0.563762367
REMARK CNNaffinity 7.06264353
REMARK  13 active torsions:
REMARK  status: ('A' for Active; 'I' for Inactive)
REMARK    1  A    between atoms: C2_2  and  C3_3 
REMARK    2  A    between atoms: C2_2  and  C4_5 
REMARK    3  A    between atoms: C3_3  and  O1_4 
REMARK    4  A    between atoms: C4_5  and  C5_6 
REMARK    5  A    between atoms: C5_6  and  C6_7 
REMARK    6  A    between atoms: C6_7  and  O2_8 
REMARK    7  A    between atoms: C6_7  and  C7_9 
REMARK    8  A    between atoms: C7_9  and  C9_11 
REMARK    9  A    between atoms: C10_12  and  O3_13 
REMARK   10  A    between atoms: O3_13  and  C11_14 
REMARK   11  A    between atoms: C13_17  and  O5_18 
REMARK   12  A    between atoms: C14_19  and  O6_20 
REMARK   13  A    between atoms: C15_21  and  O7_22 
ROOT
HETATM    1  C9  UNL     1      -0.846  49.131 -18.949  1.00  0.00     0.029 C 
HETATM    2  C10 UNL     1      -2.022  48.122 -19.133  1.00  0.00     0.130 C 
HETATM    3  C16 UNL     1      -2.667  48.483 -20.493  1.00  0.00     0.038 C 
HETATM    4  C17 UNL     1      -1.659  49.414 -21.152  1.00  0.00     0.001 C 
HETATM    5  C18 UNL     1      -2.104  50.254 -22.354  1.00  0.00    -0.004 C 
HETATM    6  C19 UNL     1      -2.693  49.382 -23.479  1.00  0.00     0.010 C 
HETATM    7  C20 UNL     1      -3.010  50.189 -24.740  1.00  0.00     0.035 C 
HETATM    8  C21 UNL     1      -1.778  50.958 -25.155  1.00  0.00    -0.068 C 
HETATM    9  C22 UNL     1      -1.148  50.646 -26.302  1.00  0.00     0.053 C 
HETATM   10  C23 UNL     1       0.211  51.158 -26.595  1.00  0.00     0.149 C 
HETATM   11  O8  UNL     1       0.730  50.913 -27.680  1.00  0.00    -0.293 OA
HETATM   12  C24 UNL     1       0.942  51.869 -25.485  1.00  0.00     0.084 C 
HETATM   13  C25 UNL     1      -0.033  52.738 -24.711  1.00  0.00     0.022 C 
HETATM   14  C26 UNL     1      -1.241  51.954 -24.119  1.00  0.00    -0.016 C 
HETATM   15  C27 UNL     1      -2.306  53.032 -23.790  1.00  0.00     0.020 C 
HETATM   16  C28 UNL     1      -0.874  51.094 -22.856  1.00  0.00     0.002 C 
HETATM   17  C29 UNL     1      -0.209  51.893 -21.705  1.00  0.00     0.007 C 
HETATM   18  C30 UNL     1       0.089  51.041 -20.456  1.00  0.00     0.010 C 
HETATM   19  C31 UNL     1      -1.150  50.274 -19.969  1.00  0.00    -0.034 C 
HETATM   20  C32 UNL     1      -2.196  51.283 -19.455  1.00  0.00     0.016 C 
ENDROOT
BRANCH   2  21
HETATM   21  O3  UNL     1      -2.973  48.197 -18.087  1.00  0.00    -0.353 OA
BRANCH  21  22
HETATM   22  C11 UNL     1      -4.321  47.980 -18.528  1.00  0.00     0.291 C 
HETATM   23  O4  UNL     1      -4.871  49.186 -19.051  1.00  0.00    -0.356 OA
HETATM   24  C12 UNL     1      -6.216  49.025 -19.479  1.00  0.00     0.205 C 
HETATM   25  C13 UNL     1      -7.119  48.663 -18.306  1.00  0.00     0.173 C 
HETATM   26  C14 UNL     1      -6.616  47.392 -17.616  1.00  0.00     0.182 C 
HETATM   27  C15 UNL     1      -5.115  47.461 -17.310  1.00  0.00     0.204 C 
BRANCH  25  28
HETATM   28  O5  UNL     1      -8.475  48.477 -18.730  1.00  0.00    -0.391 OA
HETATM   29  H24 UNL     1      -8.503  47.741 -19.369  1.00  0.00     0.210 HD
ENDBRANCH  25  28
BRANCH  26  30
HETATM   30  O6  UNL     1      -7.371  47.204 -16.406  1.00  0.00    -0.390 OA
HETATM   31  H26 UNL     1      -8.308  47.332 -16.643  1.00  0.00     0.210 HD
ENDBRANCH  26  30
BRANCH  27  32
HETATM   32  O7  UNL     1      -4.649  46.142 -16.968  1.00  0.00    -0.388 OA
HETATM   33  H28 UNL     1      -3.677  46.227 -16.830  1.00  0.00     0.210 HD
ENDBRANCH  27  32
ENDBRANCH  21  22
ENDBRANCH   2  21
BRANCH   1  34
HETATM   34  C7  UNL     1      -0.333  49.486 -17.520  1.00  0.00     0.017 C 
HETATM   35  C8  UNL     1      -0.989  48.533 -16.502  1.00  0.00     0.013 C 
BRANCH  34  36
HETATM   36  C6  UNL     1      -0.426  50.962 -17.035  1.00  0.00     0.122 C 
BRANCH  36  37
HETATM   37  C5  UNL     1       0.953  51.644 -16.904  1.00  0.00     0.032 C 
BRANCH  37  38
HETATM   38  C4  UNL     1       1.179  52.349 -15.559  1.00  0.00     0.009 C 
BRANCH  38  39
HETATM   39  C2  UNL     1       2.558  52.045 -14.936  1.00  0.00     0.005 C 
HETATM   40  C1  UNL     1       3.692  52.249 -15.944  1.00  0.00     0.012 C 
BRANCH  39  41
HETATM   41  C3  UNL     1       2.595  50.614 -14.375  1.00  0.00     0.168 C 
BRANCH  41  42
HETATM   42  O1  UNL     1       1.566  50.420 -13.415  1.00  0.00    -0.400 OA
HETATM   43  H7  UNL     1       1.626  49.496 -13.116  1.00  0.00     0.209 HD
ENDBRANCH  41  42
ENDBRANCH  39  41
ENDBRANCH  38  39
ENDBRANCH  37  38
ENDBRANCH  36  37
BRANCH  36  44
HETATM   44  O2  UNL     1      -1.036  51.040 -15.740  1.00  0.00    -0.395 OA
HETATM   45  H13 UNL     1      -1.158  51.989 -15.551  1.00  0.00     0.210 HD
ENDBRANCH  36  44
ENDBRANCH  34  36
ENDBRANCH   1  34
TORSDOF 13
ENDMDL
MODEL 4
REMARK minimizedAffinity -8.63023949
REMARK CNNscore 0.527925313
REMARK CNNaffinity 6.89299393
REMARK  13 active torsions:
REMARK  status: ('A' for Active; 'I' for Inactive)
REMARK    1  A    between atoms: C2_2  and  C3_3 
REMARK    2  A    between atoms: C2_2  and  C4_5 
REMARK    3  A    between atoms: C3_3  and  O1_4 
REMARK    4  A    between atoms: C4_5  and  C5_6 
REMARK    5  A    between atoms: C5_6  and  C6_7 
REMARK    6  A    between atoms: C6_7  and  O2_8 
REMARK    7  A    between atoms: C6_7  and  C7_9 
REMARK    8  A    between atoms: C7_9  and  C9_11 
REMARK    9  A    between atoms: C10_12  and  O3_13 
REMARK   10  A    between atoms: O3_13  and  C11_14 
REMARK   11  A    between atoms: C13_17  and  O5_18 
REMARK   12  A    between atoms: C14_19  and  O6_20 
REMARK   13  A    between atoms: C15_21  and  O7_22 
ROOT
HETATM    1  C9  UNL     1      -5.852  49.330 -22.824  1.00  0.00     0.029 C 
HETATM    2  C10 UNL     1      -6.725  49.730 -21.594  1.00  0.00     0.130 C 
HETATM    3  C16 UNL     1      -5.723  50.190 -20.508  1.00  0.00     0.038 C 
HETATM    4  C17 UNL     1      -4.407  50.353 -21.256  1.00  0.00     0.001 C 
HETATM    5  C18 UNL     1      -3.107  50.458 -20.451  1.00  0.00    -0.004 C 
HETATM    6  C19 UNL     1      -3.163  51.595 -19.413  1.00  0.00     0.010 C 
HETATM    7  C20 UNL     1      -1.824  51.803 -18.700  1.00  0.00     0.035 C 
HETATM    8  C21 UNL     1      -0.739  51.984 -19.735  1.00  0.00    -0.068 C 
HETATM    9  C22 UNL     1      -0.117  53.171 -19.854  1.00  0.00     0.053 C 
HETATM   10  C23 UNL     1       0.724  53.482 -21.033  1.00  0.00     0.149 C 
HETATM   11  O8  UNL     1       1.334  54.546 -21.079  1.00  0.00    -0.293 OA
HETATM   12  C24 UNL     1       0.698  52.509 -22.184  1.00  0.00     0.084 C 
HETATM   13  C25 UNL     1       0.658  51.089 -21.648  1.00  0.00     0.022 C 
HETATM   14  C26 UNL     1      -0.545  50.808 -20.701  1.00  0.00    -0.016 C 
HETATM   15  C27 UNL     1      -0.164  49.519 -19.927  1.00  0.00     0.020 C 
HETATM   16  C28 UNL     1      -1.914  50.649 -21.456  1.00  0.00     0.002 C 
HETATM   17  C29 UNL     1      -1.914  49.569 -22.568  1.00  0.00     0.007 C 
HETATM   18  C30 UNL     1      -3.282  49.392 -23.255  1.00  0.00     0.010 C 
HETATM   19  C31 UNL     1      -4.413  49.159 -22.242  1.00  0.00    -0.034 C 
HETATM   20  C32 UNL     1      -4.197  47.798 -21.551  1.00  0.00     0.016 C 
ENDROOT
BRANCH   2  21
HETATM   21  O3  UNL     1      -7.524  48.660 -21.123  1.00  0.00    -0.353 OA
BRANCH  21  22
HETATM   22  C11 UNL     1      -7.660  48.639 -19.695  1.00  0.00     0.291 C 
HETATM   23  O4  UNL     1      -6.504  48.060 -19.096  1.00  0.00    -0.356 OA
HETATM   24  C12 UNL     1      -6.605  47.996 -17.680  1.00  0.00     0.205 C 
HETATM   25  C13 UNL     1      -7.756  47.090 -17.259  1.00  0.00     0.173 C 
HETATM   26  C14 UNL     1      -9.072  47.577 -17.871  1.00  0.00     0.182 C 
HETATM   27  C15 UNL     1      -8.941  47.838 -19.377  1.00  0.00     0.204 C 
BRANCH  25  28
HETATM   28  O5  UNL     1      -7.880  47.035 -15.832  1.00  0.00    -0.391 OA
HETATM   29  H24 UNL     1      -8.067  47.933 -15.501  1.00  0.00     0.210 HD
ENDBRANCH  25  28
BRANCH  26  30
HETATM   30  O6  UNL     1     -10.084  46.588 -17.615  1.00  0.00    -0.390 OA
HETATM   31  H26 UNL     1     -10.005  46.349 -16.673  1.00  0.00     0.210 HD
ENDBRANCH  26  30
BRANCH  27  32
HETATM   32  O7  UNL     1     -10.090  48.585 -19.820  1.00  0.00    -0.388 OA
HETATM   33  H28 UNL     1      -9.938  48.770 -20.776  1.00  0.00     0.210 HD
ENDBRANCH  27  32
ENDBRANCH  21  22
ENDBRANCH   2  21
BRANCH   1  34
HETATM   34  C7  UNL     1      -6.390  48.306 -23.870  1.00  0.00     0.017 C 
HETATM   35  C8  UNL     1      -5.467  48.320 -25.103  1.00  0.00     0.013 C 
BRANCH  34  36
HETATM   36  C6  UNL     1      -7.884  48.385 -24.297  1.00  0.00     0.122 C 
BRANCH  36  37
HETATM   37  C5  UNL     1      -8.264  47.336 -25.366  1.00  0.00     0.032 C 
BRANCH  37  38
HETATM   38  C4  UNL     1      -8.991  47.919 -26.586  1.00  0.00     0.009 C 
BRANCH  38  39
HETATM   39  C2  UNL     1      -8.589  47.245 -27.914  1.00  0.00     0.005 C 
HETATM   40  C1  UNL     1      -7.499  46.190 -27.706  1.00  0.00     0.012 C 
BRANCH  39  41
HETATM   41  C3  UNL     1      -8.123  48.297 -28.935  1.00  0.00     0.168 C 
BRANCH  41  42
HETATM   42  O1  UNL     1      -8.831  49.516 -28.764  1.00  0.00    -0.400 OA
HETATM   43  H7  UNL     1      -8.478  50.145 -29.418  1.00  0.00     0.209 HD
ENDBRANCH  41  42
ENDBRANCH  39  41
ENDBRANCH  38  39
ENDBRANCH  37  38
ENDBRANCH  36  37
BRANCH  36  44
HETATM   44  O2  UNL     1      -8.189  49.665 -24.867  1.00  0.00    -0.395 OA
HETATM   45  H13 UNL     1      -9.154  49.679 -25.010  1.00  0.00     0.210 HD
ENDBRANCH  36  44
ENDBRANCH  34  36
ENDBRANCH   1  34
TORSDOF 13
ENDMDL
MODEL 5
REMARK minimizedAffinity -9.19289875
REMARK CNNscore 0.520681977
REMARK CNNaffinity 6.95774031
REMARK  13 active torsions:
REMARK  status: ('A' for Active; 'I' for Inactive)
REMARK    1  A    between atoms: C2_2  and  C3_3 
REMARK    2  A    between atoms: C2_2  and  C4_5 
REMARK    3  A    between atoms: C3_3  and  O1_4 
REMARK    4  A    between atoms: C4_5  and  C5_6 
REMARK    5  A    between atoms: C5_6  and  C6_7 
REMARK    6  A    between atoms: C6_7  and  O2_8 
REMARK    7  A    between atoms: C6_7  and  C7_9 
REMARK    8  A    between atoms: C7_9  and  C9_11 
REMARK    9  A    between atoms: C10_12  and  O3_13 
REMARK   10  A    between atoms: O3_13  and  C11_14 
REMARK   11  A    between atoms: C13_17  and  O5_18 
REMARK   12  A    between atoms: C14_19  and  O6_20 
REMARK   13  A    between atoms: C15_21  and  O7_22 
ROOT
HETATM    1  C9  UNL     1      -6.151  49.893 -22.722  1.00  0.00     0.029 C 
HETATM    2  C10 UNL     1      -6.832  49.784 -21.324  1.00  0.00     0.130 C 
HETATM    3  C16 UNL     1      -5.681  49.889 -20.294  1.00  0.00     0.038 C 
HETATM    4  C17 UNL     1      -4.491  50.379 -21.108  1.00  0.00     0.001 C 
HETATM    5  C18 UNL     1      -3.087  50.267 -20.506  1.00  0.00    -0.004 C 
HETATM    6  C19 UNL     1      -2.992  50.961 -19.134  1.00  0.00     0.010 C 
HETATM    7  C20 UNL     1      -1.563  50.981 -18.585  1.00  0.00     0.035 C 
HETATM    8  C21 UNL     1      -0.645  51.575 -19.627  1.00  0.00    -0.068 C 
HETATM    9  C22 UNL     1      -0.052  52.761 -19.400  1.00  0.00     0.053 C 
HETATM   10  C23 UNL     1       0.603  53.514 -20.494  1.00  0.00     0.149 C 
HETATM   11  O8  UNL     1       1.196  54.559 -20.241  1.00  0.00    -0.293 OA
HETATM   12  C24 UNL     1       0.410  53.008 -21.900  1.00  0.00     0.084 C 
HETATM   13  C25 UNL     1       0.456  51.491 -21.905  1.00  0.00     0.022 C 
HETATM   14  C26 UNL     1      -0.592  50.827 -20.965  1.00  0.00    -0.016 C 
HETATM   15  C27 UNL     1      -0.095  49.372 -20.761  1.00  0.00     0.020 C 
HETATM   16  C28 UNL     1      -2.058  50.867 -21.531  1.00  0.00     0.002 C 
HETATM   17  C29 UNL     1      -2.219  50.249 -22.943  1.00  0.00     0.007 C 
HETATM   18  C30 UNL     1      -3.673  50.248 -23.453  1.00  0.00     0.010 C 
HETATM   19  C31 UNL     1      -4.640  49.609 -22.443  1.00  0.00    -0.034 C 
HETATM   20  C32 UNL     1      -4.318  48.107 -22.320  1.00  0.00     0.016 C 
ENDROOT
BRANCH   2  21
HETATM   21  O3  UNL     1      -7.548  48.574 -21.158  1.00  0.00    -0.353 OA
BRANCH  21  22
HETATM   22  C11 UNL     1      -8.536  48.635 -20.121  1.00  0.00     0.291 C 
HETATM   23  O4  UNL     1      -8.054  49.406 -19.024  1.00  0.00    -0.356 OA
HETATM   24  C12 UNL     1      -8.992  49.475 -17.958  1.00  0.00     0.205 C 
HETATM   25  C13 UNL     1      -9.252  48.091 -17.375  1.00  0.00     0.173 C 
HETATM   26  C14 UNL     1      -9.743  47.134 -18.465  1.00  0.00     0.182 C 
HETATM   27  C15 UNL     1      -8.850  47.180 -19.711  1.00  0.00     0.204 C 
BRANCH  25  28
HETATM   28  O5  UNL     1     -10.213  48.146 -16.314  1.00  0.00    -0.391 OA
HETATM   29  H24 UNL     1     -11.054  48.483 -16.673  1.00  0.00     0.210 HD
ENDBRANCH  25  28
BRANCH  26  30
HETATM   30  O6  UNL     1      -9.781  45.805 -17.918  1.00  0.00    -0.390 OA
HETATM   31  H26 UNL     1     -10.221  45.876 -17.051  1.00  0.00     0.210 HD
ENDBRANCH  26  30
BRANCH  27  32
HETATM   32  O7  UNL     1      -9.531  46.519 -20.795  1.00  0.00    -0.388 OA
HETATM   33  H28 UNL     1      -8.945  46.617 -21.582  1.00  0.00     0.210 HD
ENDBRANCH  27  32
ENDBRANCH  21  22
ENDBRANCH   2  21
BRANCH   1  34
HETATM   34  C7  UNL     1      -6.834  49.273 -23.980  1.00  0.00     0.017 C 
HETATM   35  C8  UNL     1      -8.359  49.253 -23.760  1.00  0.00     0.013 C 
BRANCH  34  36
HETATM   36  C6  UNL     1      -6.333  47.895 -24.502  1.00  0.00     0.122 C 
BRANCH  36  37
HETATM   37  C5  UNL     1      -5.768  47.963 -25.938  1.00  0.00     0.032 C 
BRANCH  37  38
HETATM   38  C4  UNL     1      -4.273  48.306 -26.009  1.00  0.00     0.009 C 
BRANCH  38  39
HETATM   39  C2  UNL     1      -3.793  48.644 -27.436  1.00  0.00     0.005 C 
HETATM   40  C1  UNL     1      -3.317  50.096 -27.543  1.00  0.00     0.012 C 
BRANCH  39  41
HETATM   41  C3  UNL     1      -4.906  48.372 -28.461  1.00  0.00     0.168 C 
BRANCH  41  42
HETATM   42  O1  UNL     1      -4.737  49.179 -29.617  1.00  0.00    -0.400 OA
HETATM   43  H7  UNL     1      -5.452  48.947 -30.234  1.00  0.00     0.209 HD
ENDBRANCH  41  42
ENDBRANCH  39  41
ENDBRANCH  38  39
ENDBRANCH  37  38
ENDBRANCH  36  37
BRANCH  36  44
HETATM   44  O2  UNL     1      -7.401  46.940 -24.538  1.00  0.00    -0.395 OA
HETATM   45  H13 UNL     1      -6.995  46.084 -24.770  1.00  0.00     0.210 HD
ENDBRANCH  36  44
ENDBRANCH  34  36
ENDBRANCH   1  34
TORSDOF 13
ENDMDL
MODEL 6
REMARK minimizedAffinity -8.56346226
REMARK CNNscore 0.51439333
REMARK CNNaffinity 7.01428556
REMARK  13 active torsions:
REMARK  status: ('A' for Active; 'I' for Inactive)
REMARK    1  A    between atoms: C2_2  and  C3_3 
REMARK    2  A    between atoms: C2_2  and  C4_5 
REMARK    3  A    between atoms: C3_3  and  O1_4 
REMARK    4  A    between atoms: C4_5  and  C5_6 
REMARK    5  A    between atoms: C5_6  and  C6_7 
REMARK    6  A    between atoms: C6_7  and  O2_8 
REMARK    7  A    between atoms: C6_7  and  C7_9 
REMARK    8  A    between atoms: C7_9  and  C9_11 
REMARK    9  A    between atoms: C10_12  and  O3_13 
REMARK   10  A    between atoms: O3_13  and  C11_14 
REMARK   11  A    between atoms: C13_17  and  O5_18 
REMARK   12  A    between atoms: C14_19  and  O6_20 
REMARK   13  A    between atoms: C15_21  and  O7_22 
ROOT
HETATM    1  C9  UNL     1      -1.632  49.492 -19.535  1.00  0.00     0.029 C 
HETATM    2  C10 UNL     1      -1.149  50.649 -20.463  1.00  0.00     0.130 C 
HETATM    3  C16 UNL     1      -0.268  51.555 -19.570  1.00  0.00     0.038 C 
HETATM    4  C17 UNL     1      -0.016  50.722 -18.321  1.00  0.00     0.001 C 
HETATM    5  C18 UNL     1       0.523  51.415 -17.065  1.00  0.00    -0.004 C 
HETATM    6  C19 UNL     1       1.828  52.182 -17.347  1.00  0.00     0.010 C 
HETATM    7  C20 UNL     1       2.453  52.762 -16.076  1.00  0.00     0.035 C 
HETATM    8  C21 UNL     1       2.610  51.657 -15.058  1.00  0.00    -0.068 C 
HETATM    9  C22 UNL     1       3.840  51.250 -14.694  1.00  0.00     0.053 C 
HETATM   10  C23 UNL     1       4.040  49.989 -13.943  1.00  0.00     0.149 C 
HETATM   11  O8  UNL     1       5.167  49.681 -13.565  1.00  0.00    -0.293 OA
HETATM   12  C24 UNL     1       2.850  49.081 -13.775  1.00  0.00     0.084 C 
HETATM   13  C25 UNL     1       1.607  49.915 -13.518  1.00  0.00     0.022 C 
HETATM   14  C26 UNL     1       1.311  50.961 -14.632  1.00  0.00    -0.016 C 
HETATM   15  C27 UNL     1       0.331  51.976 -13.988  1.00  0.00     0.020 C 
HETATM   16  C28 UNL     1       0.718  50.332 -15.944  1.00  0.00     0.002 C 
HETATM   17  C29 UNL     1      -0.562  49.483 -15.729  1.00  0.00     0.007 C 
HETATM   18  C30 UNL     1      -1.157  48.923 -17.035  1.00  0.00     0.010 C 
HETATM   19  C31 UNL     1      -1.378  50.021 -18.088  1.00  0.00    -0.034 C 
HETATM   20  C32 UNL     1      -2.479  50.980 -17.591  1.00  0.00     0.016 C 
ENDROOT
BRANCH   2  21
HETATM   21  O3  UNL     1      -2.223  51.383 -21.022  1.00  0.00    -0.353 OA
BRANCH  21  22
HETATM   22  C11 UNL     1      -2.663  50.872 -22.287  1.00  0.00     0.291 C 
HETATM   23  O4  UNL     1      -1.678  51.113 -23.288  1.00  0.00    -0.356 OA
HETATM   24  C12 UNL     1      -2.083  50.645 -24.567  1.00  0.00     0.205 C 
HETATM   25  C13 UNL     1      -3.319  51.391 -25.053  1.00  0.00     0.173 C 
HETATM   26  C14 UNL     1      -4.460  51.250 -24.041  1.00  0.00     0.182 C 
HETATM   27  C15 UNL     1      -4.002  51.568 -22.613  1.00  0.00     0.204 C 
BRANCH  25  28
HETATM   28  O5  UNL     1      -3.748  50.911 -26.333  1.00  0.00    -0.391 OA
HETATM   29  H24 UNL     1      -3.979  49.968 -26.250  1.00  0.00     0.210 HD
ENDBRANCH  25  28
BRANCH  26  30
HETATM   30  O6  UNL     1      -5.528  52.127 -24.438  1.00  0.00    -0.390 OA
HETATM   31  H26 UNL     1      -5.659  51.987 -25.395  1.00  0.00     0.210 HD
ENDBRANCH  26  30
BRANCH  27  32
HETATM   32  O7  UNL     1      -5.010  51.113 -21.690  1.00  0.00    -0.388 OA
HETATM   33  H28 UNL     1      -4.652  51.293 -20.789  1.00  0.00     0.210 HD
ENDBRANCH  27  32
ENDBRANCH  21  22
ENDBRANCH   2  21
BRANCH   1  34
HETATM   34  C7  UNL     1      -2.950  48.724 -19.857  1.00  0.00     0.017 C 
HETATM   35  C8  UNL     1      -3.599  48.270 -18.535  1.00  0.00     0.013 C 
BRANCH  34  36
HETATM   36  C6  UNL     1      -2.905  47.553 -20.881  1.00  0.00     0.122 C 
BRANCH  36  37
HETATM   37  C5  UNL     1      -3.390  46.212 -20.287  1.00  0.00     0.032 C 
BRANCH  37  38
HETATM   38  C4  UNL     1      -4.619  45.621 -20.991  1.00  0.00     0.009 C 
BRANCH  38  39
HETATM   39  C2  UNL     1      -5.717  45.156 -20.012  1.00  0.00     0.005 C 
HETATM   40  C1  UNL     1      -5.155  44.906 -18.609  1.00  0.00     0.012 C 
BRANCH  39  41
HETATM   41  C3  UNL     1      -6.412  43.890 -20.540  1.00  0.00     0.168 C 
BRANCH  41  42
HETATM   42  O1  UNL     1      -5.574  42.753 -20.390  1.00  0.00    -0.400 OA
HETATM   43  H7  UNL     1      -6.074  41.985 -20.718  1.00  0.00     0.209 HD
ENDBRANCH  41  42
ENDBRANCH  39  41
ENDBRANCH  38  39
ENDBRANCH  37  38
ENDBRANCH  36  37
BRANCH  36  44
HETATM   44  O2  UNL     1      -1.567  47.325 -21.342  1.00  0.00    -0.395 OA
HETATM   45  H13 UNL     1      -1.631  46.658 -22.051  1.00  0.00     0.210 HD
ENDBRANCH  36  44
ENDBRANCH  34  36
ENDBRANCH   1  34
TORSDOF 13
ENDMDL
MODEL 7
REMARK minimizedAffinity -8.68419552
REMARK CNNscore 0.501743734
REMARK CNNaffinity 7.00241041
REMARK  13 active torsions:
REMARK  status: ('A' for Active; 'I' for Inactive)
REMARK    1  A    between atoms: C2_2  and  C3_3 
REMARK    2  A    between atoms: C2_2  and  C4_5 
REMARK    3  A    between atoms: C3_3  and  O1_4 
REMARK    4  A    between atoms: C4_5  and  C5_6 
REMARK    5  A    between atoms: C5_6  and  C6_7 
REMARK    6  A    between atoms: C6_7  and  O2_8 
REMARK    7  A    between atoms: C6_7  and  C7_9 
REMARK    8  A    between atoms: C7_9  and  C9_11 
REMARK    9  A    between atoms: C10_12  and  O3_13 
REMARK   10  A    between atoms: O3_13  and  C11_14 
REMARK   11  A    between atoms: C13_17  and  O5_18 
REMARK   12  A    between atoms: C14_19  and  O6_20 
REMARK   13  A    between atoms: C15_21  and  O7_22 
ROOT
HETATM    1  C9  UNL     1      -2.588  50.652 -20.368  1.00  0.00     0.029 C 
HETATM    2  C10 UNL     1      -1.492  51.468 -19.616  1.00  0.00     0.130 C 
HETATM    3  C16 UNL     1      -0.495  51.926 -20.707  1.00  0.00     0.038 C 
HETATM    4  C17 UNL     1      -1.222  51.657 -22.018  1.00  0.00     0.001 C 
HETATM    5  C18 UNL     1      -0.419  51.655 -23.323  1.00  0.00    -0.004 C 
HETATM    6  C19 UNL     1       0.361  52.969 -23.519  1.00  0.00     0.010 C 
HETATM    7  C20 UNL     1       1.054  53.040 -24.882  1.00  0.00     0.035 C 
HETATM    8  C21 UNL     1       0.036  52.775 -25.966  1.00  0.00    -0.068 C 
HETATM    9  C22 UNL     1      -0.307  53.757 -26.818  1.00  0.00     0.053 C 
HETATM   10  C23 UNL     1      -1.499  53.637 -27.688  1.00  0.00     0.149 C 
HETATM   11  O8  UNL     1      -1.745  54.520 -28.506  1.00  0.00    -0.293 OA
HETATM   12  C24 UNL     1      -2.426  52.474 -27.444  1.00  0.00     0.084 C 
HETATM   13  C25 UNL     1      -1.611  51.235 -27.119  1.00  0.00     0.022 C 
HETATM   14  C26 UNL     1      -0.662  51.410 -25.897  1.00  0.00    -0.016 C 
HETATM   15  C27 UNL     1       0.371  50.259 -26.014  1.00  0.00     0.020 C 
HETATM   16  C28 UNL     1      -1.407  51.384 -24.514  1.00  0.00     0.002 C 
HETATM   17  C29 UNL     1      -2.273  50.121 -24.273  1.00  0.00     0.007 C 
HETATM   18  C30 UNL     1      -2.948  50.092 -22.888  1.00  0.00     0.010 C 
HETATM   19  C31 UNL     1      -1.941  50.312 -21.749  1.00  0.00    -0.034 C 
HETATM   20  C32 UNL     1      -0.979  49.108 -21.688  1.00  0.00     0.016 C 
ENDROOT
BRANCH   2  21
HETATM   21  O3  UNL     1      -0.834  50.707 -18.619  1.00  0.00    -0.353 OA
BRANCH  21  22
HETATM   22  C11 UNL     1      -0.489  51.472 -17.456  1.00  0.00     0.291 C 
HETATM   23  O4  UNL     1       0.915  51.710 -17.418  1.00  0.00    -0.356 OA
HETATM   24  C12 UNL     1       1.307  52.445 -16.266  1.00  0.00     0.205 C 
HETATM   25  C13 UNL     1       1.012  51.660 -14.995  1.00  0.00     0.173 C 
HETATM   26  C14 UNL     1      -0.474  51.297 -14.922  1.00  0.00     0.182 C 
HETATM   27  C15 UNL     1      -0.974  50.669 -16.229  1.00  0.00     0.204 C 
BRANCH  25  28
HETATM   28  O5  UNL     1       1.384  52.402 -13.826  1.00  0.00    -0.391 OA
HETATM   29  H24 UNL     1       0.861  53.224 -13.800  1.00  0.00     0.210 HD
ENDBRANCH  25  28
BRANCH  26  30
HETATM   30  O6  UNL     1      -0.666  50.393 -13.821  1.00  0.00    -0.390 OA
HETATM   31  H26 UNL     1      -0.186  50.775 -13.063  1.00  0.00     0.210 HD
ENDBRANCH  26  30
BRANCH  27  32
HETATM   32  O7  UNL     1      -2.414  50.651 -16.214  1.00  0.00    -0.388 OA
HETATM   33  H28 UNL     1      -2.688  50.288 -17.088  1.00  0.00     0.210 HD
ENDBRANCH  27  32
ENDBRANCH  21  22
ENDBRANCH   2  21
BRANCH   1  34
HETATM   34  C7  UNL     1      -3.415  49.566 -19.614  1.00  0.00     0.017 C 
HETATM   35  C8  UNL     1      -2.738  48.196 -19.811  1.00  0.00     0.013 C 
BRANCH  34  36
HETATM   36  C6  UNL     1      -4.945  49.470 -19.881  1.00  0.00     0.122 C 
BRANCH  36  37
HETATM   37  C5  UNL     1      -5.349  48.177 -20.623  1.00  0.00     0.032 C 
BRANCH  37  38
HETATM   38  C4  UNL     1      -5.374  48.311 -22.152  1.00  0.00     0.009 C 
BRANCH  38  39
HETATM   39  C2  UNL     1      -6.797  48.263 -22.745  1.00  0.00     0.005 C 
HETATM   40  C1  UNL     1      -7.327  46.828 -22.828  1.00  0.00     0.012 C 
BRANCH  39  41
HETATM   41  C3  UNL     1      -6.828  48.922 -24.134  1.00  0.00     0.168 C 
BRANCH  41  42
HETATM   42  O1  UNL     1      -7.983  49.735 -24.282  1.00  0.00    -0.400 OA
HETATM   43  H7  UNL     1      -7.935  50.141 -25.165  1.00  0.00     0.209 HD
ENDBRANCH  41  42
ENDBRANCH  39  41
ENDBRANCH  38  39
ENDBRANCH  37  38
ENDBRANCH  36  37
BRANCH  36  44
HETATM   44  O2  UNL     1      -5.393  50.557 -20.702  1.00  0.00    -0.395 OA
HETATM   45  H13 UNL     1      -6.365  50.492 -20.737  1.00  0.00     0.210 HD
ENDBRANCH  36  44
ENDBRANCH  34  36
ENDBRANCH   1  34
TORSDOF 13
ENDMDL
MODEL 8
REMARK minimizedAffinity -8.62248993
REMARK CNNscore 0.47161442
REMARK CNNaffinity 6.79355383
REMARK  13 active torsions:
REMARK  status: ('A' for Active; 'I' for Inactive)
REMARK    1  A    between atoms: C2_2  and  C3_3 
REMARK    2  A    between atoms: C2_2  and  C4_5 
REMARK    3  A    between atoms: C3_3  and  O1_4 
REMARK    4  A    between atoms: C4_5  and  C5_6 
REMARK    5  A    between atoms: C5_6  and  C6_7 
REMARK    6  A    between atoms: C6_7  and  O2_8 
REMARK    7  A    between atoms: C6_7  and  C7_9 
REMARK    8  A    between atoms: C7_9  and  C9_11 
REMARK    9  A    between atoms: C10_12  and  O3_13 
REMARK   10  A    between atoms: O3_13  and  C11_14 
REMARK   11  A    between atoms: C13_17  and  O5_18 
REMARK   12  A    between atoms: C14_19  and  O6_20 
REMARK   13  A    between atoms: C15_21  and  O7_22 
ROOT
HETATM    1  C9  UNL     1      -7.011  47.821 -27.391  1.00  0.00     0.029 C 
HETATM    2  C10 UNL     1      -7.303  48.145 -28.888  1.00  0.00     0.130 C 
HETATM    3  C16 UNL     1      -8.728  47.606 -29.159  1.00  0.00     0.038 C 
HETATM    4  C17 UNL     1      -9.292  47.324 -27.772  1.00  0.00     0.001 C 
HETATM    5  C18 UNL     1     -10.548  46.454 -27.648  1.00  0.00    -0.004 C 
HETATM    6  C19 UNL     1     -11.714  47.003 -28.490  1.00  0.00     0.010 C 
HETATM    7  C20 UNL     1     -13.014  46.227 -28.266  1.00  0.00     0.035 C 
HETATM    8  C21 UNL     1     -13.309  46.179 -26.785  1.00  0.00    -0.068 C 
HETATM    9  C22 UNL     1     -14.378  46.830 -26.293  1.00  0.00     0.053 C 
HETATM   10  C23 UNL     1     -14.534  47.060 -24.838  1.00  0.00     0.149 C 
HETATM   11  O8  UNL     1     -15.555  47.595 -24.414  1.00  0.00    -0.293 OA
HETATM   12  C24 UNL     1     -13.365  46.720 -23.950  1.00  0.00     0.084 C 
HETATM   13  C25 UNL     1     -12.711  45.441 -24.439  1.00  0.00     0.022 C 
HETATM   14  C26 UNL     1     -12.238  45.502 -25.920  1.00  0.00    -0.016 C 
HETATM   15  C27 UNL     1     -12.040  44.025 -26.348  1.00  0.00     0.020 C 
HETATM   16  C28 UNL     1     -10.929  46.348 -26.128  1.00  0.00     0.002 C 
HETATM   17  C29 UNL     1      -9.728  45.898 -25.257  1.00  0.00     0.007 C 
HETATM   18  C30 UNL     1      -8.441  46.704 -25.519  1.00  0.00     0.010 C 
HETATM   19  C31 UNL     1      -8.075  46.743 -27.011  1.00  0.00    -0.034 C 
HETATM   20  C32 UNL     1      -7.690  45.322 -27.471  1.00  0.00     0.016 C 
ENDROOT
BRANCH   2  21
HETATM   21  O3  UNL     1      -6.364  47.551 -29.767  1.00  0.00    -0.353 OA
BRANCH  21  22
HETATM   22  C11 UNL     1      -6.502  47.989 -31.126  1.00  0.00     0.291 C 
HETATM   23  O4  UNL     1      -7.129  46.978 -31.910  1.00  0.00    -0.356 OA
HETATM   24  C12 UNL     1      -7.265  47.358 -33.273  1.00  0.00     0.205 C 
HETATM   25  C13 UNL     1      -5.900  47.559 -33.918  1.00  0.00     0.173 C 
HETATM   26  C14 UNL     1      -5.091  48.604 -33.145  1.00  0.00     0.182 C 
HETATM   27  C15 UNL     1      -5.084  48.323 -31.638  1.00  0.00     0.204 C 
BRANCH  25  28
HETATM   28  O5  UNL     1      -6.026  47.964 -35.287  1.00  0.00    -0.391 OA
HETATM   29  H24 UNL     1      -6.501  48.815 -35.317  1.00  0.00     0.210 HD
ENDBRANCH  25  28
BRANCH  26  30
HETATM   30  O6  UNL     1      -3.750  48.614 -33.664  1.00  0.00    -0.390 OA
HETATM   31  H26 UNL     1      -3.830  48.632 -34.636  1.00  0.00     0.210 HD
ENDBRANCH  26  30
BRANCH  27  32
HETATM   32  O7  UNL     1      -4.595  49.490 -30.949  1.00  0.00    -0.388 OA
HETATM   33  H28 UNL     1      -4.656  49.281 -29.988  1.00  0.00     0.210 HD
ENDBRANCH  27  32
ENDBRANCH  21  22
ENDBRANCH   2  21
BRANCH   1  34
HETATM   34  C7  UNL     1      -5.542  47.666 -26.892  1.00  0.00     0.017 C 
HETATM   35  C8  UNL     1      -5.459  48.143 -25.429  1.00  0.00     0.013 C 
BRANCH  34  36
HETATM   36  C6  UNL     1      -4.393  48.284 -27.740  1.00  0.00     0.122 C 
BRANCH  36  37
HETATM   37  C5  UNL     1      -3.095  48.503 -26.932  1.00  0.00     0.032 C 
BRANCH  37  38
HETATM   38  C4  UNL     1      -2.920  49.933 -26.401  1.00  0.00     0.009 C 
BRANCH  38  39
HETATM   39  C2  UNL     1      -1.836  50.733 -27.153  1.00  0.00     0.005 C 
HETATM   40  C1  UNL     1      -0.487  50.677 -26.431  1.00  0.00     0.012 C 
BRANCH  39  41
HETATM   41  C3  UNL     1      -2.277  52.194 -27.344  1.00  0.00     0.168 C 
BRANCH  41  42
HETATM   42  O1  UNL     1      -1.578  53.054 -26.456  1.00  0.00    -0.400 OA
HETATM   43  H7  UNL     1      -1.881  53.960 -26.638  1.00  0.00     0.209 HD
ENDBRANCH  41  42
ENDBRANCH  39  41
ENDBRANCH  38  39
ENDBRANCH  37  38
ENDBRANCH  36  37
BRANCH  36  44
HETATM   44  O2  UNL     1      -4.766  49.570 -28.252  1.00  0.00    -0.395 OA
HETATM   45  H13 UNL     1      -4.049  49.844 -28.854  1.00  0.00     0.210 HD
ENDBRANCH  36  44
ENDBRANCH  34  36
ENDBRANCH   1  34
TORSDOF 13
ENDMDL
MODEL 9
REMARK minimizedAffinity -7.67280626
REMARK CNNscore 0.468754858
REMARK CNNaffinity 6.86081648
REMARK  13 active torsions:
REMARK  status: ('A' for Active; 'I' for Inactive)
REMARK    1  A    between atoms: C2_2  and  C3_3 
REMARK    2  A    between atoms: C2_2  and  C4_5 
REMARK    3  A    between atoms: C3_3  and  O1_4 
REMARK    4  A    between atoms: C4_5  and  C5_6 
REMARK    5  A    between atoms: C5_6  and  C6_7 
REMARK    6  A    between atoms: C6_7  and  O2_8 
REMARK    7  A    between atoms: C6_7  and  C7_9 
REMARK    8  A    between atoms: C7_9  and  C9_11 
REMARK    9  A    between atoms: C10_12  and  O3_13 
REMARK   10  A    between atoms: O3_13  and  C11_14 
REMARK   11  A    between atoms: C13_17  and  O5_18 
REMARK   12  A    between atoms: C14_19  and  O6_20 
REMARK   13  A    between atoms: C15_21  and  O7_22 
ROOT
HETATM    1  C9  UNL     1       0.278  52.321  -9.408  1.00  0.00     0.029 C 
HETATM    2  C10 UNL     1       0.867  51.910 -10.792  1.00  0.00     0.130 C 
HETATM    3  C16 UNL     1       2.136  52.776 -10.977  1.00  0.00     0.038 C 
HETATM    4  C17 UNL     1       2.393  53.365  -9.596  1.00  0.00     0.001 C 
HETATM    5  C18 UNL     1       3.356  54.549  -9.465  1.00  0.00    -0.004 C 
HETATM    6  C19 UNL     1       4.738  54.237 -10.070  1.00  0.00     0.010 C 
HETATM    7  C20 UNL     1       5.753  55.355  -9.821  1.00  0.00     0.035 C 
HETATM    8  C21 UNL     1       5.796  55.659  -8.342  1.00  0.00    -0.068 C 
HETATM    9  C22 UNL     1       6.906  55.384  -7.634  1.00  0.00     0.053 C 
HETATM   10  C23 UNL     1       6.891  55.382  -6.152  1.00  0.00     0.149 C 
HETATM   11  O8  UNL     1       7.936  55.196  -5.535  1.00  0.00    -0.293 OA
HETATM   12  C24 UNL     1       5.553  55.498  -5.469  1.00  0.00     0.084 C 
HETATM   13  C25 UNL     1       4.682  56.486  -6.224  1.00  0.00     0.022 C 
HETATM   14  C26 UNL     1       4.471  56.121  -7.723  1.00  0.00    -0.016 C 
HETATM   15  C27 UNL     1       3.977  57.428  -8.396  1.00  0.00     0.020 C 
HETATM   16  C28 UNL     1       3.463  54.936  -7.946  1.00  0.00     0.002 C 
HETATM   17  C29 UNL     1       2.069  55.148  -7.301  1.00  0.00     0.007 C 
HETATM   18  C30 UNL     1       1.081  53.999  -7.581  1.00  0.00     0.010 C 
HETATM   19  C31 UNL     1       0.968  53.684  -9.081  1.00  0.00    -0.034 C 
HETATM   20  C32 UNL     1       0.315  54.882  -9.798  1.00  0.00     0.016 C 
ENDROOT
BRANCH   2  21
HETATM   21  O3  UNL     1      -0.045  52.119 -11.856  1.00  0.00    -0.353 OA
BRANCH  21  22
HETATM   22  C11 UNL     1       0.393  51.553 -13.099  1.00  0.00     0.291 C 
HETATM   23  O4  UNL     1       0.453  52.559 -14.106  1.00  0.00    -0.356 OA
HETATM   24  C12 UNL     1       0.859  52.039 -15.365  1.00  0.00     0.205 C 
HETATM   25  C13 UNL     1      -0.154  51.028 -15.887  1.00  0.00     0.173 C 
HETATM   26  C14 UNL     1      -0.351  49.896 -14.874  1.00  0.00     0.182 C 
HETATM   27  C15 UNL     1      -0.605  50.432 -13.459  1.00  0.00     0.204 C 
BRANCH  25  28
HETATM   28  O5  UNL     1       0.257  50.481 -17.146  1.00  0.00    -0.391 OA
HETATM   29  H24 UNL     1       1.107  50.019 -17.022  1.00  0.00     0.210 HD
ENDBRANCH  25  28
BRANCH  26  30
HETATM   30  O6  UNL     1      -1.452  49.082 -15.312  1.00  0.00    -0.390 OA
HETATM   31  H26 UNL     1      -1.308  48.912 -16.262  1.00  0.00     0.210 HD
ENDBRANCH  26  30
BRANCH  27  32
HETATM   32  O7  UNL     1      -0.461  49.349 -12.520  1.00  0.00    -0.388 OA
HETATM   33  H28 UNL     1      -0.583  49.749 -11.627  1.00  0.00     0.210 HD
ENDBRANCH  27  32
ENDBRANCH  21  22
ENDBRANCH   2  21
BRANCH   1  34
HETATM   34  C7  UNL     1      -1.242  52.134  -9.112  1.00  0.00     0.017 C 
HETATM   35  C8  UNL     1      -1.479  52.296  -7.599  1.00  0.00     0.013 C 
BRANCH  34  36
HETATM   36  C6  UNL     1      -1.959  50.862  -9.651  1.00  0.00     0.122 C 
BRANCH  36  37
HETATM   37  C5  UNL     1      -3.499  50.969  -9.600  1.00  0.00     0.032 C 
BRANCH  37  38
HETATM   38  C4  UNL     1      -4.139  51.437 -10.914  1.00  0.00     0.009 C 
BRANCH  38  39
HETATM   39  C2  UNL     1      -3.422  52.649 -11.544  1.00  0.00     0.005 C 
HETATM   40  C1  UNL     1      -3.861  53.966 -10.897  1.00  0.00     0.012 C 
BRANCH  39  41
HETATM   41  C3  UNL     1      -3.666  52.695 -13.061  1.00  0.00     0.168 C 
BRANCH  41  42
HETATM   42  O1  UNL     1      -4.319  53.900 -13.433  1.00  0.00    -0.400 OA
HETATM   43  H7  UNL     1      -4.424  53.881 -14.399  1.00  0.00     0.209 HD
ENDBRANCH  41  42
ENDBRANCH  39  41
ENDBRANCH  38  39
ENDBRANCH  37  38
ENDBRANCH  36  37
BRANCH  36  44
HETATM   44  O2  UNL     1      -1.612  49.708  -8.874  1.00  0.00    -0.395 OA
HETATM   45  H13 UNL     1      -2.008  48.942  -9.329  1.00  0.00     0.210 HD
ENDBRANCH  36  44
ENDBRANCH  34  36
ENDBRANCH   1  34
TORSDOF 13
ENDMDL
