MODEL 1
REMARK minimizedAffinity -7.86401033
REMARK CNNscore 0.866499066
REMARK CNNaffinity 6.80671644
REMARK  10 active torsions:
REMARK  status: ('A' for Active; 'I' for Inactive)
REMARK    1  A    between atoms: C2_2  and  O2_4 
REMARK    2  A    between atoms: O2_4  and  C3_5 
REMARK    3  A    between atoms: C3_5  and  C4_6 
REMARK    4  A    between atoms: C18_21  and  O4_22 
REMARK    5  A    between atoms: C21_25  and  O5_26 
REMARK    6  A    between atoms: C21_25  and  C22_27 
REMARK    7  A    between atoms: C22_27  and  O6_29 
REMARK    8  A    between atoms: C22_27  and  C24_30 
REMARK    9  A    between atoms: C28_34  and  C29_35 
REMARK   10  A    between atoms: C29_35  and  O7_36 
ROOT
HETATM    1  C4  UNL     1       1.048  51.700 -10.675  1.00  0.00     0.047 C 
HETATM    2  C5  UNL     1       2.406  50.983 -10.654  1.00  0.00     0.018 C 
HETATM    3  C6  UNL     1       3.382  51.640  -9.656  1.00  0.00     0.007 C 
HETATM    4  C7  UNL     1       3.579  53.174  -9.857  1.00  0.00     0.013 C 
HETATM    5  C8  UNL     1       2.212  53.915 -10.021  1.00  0.00     0.030 C 
HETATM    6  C9  UNL     1       2.437  55.388 -10.401  1.00  0.00     0.035 C 
HETATM    7  C10 UNL     1       3.471  56.048  -9.549  1.00  0.00    -0.022 C 
HETATM    8  C11 UNL     1       4.370  55.393  -8.793  1.00  0.00    -0.064 C 
HETATM    9  C12 UNL     1       5.358  56.177  -7.953  1.00  0.00     0.062 C 
HETATM   10  C13 UNL     1       6.745  55.622  -8.047  1.00  0.00    -0.019 C 
HETATM   11  C14 UNL     1       7.047  54.429  -8.571  1.00  0.00     0.047 C 
HETATM   12  C15 UNL     1       5.978  53.523  -9.069  1.00  0.00     0.162 C 
HETATM   13  O3  UNL     1       6.334  52.509  -9.670  1.00  0.00    -0.292 OA
HETATM   14  C16 UNL     1       4.492  53.861  -8.759  1.00  0.00     0.048 C 
HETATM   15  C17 UNL     1       4.172  53.348  -7.341  1.00  0.00     0.029 C 
HETATM   16  C18 UNL     1       1.304  53.189 -11.041  1.00  0.00     0.075 C 
HETATM   17  C19 UNL     1      -0.105  53.736 -11.227  1.00  0.00     0.042 C 
HETATM   18  C20 UNL     1      -0.830  52.616 -11.996  1.00  0.00     0.045 C 
HETATM   19  C21 UNL     1      -0.032  51.282 -11.756  1.00  0.00     0.103 C 
ENDROOT
BRANCH  19  20
HETATM   20  O5  UNL     1      -1.006  50.410 -11.108  1.00  0.00    -0.386 OA
HETATM   21  H27 UNL     1      -1.592  50.117 -11.841  1.00  0.00     0.210 HD
ENDBRANCH  19  20
BRANCH  19  22
HETATM   22  C22 UNL     1       0.291  50.514 -13.114  1.00  0.00     0.113 C 
HETATM   23  C23 UNL     1       1.209  49.294 -12.905  1.00  0.00     0.052 C 
BRANCH  22  24
HETATM   24  O6  UNL     1      -1.021  49.892 -13.418  1.00  0.00    -0.384 OA
HETATM   25  H31 UNL     1      -0.985  49.647 -14.367  1.00  0.00     0.210 HD
ENDBRANCH  22  24
BRANCH  22  26
HETATM   26  C24 UNL     1       0.682  51.316 -14.407  1.00  0.00     0.173 C 
HETATM   27  C25 UNL     1       2.150  51.310 -14.833  1.00  0.00     0.070 C 
HETATM   28  C26 UNL     1       2.292  52.019 -16.157  1.00  0.00    -0.067 C 
HETATM   29  C27 UNL     1       3.614  52.703 -16.375  1.00  0.00     0.044 C 
HETATM   30  C28 UNL     1       1.283  51.990 -17.054  1.00  0.00     0.042 C 
HETATM   31  C30 UNL     1       0.056  51.201 -16.762  1.00  0.00     0.292 C 
HETATM   32  O8  UNL     1      -0.804  50.986 -17.607  1.00  0.00    -0.260 OA
HETATM   33  O9  UNL     1      -0.062  50.695 -15.508  1.00  0.00    -0.309 OA
BRANCH  30  34
HETATM   34  C29 UNL     1       1.300  52.658 -18.397  1.00  0.00     0.209 C 
BRANCH  34  35
HETATM   35  O7  UNL     1       0.257  53.625 -18.454  1.00  0.00    -0.396 OA
HETATM   36  H40 UNL     1       0.508  54.268 -19.139  1.00  0.00     0.209 HD
ENDBRANCH  34  35
ENDBRANCH  30  34
ENDBRANCH  22  26
ENDBRANCH  19  22
BRANCH   1  37
HETATM   37  C3  UNL     1       0.402  51.565  -9.234  1.00  0.00     0.194 C 
BRANCH  37  38
HETATM   38  O2  UNL     1      -0.547  52.622  -9.002  1.00  0.00    -0.321 OA
BRANCH  38  39
HETATM   39  C2  UNL     1      -1.601  52.273  -8.218  1.00  0.00     0.254 C 
HETATM   40  C1  UNL     1      -1.574  53.059  -6.945  1.00  0.00     0.126 C 
HETATM   41  O1  UNL     1      -2.469  51.463  -8.513  1.00  0.00    -0.266 OA
ENDBRANCH  38  39
ENDBRANCH  37  38
ENDBRANCH   1  37
BRANCH  16  42
HETATM   42  O4  UNL     1       1.894  53.270 -12.349  1.00  0.00    -0.388 OA
HETATM   43  H22 UNL     1       2.838  53.491 -12.283  1.00  0.00     0.210 HD
ENDBRANCH  16  42
TORSDOF 10
ENDMDL
MODEL 2
REMARK minimizedAffinity -8.08514309
REMARK CNNscore 0.817099333
REMARK CNNaffinity 6.27209425
REMARK  10 active torsions:
REMARK  status: ('A' for Active; 'I' for Inactive)
REMARK    1  A    between atoms: C2_2  and  O2_4 
REMARK    2  A    between atoms: O2_4  and  C3_5 
REMARK    3  A    between atoms: C3_5  and  C4_6 
REMARK    4  A    between atoms: C18_21  and  O4_22 
REMARK    5  A    between atoms: C21_25  and  O5_26 
REMARK    6  A    between atoms: C21_25  and  C22_27 
REMARK    7  A    between atoms: C22_27  and  O6_29 
REMARK    8  A    between atoms: C22_27  and  C24_30 
REMARK    9  A    between atoms: C28_34  and  C29_35 
REMARK   10  A    between atoms: C29_35  and  O7_36 
ROOT
HETATM    1  C4  UNL     1       0.916  50.484 -13.731  1.00  0.00     0.047 C 
HETATM    2  C5  UNL     1      -0.616  50.397 -13.784  1.00  0.00     0.018 C 
HETATM    3  C6  UNL     1      -1.121  50.085 -15.207  1.00  0.00     0.007 C 
HETATM    4  C7  UNL     1      -0.593  51.053 -16.310  1.00  0.00     0.013 C 
HETATM    5  C8  UNL     1       0.951  51.270 -16.195  1.00  0.00     0.030 C 
HETATM    6  C9  UNL     1       1.417  52.365 -17.168  1.00  0.00     0.035 C 
HETATM    7  C10 UNL     1       0.854  52.190 -18.541  1.00  0.00    -0.022 C 
HETATM    8  C11 UNL     1      -0.206  51.417 -18.840  1.00  0.00    -0.064 C 
HETATM    9  C12 UNL     1      -0.671  51.304 -20.277  1.00  0.00     0.062 C 
HETATM   10  C13 UNL     1      -2.160  51.400 -20.398  1.00  0.00    -0.019 C 
HETATM   11  C14 UNL     1      -3.009  51.316 -19.368  1.00  0.00     0.047 C 
HETATM   12  C15 UNL     1      -2.510  51.065 -17.989  1.00  0.00     0.162 C 
HETATM   13  O3  UNL     1      -3.327  51.146 -17.072  1.00  0.00    -0.292 OA
HETATM   14  C16 UNL     1      -1.024  50.658 -17.782  1.00  0.00     0.048 C 
HETATM   15  C17 UNL     1      -0.906  49.141 -18.029  1.00  0.00     0.029 C 
HETATM   16  C18 UNL     1       1.363  51.582 -14.737  1.00  0.00     0.075 C 
HETATM   17  C19 UNL     1       2.853  51.712 -14.451  1.00  0.00     0.042 C 
HETATM   18  C20 UNL     1       2.933  51.656 -12.915  1.00  0.00     0.045 C 
HETATM   19  C21 UNL     1       1.620  50.963 -12.396  1.00  0.00     0.103 C 
ENDROOT
BRANCH  19  20
HETATM   20  O5  UNL     1       2.109  49.780 -11.694  1.00  0.00    -0.386 OA
HETATM   21  H27 UNL     1       2.453  50.132 -10.842  1.00  0.00     0.210 HD
ENDBRANCH  19  20
BRANCH  19  22
HETATM   22  C22 UNL     1       0.907  51.797 -11.241  1.00  0.00     0.113 C 
HETATM   23  C23 UNL     1      -0.519  52.242 -11.620  1.00  0.00     0.052 C 
BRANCH  22  24
HETATM   24  O6  UNL     1       0.666  50.743 -10.225  1.00  0.00    -0.384 OA
HETATM   25  H31 UNL     1       0.497  51.219  -9.384  1.00  0.00     0.210 HD
ENDBRANCH  22  24
BRANCH  22  26
HETATM   26  C24 UNL     1       1.685  52.933 -10.486  1.00  0.00     0.173 C 
HETATM   27  C25 UNL     1       1.769  54.305 -11.155  1.00  0.00     0.070 C 
HETATM   28  C26 UNL     1       2.435  55.283 -10.218  1.00  0.00    -0.067 C 
HETATM   29  C27 UNL     1       3.204  56.387 -10.889  1.00  0.00     0.044 C 
HETATM   30  C28 UNL     1       2.299  55.141  -8.881  1.00  0.00     0.042 C 
HETATM   31  C30 UNL     1       1.435  54.059  -8.336  1.00  0.00     0.292 C 
HETATM   32  O8  UNL     1       1.126  53.999  -7.153  1.00  0.00    -0.260 OA
HETATM   33  O9  UNL     1       0.970  53.143  -9.223  1.00  0.00    -0.309 OA
BRANCH  30  34
HETATM   34  C29 UNL     1       2.914  56.039  -7.850  1.00  0.00     0.209 C 
BRANCH  34  35
HETATM   35  O7  UNL     1       1.903  56.861  -7.278  1.00  0.00    -0.396 OA
HETATM   36  H40 UNL     1       2.231  57.142  -6.406  1.00  0.00     0.209 HD
ENDBRANCH  34  35
ENDBRANCH  30  34
ENDBRANCH  22  26
ENDBRANCH  19  22
BRANCH   1  37
HETATM   37  C3  UNL     1       1.499  49.066 -14.132  1.00  0.00     0.194 C 
BRANCH  37  38
HETATM   38  O2  UNL     1       2.217  48.482 -13.030  1.00  0.00    -0.321 OA
BRANCH  38  39
HETATM   39  C2  UNL     1       2.629  47.203 -13.237  1.00  0.00     0.254 C 
HETATM   40  C1  UNL     1       2.285  46.774 -14.629  1.00  0.00     0.126 C 
HETATM   41  O1  UNL     1       3.224  46.507 -12.425  1.00  0.00    -0.266 OA
ENDBRANCH  38  39
ENDBRANCH  37  38
ENDBRANCH   1  37
BRANCH  16  42
HETATM   42  O4  UNL     1       0.812  52.850 -14.345  1.00  0.00    -0.388 OA
HETATM   43  H22 UNL     1       0.083  53.101 -14.937  1.00  0.00     0.210 HD
ENDBRANCH  16  42
TORSDOF 10
ENDMDL
MODEL 3
REMARK minimizedAffinity -9.43464279
REMARK CNNscore 0.71752435
REMARK CNNaffinity 6.37313032
REMARK  10 active torsions:
REMARK  status: ('A' for Active; 'I' for Inactive)
REMARK    1  A    between atoms: C2_2  and  O2_4 
REMARK    2  A    between atoms: O2_4  and  C3_5 
REMARK    3  A    between atoms: C3_5  and  C4_6 
REMARK    4  A    between atoms: C18_21  and  O4_22 
REMARK    5  A    between atoms: C21_25  and  O5_26 
REMARK    6  A    between atoms: C21_25  and  C22_27 
REMARK    7  A    between atoms: C22_27  and  O6_29 
REMARK    8  A    between atoms: C22_27  and  C24_30 
REMARK    9  A    between atoms: C28_34  and  C29_35 
REMARK   10  A    between atoms: C29_35  and  O7_36 
ROOT
HETATM    1  C4  UNL     1       5.700  65.882 -35.402  1.00  0.00     0.047 C 
HETATM    2  C5  UNL     1       6.979  65.886 -36.253  1.00  0.00     0.018 C 
HETATM    3  C6  UNL     1       7.058  67.133 -37.158  1.00  0.00     0.007 C 
HETATM    4  C7  UNL     1       5.805  67.360 -38.058  1.00  0.00     0.013 C 
HETATM    5  C8  UNL     1       4.477  67.224 -37.245  1.00  0.00     0.030 C 
HETATM    6  C9  UNL     1       3.260  67.267 -38.183  1.00  0.00     0.035 C 
HETATM    7  C10 UNL     1       3.340  68.381 -39.174  1.00  0.00    -0.022 C 
HETATM    8  C11 UNL     1       4.466  69.049 -39.485  1.00  0.00    -0.064 C 
HETATM    9  C12 UNL     1       4.415  70.178 -40.494  1.00  0.00     0.062 C 
HETATM   10  C13 UNL     1       5.550  70.117 -41.468  1.00  0.00    -0.019 C 
HETATM   11  C14 UNL     1       6.633  69.346 -41.319  1.00  0.00     0.047 C 
HETATM   12  C15 UNL     1       6.805  68.502 -40.106  1.00  0.00     0.162 C 
HETATM   13  O3  UNL     1       7.747  67.709 -40.101  1.00  0.00    -0.292 OA
HETATM   14  C16 UNL     1       5.845  68.702 -38.900  1.00  0.00     0.048 C 
HETATM   15  C17 UNL     1       6.366  69.888 -38.066  1.00  0.00     0.029 C 
HETATM   16  C18 UNL     1       4.486  65.946 -36.372  1.00  0.00     0.075 C 
HETATM   17  C19 UNL     1       3.301  65.735 -35.440  1.00  0.00     0.042 C 
HETATM   18  C20 UNL     1       3.779  64.619 -34.494  1.00  0.00     0.045 C 
HETATM   19  C21 UNL     1       5.352  64.604 -34.534  1.00  0.00     0.103 C 
ENDROOT
BRANCH  19  20
HETATM   20  O5  UNL     1       5.734  64.880 -33.152  1.00  0.00    -0.386 OA
HETATM   21  H27 UNL     1       5.577  64.029 -32.685  1.00  0.00     0.210 HD
ENDBRANCH  19  20
BRANCH  19  22
HETATM   22  C22 UNL     1       5.940  63.145 -34.785  1.00  0.00     0.113 C 
HETATM   23  C23 UNL     1       5.108  62.041 -34.106  1.00  0.00     0.052 C 
BRANCH  22  24
HETATM   24  O6  UNL     1       5.636  62.951 -36.224  1.00  0.00    -0.384 OA
HETATM   25  H31 UNL     1       6.212  62.214 -36.520  1.00  0.00     0.210 HD
ENDBRANCH  22  24
BRANCH  22  26
HETATM   26  C24 UNL     1       7.482  62.876 -34.645  1.00  0.00     0.173 C 
HETATM   27  C25 UNL     1       8.342  62.985 -35.904  1.00  0.00     0.070 C 
HETATM   28  C26 UNL     1       9.796  62.825 -35.536  1.00  0.00    -0.067 C 
HETATM   29  C27 UNL     1      10.662  62.222 -36.607  1.00  0.00     0.044 C 
HETATM   30  C28 UNL     1      10.238  63.232 -34.326  1.00  0.00     0.042 C 
HETATM   31  C30 UNL     1       9.302  63.900 -33.383  1.00  0.00     0.292 C 
HETATM   32  O8  UNL     1       9.684  64.453 -32.359  1.00  0.00    -0.260 OA
HETATM   33  O9  UNL     1       7.987  63.898 -33.721  1.00  0.00    -0.309 OA
BRANCH  30  34
HETATM   34  C29 UNL     1      11.653  63.121 -33.841  1.00  0.00     0.209 C 
BRANCH  34  35
HETATM   35  O7  UNL     1      11.655  62.613 -32.511  1.00  0.00    -0.396 OA
HETATM   36  H40 UNL     1      12.531  62.215 -32.365  1.00  0.00     0.209 HD
ENDBRANCH  34  35
ENDBRANCH  30  34
ENDBRANCH  22  26
ENDBRANCH  19  22
BRANCH   1  37
HETATM   37  C3  UNL     1       5.743  67.148 -34.450  1.00  0.00     0.194 C 
BRANCH  37  38
HETATM   38  O2  UNL     1       7.021  67.248 -33.796  1.00  0.00    -0.321 OA
BRANCH  38  39
HETATM   39  C2  UNL     1       6.979  67.797 -32.554  1.00  0.00     0.254 C 
HETATM   40  C1  UNL     1       7.437  69.221 -32.608  1.00  0.00     0.126 C 
HETATM   41  O1  UNL     1       6.592  67.233 -31.539  1.00  0.00    -0.266 OA
ENDBRANCH  38  39
ENDBRANCH  37  38
ENDBRANCH   1  37
BRANCH  16  42
HETATM   42  O4  UNL     1       4.485  64.787 -37.222  1.00  0.00    -0.388 OA
HETATM   43  H22 UNL     1       4.766  65.024 -38.121  1.00  0.00     0.210 HD
ENDBRANCH  16  42
TORSDOF 10
ENDMDL
MODEL 4
REMARK minimizedAffinity -9.59889603
REMARK CNNscore 0.669820607
REMARK CNNaffinity 6.4383831
REMARK  10 active torsions:
REMARK  status: ('A' for Active; 'I' for Inactive)
REMARK    1  A    between atoms: C2_2  and  O2_4 
REMARK    2  A    between atoms: O2_4  and  C3_5 
REMARK    3  A    between atoms: C3_5  and  C4_6 
REMARK    4  A    between atoms: C18_21  and  O4_22 
REMARK    5  A    between atoms: C21_25  and  O5_26 
REMARK    6  A    between atoms: C21_25  and  C22_27 
REMARK    7  A    between atoms: C22_27  and  O6_29 
REMARK    8  A    between atoms: C22_27  and  C24_30 
REMARK    9  A    between atoms: C28_34  and  C29_35 
REMARK   10  A    between atoms: C29_35  and  O7_36 
ROOT
HETATM    1  C4  UNL     1      -4.280  48.935 -21.959  1.00  0.00     0.047 C 
HETATM    2  C5  UNL     1      -3.495  49.576 -23.114  1.00  0.00     0.018 C 
HETATM    3  C6  UNL     1      -2.099  50.049 -22.660  1.00  0.00     0.007 C 
HETATM    4  C7  UNL     1      -2.107  50.992 -21.418  1.00  0.00     0.013 C 
HETATM    5  C8  UNL     1      -3.012  50.432 -20.273  1.00  0.00     0.030 C 
HETATM    6  C9  UNL     1      -3.152  51.461 -19.140  1.00  0.00     0.035 C 
HETATM    7  C10 UNL     1      -1.841  52.055 -18.741  1.00  0.00    -0.022 C 
HETATM    8  C11 UNL     1      -0.721  52.007 -19.486  1.00  0.00    -0.064 C 
HETATM    9  C12 UNL     1       0.556  52.631 -18.962  1.00  0.00     0.062 C 
HETATM   10  C13 UNL     1       1.269  53.426 -20.012  1.00  0.00    -0.019 C 
HETATM   11  C14 UNL     1       0.984  53.378 -21.318  1.00  0.00     0.047 C 
HETATM   12  C15 UNL     1      -0.066  52.461 -21.836  1.00  0.00     0.162 C 
HETATM   13  O3  UNL     1      -0.377  52.574 -23.022  1.00  0.00    -0.292 OA
HETATM   14  C16 UNL     1      -0.665  51.382 -20.890  1.00  0.00     0.048 C 
HETATM   15  C17 UNL     1       0.291  50.173 -20.880  1.00  0.00     0.029 C 
HETATM   16  C18 UNL     1      -4.390  49.987 -20.820  1.00  0.00     0.075 C 
HETATM   17  C19 UNL     1      -5.342  49.319 -19.837  1.00  0.00     0.042 C 
HETATM   18  C20 UNL     1      -6.419  48.696 -20.744  1.00  0.00     0.045 C 
HETATM   19  C21 UNL     1      -5.798  48.539 -22.181  1.00  0.00     0.103 C 
ENDROOT
BRANCH  19  20
HETATM   20  O5  UNL     1      -5.858  47.101 -22.427  1.00  0.00    -0.386 OA
HETATM   21  H27 UNL     1      -6.803  46.933 -22.641  1.00  0.00     0.210 HD
ENDBRANCH  19  20
BRANCH  19  22
HETATM   22  C22 UNL     1      -6.738  49.138 -23.319  1.00  0.00     0.113 C 
HETATM   23  C23 UNL     1      -8.234  48.902 -23.042  1.00  0.00     0.052 C 
BRANCH  22  24
HETATM   24  O6  UNL     1      -6.584  50.595 -23.088  1.00  0.00    -0.384 OA
HETATM   25  H31 UNL     1      -6.894  51.028 -23.912  1.00  0.00     0.210 HD
ENDBRANCH  22  24
BRANCH  22  26
HETATM   26  C24 UNL     1      -6.388  48.916 -24.834  1.00  0.00     0.173 C 
HETATM   27  C25 UNL     1      -4.949  48.540 -25.186  1.00  0.00     0.070 C 
HETATM   28  C26 UNL     1      -4.853  48.244 -26.663  1.00  0.00    -0.067 C 
HETATM   29  C27 UNL     1      -3.518  48.542 -27.287  1.00  0.00     0.044 C 
HETATM   30  C28 UNL     1      -5.913  47.725 -27.321  1.00  0.00     0.042 C 
HETATM   31  C30 UNL     1      -7.154  47.385 -26.573  1.00  0.00     0.292 C 
HETATM   32  O8  UNL     1      -8.069  46.746 -27.075  1.00  0.00    -0.260 OA
HETATM   33  O9  UNL     1      -7.220  47.793 -25.280  1.00  0.00    -0.309 OA
BRANCH  30  34
HETATM   34  C29 UNL     1      -5.945  47.394 -28.783  1.00  0.00     0.209 C 
BRANCH  34  35
HETATM   35  O7  UNL     1      -5.970  48.601 -29.538  1.00  0.00    -0.396 OA
HETATM   36  H40 UNL     1      -5.627  48.385 -30.422  1.00  0.00     0.209 HD
ENDBRANCH  34  35
ENDBRANCH  30  34
ENDBRANCH  22  26
ENDBRANCH  19  22
BRANCH   1  37
HETATM   37  C3  UNL     1      -3.484  47.651 -21.482  1.00  0.00     0.194 C 
BRANCH  37  38
HETATM   38  O2  UNL     1      -3.530  47.529 -20.048  1.00  0.00    -0.321 OA
BRANCH  38  39
HETATM   39  C2  UNL     1      -3.476  46.251 -19.588  1.00  0.00     0.254 C 
HETATM   40  C1  UNL     1      -3.802  45.295 -20.692  1.00  0.00     0.126 C 
HETATM   41  O1  UNL     1      -3.172  45.918 -18.450  1.00  0.00    -0.266 OA
ENDBRANCH  38  39
ENDBRANCH  37  38
ENDBRANCH   1  37
BRANCH  16  42
HETATM   42  O4  UNL     1      -5.111  51.137 -21.291  1.00  0.00    -0.388 OA
HETATM   43  H22 UNL     1      -4.505  51.881 -21.441  1.00  0.00     0.210 HD
ENDBRANCH  16  42
TORSDOF 10
ENDMDL
MODEL 5
REMARK minimizedAffinity -7.85057259
REMARK CNNscore 0.659514308
REMARK CNNaffinity 6.15699625
REMARK  10 active torsions:
REMARK  status: ('A' for Active; 'I' for Inactive)
REMARK    1  A    between atoms: C2_2  and  O2_4 
REMARK    2  A    between atoms: O2_4  and  C3_5 
REMARK    3  A    between atoms: C3_5  and  C4_6 
REMARK    4  A    between atoms: C18_21  and  O4_22 
REMARK    5  A    between atoms: C21_25  and  O5_26 
REMARK    6  A    between atoms: C21_25  and  C22_27 
REMARK    7  A    between atoms: C22_27  and  O6_29 
REMARK    8  A    between atoms: C22_27  and  C24_30 
REMARK    9  A    between atoms: C28_34  and  C29_35 
REMARK   10  A    between atoms: C29_35  and  O7_36 
ROOT
HETATM    1  C4  UNL     1     -10.764  45.910 -27.952  1.00  0.00     0.047 C 
HETATM    2  C5  UNL     1     -11.031  46.768 -26.707  1.00  0.00     0.018 C 
HETATM    3  C6  UNL     1     -12.258  46.265 -25.919  1.00  0.00     0.007 C 
HETATM    4  C7  UNL     1     -13.558  46.120 -26.768  1.00  0.00     0.013 C 
HETATM    5  C8  UNL     1     -13.289  45.368 -28.112  1.00  0.00     0.030 C 
HETATM    6  C9  UNL     1     -14.536  45.401 -29.010  1.00  0.00     0.035 C 
HETATM    7  C10 UNL     1     -15.784  45.047 -28.270  1.00  0.00    -0.022 C 
HETATM    8  C11 UNL     1     -15.907  45.053 -26.931  1.00  0.00    -0.064 C 
HETATM    9  C12 UNL     1     -17.222  44.653 -26.295  1.00  0.00     0.062 C 
HETATM   10  C13 UNL     1     -17.619  45.577 -25.186  1.00  0.00    -0.019 C 
HETATM   11  C14 UNL     1     -16.804  46.478 -24.626  1.00  0.00     0.047 C 
HETATM   12  C15 UNL     1     -15.384  46.589 -25.053  1.00  0.00     0.162 C 
HETATM   13  O3  UNL     1     -14.734  47.533 -24.603  1.00  0.00    -0.292 OA
HETATM   14  C16 UNL     1     -14.782  45.496 -25.980  1.00  0.00     0.048 C 
HETATM   15  C17 UNL     1     -14.353  44.307 -25.098  1.00  0.00     0.029 C 
HETATM   16  C18 UNL     1     -12.045  45.942 -28.833  1.00  0.00     0.075 C 
HETATM   17  C19 UNL     1     -11.596  45.239 -30.106  1.00  0.00     0.042 C 
HETATM   18  C20 UNL     1     -10.185  45.804 -30.353  1.00  0.00     0.045 C 
HETATM   19  C21 UNL     1      -9.652  46.365 -28.983  1.00  0.00     0.103 C 
ENDROOT
BRANCH  19  20
HETATM   20  O5  UNL     1      -8.451  45.574 -28.731  1.00  0.00    -0.386 OA
HETATM   21  H27 UNL     1      -7.778  45.959 -29.336  1.00  0.00     0.210 HD
ENDBRANCH  19  20
BRANCH  19  22
HETATM   22  C22 UNL     1      -9.084  47.848 -29.113  1.00  0.00     0.113 C 
HETATM   23  C23 UNL     1      -9.251  48.429 -30.530  1.00  0.00     0.052 C 
BRANCH  22  24
HETATM   24  O6  UNL     1     -10.080  48.612 -28.323  1.00  0.00    -0.384 OA
HETATM   25  H31 UNL     1      -9.653  49.471 -28.116  1.00  0.00     0.210 HD
ENDBRANCH  22  24
BRANCH  22  26
HETATM   26  C24 UNL     1      -7.688  48.220 -28.496  1.00  0.00     0.173 C 
HETATM   27  C25 UNL     1      -7.360  47.686 -27.102  1.00  0.00     0.070 C 
HETATM   28  C26 UNL     1      -5.936  48.039 -26.751  1.00  0.00    -0.067 C 
HETATM   29  C27 UNL     1      -5.671  48.233 -25.283  1.00  0.00     0.044 C 
HETATM   30  C28 UNL     1      -5.001  48.138 -27.722  1.00  0.00     0.042 C 
HETATM   31  C30 UNL     1      -5.365  47.831 -29.132  1.00  0.00     0.292 C 
HETATM   32  O8  UNL     1      -4.527  47.721 -30.017  1.00  0.00    -0.260 OA
HETATM   33  O9  UNL     1      -6.683  47.646 -29.397  1.00  0.00    -0.309 OA
BRANCH  30  34
HETATM   34  C29 UNL     1      -3.560  48.487 -27.502  1.00  0.00     0.209 C 
BRANCH  34  35
HETATM   35  O7  UNL     1      -3.237  49.649 -28.259  1.00  0.00    -0.396 OA
HETATM   36  H40 UNL     1      -2.461  50.053 -27.834  1.00  0.00     0.209 HD
ENDBRANCH  34  35
ENDBRANCH  30  34
ENDBRANCH  22  26
ENDBRANCH  19  22
BRANCH   1  37
HETATM   37  C3  UNL     1     -10.437  44.437 -27.468  1.00  0.00     0.194 C 
BRANCH  37  38
HETATM   38  O2  UNL     1      -9.042  44.311 -27.133  1.00  0.00    -0.321 OA
BRANCH  38  39
HETATM   39  C2  UNL     1      -8.781  43.449 -26.115  1.00  0.00     0.254 C 
HETATM   40  C1  UNL     1      -9.713  42.280 -26.182  1.00  0.00     0.126 C 
HETATM   41  O1  UNL     1      -7.896  43.582 -25.280  1.00  0.00    -0.266 OA
ENDBRANCH  38  39
ENDBRANCH  37  38
ENDBRANCH   1  37
BRANCH  16  42
HETATM   42  O4  UNL     1     -12.313  47.293 -29.246  1.00  0.00    -0.388 OA
HETATM   43  H22 UNL     1     -13.068  47.655 -28.754  1.00  0.00     0.210 HD
ENDBRANCH  16  42
TORSDOF 10
ENDMDL
MODEL 6
REMARK minimizedAffinity -7.57049656
REMARK CNNscore 0.638276219
REMARK CNNaffinity 6.08048773
REMARK  10 active torsions:
REMARK  status: ('A' for Active; 'I' for Inactive)
REMARK    1  A    between atoms: C2_2  and  O2_4 
REMARK    2  A    between atoms: O2_4  and  C3_5 
REMARK    3  A    between atoms: C3_5  and  C4_6 
REMARK    4  A    between atoms: C18_21  and  O4_22 
REMARK    5  A    between atoms: C21_25  and  O5_26 
REMARK    6  A    between atoms: C21_25  and  C22_27 
REMARK    7  A    between atoms: C22_27  and  O6_29 
REMARK    8  A    between atoms: C22_27  and  C24_30 
REMARK    9  A    between atoms: C28_34  and  C29_35 
REMARK   10  A    between atoms: C29_35  and  O7_36 
ROOT
HETATM    1  C4  UNL     1       1.531  51.577 -11.250  1.00  0.00     0.047 C 
HETATM    2  C5  UNL     1       2.956  52.148 -11.262  1.00  0.00     0.018 C 
HETATM    3  C6  UNL     1       3.215  53.061 -10.046  1.00  0.00     0.007 C 
HETATM    4  C7  UNL     1       2.171  54.205  -9.860  1.00  0.00     0.013 C 
HETATM    5  C8  UNL     1       0.706  53.675  -9.982  1.00  0.00     0.030 C 
HETATM    6  C9  UNL     1      -0.294  54.843  -9.982  1.00  0.00     0.035 C 
HETATM    7  C10 UNL     1      -0.016  55.834  -8.900  1.00  0.00    -0.022 C 
HETATM    8  C11 UNL     1       1.148  55.932  -8.232  1.00  0.00    -0.064 C 
HETATM    9  C12 UNL     1       1.301  56.969  -7.138  1.00  0.00     0.062 C 
HETATM   10  C13 UNL     1       2.611  57.688  -7.220  1.00  0.00    -0.019 C 
HETATM   11  C14 UNL     1       3.642  57.295  -7.976  1.00  0.00     0.047 C 
HETATM   12  C15 UNL     1       3.566  56.044  -8.778  1.00  0.00     0.162 C 
HETATM   13  O3  UNL     1       4.489  55.820  -9.561  1.00  0.00    -0.292 OA
HETATM   14  C16 UNL     1       2.379  55.067  -8.547  1.00  0.00     0.048 C 
HETATM   15  C17 UNL     1       2.716  54.185  -7.328  1.00  0.00     0.029 C 
HETATM   16  C18 UNL     1       0.540  52.775 -11.230  1.00  0.00     0.075 C 
HETATM   17  C19 UNL     1      -0.810  52.098 -11.421  1.00  0.00     0.042 C 
HETATM   18  C20 UNL     1      -0.532  51.035 -12.500  1.00  0.00     0.045 C 
HETATM   19  C21 UNL     1       1.016  50.754 -12.501  1.00  0.00     0.103 C 
ENDROOT
BRANCH  19  20
HETATM   20  O5  UNL     1       1.108  49.333 -12.176  1.00  0.00    -0.386 OA
HETATM   21  H27 UNL     1       0.861  48.879 -13.013  1.00  0.00     0.210 HD
ENDBRANCH  19  20
BRANCH  19  22
HETATM   22  C22 UNL     1       1.647  50.829 -13.962  1.00  0.00     0.113 C 
HETATM   23  C23 UNL     1       2.938  51.668 -14.011  1.00  0.00     0.052 C 
BRANCH  22  24
HETATM   24  O6  UNL     1       2.146  49.444 -14.137  1.00  0.00    -0.384 OA
HETATM   25  H31 UNL     1       2.286  49.332 -15.102  1.00  0.00     0.210 HD
ENDBRANCH  22  24
BRANCH  22  26
HETATM   26  C24 UNL     1       0.732  51.104 -15.209  1.00  0.00     0.173 C 
HETATM   27  C25 UNL     1       1.400  51.616 -16.485  1.00  0.00     0.070 C 
HETATM   28  C26 UNL     1       0.379  51.687 -17.594  1.00  0.00    -0.067 C 
HETATM   29  C27 UNL     1       0.631  52.753 -18.624  1.00  0.00     0.044 C 
HETATM   30  C28 UNL     1      -0.653  50.816 -17.623  1.00  0.00     0.042 C 
HETATM   31  C30 UNL     1      -0.745  49.743 -16.595  1.00  0.00     0.292 C 
HETATM   32  O8  UNL     1      -1.544  48.820 -16.679  1.00  0.00    -0.260 OA
HETATM   33  O9  UNL     1       0.128  49.813 -15.559  1.00  0.00    -0.309 OA
BRANCH  30  34
HETATM   34  C29 UNL     1      -1.732  50.788 -18.663  1.00  0.00     0.209 C 
BRANCH  34  35
HETATM   35  O7  UNL     1      -2.756  51.710 -18.304  1.00  0.00    -0.396 OA
HETATM   36  H40 UNL     1      -3.225  51.941 -19.125  1.00  0.00     0.209 HD
ENDBRANCH  34  35
ENDBRANCH  30  34
ENDBRANCH  22  26
ENDBRANCH  19  22
BRANCH   1  37
HETATM   37  C3  UNL     1       1.376  50.680  -9.953  1.00  0.00     0.194 C 
BRANCH  37  38
HETATM   38  O2  UNL     1       0.390  51.239  -9.065  1.00  0.00    -0.321 OA
BRANCH  38  39
HETATM   39  C2  UNL     1      -0.154  50.349  -8.192  1.00  0.00     0.254 C 
HETATM   40  C1  UNL     1      -1.536  50.781  -7.816  1.00  0.00     0.126 C 
HETATM   41  O1  UNL     1       0.385  49.325  -7.793  1.00  0.00    -0.266 OA
ENDBRANCH  38  39
ENDBRANCH  37  38
ENDBRANCH   1  37
BRANCH  16  42
HETATM   42  O4  UNL     1       0.715  53.567 -12.416  1.00  0.00    -0.388 OA
HETATM   43  H22 UNL     1       1.173  54.397 -12.207  1.00  0.00     0.210 HD
ENDBRANCH  16  42
TORSDOF 10
ENDMDL
MODEL 7
REMARK minimizedAffinity -8.83883667
REMARK CNNscore 0.566928923
REMARK CNNaffinity 6.38423204
REMARK  10 active torsions:
REMARK  status: ('A' for Active; 'I' for Inactive)
REMARK    1  A    between atoms: C2_2  and  O2_4 
REMARK    2  A    between atoms: O2_4  and  C3_5 
REMARK    3  A    between atoms: C3_5  and  C4_6 
REMARK    4  A    between atoms: C18_21  and  O4_22 
REMARK    5  A    between atoms: C21_25  and  O5_26 
REMARK    6  A    between atoms: C21_25  and  C22_27 
REMARK    7  A    between atoms: C22_27  and  O6_29 
REMARK    8  A    between atoms: C22_27  and  C24_30 
REMARK    9  A    between atoms: C28_34  and  C29_35 
REMARK   10  A    between atoms: C29_35  and  O7_36 
ROOT
HETATM    1  C4  UNL     1       5.177  66.658 -35.773  1.00  0.00     0.047 C 
HETATM    2  C5  UNL     1       5.316  67.619 -34.583  1.00  0.00     0.018 C 
HETATM    3  C6  UNL     1       5.926  68.970 -35.008  1.00  0.00     0.007 C 
HETATM    4  C7  UNL     1       7.278  68.858 -35.777  1.00  0.00     0.013 C 
HETATM    5  C8  UNL     1       7.210  67.783 -36.911  1.00  0.00     0.030 C 
HETATM    6  C9  UNL     1       8.600  67.559 -37.529  1.00  0.00     0.035 C 
HETATM    7  C10 UNL     1       9.299  68.840 -37.846  1.00  0.00    -0.022 C 
HETATM    8  C11 UNL     1       8.962  70.041 -37.341  1.00  0.00    -0.064 C 
HETATM    9  C12 UNL     1       9.737  71.275 -37.757  1.00  0.00     0.062 C 
HETATM   10  C13 UNL     1      10.058  72.159 -36.592  1.00  0.00    -0.019 C 
HETATM   11  C14 UNL     1       9.506  72.041 -35.380  1.00  0.00     0.047 C 
HETATM   12  C15 UNL     1       8.462  71.015 -35.114  1.00  0.00     0.162 C 
HETATM   13  O3  UNL     1       8.106  70.865 -33.946  1.00  0.00    -0.292 OA
HETATM   14  C16 UNL     1       7.839  70.240 -36.309  1.00  0.00     0.048 C 
HETATM   15  C17 UNL     1       6.727  71.117 -36.918  1.00  0.00     0.029 C 
HETATM   16  C18 UNL     1       6.591  66.464 -36.392  1.00  0.00     0.075 C 
HETATM   17  C19 UNL     1       6.361  65.358 -37.413  1.00  0.00     0.042 C 
HETATM   18  C20 UNL     1       5.436  64.372 -36.676  1.00  0.00     0.045 C 
HETATM   19  C21 UNL     1       4.730  65.161 -35.513  1.00  0.00     0.103 C 
ENDROOT
BRANCH  19  20
HETATM   20  O5  UNL     1       3.311  65.052 -35.834  1.00  0.00    -0.386 OA
HETATM   21  H27 UNL     1       3.075  64.134 -35.572  1.00  0.00     0.210 HD
ENDBRANCH  19  20
BRANCH  19  22
HETATM   22  C22 UNL     1       4.841  64.410 -34.113  1.00  0.00     0.113 C 
HETATM   23  C23 UNL     1       4.738  65.369 -32.911  1.00  0.00     0.052 C 
BRANCH  22  24
HETATM   24  O6  UNL     1       3.548  63.683 -34.068  1.00  0.00    -0.384 OA
HETATM   25  H31 UNL     1       3.660  62.984 -33.389  1.00  0.00     0.210 HD
ENDBRANCH  22  24
BRANCH  22  26
HETATM   26  C24 UNL     1       5.943  63.314 -33.885  1.00  0.00     0.173 C 
HETATM   27  C25 UNL     1       6.071  62.204 -34.928  1.00  0.00     0.070 C 
HETATM   28  C26 UNL     1       7.262  61.338 -34.599  1.00  0.00    -0.067 C 
HETATM   29  C27 UNL     1       7.146  59.903 -35.030  1.00  0.00     0.044 C 
HETATM   30  C28 UNL     1       8.339  61.873 -33.983  1.00  0.00     0.042 C 
HETATM   31  C30 UNL     1       8.375  63.331 -33.688  1.00  0.00     0.292 C 
HETATM   32  O8  UNL     1       9.390  63.899 -33.306  1.00  0.00    -0.260 OA
HETATM   33  O9  UNL     1       7.226  64.024 -33.892  1.00  0.00    -0.309 OA
BRANCH  30  34
HETATM   34  C29 UNL     1       9.577  61.119 -33.598  1.00  0.00     0.209 C 
BRANCH  34  35
HETATM   35  O7  UNL     1       9.760  61.203 -32.189  1.00  0.00    -0.396 OA
HETATM   36  H40 UNL     1      10.311  60.443 -31.932  1.00  0.00     0.209 HD
ENDBRANCH  34  35
ENDBRANCH  30  34
ENDBRANCH  22  26
ENDBRANCH  19  22
BRANCH   1  37
HETATM   37  C3  UNL     1       4.179  67.313 -36.815  1.00  0.00     0.194 C 
BRANCH  37  38
HETATM   38  O2  UNL     1       4.070  66.498 -37.996  1.00  0.00    -0.321 OA
BRANCH  38  39
HETATM   39  C2  UNL     1       3.188  66.958 -38.922  1.00  0.00     0.254 C 
HETATM   40  C1  UNL     1       1.797  66.908 -38.372  1.00  0.00     0.126 C 
HETATM   41  O1  UNL     1       3.479  67.386 -40.031  1.00  0.00    -0.266 OA
ENDBRANCH  38  39
ENDBRANCH  37  38
ENDBRANCH   1  37
BRANCH  16  42
HETATM   42  O4  UNL     1       7.468  65.875 -35.418  1.00  0.00    -0.388 OA
HETATM   43  H22 UNL     1       8.093  66.537 -35.079  1.00  0.00     0.210 HD
ENDBRANCH  16  42
TORSDOF 10
ENDMDL
MODEL 8
REMARK minimizedAffinity -8.82748508
REMARK CNNscore 0.495765328
REMARK CNNaffinity 6.16754675
REMARK  10 active torsions:
REMARK  status: ('A' for Active; 'I' for Inactive)
REMARK    1  A    between atoms: C2_2  and  O2_4 
REMARK    2  A    between atoms: O2_4  and  C3_5 
REMARK    3  A    between atoms: C3_5  and  C4_6 
REMARK    4  A    between atoms: C18_21  and  O4_22 
REMARK    5  A    between atoms: C21_25  and  O5_26 
REMARK    6  A    between atoms: C21_25  and  C22_27 
REMARK    7  A    between atoms: C22_27  and  O6_29 
REMARK    8  A    between atoms: C22_27  and  C24_30 
REMARK    9  A    between atoms: C28_34  and  C29_35 
REMARK   10  A    between atoms: C29_35  and  O7_36 
ROOT
HETATM    1  C4  UNL     1       6.347  65.709 -35.200  1.00  0.00     0.047 C 
HETATM    2  C5  UNL     1       6.830  65.997 -36.629  1.00  0.00     0.018 C 
HETATM    3  C6  UNL     1       6.048  67.160 -37.273  1.00  0.00     0.007 C 
HETATM    4  C7  UNL     1       4.497  66.990 -37.246  1.00  0.00     0.013 C 
HETATM    5  C8  UNL     1       3.988  66.560 -35.832  1.00  0.00     0.030 C 
HETATM    6  C9  UNL     1       2.489  66.220 -35.877  1.00  0.00     0.035 C 
HETATM    7  C10 UNL     1       1.689  67.251 -36.605  1.00  0.00    -0.022 C 
HETATM    8  C11 UNL     1       2.206  68.171 -37.439  1.00  0.00    -0.064 C 
HETATM    9  C12 UNL     1       1.292  69.179 -38.104  1.00  0.00     0.062 C 
HETATM   10  C13 UNL     1       1.608  69.359 -39.556  1.00  0.00    -0.019 C 
HETATM   11  C14 UNL     1       2.722  68.911 -40.147  1.00  0.00     0.047 C 
HETATM   12  C15 UNL     1       3.778  68.222 -39.358  1.00  0.00     0.162 C 
HETATM   13  O3  UNL     1       4.704  67.708 -39.986  1.00  0.00    -0.292 OA
HETATM   14  C16 UNL     1       3.698  68.238 -37.806  1.00  0.00     0.048 C 
HETATM   15  C17 UNL     1       4.292  69.571 -37.311  1.00  0.00     0.029 C 
HETATM   16  C18 UNL     1       4.827  65.389 -35.269  1.00  0.00     0.075 C 
HETATM   17  C19 UNL     1       4.515  64.932 -33.851  1.00  0.00     0.042 C 
HETATM   18  C20 UNL     1       5.719  64.045 -33.484  1.00  0.00     0.045 C 
HETATM   19  C21 UNL     1       6.909  64.443 -34.432  1.00  0.00     0.103 C 
ENDROOT
BRANCH  19  20
HETATM   20  O5  UNL     1       7.947  64.898 -33.511  1.00  0.00    -0.386 OA
HETATM   21  H27 UNL     1       8.313  64.067 -33.133  1.00  0.00     0.210 HD
ENDBRANCH  19  20
BRANCH  19  22
HETATM   22  C22 UNL     1       7.579  63.179 -35.132  1.00  0.00     0.113 C 
HETATM   23  C23 UNL     1       7.026  61.842 -34.603  1.00  0.00     0.052 C 
BRANCH  22  24
HETATM   24  O6  UNL     1       7.002  63.259 -36.496  1.00  0.00    -0.384 OA
HETATM   25  H31 UNL     1       7.576  62.699 -37.060  1.00  0.00     0.210 HD
ENDBRANCH  22  24
BRANCH  22  26
HETATM   26  C24 UNL     1       9.135  63.119 -35.340  1.00  0.00     0.173 C 
HETATM   27  C25 UNL     1       9.792  64.250 -36.131  1.00  0.00     0.070 C 
HETATM   28  C26 UNL     1      11.291  64.078 -36.104  1.00  0.00    -0.067 C 
HETATM   29  C27 UNL     1      12.016  64.607 -37.311  1.00  0.00     0.044 C 
HETATM   30  C28 UNL     1      11.889  63.506 -35.036  1.00  0.00     0.042 C 
HETATM   31  C30 UNL     1      11.073  63.106 -33.858  1.00  0.00     0.292 C 
HETATM   32  O8  UNL     1      11.577  62.759 -32.797  1.00  0.00    -0.260 OA
HETATM   33  O9  UNL     1       9.725  63.169 -33.998  1.00  0.00    -0.309 OA
BRANCH  30  34
HETATM   34  C29 UNL     1      13.364  63.275 -34.892  1.00  0.00     0.209 C 
BRANCH  34  35
HETATM   35  O7  UNL     1      13.753  62.191 -35.730  1.00  0.00    -0.396 OA
HETATM   36  H40 UNL     1      14.705  62.298 -35.901  1.00  0.00     0.209 HD
ENDBRANCH  34  35
ENDBRANCH  30  34
ENDBRANCH  22  26
ENDBRANCH  19  22
BRANCH   1  37
HETATM   37  C3  UNL     1       6.623  67.000 -34.323  1.00  0.00     0.194 C 
BRANCH  37  38
HETATM   38  O2  UNL     1       6.148  66.810 -32.977  1.00  0.00    -0.321 OA
BRANCH  38  39
HETATM   39  C2  UNL     1       6.968  67.306 -32.013  1.00  0.00     0.254 C 
HETATM   40  C1  UNL     1       6.890  68.800 -31.993  1.00  0.00     0.126 C 
HETATM   41  O1  UNL     1       7.647  66.638 -31.245  1.00  0.00    -0.266 OA
ENDBRANCH  38  39
ENDBRANCH  37  38
ENDBRANCH   1  37
BRANCH  16  42
HETATM   42  O4  UNL     1       4.617  64.219 -36.077  1.00  0.00    -0.388 OA
HETATM   43  H22 UNL     1       4.246  64.464 -36.940  1.00  0.00     0.210 HD
ENDBRANCH  16  42
TORSDOF 10
ENDMDL
MODEL 9
REMARK minimizedAffinity -7.40275764
REMARK CNNscore 0.487376332
REMARK CNNaffinity 6.13439798
REMARK  10 active torsions:
REMARK  status: ('A' for Active; 'I' for Inactive)
REMARK    1  A    between atoms: C2_2  and  O2_4 
REMARK    2  A    between atoms: O2_4  and  C3_5 
REMARK    3  A    between atoms: C3_5  and  C4_6 
REMARK    4  A    between atoms: C18_21  and  O4_22 
REMARK    5  A    between atoms: C21_25  and  O5_26 
REMARK    6  A    between atoms: C21_25  and  C22_27 
REMARK    7  A    between atoms: C22_27  and  O6_29 
REMARK    8  A    between atoms: C22_27  and  C24_30 
REMARK    9  A    between atoms: C28_34  and  C29_35 
REMARK   10  A    between atoms: C29_35  and  O7_36 
ROOT
HETATM    1  C4  UNL     1      -9.842  47.338 -28.406  1.00  0.00     0.047 C 
HETATM    2  C5  UNL     1     -11.161  47.604 -29.146  1.00  0.00     0.018 C 
HETATM    3  C6  UNL     1     -12.376  47.082 -28.352  1.00  0.00     0.007 C 
HETATM    4  C7  UNL     1     -12.281  45.583 -27.933  1.00  0.00     0.013 C 
HETATM    5  C8  UNL     1     -10.891  45.248 -27.300  1.00  0.00     0.030 C 
HETATM    6  C9  UNL     1     -10.753  43.735 -27.067  1.00  0.00     0.035 C 
HETATM    7  C10 UNL     1     -11.959  43.143 -26.414  1.00  0.00    -0.022 C 
HETATM    8  C11 UNL     1     -13.166  43.735 -26.357  1.00  0.00    -0.064 C 
HETATM    9  C12 UNL     1     -14.310  43.042 -25.646  1.00  0.00     0.062 C 
HETATM   10  C13 UNL     1     -15.587  43.117 -26.424  1.00  0.00    -0.019 C 
HETATM   11  C14 UNL     1     -15.786  43.921 -27.474  1.00  0.00     0.047 C 
HETATM   12  C15 UNL     1     -14.726  44.864 -27.922  1.00  0.00     0.162 C 
HETATM   13  O3  UNL     1     -14.919  45.466 -28.978  1.00  0.00    -0.292 OA
HETATM   14  C16 UNL     1     -13.478  45.086 -27.022  1.00  0.00     0.048 C 
HETATM   15  C17 UNL     1     -13.847  46.122 -25.942  1.00  0.00     0.029 C 
HETATM   16  C18 UNL     1      -9.736  45.806 -28.165  1.00  0.00     0.075 C 
HETATM   17  C19 UNL     1      -8.323  45.649 -27.618  1.00  0.00     0.042 C 
HETATM   18  C20 UNL     1      -7.487  46.593 -28.500  1.00  0.00     0.045 C 
HETATM   19  C21 UNL     1      -8.469  47.646 -29.134  1.00  0.00     0.103 C 
ENDROOT
BRANCH  19  20
HETATM   20  O5  UNL     1      -7.972  48.925 -28.635  1.00  0.00    -0.386 OA
HETATM   21  H27 UNL     1      -7.173  49.102 -29.181  1.00  0.00     0.210 HD
ENDBRANCH  19  20
BRANCH  19  22
HETATM   22  C22 UNL     1      -8.286  47.779 -30.710  1.00  0.00     0.113 C 
HETATM   23  C23 UNL     1      -9.628  47.869 -31.462  1.00  0.00     0.052 C 
BRANCH  22  24
HETATM   24  O6  UNL     1      -7.748  49.157 -30.827  1.00  0.00    -0.384 OA
HETATM   25  H31 UNL     1      -7.345  49.209 -31.720  1.00  0.00     0.210 HD
ENDBRANCH  22  24
BRANCH  22  26
HETATM   26  C24 UNL     1      -7.258  46.865 -31.469  1.00  0.00     0.173 C 
HETATM   27  C25 UNL     1      -5.795  47.306 -31.495  1.00  0.00     0.070 C 
HETATM   28  C26 UNL     1      -4.958  46.235 -32.150  1.00  0.00    -0.067 C 
HETATM   29  C27 UNL     1      -3.734  46.733 -32.868  1.00  0.00     0.044 C 
HETATM   30  C28 UNL     1      -5.316  44.937 -32.048  1.00  0.00     0.042 C 
HETATM   31  C30 UNL     1      -6.500  44.558 -31.231  1.00  0.00     0.292 C 
HETATM   32  O8  UNL     1      -6.760  43.395 -30.950  1.00  0.00    -0.260 OA
HETATM   33  O9  UNL     1      -7.279  45.572 -30.776  1.00  0.00    -0.309 OA
BRANCH  30  34
HETATM   34  C29 UNL     1      -4.574  43.785 -32.657  1.00  0.00     0.209 C 
BRANCH  34  35
HETATM   35  O7  UNL     1      -5.409  43.141 -33.613  1.00  0.00    -0.396 OA
HETATM   36  H40 UNL     1      -4.820  42.670 -34.228  1.00  0.00     0.209 HD
ENDBRANCH  34  35
ENDBRANCH  30  34
ENDBRANCH  22  26
ENDBRANCH  19  22
BRANCH   1  37
HETATM   37  C3  UNL     1      -9.882  48.134 -27.036  1.00  0.00     0.194 C 
BRANCH  37  38
HETATM   38  O2  UNL     1      -8.700  47.865 -26.258  1.00  0.00    -0.321 OA
BRANCH  38  39
HETATM   39  C2  UNL     1      -8.917  47.758 -24.921  1.00  0.00     0.254 C 
HETATM   40  C1  UNL     1      -7.615  47.815 -24.186  1.00  0.00     0.126 C 
HETATM   41  O1  UNL     1     -10.012  47.663 -24.384  1.00  0.00    -0.266 OA
ENDBRANCH  38  39
ENDBRANCH  37  38
ENDBRANCH   1  37
BRANCH  16  42
HETATM   42  O4  UNL     1      -9.709  45.118 -29.427  1.00  0.00    -0.388 OA
HETATM   43  H22 UNL     1     -10.558  44.677 -29.592  1.00  0.00     0.210 HD
ENDBRANCH  16  42
TORSDOF 10
ENDMDL
