MODEL 1
REMARK minimizedAffinity -7.90169287
REMARK  9 active torsions:
REMARK  status: ('A' for Active; 'I' for Inactive)
REMARK    1  A    between atoms: N1_1  and  C1_2 
REMARK    2  A    between atoms: N5_13  and  C6_14 
REMARK    3  A    between atoms: C6_14  and  C7_15 
REMARK    4  A    between atoms: C7_15  and  C8_16 
REMARK    5  A    between atoms: C7_15  and  O1_18 
REMARK    6  A    between atoms: O1_18  and  C9_19 
REMARK    7  A    between atoms: C9_19  and  P1_20 
REMARK    8  A    between atoms: P1_20  and  O3_22 
REMARK    9  A    between atoms: P1_20  and  O4_23 
ROOT
HETATM    1  C1  UNL     1       3.730  63.121 -32.447  1.00  0.00     0.109 A 
HETATM    2  N2  UNL     1       3.835  64.395 -32.004  1.00  0.00    -0.341 N 
ATOM      3  H2  UNL     1       3.211  64.751 -31.280  1.00  0.00     0.167 HD
HETATM    4  C2  UNL     1       4.789  65.186 -32.546  1.00  0.00     0.183 A 
HETATM    5  N3  UNL     1       5.701  64.877 -33.491  1.00  0.00    -0.336 N 
ATOM      6  H3  UNL     1       6.402  65.523 -33.855  1.00  0.00     0.168 HD
HETATM    7  C3  UNL     1       5.557  63.600 -33.885  1.00  0.00     0.140 A 
HETATM    8  C4  UNL     1       4.633  62.675 -33.427  1.00  0.00     0.116 A 
HETATM    9  N4  UNL     1       4.812  61.453 -34.048  1.00  0.00    -0.346 N 
ATOM     10  H4  UNL     1       4.280  60.596 -33.900  1.00  0.00     0.167 HD
HETATM   11  C5  UNL     1       5.823  61.640 -34.872  1.00  0.00     0.185 A 
HETATM   12  N5  UNL     1       6.294  62.924 -34.816  1.00  0.00    -0.325 N 
ENDROOT
BRANCH  12  13
HETATM   13  C6  UNL     1       7.381  63.480 -35.599  1.00  0.00     0.165 C 
BRANCH  13  14
HETATM   14  C7  UNL     1       8.747  63.109 -35.011  1.00  0.00     0.169 C 
BRANCH  14  15
HETATM   15  C8  UNL     1       9.405  62.039 -35.885  1.00  0.00     0.255 C 
HETATM   16  F1  UNL     1      10.504  62.561 -36.493  1.00  0.00    -0.253 F 
ENDBRANCH  14  15
BRANCH  14  17
HETATM   17  O1  UNL     1       8.525  62.647 -33.668  1.00  0.00    -0.370 OA
BRANCH  17  18
HETATM   18  C9  UNL     1       9.550  61.782 -33.166  1.00  0.00     0.292 C 
BRANCH  18  19
HETATM   19  P1  UNL     1      10.911  62.804 -32.601  1.00  0.00     0.260 P 
HETATM   20  O2  UNL     1      12.025  63.127 -33.540  1.00  0.00    -0.652 OA
BRANCH  19  21
HETATM   21  O3  UNL     1      10.244  64.141 -32.013  1.00  0.00    -0.328 OA
HETATM   22  H12 UNL     1      10.904  64.834 -31.830  1.00  0.00     0.220 HD
ENDBRANCH  19  21
BRANCH  19  23
HETATM   23  O4  UNL     1      11.447  62.129 -31.248  1.00  0.00    -0.328 OA
HETATM   24  H13 UNL     1      12.329  62.452 -30.985  1.00  0.00     0.220 HD
ENDBRANCH  19  23
ENDBRANCH  18  19
ENDBRANCH  17  18
ENDBRANCH  14  17
ENDBRANCH  13  14
ENDBRANCH  12  13
BRANCH   1  25
HETATM   25  N1  UNL     1       2.747  62.312 -31.894  1.00  0.00    -0.287 NA
HETATM   26  H1  UNL     1       2.452  62.637 -30.984  1.00  0.00     0.125 HD
HETATM   27  H2  UNL     1       2.933  61.321 -32.008  1.00  0.00     0.125 HD
ENDBRANCH   1  25
TORSDOF 9
ENDMDL
MODEL 2
REMARK minimizedAffinity -7.83162594
REMARK  9 active torsions:
REMARK  status: ('A' for Active; 'I' for Inactive)
REMARK    1  A    between atoms: N1_1  and  C1_2 
REMARK    2  A    between atoms: N5_13  and  C6_14 
REMARK    3  A    between atoms: C6_14  and  C7_15 
REMARK    4  A    between atoms: C7_15  and  C8_16 
REMARK    5  A    between atoms: C7_15  and  O1_18 
REMARK    6  A    between atoms: O1_18  and  C9_19 
REMARK    7  A    between atoms: C9_19  and  P1_20 
REMARK    8  A    between atoms: P1_20  and  O3_22 
REMARK    9  A    between atoms: P1_20  and  O4_23 
ROOT
HETATM    1  C1  UNL     1       3.994  64.649 -31.715  1.00  0.00     0.109 A 
HETATM    2  N2  UNL     1       4.756  65.756 -31.872  1.00  0.00    -0.341 N 
ATOM      3  H2  UNL     1       4.638  66.563 -31.261  1.00  0.00     0.167 HD
HETATM    4  C2  UNL     1       5.679  65.764 -32.861  1.00  0.00     0.183 A 
HETATM    5  N3  UNL     1       5.977  64.787 -33.742  1.00  0.00    -0.336 N 
ATOM      6  H3  UNL     1       6.693  64.855 -34.465  1.00  0.00     0.168 HD
HETATM    7  C3  UNL     1       5.199  63.711 -33.533  1.00  0.00     0.140 A 
HETATM    8  C4  UNL     1       4.217  63.555 -32.568  1.00  0.00     0.116 A 
HETATM    9  N4  UNL     1       3.650  62.296 -32.643  1.00  0.00    -0.346 N 
ATOM     10  H4  UNL     1       2.912  61.910 -32.055  1.00  0.00     0.167 HD
HETATM   11  C5  UNL     1       4.275  61.705 -33.642  1.00  0.00     0.185 A 
HETATM   12  N5  UNL     1       5.208  62.527 -34.215  1.00  0.00    -0.325 N 
ENDROOT
BRANCH  12  13
HETATM   13  C6  UNL     1       6.060  62.210 -35.345  1.00  0.00     0.165 C 
BRANCH  13  14
HETATM   14  C7  UNL     1       7.335  61.483 -34.904  1.00  0.00     0.169 C 
BRANCH  14  15
HETATM   15  C8  UNL     1       6.984  60.061 -34.463  1.00  0.00     0.255 C 
HETATM   16  F1  UNL     1       7.939  59.198 -34.906  1.00  0.00    -0.253 F 
ENDBRANCH  14  15
BRANCH  14  17
HETATM   17  O1  UNL     1       7.919  62.249 -33.837  1.00  0.00    -0.370 OA
BRANCH  17  18
HETATM   18  C9  UNL     1       9.000  63.097 -34.243  1.00  0.00     0.292 C 
BRANCH  18  19
HETATM   19  P1  UNL     1      10.273  63.015 -32.984  1.00  0.00     0.260 P 
HETATM   20  O2  UNL     1      11.701  62.869 -33.392  1.00  0.00    -0.652 OA
BRANCH  19  21
HETATM   21  O3  UNL     1      10.065  64.312 -32.061  1.00  0.00    -0.328 OA
HETATM   22  H12 UNL     1      10.807  64.451 -31.444  1.00  0.00     0.220 HD
ENDBRANCH  19  21
BRANCH  19  23
HETATM   23  O4  UNL     1       9.822  61.860 -31.965  1.00  0.00    -0.328 OA
HETATM   24  H13 UNL     1      10.546  61.561 -31.385  1.00  0.00     0.220 HD
ENDBRANCH  19  23
ENDBRANCH  18  19
ENDBRANCH  17  18
ENDBRANCH  14  17
ENDBRANCH  13  14
ENDBRANCH  12  13
BRANCH   1  25
HETATM   25  N1  UNL     1       3.044  64.643 -30.703  1.00  0.00    -0.287 NA
HETATM   26  H1  UNL     1       3.258  65.310 -29.974  1.00  0.00     0.125 HD
HETATM   27  H2  UNL     1       2.760  63.710 -30.425  1.00  0.00     0.125 HD
ENDBRANCH   1  25
TORSDOF 9
ENDMDL
MODEL 3
REMARK minimizedAffinity -7.58306217
REMARK  9 active torsions:
REMARK  status: ('A' for Active; 'I' for Inactive)
REMARK    1  A    between atoms: N1_1  and  C1_2 
REMARK    2  A    between atoms: N5_13  and  C6_14 
REMARK    3  A    between atoms: C6_14  and  C7_15 
REMARK    4  A    between atoms: C7_15  and  C8_16 
REMARK    5  A    between atoms: C7_15  and  O1_18 
REMARK    6  A    between atoms: O1_18  and  C9_19 
REMARK    7  A    between atoms: C9_19  and  P1_20 
REMARK    8  A    between atoms: P1_20  and  O3_22 
REMARK    9  A    between atoms: P1_20  and  O4_23 
ROOT
HETATM    1  C1  UNL     1       3.679  63.944 -31.861  1.00  0.00     0.109 A 
HETATM    2  N2  UNL     1       3.332  62.667 -32.140  1.00  0.00    -0.341 N 
ATOM      3  H2  UNL     1       2.599  62.196 -31.609  1.00  0.00     0.167 HD
HETATM    4  C2  UNL     1       3.980  62.030 -33.141  1.00  0.00     0.183 A 
HETATM    5  N3  UNL     1       4.952  62.502 -33.949  1.00  0.00    -0.336 N 
ATOM      6  H3  UNL     1       5.400  61.968 -34.694  1.00  0.00     0.168 HD
HETATM    7  C3  UNL     1       5.249  63.775 -33.634  1.00  0.00     0.140 A 
HETATM    8  C4  UNL     1       4.676  64.554 -32.642  1.00  0.00     0.116 A 
HETATM    9  N4  UNL     1       5.220  65.825 -32.639  1.00  0.00    -0.346 N 
ATOM     10  H4  UNL     1       4.983  66.602 -32.023  1.00  0.00     0.167 HD
HETATM   11  C5  UNL     1       6.112  65.810 -33.610  1.00  0.00     0.185 A 
HETATM   12  N5  UNL     1       6.171  64.590 -34.227  1.00  0.00    -0.325 N 
ENDROOT
BRANCH  12  13
HETATM   13  C6  UNL     1       7.051  64.216 -35.317  1.00  0.00     0.165 C 
BRANCH  13  14
HETATM   14  C7  UNL     1       8.448  63.841 -34.811  1.00  0.00     0.169 C 
BRANCH  14  15
HETATM   15  C8  UNL     1       9.304  63.360 -35.984  1.00  0.00     0.255 C 
HETATM   16  F1  UNL     1      10.223  64.313 -36.299  1.00  0.00    -0.253 F 
ENDBRANCH  14  15
BRANCH  14  17
HETATM   17  O1  UNL     1       8.284  62.822 -33.811  1.00  0.00    -0.370 OA
BRANCH  17  18
HETATM   18  C9  UNL     1       9.427  61.976 -33.636  1.00  0.00     0.292 C 
BRANCH  18  19
HETATM   19  P1  UNL     1      10.638  62.873 -32.665  1.00  0.00     0.260 P 
HETATM   20  O2  UNL     1      10.248  64.156 -32.010  1.00  0.00    -0.652 OA
BRANCH  19  21
HETATM   21  O3  UNL     1      11.204  61.823 -31.590  1.00  0.00    -0.328 OA
HETATM   22  H12 UNL     1      11.750  62.252 -30.905  1.00  0.00     0.220 HD
ENDBRANCH  19  21
BRANCH  19  23
HETATM   23  O4  UNL     1      11.926  63.048 -33.605  1.00  0.00    -0.328 OA
HETATM   24  H13 UNL     1      12.547  63.723 -33.276  1.00  0.00     0.220 HD
ENDBRANCH  19  23
ENDBRANCH  18  19
ENDBRANCH  17  18
ENDBRANCH  14  17
ENDBRANCH  13  14
ENDBRANCH  12  13
BRANCH   1  25
HETATM   25  N1  UNL     1       3.016  64.596 -30.830  1.00  0.00    -0.287 NA
HETATM   26  H1  UNL     1       2.115  64.182 -30.634  1.00  0.00     0.125 HD
HETATM   27  H2  UNL     1       3.072  65.607 -30.894  1.00  0.00     0.125 HD
ENDBRANCH   1  25
TORSDOF 9
ENDMDL
MODEL 4
REMARK minimizedAffinity -7.19961977
REMARK  9 active torsions:
REMARK  status: ('A' for Active; 'I' for Inactive)
REMARK    1  A    between atoms: N1_1  and  C1_2 
REMARK    2  A    between atoms: N5_13  and  C6_14 
REMARK    3  A    between atoms: C6_14  and  C7_15 
REMARK    4  A    between atoms: C7_15  and  C8_16 
REMARK    5  A    between atoms: C7_15  and  O1_18 
REMARK    6  A    between atoms: O1_18  and  C9_19 
REMARK    7  A    between atoms: C9_19  and  P1_20 
REMARK    8  A    between atoms: P1_20  and  O3_22 
REMARK    9  A    between atoms: P1_20  and  O4_23 
ROOT
HETATM    1  C1  UNL     1       3.635  63.904 -31.840  1.00  0.00     0.109 A 
HETATM    2  N2  UNL     1       3.176  62.660 -32.104  1.00  0.00    -0.341 N 
ATOM      3  H2  UNL     1       2.400  62.265 -31.572  1.00  0.00     0.167 HD
HETATM    4  C2  UNL     1       3.770  61.952 -33.090  1.00  0.00     0.183 A 
HETATM    5  N3  UNL     1       4.786  62.322 -33.897  1.00  0.00    -0.336 N 
ATOM      6  H3  UNL     1       5.188  61.739 -34.631  1.00  0.00     0.168 HD
HETATM    7  C3  UNL     1       5.195  63.567 -33.598  1.00  0.00     0.140 A 
HETATM    8  C4  UNL     1       4.689  64.410 -32.621  1.00  0.00     0.116 A 
HETATM    9  N4  UNL     1       5.345  65.626 -32.633  1.00  0.00    -0.346 N 
ATOM     10  H4  UNL     1       5.176  66.430 -32.030  1.00  0.00     0.167 HD
HETATM   11  C5  UNL     1       6.238  65.516 -33.596  1.00  0.00     0.185 A 
HETATM   12  N5  UNL     1       6.191  64.287 -34.195  1.00  0.00    -0.325 N 
ENDROOT
BRANCH  12  13
HETATM   13  C6  UNL     1       7.041  63.818 -35.273  1.00  0.00     0.165 C 
BRANCH  13  14
HETATM   14  C7  UNL     1       8.253  64.733 -35.474  1.00  0.00     0.169 C 
BRANCH  14  15
HETATM   15  C8  UNL     1       8.156  65.418 -36.838  1.00  0.00     0.255 C 
HETATM   16  F1  UNL     1       8.353  66.757 -36.690  1.00  0.00    -0.253 F 
ENDBRANCH  14  15
BRANCH  14  17
HETATM   17  O1  UNL     1       9.430  63.916 -35.364  1.00  0.00    -0.370 OA
BRANCH  17  18
HETATM   18  C9  UNL     1       9.266  62.750 -34.547  1.00  0.00     0.292 C 
BRANCH  18  19
HETATM   19  P1  UNL     1      10.295  62.943 -33.092  1.00  0.00     0.260 P 
HETATM   20  O2  UNL     1      11.781  62.926 -33.237  1.00  0.00    -0.652 OA
BRANCH  19  21
HETATM   21  O3  UNL     1       9.800  64.293 -32.377  1.00  0.00    -0.328 OA
HETATM   22  H12 UNL     1      10.402  64.578 -31.666  1.00  0.00     0.220 HD
ENDBRANCH  19  21
BRANCH  19  23
HETATM   23  O4  UNL     1       9.785  61.851 -32.033  1.00  0.00    -0.328 OA
HETATM   24  H13 UNL     1      10.420  61.698 -31.309  1.00  0.00     0.220 HD
ENDBRANCH  19  23
ENDBRANCH  18  19
ENDBRANCH  17  18
ENDBRANCH  14  17
ENDBRANCH  13  14
ENDBRANCH  12  13
BRANCH   1  25
HETATM   25  N1  UNL     1       3.027  64.629 -30.824  1.00  0.00    -0.287 NA
HETATM   26  H1  UNL     1       2.091  64.301 -30.628  1.00  0.00     0.125 HD
HETATM   27  H2  UNL     1       3.175  65.629 -30.901  1.00  0.00     0.125 HD
ENDBRANCH   1  25
TORSDOF 9
ENDMDL
MODEL 5
REMARK minimizedAffinity -7.13675022
REMARK  9 active torsions:
REMARK  status: ('A' for Active; 'I' for Inactive)
REMARK    1  A    between atoms: N1_1  and  C1_2 
REMARK    2  A    between atoms: N5_13  and  C6_14 
REMARK    3  A    between atoms: C6_14  and  C7_15 
REMARK    4  A    between atoms: C7_15  and  C8_16 
REMARK    5  A    between atoms: C7_15  and  O1_18 
REMARK    6  A    between atoms: O1_18  and  C9_19 
REMARK    7  A    between atoms: C9_19  and  P1_20 
REMARK    8  A    between atoms: P1_20  and  O3_22 
REMARK    9  A    between atoms: P1_20  and  O4_23 
ROOT
HETATM    1  C1  UNL     1       0.150  53.435 -26.348  1.00  0.00     0.109 A 
HETATM    2  N2  UNL     1       1.350  52.834 -26.175  1.00  0.00    -0.341 N 
ATOM      3  H2  UNL     1       2.197  53.386 -26.040  1.00  0.00     0.167 HD
HETATM    4  C2  UNL     1       1.397  51.483 -26.186  1.00  0.00     0.183 A 
HETATM    5  N3  UNL     1       0.382  50.606 -26.333  1.00  0.00    -0.336 N 
ATOM      6  H3  UNL     1       0.485  49.591 -26.327  1.00  0.00     0.168 HD
HETATM    7  C3  UNL     1      -0.783  51.257 -26.490  1.00  0.00     0.140 A 
HETATM    8  C4  UNL     1      -0.989  52.627 -26.502  1.00  0.00     0.116 A 
HETATM    9  N4  UNL     1      -2.331  52.921 -26.655  1.00  0.00    -0.346 N 
ATOM     10  H4  UNL     1      -2.766  53.842 -26.693  1.00  0.00     0.167 HD
HETATM   11  C5  UNL     1      -2.924  51.747 -26.742  1.00  0.00     0.185 A 
HETATM   12  N5  UNL     1      -2.027  50.717 -26.660  1.00  0.00    -0.325 N 
ENDROOT
BRANCH  12  13
HETATM   13  C6  UNL     1      -2.328  49.301 -26.738  1.00  0.00     0.165 C 
BRANCH  13  14
HETATM   14  C7  UNL     1      -3.821  49.054 -26.981  1.00  0.00     0.169 C 
BRANCH  14  15
HETATM   15  C8  UNL     1      -4.447  48.436 -25.729  1.00  0.00     0.255 C 
HETATM   16  F1  UNL     1      -3.467  48.119 -24.840  1.00  0.00    -0.253 F 
ENDBRANCH  14  15
BRANCH  14  17
HETATM   17  O1  UNL     1      -3.933  48.189 -28.123  1.00  0.00    -0.370 OA
BRANCH  17  18
HETATM   18  C9  UNL     1      -5.271  48.020 -28.607  1.00  0.00     0.292 C 
BRANCH  18  19
HETATM   19  P1  UNL     1      -5.293  48.466 -30.343  1.00  0.00     0.260 P 
HETATM   20  O2  UNL     1      -4.838  47.473 -31.361  1.00  0.00    -0.652 OA
BRANCH  19  21
HETATM   21  O3  UNL     1      -6.788  48.966 -30.651  1.00  0.00    -0.328 OA
HETATM   22  H12 UNL     1      -6.953  49.076 -31.605  1.00  0.00     0.220 HD
ENDBRANCH  19  21
BRANCH  19  23
HETATM   23  O4  UNL     1      -4.495  49.852 -30.461  1.00  0.00    -0.328 OA
HETATM   24  H13 UNL     1      -4.234  50.064 -31.376  1.00  0.00     0.220 HD
ENDBRANCH  19  23
ENDBRANCH  18  19
ENDBRANCH  17  18
ENDBRANCH  14  17
ENDBRANCH  13  14
ENDBRANCH  12  13
BRANCH   1  25
HETATM   25  N1  UNL     1       0.102  54.823 -26.341  1.00  0.00    -0.287 NA
HETATM   26  H1  UNL     1       0.893  55.230 -25.861  1.00  0.00     0.125 HD
HETATM   27  H2  UNL     1      -0.820  55.191 -26.136  1.00  0.00     0.125 HD
ENDBRANCH   1  25
TORSDOF 9
ENDMDL
MODEL 6
REMARK minimizedAffinity -7.11354637
REMARK  9 active torsions:
REMARK  status: ('A' for Active; 'I' for Inactive)
REMARK    1  A    between atoms: N1_1  and  C1_2 
REMARK    2  A    between atoms: N5_13  and  C6_14 
REMARK    3  A    between atoms: C6_14  and  C7_15 
REMARK    4  A    between atoms: C7_15  and  C8_16 
REMARK    5  A    between atoms: C7_15  and  O1_18 
REMARK    6  A    between atoms: O1_18  and  C9_19 
REMARK    7  A    between atoms: C9_19  and  P1_20 
REMARK    8  A    between atoms: P1_20  and  O3_22 
REMARK    9  A    between atoms: P1_20  and  O4_23 
ROOT
HETATM    1  C1  UNL     1       4.217  62.395 -33.507  1.00  0.00     0.109 A 
HETATM    2  N2  UNL     1       5.124  61.457 -33.865  1.00  0.00    -0.341 N 
ATOM      3  H2  UNL     1       5.143  60.546 -33.407  1.00  0.00     0.167 HD
HETATM    4  C2  UNL     1       6.005  61.758 -34.846  1.00  0.00     0.183 A 
HETATM    5  N3  UNL     1       6.109  62.896 -35.563  1.00  0.00    -0.336 N 
ATOM      6  H3  UNL     1       6.797  63.059 -36.298  1.00  0.00     0.168 HD
HETATM    7  C3  UNL     1       5.179  63.785 -35.173  1.00  0.00     0.140 A 
HETATM    8  C4  UNL     1       4.217  63.623 -34.189  1.00  0.00     0.116 A 
HETATM    9  N4  UNL     1       3.418  64.747 -34.094  1.00  0.00    -0.346 N 
ATOM     10  H4  UNL     1       2.633  64.900 -33.462  1.00  0.00     0.167 HD
HETATM   11  C5  UNL     1       3.895  65.576 -35.000  1.00  0.00     0.185 A 
HETATM   12  N5  UNL     1       4.966  65.042 -35.665  1.00  0.00    -0.325 N 
ENDROOT
BRANCH  12  13
HETATM   13  C6  UNL     1       5.743  65.684 -36.707  1.00  0.00     0.165 C 
BRANCH  13  14
HETATM   14  C7  UNL     1       6.820  66.603 -36.122  1.00  0.00     0.169 C 
BRANCH  14  15
HETATM   15  C8  UNL     1       8.148  66.355 -36.840  1.00  0.00     0.255 C 
HETATM   16  F1  UNL     1       8.643  65.140 -36.478  1.00  0.00    -0.253 F 
ENDBRANCH  14  15
BRANCH  14  17
HETATM   17  O1  UNL     1       6.908  66.322 -34.715  1.00  0.00    -0.370 OA
BRANCH  17  18
HETATM   18  C9  UNL     1       6.761  67.471 -33.873  1.00  0.00     0.292 C 
BRANCH  18  19
HETATM   19  P1  UNL     1       6.828  66.922 -32.168  1.00  0.00     0.260 P 
HETATM   20  O2  UNL     1       8.113  66.404 -31.614  1.00  0.00    -0.652 OA
BRANCH  19  21
HETATM   21  O3  UNL     1       6.270  68.145 -31.289  1.00  0.00    -0.328 OA
HETATM   22  H12 UNL     1       6.418  68.012 -30.334  1.00  0.00     0.220 HD
ENDBRANCH  19  21
BRANCH  19  23
HETATM   23  O4  UNL     1       5.631  65.868 -31.989  1.00  0.00    -0.328 OA
HETATM   24  H13 UNL     1       5.719  65.327 -31.183  1.00  0.00     0.220 HD
ENDBRANCH  19  23
ENDBRANCH  18  19
ENDBRANCH  17  18
ENDBRANCH  14  17
ENDBRANCH  13  14
ENDBRANCH  12  13
BRANCH   1  25
HETATM   25  N1  UNL     1       3.316  62.086 -32.497  1.00  0.00    -0.287 NA
HETATM   26  H1  UNL     1       3.198  61.089 -32.381  1.00  0.00     0.125 HD
HETATM   27  H2  UNL     1       2.483  62.665 -32.512  1.00  0.00     0.125 HD
ENDBRANCH   1  25
TORSDOF 9
ENDMDL
MODEL 7
REMARK minimizedAffinity -6.9980135
REMARK  9 active torsions:
REMARK  status: ('A' for Active; 'I' for Inactive)
REMARK    1  A    between atoms: N1_1  and  C1_2 
REMARK    2  A    between atoms: N5_13  and  C6_14 
REMARK    3  A    between atoms: C6_14  and  C7_15 
REMARK    4  A    between atoms: C7_15  and  C8_16 
REMARK    5  A    between atoms: C7_15  and  O1_18 
REMARK    6  A    between atoms: O1_18  and  C9_19 
REMARK    7  A    between atoms: C9_19  and  P1_20 
REMARK    8  A    between atoms: P1_20  and  O3_22 
REMARK    9  A    between atoms: P1_20  and  O4_23 
ROOT
HETATM    1  C1  UNL     1       3.991  64.079 -31.842  1.00  0.00     0.109 A 
HETATM    2  N2  UNL     1       3.195  62.985 -31.826  1.00  0.00    -0.341 N 
ATOM      3  H2  UNL     1       2.411  62.918 -31.178  1.00  0.00     0.167 HD
HETATM    4  C2  UNL     1       3.467  61.982 -32.692  1.00  0.00     0.183 A 
HETATM    5  N3  UNL     1       4.444  61.913 -33.619  1.00  0.00    -0.336 N 
ATOM      6  H3  UNL     1       4.592  61.124 -34.249  1.00  0.00     0.168 HD
HETATM    7  C3  UNL     1       5.194  63.028 -33.597  1.00  0.00     0.140 A 
HETATM    8  C4  UNL     1       5.041  64.131 -32.774  1.00  0.00     0.116 A 
HETATM    9  N4  UNL     1       5.986  65.097 -33.066  1.00  0.00    -0.346 N 
ATOM     10  H4  UNL     1       6.103  66.007 -32.623  1.00  0.00     0.167 HD
HETATM   11  C5  UNL     1       6.702  64.581 -34.045  1.00  0.00     0.185 A 
HETATM   12  N5  UNL     1       6.267  63.329 -34.388  1.00  0.00    -0.325 N 
ENDROOT
BRANCH  12  13
HETATM   13  C6  UNL     1       6.834  62.466 -35.406  1.00  0.00     0.165 C 
BRANCH  13  14
HETATM   14  C7  UNL     1       7.957  61.590 -34.841  1.00  0.00     0.169 C 
BRANCH  14  15
HETATM   15  C8  UNL     1       7.416  60.186 -34.561  1.00  0.00     0.255 C 
HETATM   16  F1  UNL     1       6.910  59.655 -35.707  1.00  0.00    -0.253 F 
ENDBRANCH  14  15
BRANCH  14  17
HETATM   17  O1  UNL     1       8.441  62.228 -33.648  1.00  0.00    -0.370 OA
BRANCH  17  18
HETATM   18  C9  UNL     1       9.587  61.596 -33.065  1.00  0.00     0.292 C 
BRANCH  18  19
HETATM   19  P1  UNL     1      10.792  62.870 -32.689  1.00  0.00     0.260 P 
HETATM   20  O2  UNL     1      11.884  63.158 -33.665  1.00  0.00    -0.652 OA
BRANCH  19  21
HETATM   21  O3  UNL     1       9.945  64.194 -32.361  1.00  0.00    -0.328 OA
HETATM   22  H12 UNL     1      10.508  64.989 -32.305  1.00  0.00     0.220 HD
ENDBRANCH  19  21
BRANCH  19  23
HETATM   23  O4  UNL     1      11.368  62.527 -31.232  1.00  0.00    -0.328 OA
HETATM   24  H13 UNL     1      12.194  63.003 -31.028  1.00  0.00     0.220 HD
ENDBRANCH  19  23
ENDBRANCH  18  19
ENDBRANCH  17  18
ENDBRANCH  14  17
ENDBRANCH  13  14
ENDBRANCH  12  13
BRANCH   1  25
HETATM   25  N1  UNL     1       3.714  65.106 -30.950  1.00  0.00    -0.287 NA
HETATM   26  H1  UNL     1       2.754  65.090 -30.634  1.00  0.00     0.125 HD
HETATM   27  H2  UNL     1       4.107  65.998 -31.231  1.00  0.00     0.125 HD
ENDBRANCH   1  25
TORSDOF 9
ENDMDL
MODEL 8
REMARK minimizedAffinity -6.86053848
REMARK  9 active torsions:
REMARK  status: ('A' for Active; 'I' for Inactive)
REMARK    1  A    between atoms: N1_1  and  C1_2 
REMARK    2  A    between atoms: N5_13  and  C6_14 
REMARK    3  A    between atoms: C6_14  and  C7_15 
REMARK    4  A    between atoms: C7_15  and  C8_16 
REMARK    5  A    between atoms: C7_15  and  O1_18 
REMARK    6  A    between atoms: O1_18  and  C9_19 
REMARK    7  A    between atoms: C9_19  and  P1_20 
REMARK    8  A    between atoms: P1_20  and  O3_22 
REMARK    9  A    between atoms: P1_20  and  O4_23 
ROOT
HETATM    1  C1  UNL     1       4.249  62.395 -33.322  1.00  0.00     0.109 A 
HETATM    2  N2  UNL     1       4.844  61.360 -33.958  1.00  0.00    -0.341 N 
ATOM      3  H2  UNL     1       4.634  60.396 -33.699  1.00  0.00     0.167 HD
HETATM    4  C2  UNL     1       5.726  61.635 -34.945  1.00  0.00     0.183 A 
HETATM    5  N3  UNL     1       6.105  62.839 -35.424  1.00  0.00    -0.336 N 
ATOM      6  H3  UNL     1       6.775  62.978 -36.180  1.00  0.00     0.168 HD
HETATM    7  C3  UNL     1       5.476  63.827 -34.764  1.00  0.00     0.140 A 
HETATM    8  C4  UNL     1       4.555  63.703 -33.737  1.00  0.00     0.116 A 
HETATM    9  N4  UNL     1       4.101  64.943 -33.331  1.00  0.00    -0.346 N 
ATOM     10  H4  UNL     1       3.420  65.149 -32.600  1.00  0.00     0.167 HD
HETATM   11  C5  UNL     1       4.745  65.803 -34.095  1.00  0.00     0.185 A 
HETATM   12  N5  UNL     1       5.593  65.173 -34.965  1.00  0.00    -0.325 N 
ENDROOT
BRANCH  12  13
HETATM   13  C6  UNL     1       6.467  65.809 -35.933  1.00  0.00     0.165 C 
BRANCH  13  14
HETATM   14  C7  UNL     1       5.928  65.664 -37.360  1.00  0.00     0.169 C 
BRANCH  14  15
HETATM   15  C8  UNL     1       6.359  66.873 -38.193  1.00  0.00     0.255 C 
HETATM   16  F1  UNL     1       6.522  66.496 -39.491  1.00  0.00    -0.253 F 
ENDBRANCH  14  15
BRANCH  14  17
HETATM   17  O1  UNL     1       4.498  65.555 -37.270  1.00  0.00    -0.370 OA
BRANCH  17  18
HETATM   18  C9  UNL     1       3.797  66.785 -37.487  1.00  0.00     0.292 C 
BRANCH  18  19
HETATM   19  P1  UNL     1       2.105  66.565 -36.936  1.00  0.00     0.260 P 
HETATM   20  O2  UNL     1       1.361  67.728 -36.369  1.00  0.00    -0.652 OA
BRANCH  19  21
HETATM   21  O3  UNL     1       1.316  65.924 -38.179  1.00  0.00    -0.328 OA
HETATM   22  H12 UNL     1       0.351  65.916 -38.041  1.00  0.00     0.220 HD
ENDBRANCH  19  21
BRANCH  19  23
HETATM   23  O4  UNL     1       2.121  65.316 -35.929  1.00  0.00    -0.328 OA
HETATM   24  H13 UNL     1       1.314  65.257 -35.384  1.00  0.00     0.220 HD
ENDBRANCH  19  23
ENDBRANCH  18  19
ENDBRANCH  17  18
ENDBRANCH  14  17
ENDBRANCH  13  14
ENDBRANCH  12  13
BRANCH   1  25
HETATM   25  N1  UNL     1       3.347  62.112 -32.305  1.00  0.00    -0.287 NA
HETATM   26  H1  UNL     1       2.965  61.179 -32.382  1.00  0.00     0.125 HD
HETATM   27  H2  UNL     1       2.707  62.874 -32.113  1.00  0.00     0.125 HD
ENDBRANCH   1  25
TORSDOF 9
ENDMDL
MODEL 9
REMARK minimizedAffinity -6.81744051
REMARK  9 active torsions:
REMARK  status: ('A' for Active; 'I' for Inactive)
REMARK    1  A    between atoms: N1_1  and  C1_2 
REMARK    2  A    between atoms: N5_13  and  C6_14 
REMARK    3  A    between atoms: C6_14  and  C7_15 
REMARK    4  A    between atoms: C7_15  and  C8_16 
REMARK    5  A    between atoms: C7_15  and  O1_18 
REMARK    6  A    between atoms: O1_18  and  C9_19 
REMARK    7  A    between atoms: C9_19  and  P1_20 
REMARK    8  A    between atoms: P1_20  and  O3_22 
REMARK    9  A    between atoms: P1_20  and  O4_23 
ROOT
HETATM    1  C1  UNL     1       4.095  62.446 -33.349  1.00  0.00     0.109 A 
HETATM    2  N2  UNL     1       4.731  61.331 -33.775  1.00  0.00    -0.341 N 
ATOM      3  H2  UNL     1       4.620  60.444 -33.283  1.00  0.00     0.167 HD
HETATM    4  C2  UNL     1       5.517  61.421 -34.872  1.00  0.00     0.183 A 
HETATM    5  N3  UNL     1       5.760  62.498 -35.647  1.00  0.00    -0.336 N 
ATOM      6  H3  UNL     1       6.363  62.498 -36.469  1.00  0.00     0.168 HD
HETATM    7  C3  UNL     1       5.096  63.571 -35.183  1.00  0.00     0.140 A 
HETATM    8  C4  UNL     1       4.261  63.634 -34.080  1.00  0.00     0.116 A 
HETATM    9  N4  UNL     1       3.733  64.903 -33.935  1.00  0.00    -0.346 N 
ATOM     10  H4  UNL     1       3.088  65.231 -33.217  1.00  0.00     0.167 HD
HETATM   11  C5  UNL     1       4.248  65.597 -34.931  1.00  0.00     0.185 A 
HETATM   12  N5  UNL     1       5.086  64.835 -35.700  1.00  0.00    -0.325 N 
ENDROOT
BRANCH  12  13
HETATM   13  C6  UNL     1       5.835  65.279 -36.860  1.00  0.00     0.165 C 
BRANCH  13  14
HETATM   14  C7  UNL     1       7.311  65.512 -36.523  1.00  0.00     0.169 C 
BRANCH  14  15
HETATM   15  C8  UNL     1       7.883  66.588 -37.448  1.00  0.00     0.255 C 
HETATM   16  F1  UNL     1       7.202  66.585 -38.626  1.00  0.00    -0.253 F 
ENDBRANCH  14  15
BRANCH  14  17
HETATM   17  O1  UNL     1       7.990  64.255 -36.675  1.00  0.00    -0.370 OA
BRANCH  17  18
HETATM   18  C9  UNL     1       9.263  64.188 -36.022  1.00  0.00     0.292 C 
BRANCH  18  19
HETATM   19  P1  UNL     1       9.205  62.851 -34.828  1.00  0.00     0.260 P 
HETATM   20  O2  UNL     1       8.301  62.962 -33.646  1.00  0.00    -0.652 OA
BRANCH  19  21
HETATM   21  O3  UNL     1       8.894  61.521 -35.672  1.00  0.00    -0.328 OA
HETATM   22  H12 UNL     1       8.679  60.762 -35.101  1.00  0.00     0.220 HD
ENDBRANCH  19  21
BRANCH  19  23
HETATM   23  O4  UNL     1      10.724  62.570 -34.395  1.00  0.00    -0.328 OA
HETATM   24  H13 UNL     1      10.795  62.039 -33.581  1.00  0.00     0.220 HD
ENDBRANCH  19  23
ENDBRANCH  18  19
ENDBRANCH  17  18
ENDBRANCH  14  17
ENDBRANCH  13  14
ENDBRANCH  12  13
BRANCH   1  25
HETATM   25  N1  UNL     1       3.291  62.354 -32.220  1.00  0.00    -0.287 NA
HETATM   26  H1  UNL     1       2.985  61.406 -32.046  1.00  0.00     0.125 HD
HETATM   27  H2  UNL     1       2.604  63.096 -32.156  1.00  0.00     0.125 HD
ENDBRANCH   1  25
TORSDOF 9
ENDMDL
