MODEL 1
REMARK minimizedAffinity -7.55953503
REMARK CNNscore 0.80618149
REMARK CNNaffinity 7.19265699
REMARK  7 active torsions:
REMARK  status: ('A' for Active; 'I' for Inactive)
REMARK    1  A    between atoms: C2_2  and  C4_4 
REMARK    2  A    between atoms: C4_4  and  C6_6 
REMARK    3  A    between atoms: C6_6  and  O1_7 
REMARK    4  A    between atoms: C6_6  and  C7_8 
REMARK    5  A    between atoms: C7_8  and  C8_9 
REMARK    6  A    between atoms: C8_9  and  C10_11 
REMARK    7  A    between atoms: C16_17  and  O2_18 
ROOT
HETATM    1  C10 UNL     1       4.390  56.145  -8.147  1.00  0.00    -0.002 C 
HETATM    2  C11 UNL     1       5.343  55.257  -8.997  1.00  0.00     0.006 C 
HETATM    3  C12 UNL     1       4.472  54.378  -9.908  1.00  0.00     0.011 C 
HETATM    4  C13 UNL     1       3.056  54.979  -9.823  1.00  0.00    -0.030 C 
HETATM    5  C14 UNL     1       3.006  56.157 -10.844  1.00  0.00     0.016 C 
HETATM    6  C15 UNL     1       1.898  53.973 -10.108  1.00  0.00     0.032 C 
HETATM    7  C16 UNL     1       1.769  53.534 -11.581  1.00  0.00     0.124 C 
HETATM    8  C17 UNL     1       0.628  52.530 -11.755  1.00  0.00     0.038 C 
HETATM    9  C18 UNL     1      -0.722  53.210 -11.516  1.00  0.00     0.012 C 
HETATM   10  C19 UNL     1      -1.961  52.279 -11.720  1.00  0.00     0.018 C 
HETATM   11  C20 UNL     1      -2.000  51.750 -13.170  1.00  0.00     0.023 C 
HETATM   12  C21 UNL     1      -1.993  51.068 -10.774  1.00  0.00     0.023 C 
HETATM   13  C22 UNL     1      -3.234  53.109 -11.471  1.00  0.00     0.135 C 
HETATM   14  O3  UNL     1      -4.219  53.050 -12.211  1.00  0.00    -0.297 OA
HETATM   15  C23 UNL     1      -3.287  53.945 -10.212  1.00  0.00     0.080 C 
HETATM   16  C24 UNL     1      -2.047  54.816 -10.099  1.00  0.00     0.018 C 
HETATM   17  C25 UNL     1      -0.786  53.968 -10.182  1.00  0.00    -0.026 A 
HETATM   18  C26 UNL     1      -0.302  53.357  -8.893  1.00  0.00     0.021 A 
HETATM   19  C27 UNL     1       0.540  54.456  -9.526  1.00  0.00    -0.025 A 
HETATM   20  C28 UNL     1       0.514  55.834  -8.857  1.00  0.00     0.011 C 
HETATM   21  C29 UNL     1       1.774  56.303  -8.111  1.00  0.00     0.011 C 
HETATM   22  C30 UNL     1       3.011  55.423  -8.315  1.00  0.00    -0.032 C 
HETATM   23  C31 UNL     1       2.931  54.232  -7.312  1.00  0.00     0.016 C 
ENDROOT
BRANCH   1  24
HETATM   24  C8  UNL     1       4.959  56.418  -6.720  1.00  0.00    -0.011 C 
HETATM   25  C9  UNL     1       4.065  57.384  -5.930  1.00  0.00     0.010 C 
BRANCH  24  26
HETATM   26  C7  UNL     1       6.403  57.005  -6.796  1.00  0.00     0.037 C 
BRANCH  26  27
HETATM   27  C6  UNL     1       7.398  56.296  -5.857  1.00  0.00     0.126 C 
BRANCH  27  28
HETATM   28  C4  UNL     1       8.086  57.219  -4.810  1.00  0.00     0.038 C 
HETATM   29  C5  UNL     1       7.426  58.602  -4.712  1.00  0.00     0.017 C 
BRANCH  28  30
HETATM   30  C2  UNL     1       9.606  57.277  -4.962  1.00  0.00    -0.087 C 
HETATM   31  C1  UNL     1      10.261  58.444  -4.832  1.00  0.00     0.014 C 
HETATM   32  C3  UNL     1      10.360  56.015  -5.289  1.00  0.00     0.043 C 
ENDBRANCH  28  30
ENDBRANCH  27  28
BRANCH  27  33
HETATM   33  O1  UNL     1       6.729  55.230  -5.178  1.00  0.00    -0.395 OA
HETATM   34  H11 UNL     1       7.399  54.740  -4.672  1.00  0.00     0.210 HD
ENDBRANCH  27  33
ENDBRANCH  26  27
ENDBRANCH  24  26
ENDBRANCH   1  24
BRANCH   7  35
HETATM   35  O2  UNL     1       2.970  52.912 -12.036  1.00  0.00    -0.395 OA
HETATM   36  H28 UNL     1       3.137  52.136 -11.476  1.00  0.00     0.210 HD
ENDBRANCH   7  35
TORSDOF 7
ENDMDL
MODEL 2
REMARK minimizedAffinity -9.59696388
REMARK CNNscore 0.620008171
REMARK CNNaffinity 7.51021528
REMARK  7 active torsions:
REMARK  status: ('A' for Active; 'I' for Inactive)
REMARK    1  A    between atoms: C2_2  and  C4_4 
REMARK    2  A    between atoms: C4_4  and  C6_6 
REMARK    3  A    between atoms: C6_6  and  O1_7 
REMARK    4  A    between atoms: C6_6  and  C7_8 
REMARK    5  A    between atoms: C7_8  and  C8_9 
REMARK    6  A    between atoms: C8_9  and  C10_11 
REMARK    7  A    between atoms: C16_17  and  O2_18 
ROOT
HETATM    1  C10 UNL     1      -3.856  50.697 -24.522  1.00  0.00    -0.002 C 
HETATM    2  C11 UNL     1      -5.024  49.845 -23.947  1.00  0.00     0.006 C 
HETATM    3  C12 UNL     1      -4.795  49.700 -22.435  1.00  0.00     0.011 C 
HETATM    4  C13 UNL     1      -3.696  50.723 -22.087  1.00  0.00    -0.030 C 
HETATM    5  C14 UNL     1      -4.407  52.097 -21.889  1.00  0.00     0.016 C 
HETATM    6  C15 UNL     1      -2.847  50.371 -20.827  1.00  0.00     0.032 C 
HETATM    7  C16 UNL     1      -3.592  50.515 -19.483  1.00  0.00     0.124 C 
HETATM    8  C17 UNL     1      -2.689  50.123 -18.313  1.00  0.00     0.038 C 
HETATM    9  C18 UNL     1      -1.557  51.139 -18.148  1.00  0.00     0.012 C 
HETATM   10  C19 UNL     1      -0.604  50.857 -16.942  1.00  0.00     0.018 C 
HETATM   11  C20 UNL     1      -1.396  50.882 -15.617  1.00  0.00     0.023 C 
HETATM   12  C21 UNL     1       0.129  49.509 -17.029  1.00  0.00     0.023 C 
HETATM   13  C22 UNL     1       0.457  51.973 -16.895  1.00  0.00     0.135 C 
HETATM   14  O3  UNL     1       0.789  52.527 -15.845  1.00  0.00    -0.297 OA
HETATM   15  C23 UNL     1       1.171  52.312 -18.184  1.00  0.00     0.080 C 
HETATM   16  C24 UNL     1       0.168  52.571 -19.296  1.00  0.00     0.018 C 
HETATM   17  C25 UNL     1      -0.780  51.390 -19.449  1.00  0.00    -0.026 A 
HETATM   18  C26 UNL     1      -0.311  50.261 -20.328  1.00  0.00     0.021 A 
HETATM   19  C27 UNL     1      -1.479  51.109 -20.812  1.00  0.00    -0.025 A 
HETATM   20  C28 UNL     1      -1.204  52.100 -21.948  1.00  0.00     0.011 C 
HETATM   21  C29 UNL     1      -1.794  51.797 -23.335  1.00  0.00     0.011 C 
HETATM   22  C30 UNL     1      -2.793  50.637 -23.373  1.00  0.00    -0.032 C 
HETATM   23  C31 UNL     1      -1.989  49.306 -23.488  1.00  0.00     0.016 C 
ENDROOT
BRANCH   1  24
HETATM   24  C8  UNL     1      -3.467  50.261 -25.968  1.00  0.00    -0.011 C 
HETATM   25  C9  UNL     1      -3.446  48.733 -26.113  1.00  0.00     0.010 C 
BRANCH  24  26
HETATM   26  C7  UNL     1      -2.071  50.831 -26.367  1.00  0.00     0.037 C 
BRANCH  26  27
HETATM   27  C6  UNL     1      -2.111  52.320 -26.761  1.00  0.00     0.126 C 
BRANCH  27  28
HETATM   28  C4  UNL     1      -0.728  53.034 -26.776  1.00  0.00     0.038 C 
HETATM   29  C5  UNL     1      -0.582  54.024 -27.941  1.00  0.00     0.017 C 
BRANCH  28  30
HETATM   30  C2  UNL     1       0.450  52.071 -26.641  1.00  0.00    -0.087 C 
HETATM   31  C1  UNL     1       0.979  51.803 -25.434  1.00  0.00     0.014 C 
HETATM   32  C3  UNL     1       1.035  51.446 -27.880  1.00  0.00     0.043 C 
ENDBRANCH  28  30
ENDBRANCH  27  28
BRANCH  27  33
HETATM   33  O1  UNL     1      -2.724  52.453 -28.046  1.00  0.00    -0.395 OA
HETATM   34  H11 UNL     1      -2.827  53.403 -28.225  1.00  0.00     0.210 HD
ENDBRANCH  27  33
ENDBRANCH  26  27
ENDBRANCH  24  26
ENDBRANCH   1  24
BRANCH   7  35
HETATM   35  O2  UNL     1      -4.745  49.674 -19.446  1.00  0.00    -0.395 OA
HETATM   36  H28 UNL     1      -4.450  48.755 -19.562  1.00  0.00     0.210 HD
ENDBRANCH   7  35
TORSDOF 7
ENDMDL
MODEL 3
REMARK minimizedAffinity -9.53384113
REMARK CNNscore 0.587007165
REMARK CNNaffinity 7.31224775
REMARK  7 active torsions:
REMARK  status: ('A' for Active; 'I' for Inactive)
REMARK    1  A    between atoms: C2_2  and  C4_4 
REMARK    2  A    between atoms: C4_4  and  C6_6 
REMARK    3  A    between atoms: C6_6  and  O1_7 
REMARK    4  A    between atoms: C6_6  and  C7_8 
REMARK    5  A    between atoms: C7_8  and  C8_9 
REMARK    6  A    between atoms: C8_9  and  C10_11 
REMARK    7  A    between atoms: C16_17  and  O2_18 
ROOT
HETATM    1  C10 UNL     1       0.067  51.172 -21.052  1.00  0.00    -0.002 C 
HETATM    2  C11 UNL     1      -0.048  51.724 -19.602  1.00  0.00     0.006 C 
HETATM    3  C12 UNL     1      -1.338  51.159 -18.989  1.00  0.00     0.011 C 
HETATM    4  C13 UNL     1      -1.791  50.041 -19.948  1.00  0.00    -0.030 C 
HETATM    5  C14 UNL     1      -0.994  48.760 -19.554  1.00  0.00     0.016 C 
HETATM    6  C15 UNL     1      -3.322  49.745 -19.934  1.00  0.00     0.032 C 
HETATM    7  C16 UNL     1      -3.836  49.044 -18.659  1.00  0.00     0.124 C 
HETATM    8  C17 UNL     1      -5.347  48.822 -18.728  1.00  0.00     0.038 C 
HETATM    9  C18 UNL     1      -5.688  47.791 -19.806  1.00  0.00     0.012 C 
HETATM   10  C19 UNL     1      -7.209  47.454 -19.922  1.00  0.00     0.018 C 
HETATM   11  C20 UNL     1      -7.731  46.868 -18.592  1.00  0.00     0.023 C 
HETATM   12  C21 UNL     1      -8.090  48.660 -20.284  1.00  0.00     0.023 C 
HETATM   13  C22 UNL     1      -7.385  46.391 -21.023  1.00  0.00     0.135 C 
HETATM   14  O3  UNL     1      -8.115  45.407 -20.883  1.00  0.00    -0.297 OA
HETATM   15  C23 UNL     1      -6.702  46.639 -22.348  1.00  0.00     0.080 C 
HETATM   16  C24 UNL     1      -5.231  46.956 -22.138  1.00  0.00     0.018 C 
HETATM   17  C25 UNL     1      -5.066  48.121 -21.171  1.00  0.00    -0.026 A 
HETATM   18  C26 UNL     1      -5.134  49.503 -21.766  1.00  0.00     0.021 A 
HETATM   19  C27 UNL     1      -3.796  49.019 -21.225  1.00  0.00    -0.025 A 
HETATM   20  C28 UNL     1      -2.721  48.639 -22.249  1.00  0.00     0.011 C 
HETATM   21  C29 UNL     1      -1.502  49.562 -22.401  1.00  0.00     0.011 C 
HETATM   22  C30 UNL     1      -1.385  50.657 -21.337  1.00  0.00    -0.032 C 
HETATM   23  C31 UNL     1      -2.277  51.859 -21.776  1.00  0.00     0.016 C 
ENDROOT
BRANCH   1  24
HETATM   24  C8  UNL     1       0.735  52.198 -22.020  1.00  0.00    -0.011 C 
HETATM   25  C9  UNL     1       0.958  53.555 -21.341  1.00  0.00     0.010 C 
BRANCH  24  26
HETATM   26  C7  UNL     1      -0.131  52.403 -23.301  1.00  0.00     0.037 C 
BRANCH  26  27
HETATM   27  C6  UNL     1       0.709  52.630 -24.574  1.00  0.00     0.126 C 
BRANCH  27  28
HETATM   28  C4  UNL     1       0.098  52.041 -25.878  1.00  0.00     0.038 C 
HETATM   29  C5  UNL     1      -0.874  50.883 -25.610  1.00  0.00     0.017 C 
BRANCH  28  30
HETATM   30  C2  UNL     1       1.144  51.726 -26.947  1.00  0.00    -0.087 C 
HETATM   31  C1  UNL     1       0.823  51.775 -28.252  1.00  0.00     0.014 C 
HETATM   32  C3  UNL     1       2.533  51.331 -26.521  1.00  0.00     0.043 C 
ENDBRANCH  28  30
ENDBRANCH  27  28
BRANCH  27  33
HETATM   33  O1  UNL     1       0.933  54.031 -24.749  1.00  0.00    -0.395 OA
HETATM   34  H11 UNL     1       1.544  54.139 -25.496  1.00  0.00     0.210 HD
ENDBRANCH  27  33
ENDBRANCH  26  27
ENDBRANCH  24  26
ENDBRANCH   1  24
BRANCH   7  35
HETATM   35  O2  UNL     1      -3.561  49.828 -17.499  1.00  0.00    -0.395 OA
HETATM   36  H28 UNL     1      -4.007  50.685 -17.604  1.00  0.00     0.210 HD
ENDBRANCH   7  35
TORSDOF 7
ENDMDL
MODEL 4
REMARK minimizedAffinity -7.85870218
REMARK CNNscore 0.550267696
REMARK CNNaffinity 6.78276062
REMARK  7 active torsions:
REMARK  status: ('A' for Active; 'I' for Inactive)
REMARK    1  A    between atoms: C2_2  and  C4_4 
REMARK    2  A    between atoms: C4_4  and  C6_6 
REMARK    3  A    between atoms: C6_6  and  O1_7 
REMARK    4  A    between atoms: C6_6  and  C7_8 
REMARK    5  A    between atoms: C7_8  and  C8_9 
REMARK    6  A    between atoms: C8_9  and  C10_11 
REMARK    7  A    between atoms: C16_17  and  O2_18 
ROOT
HETATM    1  C10 UNL     1       2.211  53.742 -10.471  1.00  0.00    -0.002 C 
HETATM    2  C11 UNL     1       1.037  54.684 -10.080  1.00  0.00     0.006 C 
HETATM    3  C12 UNL     1       1.561  55.670  -9.025  1.00  0.00     0.011 C 
HETATM    4  C13 UNL     1       3.094  55.515  -9.046  1.00  0.00    -0.030 C 
HETATM    5  C14 UNL     1       3.620  56.414 -10.208  1.00  0.00     0.016 C 
HETATM    6  C15 UNL     1       3.810  55.889  -7.712  1.00  0.00     0.032 C 
HETATM    7  C16 UNL     1       3.833  57.398  -7.389  1.00  0.00     0.124 C 
HETATM    8  C17 UNL     1       4.529  57.661  -6.053  1.00  0.00     0.038 C 
HETATM    9  C18 UNL     1       6.023  57.345  -6.158  1.00  0.00     0.012 C 
HETATM   10  C19 UNL     1       6.838  57.630  -4.856  1.00  0.00     0.018 C 
HETATM   11  C20 UNL     1       6.743  59.125  -4.482  1.00  0.00     0.023 C 
HETATM   12  C21 UNL     1       6.380  56.809  -3.641  1.00  0.00     0.023 C 
HETATM   13  C22 UNL     1       8.316  57.291  -5.128  1.00  0.00     0.135 C 
HETATM   14  O3  UNL     1       9.241  58.025  -4.773  1.00  0.00    -0.297 OA
HETATM   15  C23 UNL     1       8.618  55.955  -5.769  1.00  0.00     0.080 C 
HETATM   16  C24 UNL     1       7.784  55.766  -7.025  1.00  0.00     0.018 C 
HETATM   17  C25 UNL     1       6.303  55.942  -6.717  1.00  0.00    -0.026 A 
HETATM   18  C26 UNL     1       5.571  54.724  -6.218  1.00  0.00     0.021 A 
HETATM   19  C27 UNL     1       5.224  55.252  -7.602  1.00  0.00    -0.025 A 
HETATM   20  C28 UNL     1       5.726  54.449  -8.807  1.00  0.00     0.011 C 
HETATM   21  C29 UNL     1       4.697  53.671  -9.641  1.00  0.00     0.011 C 
HETATM   22  C30 UNL     1       3.234  53.970  -9.306  1.00  0.00    -0.032 C 
HETATM   23  C31 UNL     1       2.824  53.089  -8.086  1.00  0.00     0.016 C 
ENDROOT
BRANCH   1  24
HETATM   24  C8  UNL     1       1.722  52.300 -10.808  1.00  0.00    -0.011 C 
HETATM   25  C9  UNL     1       1.713  51.400  -9.565  1.00  0.00     0.010 C 
BRANCH  24  26
HETATM   26  C7  UNL     1       2.618  51.647 -11.905  1.00  0.00     0.037 C 
BRANCH  26  27
HETATM   27  C6  UNL     1       2.349  52.199 -13.319  1.00  0.00     0.126 C 
BRANCH  27  28
HETATM   28  C4  UNL     1       2.819  51.280 -14.484  1.00  0.00     0.038 C 
HETATM   29  C5  UNL     1       3.965  50.343 -14.076  1.00  0.00     0.017 C 
BRANCH  28  30
HETATM   30  C2  UNL     1       3.082  52.039 -15.783  1.00  0.00    -0.087 C 
HETATM   31  C1  UNL     1       2.068  52.357 -16.607  1.00  0.00     0.014 C 
HETATM   32  C3  UNL     1       4.498  52.402 -16.149  1.00  0.00     0.043 C 
ENDBRANCH  28  30
ENDBRANCH  27  28
BRANCH  27  33
HETATM   33  O1  UNL     1       0.951  52.466 -13.463  1.00  0.00    -0.395 OA
HETATM   34  H11 UNL     1       0.824  52.903 -14.322  1.00  0.00     0.210 HD
ENDBRANCH  27  33
ENDBRANCH  26  27
ENDBRANCH  24  26
ENDBRANCH   1  24
BRANCH   7  35
HETATM   35  O2  UNL     1       2.508  57.921  -7.302  1.00  0.00    -0.395 OA
HETATM   36  H28 UNL     1       2.042  57.442  -6.596  1.00  0.00     0.210 HD
ENDBRANCH   7  35
TORSDOF 7
ENDMDL
MODEL 5
REMARK minimizedAffinity -9.33915043
REMARK CNNscore 0.525684416
REMARK CNNaffinity 6.99972677
REMARK  7 active torsions:
REMARK  status: ('A' for Active; 'I' for Inactive)
REMARK    1  A    between atoms: C2_2  and  C4_4 
REMARK    2  A    between atoms: C4_4  and  C6_6 
REMARK    3  A    between atoms: C6_6  and  O1_7 
REMARK    4  A    between atoms: C6_6  and  C7_8 
REMARK    5  A    between atoms: C7_8  and  C8_9 
REMARK    6  A    between atoms: C8_9  and  C10_11 
REMARK    7  A    between atoms: C16_17  and  O2_18 
ROOT
HETATM    1  C10 UNL     1      -5.051  48.900 -26.060  1.00  0.00    -0.002 C 
HETATM    2  C11 UNL     1      -5.510  48.171 -24.765  1.00  0.00     0.006 C 
HETATM    3  C12 UNL     1      -4.679  48.725 -23.598  1.00  0.00     0.011 C 
HETATM    4  C13 UNL     1      -3.984  49.984 -24.152  1.00  0.00    -0.030 C 
HETATM    5  C14 UNL     1      -5.009  51.153 -24.031  1.00  0.00     0.016 C 
HETATM    6  C15 UNL     1      -2.650  50.364 -23.440  1.00  0.00     0.032 C 
HETATM    7  C16 UNL     1      -2.814  50.921 -22.010  1.00  0.00     0.124 C 
HETATM    8  C17 UNL     1      -1.454  51.238 -21.387  1.00  0.00     0.038 C 
HETATM    9  C18 UNL     1      -0.799  52.420 -22.106  1.00  0.00     0.012 C 
HETATM   10  C19 UNL     1       0.578  52.857 -21.510  1.00  0.00     0.018 C 
HETATM   11  C20 UNL     1       0.410  53.293 -20.038  1.00  0.00     0.023 C 
HETATM   12  C21 UNL     1       1.655  51.762 -21.558  1.00  0.00     0.023 C 
HETATM   13  C22 UNL     1       1.091  54.064 -22.318  1.00  0.00     0.135 C 
HETATM   14  O3  UNL     1       1.577  55.062 -21.781  1.00  0.00    -0.297 OA
HETATM   15  C23 UNL     1       1.075  53.952 -23.826  1.00  0.00     0.080 C 
HETATM   16  C24 UNL     1      -0.299  53.525 -24.313  1.00  0.00     0.018 C 
HETATM   17  C25 UNL     1      -0.734  52.236 -23.629  1.00  0.00    -0.026 A 
HETATM   18  C26 UNL     1      -0.266  50.950 -24.258  1.00  0.00     0.021 A 
HETATM   19  C27 UNL     1      -1.751  51.279 -24.319  1.00  0.00    -0.025 A 
HETATM   20  C28 UNL     1      -2.317  51.728 -25.670  1.00  0.00     0.011 C 
HETATM   21  C29 UNL     1      -3.243  50.762 -26.426  1.00  0.00     0.011 C 
HETATM   22  C30 UNL     1      -3.685  49.532 -25.629  1.00  0.00    -0.032 C 
HETATM   23  C31 UNL     1      -2.564  48.453 -25.740  1.00  0.00     0.016 C 
ENDROOT
BRANCH   1  24
HETATM   24  C8  UNL     1      -5.122  47.974 -27.313  1.00  0.00    -0.011 C 
HETATM   25  C9  UNL     1      -4.554  48.664 -28.560  1.00  0.00     0.010 C 
BRANCH  24  26
HETATM   26  C7  UNL     1      -6.591  47.530 -27.598  1.00  0.00     0.037 C 
BRANCH  26  27
HETATM   27  C6  UNL     1      -7.144  48.078 -28.928  1.00  0.00     0.126 C 
BRANCH  27  28
HETATM   28  C4  UNL     1      -7.525  46.993 -29.978  1.00  0.00     0.038 C 
HETATM   29  C5  UNL     1      -7.064  45.586 -29.572  1.00  0.00     0.017 C 
BRANCH  28  30
HETATM   30  C2  UNL     1      -7.141  47.374 -31.407  1.00  0.00    -0.087 C 
HETATM   31  C1  UNL     1      -5.917  47.090 -31.885  1.00  0.00     0.014 C 
HETATM   32  C3  UNL     1      -8.141  48.103 -32.267  1.00  0.00     0.043 C 
ENDBRANCH  28  30
ENDBRANCH  27  28
BRANCH  27  33
HETATM   33  O1  UNL     1      -8.285  48.898 -28.663  1.00  0.00    -0.395 OA
HETATM   34  H11 UNL     1      -8.552  49.308 -29.503  1.00  0.00     0.210 HD
ENDBRANCH  27  33
ENDBRANCH  26  27
ENDBRANCH  24  26
ENDBRANCH   1  24
BRANCH   7  35
HETATM   35  O2  UNL     1      -3.472  49.977 -21.167  1.00  0.00    -0.395 OA
HETATM   36  H28 UNL     1      -2.933  49.168 -21.144  1.00  0.00     0.210 HD
ENDBRANCH   7  35
TORSDOF 7
ENDMDL
MODEL 6
REMARK minimizedAffinity -8.62642193
REMARK CNNscore 0.498291969
REMARK CNNaffinity 6.86449051
REMARK  7 active torsions:
REMARK  status: ('A' for Active; 'I' for Inactive)
REMARK    1  A    between atoms: C2_2  and  C4_4 
REMARK    2  A    between atoms: C4_4  and  C6_6 
REMARK    3  A    between atoms: C6_6  and  O1_7 
REMARK    4  A    between atoms: C6_6  and  C7_8 
REMARK    5  A    between atoms: C7_8  and  C8_9 
REMARK    6  A    between atoms: C8_9  and  C10_11 
REMARK    7  A    between atoms: C16_17  and  O2_18 
ROOT
HETATM    1  C10 UNL     1      -1.845  50.339 -23.234  1.00  0.00    -0.002 C 
HETATM    2  C11 UNL     1      -0.974  50.478 -21.952  1.00  0.00     0.006 C 
HETATM    3  C12 UNL     1      -1.819  50.003 -20.761  1.00  0.00     0.011 C 
HETATM    4  C13 UNL     1      -3.039  49.294 -21.381  1.00  0.00    -0.030 C 
HETATM    5  C14 UNL     1      -2.594  47.833 -21.701  1.00  0.00     0.016 C 
HETATM    6  C15 UNL     1      -4.316  49.282 -20.486  1.00  0.00     0.032 C 
HETATM    7  C16 UNL     1      -4.236  48.356 -19.254  1.00  0.00     0.124 C 
HETATM    8  C17 UNL     1      -5.520  48.434 -18.428  1.00  0.00     0.038 C 
HETATM    9  C18 UNL     1      -6.691  47.820 -19.200  1.00  0.00     0.012 C 
HETATM   10  C19 UNL     1      -8.044  47.803 -18.418  1.00  0.00     0.018 C 
HETATM   11  C20 UNL     1      -7.905  46.973 -17.124  1.00  0.00     0.023 C 
HETATM   12  C21 UNL     1      -8.558  49.199 -18.032  1.00  0.00     0.023 C 
HETATM   13  C22 UNL     1      -9.107  47.136 -19.311  1.00  0.00     0.135 C 
HETATM   14  O3  UNL     1      -9.902  46.297 -18.881  1.00  0.00    -0.297 OA
HETATM   15  C23 UNL     1      -9.221  47.618 -20.740  1.00  0.00     0.080 C 
HETATM   16  C24 UNL     1      -7.862  47.598 -21.418  1.00  0.00     0.018 C 
HETATM   17  C25 UNL     1      -6.849  48.400 -20.613  1.00  0.00    -0.026 A 
HETATM   18  C26 UNL     1      -6.802  49.882 -20.877  1.00  0.00     0.021 A 
HETATM   19  C27 UNL     1      -5.612  49.038 -21.310  1.00  0.00    -0.025 A 
HETATM   20  C28 UNL     1      -5.449  48.773 -22.811  1.00  0.00     0.011 C 
HETATM   21  C29 UNL     1      -4.298  49.471 -23.551  1.00  0.00     0.011 C 
HETATM   22  C30 UNL     1      -3.290  50.189 -22.649  1.00  0.00    -0.032 C 
HETATM   23  C31 UNL     1      -3.857  51.603 -22.317  1.00  0.00     0.016 C 
ENDROOT
BRANCH   1  24
HETATM   24  C8  UNL     1      -1.537  51.458 -24.277  1.00  0.00    -0.011 C 
HETATM   25  C9  UNL     1      -2.572  52.589 -24.216  1.00  0.00     0.010 C 
BRANCH  24  26
HETATM   26  C7  UNL     1      -1.500  50.877 -25.725  1.00  0.00     0.037 C 
BRANCH  26  27
HETATM   27  C6  UNL     1      -1.537  51.964 -26.817  1.00  0.00     0.126 C 
BRANCH  27  28
HETATM   28  C4  UNL     1      -0.256  52.843 -26.913  1.00  0.00     0.038 C 
HETATM   29  C5  UNL     1      -0.415  54.020 -27.887  1.00  0.00     0.017 C 
BRANCH  28  30
HETATM   30  C2  UNL     1       1.018  52.031 -27.138  1.00  0.00    -0.087 C 
HETATM   31  C1  UNL     1       1.408  51.701 -28.382  1.00  0.00     0.014 C 
HETATM   32  C3  UNL     1       1.820  51.576 -25.947  1.00  0.00     0.043 C 
ENDBRANCH  28  30
ENDBRANCH  27  28
BRANCH  27  33
HETATM   33  O1  UNL     1      -1.785  51.350 -28.085  1.00  0.00    -0.395 OA
HETATM   34  H11 UNL     1      -1.902  52.062 -28.736  1.00  0.00     0.210 HD
ENDBRANCH  27  33
ENDBRANCH  26  27
ENDBRANCH  24  26
ENDBRANCH   1  24
BRANCH   7  35
HETATM   35  O2  UNL     1      -3.149  48.726 -18.408  1.00  0.00    -0.395 OA
HETATM   36  H28 UNL     1      -3.291  49.643 -18.120  1.00  0.00     0.210 HD
ENDBRANCH   7  35
TORSDOF 7
ENDMDL
MODEL 7
REMARK minimizedAffinity -9.12819672
REMARK CNNscore 0.479072869
REMARK CNNaffinity 7.02377844
REMARK  7 active torsions:
REMARK  status: ('A' for Active; 'I' for Inactive)
REMARK    1  A    between atoms: C2_2  and  C4_4 
REMARK    2  A    between atoms: C4_4  and  C6_6 
REMARK    3  A    between atoms: C6_6  and  O1_7 
REMARK    4  A    between atoms: C6_6  and  C7_8 
REMARK    5  A    between atoms: C7_8  and  C8_9 
REMARK    6  A    between atoms: C8_9  and  C10_11 
REMARK    7  A    between atoms: C16_17  and  O2_18 
ROOT
HETATM    1  C10 UNL     1      -3.363  50.720 -25.104  1.00  0.00    -0.002 C 
HETATM    2  C11 UNL     1      -4.377  51.838 -24.728  1.00  0.00     0.006 C 
HETATM    3  C12 UNL     1      -5.071  51.418 -23.423  1.00  0.00     0.011 C 
HETATM    4  C13 UNL     1      -4.240  50.240 -22.879  1.00  0.00    -0.030 C 
HETATM    5  C14 UNL     1      -3.044  50.859 -22.092  1.00  0.00     0.016 C 
HETATM    6  C15 UNL     1      -5.026  49.249 -21.967  1.00  0.00     0.032 C 
HETATM    7  C16 UNL     1      -5.398  49.804 -20.576  1.00  0.00     0.124 C 
HETATM    8  C17 UNL     1      -6.188  48.772 -19.769  1.00  0.00     0.038 C 
HETATM    9  C18 UNL     1      -5.295  47.585 -19.400  1.00  0.00     0.012 C 
HETATM   10  C19 UNL     1      -5.996  46.495 -18.527  1.00  0.00     0.018 C 
HETATM   11  C20 UNL     1      -6.471  47.103 -17.190  1.00  0.00     0.023 C 
HETATM   12  C21 UNL     1      -7.209  45.838 -19.205  1.00  0.00     0.023 C 
HETATM   13  C22 UNL     1      -4.968  45.390 -18.219  1.00  0.00     0.135 C 
HETATM   14  O3  UNL     1      -4.839  44.899 -17.095  1.00  0.00    -0.297 OA
HETATM   15  C23 UNL     1      -4.169  44.838 -19.378  1.00  0.00     0.080 C 
HETATM   16  C24 UNL     1      -3.524  45.966 -20.166  1.00  0.00     0.018 C 
HETATM   17  C25 UNL     1      -4.573  46.977 -20.611  1.00  0.00    -0.026 A 
HETATM   18  C26 UNL     1      -5.291  46.676 -21.900  1.00  0.00     0.021 A 
HETATM   19  C27 UNL     1      -4.335  47.860 -21.871  1.00  0.00    -0.025 A 
HETATM   20  C28 UNL     1      -2.991  47.695 -22.588  1.00  0.00     0.011 C 
HETATM   21  C29 UNL     1      -2.763  48.474 -23.893  1.00  0.00     0.011 C 
HETATM   22  C30 UNL     1      -3.835  49.519 -24.217  1.00  0.00    -0.032 C 
HETATM   23  C31 UNL     1      -5.021  48.795 -24.924  1.00  0.00     0.016 C 
ENDROOT
BRANCH   1  24
HETATM   24  C8  UNL     1      -3.228  50.544 -26.648  1.00  0.00    -0.011 C 
HETATM   25  C9  UNL     1      -3.570  49.114 -27.087  1.00  0.00     0.010 C 
BRANCH  24  26
HETATM   26  C7  UNL     1      -1.786  50.895 -27.128  1.00  0.00     0.037 C 
BRANCH  26  27
HETATM   27  C6  UNL     1      -1.409  52.371 -26.892  1.00  0.00     0.126 C 
BRANCH  27  28
HETATM   28  C4  UNL     1       0.106  52.694 -27.046  1.00  0.00     0.038 C 
HETATM   29  C5  UNL     1       0.646  52.367 -28.446  1.00  0.00     0.017 C 
BRANCH  28  30
HETATM   30  C2  UNL     1       0.962  52.130 -25.913  1.00  0.00    -0.087 C 
HETATM   31  C1  UNL     1       0.610  52.320 -24.630  1.00  0.00     0.014 C 
HETATM   32  C3  UNL     1       2.226  51.382 -26.250  1.00  0.00     0.043 C 
ENDBRANCH  28  30
ENDBRANCH  27  28
BRANCH  27  33
HETATM   33  O1  UNL     1      -2.160  53.198 -27.784  1.00  0.00    -0.395 OA
HETATM   34  H11 UNL     1      -1.978  54.124 -27.548  1.00  0.00     0.210 HD
ENDBRANCH  27  33
ENDBRANCH  26  27
ENDBRANCH  24  26
ENDBRANCH   1  24
BRANCH   7  35
HETATM   35  O2  UNL     1      -6.202  50.976 -20.692  1.00  0.00    -0.395 OA
HETATM   36  H28 UNL     1      -7.011  50.739 -21.177  1.00  0.00     0.210 HD
ENDBRANCH   7  35
TORSDOF 7
ENDMDL
MODEL 8
REMARK minimizedAffinity -7.92930269
REMARK CNNscore 0.4147017
REMARK CNNaffinity 5.56251287
REMARK  7 active torsions:
REMARK  status: ('A' for Active; 'I' for Inactive)
REMARK    1  A    between atoms: C2_2  and  C4_4 
REMARK    2  A    between atoms: C4_4  and  C6_6 
REMARK    3  A    between atoms: C6_6  and  O1_7 
REMARK    4  A    between atoms: C6_6  and  C7_8 
REMARK    5  A    between atoms: C7_8  and  C8_9 
REMARK    6  A    between atoms: C8_9  and  C10_11 
REMARK    7  A    between atoms: C16_17  and  O2_18 
ROOT
HETATM    1  C10 UNL     1       4.580  67.500 -35.407  1.00  0.00    -0.002 C 
HETATM    2  C11 UNL     1       5.297  68.880 -35.381  1.00  0.00     0.006 C 
HETATM    3  C12 UNL     1       4.736  69.720 -36.538  1.00  0.00     0.011 C 
HETATM    4  C13 UNL     1       3.484  68.963 -37.023  1.00  0.00    -0.030 C 
HETATM    5  C14 UNL     1       2.311  69.392 -36.088  1.00  0.00     0.016 C 
HETATM    6  C15 UNL     1       3.102  69.215 -38.514  1.00  0.00     0.032 C 
HETATM    7  C16 UNL     1       2.533  70.618 -38.809  1.00  0.00     0.124 C 
HETATM    8  C17 UNL     1       2.216  70.778 -40.297  1.00  0.00     0.038 C 
HETATM    9  C18 UNL     1       1.041  69.879 -40.692  1.00  0.00     0.012 C 
HETATM   10  C19 UNL     1       0.603  70.006 -42.186  1.00  0.00     0.018 C 
HETATM   11  C20 UNL     1       0.155  71.452 -42.491  1.00  0.00     0.023 C 
HETATM   12  C21 UNL     1       1.701  69.629 -43.193  1.00  0.00     0.023 C 
HETATM   13  C22 UNL     1      -0.596  69.067 -42.418  1.00  0.00     0.135 C 
HETATM   14  O3  UNL     1      -1.597  69.414 -43.049  1.00  0.00    -0.297 OA
HETATM   15  C23 UNL     1      -0.472  67.643 -41.927  1.00  0.00     0.080 C 
HETATM   16  C24 UNL     1      -0.045  67.617 -40.469  1.00  0.00     0.018 C 
HETATM   17  C25 UNL     1       1.237  68.415 -40.272  1.00  0.00    -0.026 A 
HETATM   18  C26 UNL     1       2.529  67.681 -40.517  1.00  0.00     0.021 A 
HETATM   19  C27 UNL     1       2.196  68.090 -39.089  1.00  0.00    -0.025 A 
HETATM   20  C28 UNL     1       1.757  66.982 -38.126  1.00  0.00     0.011 C 
HETATM   21  C29 UNL     1       2.726  66.565 -37.008  1.00  0.00     0.011 C 
HETATM   22  C30 UNL     1       3.948  67.472 -36.840  1.00  0.00    -0.032 C 
HETATM   23  C31 UNL     1       5.032  67.022 -37.868  1.00  0.00     0.016 C 
ENDROOT
BRANCH   1  24
HETATM   24  C8  UNL     1       5.516  66.341 -34.944  1.00  0.00    -0.011 C 
HETATM   25  C9  UNL     1       6.935  66.500 -35.507  1.00  0.00     0.010 C 
BRANCH  24  26
HETATM   26  C7  UNL     1       4.947  64.955 -35.378  1.00  0.00     0.037 C 
BRANCH  26  27
HETATM   27  C6  UNL     1       6.033  63.978 -35.870  1.00  0.00     0.126 C 
BRANCH  27  28
HETATM   28  C4  UNL     1       6.594  63.017 -34.782  1.00  0.00     0.038 C 
HETATM   29  C5  UNL     1       8.060  62.632 -35.027  1.00  0.00     0.017 C 
BRANCH  28  30
HETATM   30  C2  UNL     1       5.685  61.820 -34.506  1.00  0.00    -0.087 C 
HETATM   31  C1  UNL     1       4.528  61.980 -33.841  1.00  0.00     0.014 C 
HETATM   32  C3  UNL     1       6.115  60.450 -34.962  1.00  0.00     0.043 C 
ENDBRANCH  28  30
ENDBRANCH  27  28
BRANCH  27  33
HETATM   33  O1  UNL     1       5.518  63.208 -36.959  1.00  0.00    -0.395 OA
HETATM   34  H11 UNL     1       6.250  62.675 -37.312  1.00  0.00     0.210 HD
ENDBRANCH  27  33
ENDBRANCH  26  27
ENDBRANCH  24  26
ENDBRANCH   1  24
BRANCH   7  35
HETATM   35  O2  UNL     1       3.468  71.634 -38.451  1.00  0.00    -0.395 OA
HETATM   36  H28 UNL     1       4.279  71.493 -38.969  1.00  0.00     0.210 HD
ENDBRANCH   7  35
TORSDOF 7
ENDMDL
MODEL 9
REMARK minimizedAffinity -8.59329033
REMARK CNNscore 0.411043406
REMARK CNNaffinity 6.97488403
REMARK  7 active torsions:
REMARK  status: ('A' for Active; 'I' for Inactive)
REMARK    1  A    between atoms: C2_2  and  C4_4 
REMARK    2  A    between atoms: C4_4  and  C6_6 
REMARK    3  A    between atoms: C6_6  and  O1_7 
REMARK    4  A    between atoms: C6_6  and  C7_8 
REMARK    5  A    between atoms: C7_8  and  C8_9 
REMARK    6  A    between atoms: C8_9  and  C10_11 
REMARK    7  A    between atoms: C16_17  and  O2_18 
ROOT
HETATM    1  C10 UNL     1      -5.176  48.850 -26.144  1.00  0.00    -0.002 C 
HETATM    2  C11 UNL     1      -5.635  48.120 -24.849  1.00  0.00     0.006 C 
HETATM    3  C12 UNL     1      -4.797  48.665 -23.684  1.00  0.00     0.011 C 
HETATM    4  C13 UNL     1      -4.095  49.921 -24.237  1.00  0.00    -0.030 C 
HETATM    5  C14 UNL     1      -5.111  51.097 -24.109  1.00  0.00     0.016 C 
HETATM    6  C15 UNL     1      -2.756  50.290 -23.528  1.00  0.00     0.032 C 
HETATM    7  C16 UNL     1      -2.911  50.844 -22.096  1.00  0.00     0.124 C 
HETATM    8  C17 UNL     1      -1.547  51.150 -21.477  1.00  0.00     0.038 C 
HETATM    9  C18 UNL     1      -0.886  52.329 -22.194  1.00  0.00     0.012 C 
HETATM   10  C19 UNL     1       0.495  52.756 -21.602  1.00  0.00     0.018 C 
HETATM   11  C20 UNL     1       0.335  53.189 -20.128  1.00  0.00     0.023 C 
HETATM   12  C21 UNL     1       1.565  51.654 -21.657  1.00  0.00     0.023 C 
HETATM   13  C22 UNL     1       1.014  53.962 -22.408  1.00  0.00     0.135 C 
HETATM   14  O3  UNL     1       1.508  54.955 -21.871  1.00  0.00    -0.297 OA
HETATM   15  C23 UNL     1       0.992  53.854 -23.916  1.00  0.00     0.080 C 
HETATM   16  C24 UNL     1      -0.387  53.437 -24.400  1.00  0.00     0.018 C 
HETATM   17  C25 UNL     1      -0.828  52.149 -23.719  1.00  0.00    -0.026 A 
HETATM   18  C26 UNL     1      -0.371  50.862 -24.353  1.00  0.00     0.021 A 
HETATM   19  C27 UNL     1      -1.854  51.202 -24.407  1.00  0.00    -0.025 A 
HETATM   20  C28 UNL     1      -2.421  51.658 -25.755  1.00  0.00     0.011 C 
HETATM   21  C29 UNL     1      -3.356  50.701 -26.511  1.00  0.00     0.011 C 
HETATM   22  C30 UNL     1      -3.803  49.471 -25.716  1.00  0.00    -0.032 C 
HETATM   23  C31 UNL     1      -2.691  48.385 -25.834  1.00  0.00     0.016 C 
ENDROOT
BRANCH   1  24
HETATM   24  C8  UNL     1      -5.257  47.927 -27.399  1.00  0.00    -0.011 C 
HETATM   25  C9  UNL     1      -4.580  48.568 -28.618  1.00  0.00     0.010 C 
BRANCH  24  26
HETATM   26  C7  UNL     1      -6.740  47.595 -27.754  1.00  0.00     0.037 C 
BRANCH  26  27
HETATM   27  C6  UNL     1      -6.915  46.205 -28.395  1.00  0.00     0.126 C 
BRANCH  27  28
HETATM   28  C4  UNL     1      -8.214  45.451 -27.985  1.00  0.00     0.038 C 
HETATM   29  C5  UNL     1      -9.490  46.215 -28.366  1.00  0.00     0.017 C 
BRANCH  28  30
HETATM   30  C2  UNL     1      -8.200  44.969 -26.535  1.00  0.00    -0.087 C 
HETATM   31  C1  UNL     1      -7.858  43.703 -26.238  1.00  0.00     0.014 C 
HETATM   32  C3  UNL     1      -8.605  45.922 -25.440  1.00  0.00     0.043 C 
ENDBRANCH  28  30
ENDBRANCH  27  28
BRANCH  27  33
HETATM   33  O1  UNL     1      -6.874  46.332 -29.819  1.00  0.00    -0.395 OA
HETATM   34  H11 UNL     1      -6.886  45.435 -30.193  1.00  0.00     0.210 HD
ENDBRANCH  27  33
ENDBRANCH  26  27
ENDBRANCH  24  26
ENDBRANCH   1  24
BRANCH   7  35
HETATM   35  O2  UNL     1      -3.573  49.902 -21.253  1.00  0.00    -0.395 OA
HETATM   36  H28 UNL     1      -3.039  49.090 -21.234  1.00  0.00     0.210 HD
ENDBRANCH   7  35
TORSDOF 7
ENDMDL
