MODEL 1
REMARK minimizedAffinity -10.7374649
REMARK  5 active torsions:
REMARK  status: ('A' for Active; 'I' for Inactive)
REMARK    1  A    between atoms: N1_2  and  C2_3 
REMARK    2  A    between atoms: C4_5  and  N4_34 
REMARK    3  A    between atoms: C5_7  and  N2_12 
REMARK    4  A    between atoms: C7_9  and  O2_10 
REMARK    5  A    between atoms: C27_35  and  C28_36 
ROOT
HETATM    1  C2  UNL     1      10.397  -4.460  33.222  1.00  0.00     0.257 C 
HETATM    2  C3  UNL     1       9.532  -5.621  32.740  1.00  0.00     0.092 C 
HETATM    3  C4  UNL     1       9.571  -5.795  31.220  1.00  0.00     0.234 C 
HETATM    4  O1  UNL     1      10.485  -4.949  30.537  1.00  0.00    -0.333 OA
HETATM    5  C5  UNL     1      10.516  -3.538  30.870  1.00  0.00     0.168 C 
HETATM    6  C6  UNL     1      12.010  -3.239  30.620  1.00  0.00     0.074 C 
HETATM    7  C7  UNL     1      10.082  -3.233  32.340  1.00  0.00     0.209 C 
ENDROOT
BRANCH   1   8
HETATM    8  N1  UNL     1      10.134  -4.161  34.646  1.00  0.00     0.086 N 
HETATM    9  C1  UNL     1       8.773  -4.491  35.055  1.00  0.00     0.307 C 
HETATM   10  H4  UNL     1      10.781  -4.732  35.200  1.00  0.00     0.316 HD
ENDBRANCH   1   8
BRANCH   7  11
HETATM   11  O2  UNL     1      10.769  -2.081  32.870  1.00  0.00    -0.384 OA
HETATM   12  C8  UNL     1      11.922  -2.435  33.629  1.00  0.00     0.202 C 
ENDBRANCH   7  11
BRANCH   3  13
HETATM   13  N4  UNL     1       8.260  -5.750  30.578  1.00  0.00    -0.316 N 
HETATM   14  C26 UNL     1       7.313  -4.761  30.791  1.00  0.00     0.048 A 
HETATM   15  C21 UNL     1       6.157  -5.130  30.085  1.00  0.00     0.004 A 
HETATM   16  C25 UNL     1       7.374  -3.580  31.553  1.00  0.00     0.030 A 
HETATM   17  C20 UNL     1       6.433  -6.369  29.430  1.00  0.00     0.022 A 
HETATM   18  C22 UNL     1       5.035  -4.277  30.154  1.00  0.00     0.014 A 
HETATM   19  C19 UNL     1       5.782  -7.293  28.605  1.00  0.00     0.062 A 
HETATM   20  C27 UNL     1       7.744  -6.692  29.743  1.00  0.00     0.077 A 
HETATM   21  C16 UNL     1       6.388  -8.468  28.099  1.00  0.00     0.062 A 
HETATM   22  C18 UNL     1       4.412  -7.263  28.093  1.00  0.00     0.260 A 
HETATM   23  C15 UNL     1       7.716  -8.843  28.352  1.00  0.00     0.022 A 
HETATM   24  C17 UNL     1       5.380  -9.142  27.278  1.00  0.00     0.260 A 
HETATM   25  C14 UNL     1       8.628  -9.871  27.983  1.00  0.00     0.004 A 
HETATM   26  C28 UNL     1       8.421  -7.984  29.178  1.00  0.00     0.078 A 
HETATM   27  C9  UNL     1       9.873  -9.575  28.573  1.00  0.00     0.049 A 
HETATM   28  C13 UNL     1       8.522 -11.015  27.158  1.00  0.00     0.014 A 
HETATM   29  N2  UNL     1       9.701  -8.443  29.368  1.00  0.00    -0.308 N 
HETATM   30  C10 UNL     1      10.999 -10.375  28.293  1.00  0.00     0.030 A 
HETATM   31  C11 UNL     1      10.862 -11.495  27.468  1.00  0.00     0.002 A 
HETATM   32  C12 UNL     1       9.636 -11.820  26.913  1.00  0.00     0.001 A 
HETATM   33  O3  UNL     1       5.502 -10.180  26.659  1.00  0.00    -0.267 OA
HETATM   34  N3  UNL     1       4.257  -8.378  27.333  1.00  0.00    -0.289 N 
HETATM   35  H20 UNL     1       3.404  -8.609  26.852  1.00  0.00     0.172 HD
HETATM   36  O4  UNL     1       3.567  -6.416  28.295  1.00  0.00    -0.267 OA
HETATM   37  C23 UNL     1       5.090  -3.100  30.908  1.00  0.00     0.001 A 
HETATM   38  C24 UNL     1       6.246  -2.758  31.597  1.00  0.00     0.002 A 
ENDBRANCH   3  13
TORSDOF 5
ENDMDL
MODEL 2
REMARK minimizedAffinity -10.3991776
REMARK  5 active torsions:
REMARK  status: ('A' for Active; 'I' for Inactive)
REMARK    1  A    between atoms: N1_2  and  C2_3 
REMARK    2  A    between atoms: C4_5  and  N4_34 
REMARK    3  A    between atoms: C5_7  and  N2_12 
REMARK    4  A    between atoms: C7_9  and  O2_10 
REMARK    5  A    between atoms: C27_35  and  C28_36 
ROOT
HETATM    1  C2  UNL     1      11.440  -7.114  27.066  1.00  0.00     0.257 C 
HETATM    2  C3  UNL     1      10.533  -7.109  28.293  1.00  0.00     0.092 C 
HETATM    3  C4  UNL     1       9.644  -8.352  28.377  1.00  0.00     0.234 C 
HETATM    4  O1  UNL     1       9.896  -9.343  27.389  1.00  0.00    -0.333 OA
HETATM    5  C5  UNL     1      10.038  -8.932  26.006  1.00  0.00     0.168 C 
HETATM    6  C6  UNL     1      11.045  -9.995  25.517  1.00  0.00     0.074 C 
HETATM    7  C7  UNL     1      10.576  -7.476  25.838  1.00  0.00     0.209 C 
ENDROOT
BRANCH   1   8
HETATM    8  N1  UNL     1      12.086  -5.796  26.881  1.00  0.00     0.086 N 
HETATM    9  C1  UNL     1      11.164  -4.681  27.064  1.00  0.00     0.307 C 
HETATM   10  H4  UNL     1      12.824  -5.720  27.588  1.00  0.00     0.316 HD
ENDBRANCH   1   8
BRANCH   7  11
HETATM   11  O2  UNL     1      11.372  -7.336  24.644  1.00  0.00    -0.384 OA
HETATM   12  C8  UNL     1      12.752  -7.610  24.873  1.00  0.00     0.202 C 
ENDBRANCH   7  11
BRANCH   3  13
HETATM   13  N4  UNL     1       8.215  -8.063  28.454  1.00  0.00    -0.316 N 
HETATM   14  C26 UNL     1       7.225  -8.820  27.845  1.00  0.00     0.048 A 
HETATM   15  C21 UNL     1       6.005  -8.161  28.060  1.00  0.00     0.004 A 
HETATM   16  C25 UNL     1       7.305 -10.022  27.119  1.00  0.00     0.030 A 
HETATM   17  C20 UNL     1       6.280  -6.985  28.822  1.00  0.00     0.022 A 
HETATM   18  C22 UNL     1       4.834  -8.738  27.522  1.00  0.00     0.014 A 
HETATM   19  C19 UNL     1       5.592  -5.894  29.365  1.00  0.00     0.062 A 
HETATM   20  C27 UNL     1       7.647  -6.986  29.059  1.00  0.00     0.077 A 
HETATM   21  C16 UNL     1       6.205  -4.864  30.116  1.00  0.00     0.062 A 
HETATM   22  C18 UNL     1       4.164  -5.584  29.299  1.00  0.00     0.260 A 
HETATM   23  C15 UNL     1       7.575  -4.816  30.417  1.00  0.00     0.022 A 
HETATM   24  C17 UNL     1       5.143  -3.935  30.506  1.00  0.00     0.260 A 
HETATM   25  C14 UNL     1       8.481  -4.004  31.157  1.00  0.00     0.004 A 
HETATM   26  C28 UNL     1       8.327  -5.855  29.897  1.00  0.00     0.078 A 
HETATM   27  C9  UNL     1       9.753  -4.607  31.088  1.00  0.00     0.049 A 
HETATM   28  C13 UNL     1       8.329  -2.825  31.922  1.00  0.00     0.014 A 
HETATM   29  N2  UNL     1       9.649  -5.710  30.242  1.00  0.00    -0.308 N 
HETATM   30  C10 UNL     1      10.833  -4.071  31.819  1.00  0.00     0.030 A 
HETATM   31  C11 UNL     1      10.647  -2.908  32.571  1.00  0.00     0.002 A 
HETATM   32  C12 UNL     1       9.413  -2.283  32.616  1.00  0.00     0.001 A 
HETATM   33  O3  UNL     1       5.249  -2.922  31.167  1.00  0.00    -0.267 OA
HETATM   34  N3  UNL     1       3.986  -4.425  29.985  1.00  0.00    -0.289 N 
HETATM   35  H20 UNL     1       3.091  -3.980  30.104  1.00  0.00     0.172 HD
HETATM   36  O4  UNL     1       3.294  -6.226  28.748  1.00  0.00    -0.267 OA
HETATM   37  C23 UNL     1       4.906  -9.934  26.800  1.00  0.00     0.001 A 
HETATM   38  C24 UNL     1       6.126 -10.566  26.603  1.00  0.00     0.002 A 
ENDBRANCH   3  13
TORSDOF 5
ENDMDL
MODEL 3
REMARK minimizedAffinity -10.082799
REMARK  5 active torsions:
REMARK  status: ('A' for Active; 'I' for Inactive)
REMARK    1  A    between atoms: N1_2  and  C2_3 
REMARK    2  A    between atoms: C4_5  and  N4_34 
REMARK    3  A    between atoms: C5_7  and  N2_12 
REMARK    4  A    between atoms: C7_9  and  O2_10 
REMARK    5  A    between atoms: C27_35  and  C28_36 
ROOT
HETATM    1  C2  UNL     1      10.996 -10.796  28.005  1.00  0.00     0.257 C 
HETATM    2  C3  UNL     1      10.071 -10.234  29.079  1.00  0.00     0.092 C 
HETATM    3  C4  UNL     1       9.056  -9.234  28.521  1.00  0.00     0.234 C 
HETATM    4  O1  UNL     1       9.059  -9.094  27.107  1.00  0.00    -0.333 OA
HETATM    5  C5  UNL     1      10.328  -8.940  26.422  1.00  0.00     0.168 C 
HETATM    6  C6  UNL     1       9.994  -9.638  25.087  1.00  0.00     0.074 C 
HETATM    7  C7  UNL     1      11.525  -9.612  27.167  1.00  0.00     0.209 C 
ENDROOT
BRANCH   1   8
HETATM    8  N1  UNL     1      12.116 -11.548  28.611  1.00  0.00     0.086 N 
HETATM    9  C1  UNL     1      11.947 -11.761  30.045  1.00  0.00     0.307 C 
HETATM   10  H4  UNL     1      12.147 -12.465  28.154  1.00  0.00     0.316 HD
ENDBRANCH   1   8
BRANCH   7  11
HETATM   11  O2  UNL     1      12.523 -10.094  26.243  1.00  0.00    -0.384 OA
HETATM   12  C8  UNL     1      13.668  -9.246  26.185  1.00  0.00     0.202 C 
ENDBRANCH   7  11
BRANCH   3  13
HETATM   13  N4  UNL     1       9.092  -7.923  29.162  1.00  0.00    -0.316 N 
HETATM   14  C26 UNL     1      10.227  -7.346  29.710  1.00  0.00     0.048 A 
HETATM   15  C21 UNL     1       9.832  -6.146  30.322  1.00  0.00     0.004 A 
HETATM   16  C25 UNL     1      11.564  -7.784  29.725  1.00  0.00     0.030 A 
HETATM   17  C20 UNL     1       8.424  -6.007  30.124  1.00  0.00     0.022 A 
HETATM   18  C22 UNL     1      10.820  -5.371  30.966  1.00  0.00     0.014 A 
HETATM   19  C19 UNL     1       7.396  -5.116  30.451  1.00  0.00     0.062 A 
HETATM   20  C27 UNL     1       8.024  -7.110  29.384  1.00  0.00     0.077 A 
HETATM   21  C16 UNL     1       6.046  -5.286  30.061  1.00  0.00     0.062 A 
HETATM   22  C18 UNL     1       7.468  -3.871  31.215  1.00  0.00     0.260 A 
HETATM   23  C15 UNL     1       5.577  -6.361  29.291  1.00  0.00     0.022 A 
HETATM   24  C17 UNL     1       5.307  -4.138  30.589  1.00  0.00     0.260 A 
HETATM   25  C14 UNL     1       4.361  -6.802  28.696  1.00  0.00     0.004 A 
HETATM   26  C28 UNL     1       6.536  -7.297  28.943  1.00  0.00     0.078 A 
HETATM   27  C9  UNL     1       4.639  -7.979  27.973  1.00  0.00     0.049 A 
HETATM   28  C13 UNL     1       3.047  -6.282  28.669  1.00  0.00     0.014 A 
HETATM   29  N2  UNL     1       5.974  -8.306  28.201  1.00  0.00    -0.308 N 
HETATM   30  C10 UNL     1       3.634  -8.586  27.191  1.00  0.00     0.030 A 
HETATM   31  C11 UNL     1       2.346  -8.042  27.181  1.00  0.00     0.002 A 
HETATM   32  C12 UNL     1       2.050  -6.909  27.919  1.00  0.00     0.001 A 
HETATM   33  O3  UNL     1       4.122  -3.900  30.467  1.00  0.00    -0.267 OA
HETATM   34  N3  UNL     1       6.207  -3.365  31.253  1.00  0.00    -0.289 N 
HETATM   35  H20 UNL     1       5.967  -2.504  31.715  1.00  0.00     0.172 HD
HETATM   36  O4  UNL     1       8.451  -3.370  31.720  1.00  0.00    -0.267 OA
HETATM   37  C23 UNL     1      12.152  -5.800  30.983  1.00  0.00     0.001 A 
HETATM   38  C24 UNL     1      12.516  -6.991  30.369  1.00  0.00     0.002 A 
ENDBRANCH   3  13
TORSDOF 5
ENDMDL
MODEL 4
REMARK minimizedAffinity -9.78740978
REMARK  5 active torsions:
REMARK  status: ('A' for Active; 'I' for Inactive)
REMARK    1  A    between atoms: N1_2  and  C2_3 
REMARK    2  A    between atoms: C4_5  and  N4_34 
REMARK    3  A    between atoms: C5_7  and  N2_12 
REMARK    4  A    between atoms: C7_9  and  O2_10 
REMARK    5  A    between atoms: C27_35  and  C28_36 
ROOT
HETATM    1  C2  UNL     1      10.857  -9.877  26.572  1.00  0.00     0.257 C 
HETATM    2  C3  UNL     1      10.062  -8.576  26.515  1.00  0.00     0.092 C 
HETATM    3  C4  UNL     1       9.679  -8.057  27.903  1.00  0.00     0.234 C 
HETATM    4  O1  UNL     1      10.223  -8.787  28.994  1.00  0.00    -0.333 OA
HETATM    5  C5  UNL     1      10.149 -10.234  28.974  1.00  0.00     0.168 C 
HETATM    6  C6  UNL     1      11.446 -10.576  29.739  1.00  0.00     0.074 C 
HETATM    7  C7  UNL     1      10.126 -10.839  27.534  1.00  0.00     0.209 C 
ENDROOT
BRANCH   1   8
HETATM    8  N1  UNL     1      10.983 -10.478  25.227  1.00  0.00     0.086 N 
HETATM    9  C1  UNL     1      12.098  -9.930  24.462  1.00  0.00     0.307 C 
HETATM   10  H4  UNL     1      11.149 -11.481  25.359  1.00  0.00     0.316 HD
ENDBRANCH   1   8
BRANCH   7  11
HETATM   11  O2  UNL     1      10.767 -12.130  27.488  1.00  0.00    -0.384 OA
HETATM   12  C8  UNL     1      11.710 -12.308  28.542  1.00  0.00     0.202 C 
ENDBRANCH   7  11
BRANCH   3  13
HETATM   13  N4  UNL     1       8.245  -7.854  28.092  1.00  0.00    -0.316 N 
HETATM   14  C26 UNL     1       7.257  -8.642  27.521  1.00  0.00     0.048 A 
HETATM   15  C21 UNL     1       6.020  -8.064  27.849  1.00  0.00     0.004 A 
HETATM   16  C25 UNL     1       7.350  -9.807  26.738  1.00  0.00     0.030 A 
HETATM   17  C20 UNL     1       6.285  -6.906  28.642  1.00  0.00     0.022 A 
HETATM   18  C22 UNL     1       4.848  -8.685  27.368  1.00  0.00     0.014 A 
HETATM   19  C19 UNL     1       5.579  -5.880  29.279  1.00  0.00     0.062 A 
HETATM   20  C27 UNL     1       7.663  -6.838  28.783  1.00  0.00     0.077 A 
HETATM   21  C16 UNL     1       6.187  -4.848  30.031  1.00  0.00     0.062 A 
HETATM   22  C18 UNL     1       4.135  -5.651  29.327  1.00  0.00     0.260 A 
HETATM   23  C15 UNL     1       7.570  -4.732  30.239  1.00  0.00     0.022 A 
HETATM   24  C17 UNL     1       5.106  -3.999  30.535  1.00  0.00     0.260 A 
HETATM   25  C14 UNL     1       8.481  -3.900  30.949  1.00  0.00     0.004 A 
HETATM   26  C28 UNL     1       8.339  -5.704  29.621  1.00  0.00     0.078 A 
HETATM   27  C9  UNL     1       9.776  -4.425  30.764  1.00  0.00     0.049 A 
HETATM   28  C13 UNL     1       8.320  -2.764  31.775  1.00  0.00     0.014 A 
HETATM   29  N2  UNL     1       9.672  -5.497  29.880  1.00  0.00    -0.308 N 
HETATM   30  C10 UNL     1      10.875  -3.858  31.442  1.00  0.00     0.030 A 
HETATM   31  C11 UNL     1      10.680  -2.739  32.257  1.00  0.00     0.002 A 
HETATM   32  C12 UNL     1       9.419  -2.189  32.415  1.00  0.00     0.001 A 
HETATM   33  O3  UNL     1       5.204  -3.009  31.231  1.00  0.00    -0.267 OA
HETATM   34  N3  UNL     1       3.944  -4.533  30.075  1.00  0.00    -0.289 N 
HETATM   35  H20 UNL     1       3.036  -4.146  30.275  1.00  0.00     0.172 HD
HETATM   36  O4  UNL     1       3.264  -6.320  28.809  1.00  0.00    -0.267 OA
HETATM   37  C23 UNL     1       4.933  -9.845  26.591  1.00  0.00     0.001 A 
HETATM   38  C24 UNL     1       6.169 -10.397  26.282  1.00  0.00     0.002 A 
ENDBRANCH   3  13
TORSDOF 5
ENDMDL
MODEL 5
REMARK minimizedAffinity -9.56102943
REMARK  5 active torsions:
REMARK  status: ('A' for Active; 'I' for Inactive)
REMARK    1  A    between atoms: N1_2  and  C2_3 
REMARK    2  A    between atoms: C4_5  and  N4_34 
REMARK    3  A    between atoms: C5_7  and  N2_12 
REMARK    4  A    between atoms: C7_9  and  O2_10 
REMARK    5  A    between atoms: C27_35  and  C28_36 
ROOT
HETATM    1  C2  UNL     1       9.873  -3.664  30.955  1.00  0.00     0.257 C 
HETATM    2  C3  UNL     1       9.222  -4.416  29.799  1.00  0.00     0.092 C 
HETATM    3  C4  UNL     1       8.335  -5.570  30.269  1.00  0.00     0.234 C 
HETATM    4  O1  UNL     1       8.166  -5.668  31.677  1.00  0.00    -0.333 OA
HETATM    5  C5  UNL     1       9.333  -5.567  32.531  1.00  0.00     0.168 C 
HETATM    6  C6  UNL     1       8.697  -4.906  33.772  1.00  0.00     0.074 C 
HETATM    7  C7  UNL     1      10.483  -4.706  31.917  1.00  0.00     0.209 C 
ENDROOT
BRANCH   1   8
HETATM    8  N1  UNL     1      10.914  -2.735  30.463  1.00  0.00     0.086 N 
HETATM    9  C1  UNL     1      11.463  -3.131  29.171  1.00  0.00     0.307 C 
HETATM   10  H4  UNL     1      10.473  -1.816  30.355  1.00  0.00     0.316 HD
ENDBRANCH   1   8
BRANCH   7  11
HETATM   11  O2  UNL     1      11.239  -4.023  32.938  1.00  0.00    -0.384 OA
HETATM   12  C8  UNL     1      10.800  -2.680  33.134  1.00  0.00     0.202 C 
ENDBRANCH   7  11
BRANCH   3  13
HETATM   13  N4  UNL     1       8.694  -6.870  29.709  1.00  0.00    -0.316 N 
HETATM   14  C26 UNL     1       9.958  -7.435  29.781  1.00  0.00     0.048 A 
HETATM   15  C21 UNL     1       9.926  -8.624  29.035  1.00  0.00     0.004 A 
HETATM   16  C25 UNL     1      11.126  -6.995  30.430  1.00  0.00     0.030 A 
HETATM   17  C20 UNL     1       8.604  -8.769  28.514  1.00  0.00     0.022 A 
HETATM   18  C22 UNL     1      11.112  -9.386  28.947  1.00  0.00     0.014 A 
HETATM   19  C19 UNL     1       7.878  -9.655  27.712  1.00  0.00     0.062 A 
HETATM   20  C27 UNL     1       7.882  -7.680  28.979  1.00  0.00     0.077 A 
HETATM   21  C16 UNL     1       6.509  -9.494  27.391  1.00  0.00     0.062 A 
HETATM   22  C18 UNL     1       8.328 -10.886  27.062  1.00  0.00     0.260 A 
HETATM   23  C15 UNL     1       5.711  -8.434  27.847  1.00  0.00     0.022 A 
HETATM   24  C17 UNL     1       6.136 -10.634  26.551  1.00  0.00     0.260 A 
HETATM   25  C14 UNL     1       4.356  -8.006  27.775  1.00  0.00     0.004 A 
HETATM   26  C28 UNL     1       6.367  -7.504  28.635  1.00  0.00     0.078 A 
HETATM   27  C9  UNL     1       4.230  -6.841  28.560  1.00  0.00     0.049 A 
HETATM   28  C13 UNL     1       3.202  -8.528  27.146  1.00  0.00     0.014 A 
HETATM   29  N2  UNL     1       5.502  -6.509  29.022  1.00  0.00    -0.308 N 
HETATM   30  C10 UNL     1       2.965  -6.251  28.756  1.00  0.00     0.030 A 
HETATM   31  C11 UNL     1       1.844  -6.797  28.125  1.00  0.00     0.002 A 
HETATM   32  C12 UNL     1       1.959  -7.916  27.319  1.00  0.00     0.001 A 
HETATM   33  O3  UNL     1       5.046 -10.875  26.071  1.00  0.00    -0.267 OA
HETATM   34  N3  UNL     1       7.253 -11.393  26.403  1.00  0.00    -0.289 N 
HETATM   35  H20 UNL     1       7.280 -12.245  25.869  1.00  0.00     0.172 HD
HETATM   36  O4  UNL     1       9.438 -11.376  27.097  1.00  0.00    -0.267 OA
HETATM   37  C23 UNL     1      12.275  -8.955  29.593  1.00  0.00     0.001 A 
HETATM   38  C24 UNL     1      12.279  -7.775  30.324  1.00  0.00     0.002 A 
ENDBRANCH   3  13
TORSDOF 5
ENDMDL
MODEL 6
REMARK minimizedAffinity -9.06807041
REMARK  5 active torsions:
REMARK  status: ('A' for Active; 'I' for Inactive)
REMARK    1  A    between atoms: N1_2  and  C2_3 
REMARK    2  A    between atoms: C4_5  and  N4_34 
REMARK    3  A    between atoms: C5_7  and  N2_12 
REMARK    4  A    between atoms: C7_9  and  O2_10 
REMARK    5  A    between atoms: C27_35  and  C28_36 
ROOT
HETATM    1  C2  UNL     1      12.736  -8.623  28.768  1.00  0.00     0.257 C 
HETATM    2  C3  UNL     1      11.698  -8.450  29.872  1.00  0.00     0.092 C 
HETATM    3  C4  UNL     1      10.272  -8.333  29.329  1.00  0.00     0.234 C 
HETATM    4  O1  UNL     1      10.140  -8.530  27.928  1.00  0.00    -0.333 OA
HETATM    5  C5  UNL     1      11.062  -7.852  27.036  1.00  0.00     0.168 C 
HETATM    6  C6  UNL     1      11.140  -8.891  25.897  1.00  0.00     0.074 C 
HETATM    7  C7  UNL     1      12.455  -7.564  27.680  1.00  0.00     0.209 C 
ENDROOT
BRANCH   1   8
HETATM    8  N1  UNL     1      14.107  -8.472  29.303  1.00  0.00     0.086 N 
HETATM    9  C1  UNL     1      14.377  -9.355  30.432  1.00  0.00     0.307 C 
HETATM   10  H4  UNL     1      14.755  -8.713  28.546  1.00  0.00     0.316 HD
ENDBRANCH   1   8
BRANCH   7  11
HETATM   11  O2  UNL     1      13.513  -7.600  26.700  1.00  0.00    -0.384 OA
HETATM   12  C8  UNL     1      13.392  -6.563  25.729  1.00  0.00     0.202 C 
ENDBRANCH   7  11
BRANCH   3  13
HETATM   13  N4  UNL     1       9.571  -7.120  29.740  1.00  0.00    -0.316 N 
HETATM   14  C26 UNL     1      10.154  -6.072  30.437  1.00  0.00     0.048 A 
HETATM   15  C21 UNL     1       9.136  -5.154  30.738  1.00  0.00     0.004 A 
HETATM   16  C25 UNL     1      11.488  -5.863  30.833  1.00  0.00     0.030 A 
HETATM   17  C20 UNL     1       7.919  -5.670  30.198  1.00  0.00     0.022 A 
HETATM   18  C22 UNL     1       9.482  -3.992  31.461  1.00  0.00     0.014 A 
HETATM   19  C19 UNL     1       6.565  -5.324  30.128  1.00  0.00     0.062 A 
HETATM   20  C27 UNL     1       8.246  -6.865  29.574  1.00  0.00     0.077 A 
HETATM   21  C16 UNL     1       5.582  -6.097  29.467  1.00  0.00     0.062 A 
HETATM   22  C18 UNL     1       5.888  -4.148  30.676  1.00  0.00     0.260 A 
HETATM   23  C15 UNL     1       5.845  -7.299  28.793  1.00  0.00     0.022 A 
HETATM   24  C17 UNL     1       4.313  -5.383  29.616  1.00  0.00     0.260 A 
HETATM   25  C14 UNL     1       5.149  -8.263  28.010  1.00  0.00     0.004 A 
HETATM   26  C28 UNL     1       7.164  -7.718  28.834  1.00  0.00     0.078 A 
HETATM   27  C9  UNL     1       6.087  -9.219  27.571  1.00  0.00     0.049 A 
HETATM   28  C13 UNL     1       3.804  -8.390  27.594  1.00  0.00     0.014 A 
HETATM   29  N2  UNL     1       7.313  -8.902  28.154  1.00  0.00    -0.308 N 
HETATM   30  C10 UNL     1       5.695 -10.244  26.686  1.00  0.00     0.030 A 
HETATM   31  C11 UNL     1       4.358 -10.337  26.288  1.00  0.00     0.002 A 
HETATM   32  C12 UNL     1       3.419  -9.429  26.744  1.00  0.00     0.001 A 
HETATM   33  O3  UNL     1       3.225  -5.707  29.185  1.00  0.00    -0.267 OA
HETATM   34  N3  UNL     1       4.578  -4.262  30.337  1.00  0.00    -0.289 N 
HETATM   35  H20 UNL     1       3.878  -3.582  30.585  1.00  0.00     0.172 HD
HETATM   36  O4  UNL     1       6.385  -3.239  31.309  1.00  0.00    -0.267 OA
HETATM   37  C23 UNL     1      10.806  -3.776  31.857  1.00  0.00     0.001 A 
HETATM   38  C24 UNL     1      11.794  -4.701  31.545  1.00  0.00     0.002 A 
ENDBRANCH   3  13
TORSDOF 5
ENDMDL
MODEL 7
REMARK minimizedAffinity -8.92579269
REMARK  5 active torsions:
REMARK  status: ('A' for Active; 'I' for Inactive)
REMARK    1  A    between atoms: N1_2  and  C2_3 
REMARK    2  A    between atoms: C4_5  and  N4_34 
REMARK    3  A    between atoms: C5_7  and  N2_12 
REMARK    4  A    between atoms: C7_9  and  O2_10 
REMARK    5  A    between atoms: C27_35  and  C28_36 
ROOT
HETATM    1  C2  UNL     1       8.945 -10.472  24.299  1.00  0.00     0.257 C 
HETATM    2  C3  UNL     1       8.418  -9.205  24.965  1.00  0.00     0.092 C 
HETATM    3  C4  UNL     1       7.997  -9.433  26.418  1.00  0.00     0.234 C 
HETATM    4  O1  UNL     1       8.279 -10.727  26.934  1.00  0.00    -0.333 OA
HETATM    5  C5  UNL     1       7.938 -11.888  26.135  1.00  0.00     0.168 C 
HETATM    6  C6  UNL     1       9.061 -12.851  26.575  1.00  0.00     0.074 C 
HETATM    7  C7  UNL     1       7.951 -11.615  24.597  1.00  0.00     0.209 C 
ENDROOT
BRANCH   1   8
HETATM    8  N1  UNL     1       9.095 -10.278  22.840  1.00  0.00     0.086 N 
HETATM    9  C1  UNL     1       9.897  -9.107  22.502  1.00  0.00     0.307 C 
HETATM   10  H4  UNL     1       9.572 -11.108  22.472  1.00  0.00     0.316 HD
ENDBRANCH   1   8
BRANCH   7  11
HETATM   11  O2  UNL     1       8.340 -12.786  23.852  1.00  0.00    -0.384 OA
HETATM   12  C8  UNL     1       9.751 -12.868  23.662  1.00  0.00     0.202 C 
ENDBRANCH   7  11
BRANCH   3  13
HETATM   13  N4  UNL     1       6.615  -9.061  26.707  1.00  0.00    -0.316 N 
HETATM   14  C26 UNL     1       5.506  -9.588  26.060  1.00  0.00     0.048 A 
HETATM   15  C21 UNL     1       4.379  -8.902  26.539  1.00  0.00     0.004 A 
HETATM   16  C25 UNL     1       5.405 -10.601  25.090  1.00  0.00     0.030 A 
HETATM   17  C20 UNL     1       4.833  -7.949  27.501  1.00  0.00     0.022 A 
HETATM   18  C22 UNL     1       3.116  -9.255  26.018  1.00  0.00     0.014 A 
HETATM   19  C19 UNL     1       4.304  -6.957  28.335  1.00  0.00     0.062 A 
HETATM   20  C27 UNL     1       6.208  -8.106  27.586  1.00  0.00     0.077 A 
HETATM   21  C16 UNL     1       5.078  -6.169  29.219  1.00  0.00     0.062 A 
HETATM   22  C18 UNL     1       2.912  -6.533  28.489  1.00  0.00     0.260 A 
HETATM   23  C15 UNL     1       6.467  -6.292  29.376  1.00  0.00     0.022 A 
HETATM   24  C17 UNL     1       4.148  -5.272  29.908  1.00  0.00     0.260 A 
HETATM   25  C14 UNL     1       7.509  -5.736  30.170  1.00  0.00     0.004 A 
HETATM   26  C28 UNL     1       7.066  -7.244  28.568  1.00  0.00     0.078 A 
HETATM   27  C9  UNL     1       8.705  -6.402  29.839  1.00  0.00     0.049 A 
HETATM   28  C13 UNL     1       7.539  -4.748  31.182  1.00  0.00     0.014 A 
HETATM   29  N2  UNL     1       8.421  -7.279  28.794  1.00  0.00    -0.308 N 
HETATM   30  C10 UNL     1       9.892  -6.126  30.548  1.00  0.00     0.030 A 
HETATM   31  C11 UNL     1       9.886  -5.148  31.547  1.00  0.00     0.002 A 
HETATM   32  C12 UNL     1       8.727  -4.457  31.855  1.00  0.00     0.001 A 
HETATM   33  O3  UNL     1       4.410  -4.442  30.755  1.00  0.00    -0.267 OA
HETATM   34  N3  UNL     1       2.909  -5.545  29.421  1.00  0.00    -0.289 N 
HETATM   35  H20 UNL     1       2.075  -5.072  29.727  1.00  0.00     0.172 HD
HETATM   36  O4  UNL     1       1.939  -6.969  27.909  1.00  0.00    -0.267 OA
HETATM   37  C23 UNL     1       3.007 -10.263  25.055  1.00  0.00     0.001 A 
HETATM   38  C24 UNL     1       4.139 -10.926  24.599  1.00  0.00     0.002 A 
ENDBRANCH   3  13
TORSDOF 5
ENDMDL
MODEL 8
REMARK minimizedAffinity -8.84922981
REMARK  5 active torsions:
REMARK  status: ('A' for Active; 'I' for Inactive)
REMARK    1  A    between atoms: N1_2  and  C2_3 
REMARK    2  A    between atoms: C4_5  and  N4_34 
REMARK    3  A    between atoms: C5_7  and  N2_12 
REMARK    4  A    between atoms: C7_9  and  O2_10 
REMARK    5  A    between atoms: C27_35  and  C28_36 
ROOT
HETATM    1  C2  UNL     1      11.379 -10.194  28.242  1.00  0.00     0.257 C 
HETATM    2  C3  UNL     1      10.158  -9.981  29.131  1.00  0.00     0.092 C 
HETATM    3  C4  UNL     1       8.908  -9.598  28.336  1.00  0.00     0.234 C 
HETATM    4  O1  UNL     1       9.057  -9.629  26.923  1.00  0.00    -0.333 OA
HETATM    5  C5  UNL     1      10.225  -9.010  26.329  1.00  0.00     0.168 C 
HETATM    6  C6  UNL     1      10.415  -9.928  25.102  1.00  0.00     0.074 C 
HETATM    7  C7  UNL     1      11.473  -9.000  27.268  1.00  0.00     0.209 C 
ENDROOT
BRANCH   1   8
HETATM    8  N1  UNL     1      12.611 -10.305  29.053  1.00  0.00     0.086 N 
HETATM    9  C1  UNL     1      13.308 -11.572  28.859  1.00  0.00     0.307 C 
HETATM   10  H4  UNL     1      13.237  -9.548  28.758  1.00  0.00     0.316 HD
ENDBRANCH   1   8
BRANCH   7  11
HETATM   11  O2  UNL     1      12.703  -9.094  26.521  1.00  0.00    -0.384 OA
HETATM   12  C8  UNL     1      13.337  -7.828  26.352  1.00  0.00     0.202 C 
ENDBRANCH   7  11
BRANCH   3  13
HETATM   13  N4  UNL     1       8.293  -8.342  28.755  1.00  0.00    -0.316 N 
HETATM   14  C26 UNL     1       8.950  -7.337  29.449  1.00  0.00     0.048 A 
HETATM   15  C21 UNL     1       7.997  -6.353  29.760  1.00  0.00     0.004 A 
HETATM   16  C25 UNL     1      10.297  -7.217  29.835  1.00  0.00     0.030 A 
HETATM   17  C20 UNL     1       6.744  -6.787  29.228  1.00  0.00     0.022 A 
HETATM   18  C22 UNL     1       8.425  -5.219  30.482  1.00  0.00     0.014 A 
HETATM   19  C19 UNL     1       5.416  -6.351  29.169  1.00  0.00     0.062 A 
HETATM   20  C27 UNL     1       6.986  -7.999  28.599  1.00  0.00     0.077 A 
HETATM   21  C16 UNL     1       4.378  -7.055  28.515  1.00  0.00     0.062 A 
HETATM   22  C18 UNL     1       4.823  -5.134  29.726  1.00  0.00     0.260 A 
HETATM   23  C15 UNL     1       4.556  -8.271  27.837  1.00  0.00     0.022 A 
HETATM   24  C17 UNL     1       3.160  -6.259  28.676  1.00  0.00     0.260 A 
HETATM   25  C14 UNL     1       3.791  -9.185  27.059  1.00  0.00     0.004 A 
HETATM   26  C28 UNL     1       5.844  -8.776  27.867  1.00  0.00     0.078 A 
HETATM   27  C9  UNL     1       4.660 -10.200  26.610  1.00  0.00     0.049 A 
HETATM   28  C13 UNL     1       2.437  -9.222  26.652  1.00  0.00     0.014 A 
HETATM   29  N2  UNL     1       5.908  -9.966  27.184  1.00  0.00    -0.308 N 
HETATM   30  C10 UNL     1       4.193 -11.194  25.726  1.00  0.00     0.030 A 
HETATM   31  C11 UNL     1       2.851 -11.198  25.339  1.00  0.00     0.002 A 
HETATM   32  C12 UNL     1       1.977 -10.230  25.804  1.00  0.00     0.001 A 
HETATM   33  O3  UNL     1       2.050  -6.510  28.253  1.00  0.00    -0.267 OA
HETATM   34  N3  UNL     1       3.505  -5.159  29.397  1.00  0.00    -0.289 N 
HETATM   35  H20 UNL     1       2.854  -4.435  29.652  1.00  0.00     0.172 HD
HETATM   36  O4  UNL     1       5.383  -4.261  30.356  1.00  0.00    -0.267 OA
HETATM   37  C23 UNL     1       9.764  -5.092  30.867  1.00  0.00     0.001 A 
HETATM   38  C24 UNL     1      10.685  -6.080  30.546  1.00  0.00     0.002 A 
ENDBRANCH   3  13
TORSDOF 5
ENDMDL
MODEL 9
REMARK minimizedAffinity -8.83961487
REMARK  5 active torsions:
REMARK  status: ('A' for Active; 'I' for Inactive)
REMARK    1  A    between atoms: N1_2  and  C2_3 
REMARK    2  A    between atoms: C4_5  and  N4_34 
REMARK    3  A    between atoms: C5_7  and  N2_12 
REMARK    4  A    between atoms: C7_9  and  O2_10 
REMARK    5  A    between atoms: C27_35  and  C28_36 
ROOT
HETATM    1  C2  UNL     1      10.278 -10.292  25.703  1.00  0.00     0.257 C 
HETATM    2  C3  UNL     1      10.414 -10.273  27.222  1.00  0.00     0.092 C 
HETATM    3  C4  UNL     1       9.549  -9.195  27.879  1.00  0.00     0.234 C 
HETATM    4  O1  UNL     1       8.685  -8.492  26.997  1.00  0.00    -0.333 OA
HETATM    5  C5  UNL     1       9.217  -7.996  25.743  1.00  0.00     0.168 C 
HETATM    6  C6  UNL     1       7.957  -8.109  24.858  1.00  0.00     0.074 C 
HETATM    7  C7  UNL     1      10.412  -8.840  25.195  1.00  0.00     0.209 C 
ENDROOT
BRANCH   1   8
HETATM    8  N1  UNL     1      11.309 -11.157  25.090  1.00  0.00     0.086 N 
HETATM    9  C1  UNL     1      11.986 -12.009  26.061  1.00  0.00     0.307 C 
HETATM   10  H4  UNL     1      10.834 -11.761  24.412  1.00  0.00     0.316 HD
ENDBRANCH   1   8
BRANCH   7  11
HETATM   11  O2  UNL     1      10.443  -8.844  23.753  1.00  0.00    -0.384 OA
HETATM   12  C8  UNL     1       9.651  -9.890  23.193  1.00  0.00     0.202 C 
ENDBRANCH   7  11
BRANCH   3  13
HETATM   13  N4  UNL     1      10.292  -8.258  28.717  1.00  0.00    -0.316 N 
HETATM   14  C26 UNL     1      11.663  -8.302  28.922  1.00  0.00     0.048 A 
HETATM   15  C21 UNL     1      11.976  -7.312  29.867  1.00  0.00     0.004 A 
HETATM   16  C25 UNL     1      12.649  -9.136  28.362  1.00  0.00     0.030 A 
HETATM   17  C20 UNL     1      10.757  -6.660  30.224  1.00  0.00     0.022 A 
HETATM   18  C22 UNL     1      13.326  -7.165  30.253  1.00  0.00     0.014 A 
HETATM   19  C19 UNL     1      10.316  -5.641  31.075  1.00  0.00     0.062 A 
HETATM   20  C27 UNL     1       9.759  -7.260  29.471  1.00  0.00     0.077 A 
HETATM   21  C16 UNL     1       8.970  -5.217  31.175  1.00  0.00     0.062 A 
HETATM   22  C18 UNL     1      11.094  -4.815  31.999  1.00  0.00     0.260 A 
HETATM   23  C15 UNL     1       7.915  -5.760  30.425  1.00  0.00     0.022 A 
HETATM   24  C17 UNL     1       8.940  -4.132  32.157  1.00  0.00     0.260 A 
HETATM   25  C14 UNL     1       6.520  -5.553  30.234  1.00  0.00     0.004 A 
HETATM   26  C28 UNL     1       8.271  -6.789  29.571  1.00  0.00     0.078 A 
HETATM   27  C9  UNL     1       6.085  -6.448  29.235  1.00  0.00     0.049 A 
HETATM   28  C13 UNL     1       5.584  -4.651  30.791  1.00  0.00     0.014 A 
HETATM   29  N2  UNL     1       7.170  -7.252  28.893  1.00  0.00    -0.308 N 
HETATM   30  C10 UNL     1       4.757  -6.395  28.764  1.00  0.00     0.030 A 
HETATM   31  C11 UNL     1       3.860  -5.486  29.332  1.00  0.00     0.002 A 
HETATM   32  C12 UNL     1       4.263  -4.629  30.342  1.00  0.00     0.001 A 
HETATM   33  O3  UNL     1       7.976  -3.491  32.524  1.00  0.00    -0.267 OA
HETATM   34  N3  UNL     1      10.216  -3.964  32.592  1.00  0.00    -0.289 N 
HETATM   35  H20 UNL     1      10.485  -3.276  33.276  1.00  0.00     0.172 HD
HETATM   36  O4  UNL     1      12.289  -4.863  32.205  1.00  0.00    -0.267 OA
HETATM   37  C23 UNL     1      14.311  -7.989  29.699  1.00  0.00     0.001 A 
HETATM   38  C24 UNL     1      13.974  -8.960  28.766  1.00  0.00     0.002 A 
ENDBRANCH   3  13
TORSDOF 5
ENDMDL
