MODEL 1
REMARK minimizedAffinity -8.81169605
REMARK CNNscore 0.536399245
REMARK CNNaffinity 7.39448023
REMARK  10 active torsions:
REMARK  status: ('A' for Active; 'I' for Inactive)
REMARK    1  A    between atoms: O1_2  and  C2_3 
REMARK    2  A    between atoms: C4_5  and  O2_6 
REMARK    3  A    between atoms: O2_6  and  C5_7 
REMARK    4  A    between atoms: C8_10  and  C9_11 
REMARK    5  A    between atoms: N1_12  and  C10_14 
REMARK    6  A    between atoms: C10_14  and  C11_15 
REMARK    7  A    between atoms: C21_27  and  C22_28 
REMARK    8  A    between atoms: C28_36  and  O5_37 
REMARK    9  A    between atoms: C32_41  and  O6_42 
REMARK   10  A    between atoms: C36_47  and  O8_48 
ROOT
HETATM    1  C5  UNL     1      -4.869   7.845  14.571  1.00  0.00     0.127 C 
HETATM    2  C6  UNL     1      -4.265   9.240  14.396  1.00  0.00     0.033 C 
HETATM    3  C7  UNL     1      -2.890   9.225  13.722  1.00  0.00     0.021 C 
HETATM    4  C8  UNL     1      -1.847   8.260  14.371  1.00  0.00     0.026 C 
HETATM    5  C16 UNL     1      -0.595   8.213  13.389  1.00  0.00     0.009 C 
HETATM    6  C17 UNL     1       0.484   9.263  13.736  1.00  0.00     0.007 C 
HETATM    7  C18 UNL     1       1.659   9.240  12.760  1.00  0.00     0.013 C 
HETATM    8  C19 UNL     1       2.330   7.846  12.660  1.00  0.00    -0.005 C 
HETATM    9  C20 UNL     1       3.089   7.538  13.966  1.00  0.00     0.019 C 
HETATM   10  C21 UNL     1       3.275   7.738  11.424  1.00  0.00     0.028 C 
HETATM   11  C26 UNL     1       2.305   7.582  10.238  1.00  0.00     0.013 C 
HETATM   12  C27 UNL     1       1.019   6.967  10.808  1.00  0.00     0.040 C 
HETATM   13  C28 UNL     1       1.272   6.758  12.317  1.00  0.00     0.070 C 
HETATM   14  C29 UNL     1       0.012   6.802  13.226  1.00  0.00     0.026 C 
HETATM   15  C30 UNL     1      -1.062   5.776  12.776  1.00  0.00     0.011 C 
HETATM   16  C31 UNL     1      -2.481   6.071  13.274  1.00  0.00     0.039 C 
HETATM   17  C32 UNL     1      -2.482   6.846  14.599  1.00  0.00     0.073 C 
HETATM   18  C33 UNL     1      -3.869   6.927  15.269  1.00  0.00     0.071 C 
ENDROOT
BRANCH   1  19
HETATM   19  O2  UNL     1      -5.228   7.335  13.282  1.00  0.00    -0.356 OA
BRANCH  19  20
HETATM   20  C4  UNL     1      -6.567   6.818  13.228  1.00  0.00     0.263 C 
HETATM   21  C3  UNL     1      -6.461   5.306  13.077  1.00  0.00     0.095 C 
HETATM   22  C2  UNL     1      -7.842   4.659  12.923  1.00  0.00     0.156 C 
HETATM   23  C36 UNL     1      -8.978   5.586  13.397  1.00  0.00     0.175 C 
HETATM   24  C34 UNL     1      -8.552   6.503  14.563  1.00  0.00     0.151 C 
HETATM   25  O7  UNL     1      -7.260   7.108  14.432  1.00  0.00    -0.354 OA
HETATM   26  C35 UNL     1      -8.564   5.767  15.898  1.00  0.00     0.042 C 
BRANCH  22  27
HETATM   27  O1  UNL     1      -7.930   3.426  13.653  1.00  0.00    -0.388 OA
HETATM   28  C1  UNL     1      -7.391   2.311  12.953  1.00  0.00     0.202 C 
ENDBRANCH  22  27
BRANCH  23  29
HETATM   29  O8  UNL     1      -9.378   6.415  12.292  1.00  0.00    -0.390 OA
HETATM   30  H50 UNL     1      -9.924   5.864  11.703  1.00  0.00     0.210 HD
ENDBRANCH  23  29
ENDBRANCH  19  20
ENDBRANCH   1  19
BRANCH  17  31
HETATM   31  O6  UNL     1      -1.675   6.071  15.514  1.00  0.00    -0.389 OA
HETATM   32  H42 UNL     1      -2.103   5.198  15.615  1.00  0.00     0.210 HD
ENDBRANCH  17  31
BRANCH   4  33
HETATM   33  C9  UNL     1      -1.404   8.776  15.749  1.00  0.00     0.069 C 
HETATM   34  N1  UNL     1      -0.716   9.857  15.888  1.00  0.00    -0.397 N 
ATOM     35  H1  UNL     1      -0.435  10.445  15.104  1.00  0.00     0.159 HD
BRANCH  34  36
HETATM   36  C10 UNL     1      -0.377  10.160  17.277  1.00  0.00     0.158 C 
BRANCH  36  37
HETATM   37  C11 UNL     1      -0.758  11.571  17.618  1.00  0.00    -0.025 A 
HETATM   38  C12 UNL     1      -1.013  11.961  18.936  1.00  0.00     0.011 A 
HETATM   39  C13 UNL     1      -1.340  13.287  19.215  1.00  0.00     0.018 A 
HETATM   40  C14 UNL     1      -1.393  14.182  18.160  1.00  0.00     0.087 A 
HETATM   41  N2  UNL     1      -1.143  13.849  16.875  1.00  0.00    -0.375 N 
HETATM   42  C15 UNL     1      -0.820  12.555  16.636  1.00  0.00     0.096 A 
ATOM     43  H2  UNL     1      -1.195  14.536  16.123  1.00  0.00     0.164 HD
ENDBRANCH  36  37
ENDBRANCH  34  36
ENDBRANCH   4  33
BRANCH  13  44
HETATM   44  O5  UNL     1       1.879   5.463  12.463  1.00  0.00    -0.389 OA
HETATM   45  H36 UNL     1       1.263   4.795  12.112  1.00  0.00     0.210 HD
ENDBRANCH  13  44
BRANCH  10  46
HETATM   46  C22 UNL     1       4.327   8.801  11.266  1.00  0.00    -0.045 A 
HETATM   47  C23 UNL     1       4.765   9.701  12.146  1.00  0.00     0.087 A 
HETATM   48  C24 UNL     1       5.764  10.526  11.464  1.00  0.00     0.283 A 
HETATM   49  O3  UNL     1       6.393  11.430  11.984  1.00  0.00    -0.260 OA
HETATM   50  O4  UNL     1       5.877  10.114  10.174  1.00  0.00    -0.314 OA
HETATM   51  C25 UNL     1       4.995   9.014   9.957  1.00  0.00     0.213 A 
ENDBRANCH  10  46
TORSDOF 10
ENDMDL
MODEL 2
REMARK minimizedAffinity -7.38454962
REMARK CNNscore 0.419333667
REMARK CNNaffinity 6.86123514
REMARK  10 active torsions:
REMARK  status: ('A' for Active; 'I' for Inactive)
REMARK    1  A    between atoms: O1_2  and  C2_3 
REMARK    2  A    between atoms: C4_5  and  O2_6 
REMARK    3  A    between atoms: O2_6  and  C5_7 
REMARK    4  A    between atoms: C8_10  and  C9_11 
REMARK    5  A    between atoms: N1_12  and  C10_14 
REMARK    6  A    between atoms: C10_14  and  C11_15 
REMARK    7  A    between atoms: C21_27  and  C22_28 
REMARK    8  A    between atoms: C28_36  and  O5_37 
REMARK    9  A    between atoms: C32_41  and  O6_42 
REMARK   10  A    between atoms: C36_47  and  O8_48 
ROOT
HETATM    1  C5  UNL     1     -11.229   6.756  13.585  1.00  0.00     0.127 C 
HETATM    2  C6  UNL     1     -12.180   7.513  12.658  1.00  0.00     0.033 C 
HETATM    3  C7  UNL     1     -12.066   9.035  12.786  1.00  0.00     0.021 C 
HETATM    4  C8  UNL     1     -12.175   9.586  14.243  1.00  0.00     0.026 C 
HETATM    5  C16 UNL     1     -11.789  11.129  14.178  1.00  0.00     0.009 C 
HETATM    6  C17 UNL     1     -13.012  12.049  13.970  1.00  0.00     0.007 C 
HETATM    7  C18 UNL     1     -12.626  13.524  13.863  1.00  0.00     0.013 C 
HETATM    8  C19 UNL     1     -11.824  14.025  15.092  1.00  0.00    -0.005 C 
HETATM    9  C20 UNL     1     -12.751  14.103  16.322  1.00  0.00     0.019 C 
HETATM   10  C21 UNL     1     -11.135  15.398  14.822  1.00  0.00     0.028 C 
HETATM   11  C26 UNL     1      -9.933  15.032  13.931  1.00  0.00     0.013 C 
HETATM   12  C27 UNL     1      -9.587  13.571  14.250  1.00  0.00     0.040 C 
HETATM   13  C28 UNL     1     -10.584  13.117  15.339  1.00  0.00     0.070 C 
HETATM   14  C29 UNL     1     -10.914  11.599  15.362  1.00  0.00     0.026 C 
HETATM   15  C30 UNL     1      -9.635  10.731  15.496  1.00  0.00     0.011 C 
HETATM   16  C31 UNL     1      -9.798   9.275  15.045  1.00  0.00     0.039 C 
HETATM   17  C32 UNL     1     -11.240   8.775  15.203  1.00  0.00     0.073 C 
HETATM   18  C33 UNL     1     -11.391   7.251  15.020  1.00  0.00     0.071 C 
ENDROOT
BRANCH   1  19
HETATM   19  O2  UNL     1      -9.888   6.944  13.121  1.00  0.00    -0.356 OA
BRANCH  19  20
HETATM   20  C4  UNL     1      -8.944   6.051  13.731  1.00  0.00     0.263 C 
HETATM   21  C3  UNL     1      -8.633   4.959  12.716  1.00  0.00     0.095 C 
HETATM   22  C2  UNL     1      -7.694   3.898  13.301  1.00  0.00     0.156 C 
HETATM   23  C36 UNL     1      -6.954   4.400  14.556  1.00  0.00     0.175 C 
HETATM   24  C34 UNL     1      -6.664   5.915  14.511  1.00  0.00     0.151 C 
HETATM   25  O7  UNL     1      -7.742   6.736  14.045  1.00  0.00    -0.354 OA
HETATM   26  C35 UNL     1      -5.454   6.236  13.641  1.00  0.00     0.042 C 
BRANCH  22  27
HETATM   27  O1  UNL     1      -6.716   3.473  12.340  1.00  0.00    -0.388 OA
HETATM   28  C1  UNL     1      -6.770   2.080  12.054  1.00  0.00     0.202 C 
ENDBRANCH  22  27
BRANCH  23  29
HETATM   29  O8  UNL     1      -7.777   4.131  15.705  1.00  0.00    -0.390 OA
HETATM   30  H50 UNL     1      -7.693   3.181  15.901  1.00  0.00     0.210 HD
ENDBRANCH  23  29
ENDBRANCH  19  20
ENDBRANCH   1  19
BRANCH  17  31
HETATM   31  O6  UNL     1     -11.598   9.018  16.582  1.00  0.00    -0.389 OA
HETATM   32  H42 UNL     1     -10.982   8.502  17.140  1.00  0.00     0.210 HD
ENDBRANCH  17  31
BRANCH   4  33
HETATM   33  C9  UNL     1     -13.606   9.433  14.783  1.00  0.00     0.069 C 
HETATM   34  N1  UNL     1     -14.023   8.339  15.321  1.00  0.00    -0.397 N 
ATOM     35  H1  UNL     1     -13.434   7.514  15.437  1.00  0.00     0.159 HD
BRANCH  34  36
HETATM   36  C10 UNL     1     -15.419   8.392  15.748  1.00  0.00     0.158 C 
BRANCH  36  37
HETATM   37  C11 UNL     1     -16.068   7.047  15.602  1.00  0.00    -0.025 A 
HETATM   38  C12 UNL     1     -15.345   5.930  15.172  1.00  0.00     0.011 A 
HETATM   39  C13 UNL     1     -15.977   4.692  15.071  1.00  0.00     0.018 A 
HETATM   40  C14 UNL     1     -17.317   4.614  15.414  1.00  0.00     0.087 A 
HETATM   41  N2  UNL     1     -18.048   5.665  15.844  1.00  0.00    -0.375 N 
HETATM   42  C15 UNL     1     -17.404   6.853  15.939  1.00  0.00     0.096 A 
ATOM     43  H2  UNL     1     -19.035   5.569  16.085  1.00  0.00     0.164 HD
ENDBRANCH  36  37
ENDBRANCH  34  36
ENDBRANCH   4  33
BRANCH  13  44
HETATM   44  O5  UNL     1     -10.004  13.465  16.608  1.00  0.00    -0.389 OA
HETATM   45  H36 UNL     1      -9.153  12.999  16.692  1.00  0.00     0.210 HD
ENDBRANCH  13  44
BRANCH  10  46
HETATM   46  C22 UNL     1     -12.003  16.516  14.313  1.00  0.00    -0.045 A 
HETATM   47  C23 UNL     1     -12.948  17.213  14.944  1.00  0.00     0.087 A 
HETATM   48  C24 UNL     1     -13.516  18.153  13.975  1.00  0.00     0.283 A 
HETATM   49  O3  UNL     1     -14.385  18.967  14.224  1.00  0.00    -0.260 OA
HETATM   50  O4  UNL     1     -12.911  17.971  12.772  1.00  0.00    -0.314 OA
HETATM   51  C25 UNL     1     -11.929  16.944  12.894  1.00  0.00     0.213 A 
ENDBRANCH  10  46
TORSDOF 10
ENDMDL
MODEL 3
REMARK minimizedAffinity -9.61947918
REMARK CNNscore 0.363488644
REMARK CNNaffinity 6.72492075
REMARK  10 active torsions:
REMARK  status: ('A' for Active; 'I' for Inactive)
REMARK    1  A    between atoms: O1_2  and  C2_3 
REMARK    2  A    between atoms: C4_5  and  O2_6 
REMARK    3  A    between atoms: O2_6  and  C5_7 
REMARK    4  A    between atoms: C8_10  and  C9_11 
REMARK    5  A    between atoms: N1_12  and  C10_14 
REMARK    6  A    between atoms: C10_14  and  C11_15 
REMARK    7  A    between atoms: C21_27  and  C22_28 
REMARK    8  A    between atoms: C28_36  and  O5_37 
REMARK    9  A    between atoms: C32_41  and  O6_42 
REMARK   10  A    between atoms: C36_47  and  O8_48 
ROOT
HETATM    1  C5  UNL     1       0.318  11.322  18.478  1.00  0.00     0.127 C 
HETATM    2  C6  UNL     1      -1.036  10.912  19.057  1.00  0.00     0.033 C 
HETATM    3  C7  UNL     1      -1.766   9.865  18.209  1.00  0.00     0.021 C 
HETATM    4  C8  UNL     1      -1.909  10.223  16.696  1.00  0.00     0.026 C 
HETATM    5  C16 UNL     1      -2.462   8.919  15.969  1.00  0.00     0.009 C 
HETATM    6  C17 UNL     1      -4.004   8.884  15.883  1.00  0.00     0.007 C 
HETATM    7  C18 UNL     1      -4.526   7.607  15.225  1.00  0.00     0.013 C 
HETATM    8  C19 UNL     1      -3.939   7.381  13.808  1.00  0.00    -0.005 C 
HETATM    9  C20 UNL     1      -4.525   8.418  12.829  1.00  0.00     0.019 C 
HETATM   10  C21 UNL     1      -4.187   5.927  13.297  1.00  0.00     0.028 C 
HETATM   11  C26 UNL     1      -3.159   5.088  14.079  1.00  0.00     0.013 C 
HETATM   12  C27 UNL     1      -2.011   6.040  14.445  1.00  0.00     0.040 C 
HETATM   13  C28 UNL     1      -2.384   7.416  13.851  1.00  0.00     0.070 C 
HETATM   14  C29 UNL     1      -1.807   8.651  14.595  1.00  0.00     0.026 C 
HETATM   15  C30 UNL     1      -0.261   8.586  14.712  1.00  0.00     0.011 C 
HETATM   16  C31 UNL     1       0.337   9.465  15.817  1.00  0.00     0.039 C 
HETATM   17  C32 UNL     1      -0.533  10.694  16.115  1.00  0.00     0.073 C 
HETATM   18  C33 UNL     1       0.158  11.737  17.017  1.00  0.00     0.071 C 
ENDROOT
BRANCH   1  19
HETATM   19  O2  UNL     1       1.225  10.222  18.606  1.00  0.00    -0.356 OA
BRANCH  19  20
HETATM   20  C4  UNL     1       2.387  10.531  19.391  1.00  0.00     0.263 C 
HETATM   21  C3  UNL     1       2.130  11.871  20.068  1.00  0.00     0.095 C 
HETATM   22  C2  UNL     1       3.351  12.339  20.868  1.00  0.00     0.156 C 
HETATM   23  C36 UNL     1       4.332  11.189  21.165  1.00  0.00     0.175 C 
HETATM   24  C34 UNL     1       3.622   9.830  21.342  1.00  0.00     0.151 C 
HETATM   25  O7  UNL     1       2.587   9.546  20.392  1.00  0.00    -0.354 OA
HETATM   26  C35 UNL     1       3.003   9.689  22.728  1.00  0.00     0.042 C 
BRANCH  22  27
HETATM   27  O1  UNL     1       2.966  12.937  22.115  1.00  0.00    -0.388 OA
HETATM   28  C1  UNL     1       4.071  13.293  22.939  1.00  0.00     0.202 C 
ENDBRANCH  22  27
BRANCH  23  29
HETATM   29  O8  UNL     1       5.250  11.079  20.062  1.00  0.00    -0.390 OA
HETATM   30  H50 UNL     1       5.896  11.801  20.154  1.00  0.00     0.210 HD
ENDBRANCH  23  29
ENDBRANCH  19  20
ENDBRANCH   1  19
BRANCH  17  31
HETATM   31  O6  UNL     1      -0.721  11.366  14.850  1.00  0.00    -0.389 OA
HETATM   32  H42 UNL     1       0.162  11.630  14.524  1.00  0.00     0.210 HD
ENDBRANCH  17  31
BRANCH   4  33
HETATM   33  C9  UNL     1      -2.896  11.384  16.497  1.00  0.00     0.069 C 
HETATM   34  N1  UNL     1      -3.632  11.830  17.456  1.00  0.00    -0.397 N 
ATOM     35  H1  UNL     1      -3.600  11.458  18.405  1.00  0.00     0.159 HD
BRANCH  34  36
HETATM   36  C10 UNL     1      -4.518  12.921  17.055  1.00  0.00     0.158 C 
BRANCH  36  37
HETATM   37  C11 UNL     1      -5.196  13.520  18.252  1.00  0.00    -0.025 A 
HETATM   38  C12 UNL     1      -4.954  13.041  19.543  1.00  0.00     0.011 A 
HETATM   39  C13 UNL     1      -5.584  13.639  20.633  1.00  0.00     0.018 A 
HETATM   40  C14 UNL     1      -6.433  14.706  20.391  1.00  0.00     0.087 A 
HETATM   41  N2  UNL     1      -6.685  15.206  19.162  1.00  0.00    -0.375 N 
HETATM   42  C15 UNL     1      -6.051  14.609  18.124  1.00  0.00     0.096 A 
ATOM     43  H2  UNL     1      -7.319  15.993  19.022  1.00  0.00     0.164 HD
ENDBRANCH  36  37
ENDBRANCH  34  36
ENDBRANCH   4  33
BRANCH  13  44
HETATM   44  O5  UNL     1      -1.886   7.437  12.502  1.00  0.00    -0.389 OA
HETATM   45  H36 UNL     1      -0.920   7.315  12.532  1.00  0.00     0.210 HD
ENDBRANCH  13  44
BRANCH  10  46
HETATM   46  C22 UNL     1      -5.601   5.417  13.331  1.00  0.00    -0.045 A 
HETATM   47  C23 UNL     1      -6.060   4.174  13.182  1.00  0.00     0.087 A 
HETATM   48  C24 UNL     1      -7.521   4.237  13.256  1.00  0.00     0.283 A 
HETATM   49  O3  UNL     1      -8.264   3.276  13.189  1.00  0.00    -0.260 OA
HETATM   50  O4  UNL     1      -7.903   5.531  13.419  1.00  0.00    -0.314 OA
HETATM   51  C25 UNL     1      -6.740   6.357  13.477  1.00  0.00     0.213 A 
ENDBRANCH  10  46
TORSDOF 10
ENDMDL
MODEL 4
REMARK minimizedAffinity -9.13052368
REMARK CNNscore 0.346064866
REMARK CNNaffinity 7.58908081
REMARK  10 active torsions:
REMARK  status: ('A' for Active; 'I' for Inactive)
REMARK    1  A    between atoms: O1_2  and  C2_3 
REMARK    2  A    between atoms: C4_5  and  O2_6 
REMARK    3  A    between atoms: O2_6  and  C5_7 
REMARK    4  A    between atoms: C8_10  and  C9_11 
REMARK    5  A    between atoms: N1_12  and  C10_14 
REMARK    6  A    between atoms: C10_14  and  C11_15 
REMARK    7  A    between atoms: C21_27  and  C22_28 
REMARK    8  A    between atoms: C28_36  and  O5_37 
REMARK    9  A    between atoms: C32_41  and  O6_42 
REMARK   10  A    between atoms: C36_47  and  O8_48 
ROOT
HETATM    1  C5  UNL     1      -4.689   7.018  14.784  1.00  0.00     0.127 C 
HETATM    2  C6  UNL     1      -5.200   7.215  13.356  1.00  0.00     0.033 C 
HETATM    3  C7  UNL     1      -6.662   7.667  13.293  1.00  0.00     0.021 C 
HETATM    4  C8  UNL     1      -7.661   6.789  14.110  1.00  0.00     0.026 C 
HETATM    5  C16 UNL     1      -9.054   7.561  14.111  1.00  0.00     0.009 C 
HETATM    6  C17 UNL     1      -9.977   7.142  12.945  1.00  0.00     0.007 C 
HETATM    7  C18 UNL     1     -11.290   7.922  12.928  1.00  0.00     0.013 C 
HETATM    8  C19 UNL     1     -12.077   7.801  14.259  1.00  0.00    -0.005 C 
HETATM    9  C20 UNL     1     -12.641   6.374  14.404  1.00  0.00     0.019 C 
HETATM   10  C21 UNL     1     -13.213   8.866  14.367  1.00  0.00     0.028 C 
HETATM   11  C26 UNL     1     -12.459  10.169  14.694  1.00  0.00     0.013 C 
HETATM   12  C27 UNL     1     -11.151   9.751  15.382  1.00  0.00     0.040 C 
HETATM   13  C28 UNL     1     -11.177   8.209  15.461  1.00  0.00     0.070 C 
HETATM   14  C29 UNL     1      -9.789   7.511  15.469  1.00  0.00     0.026 C 
HETATM   15  C30 UNL     1      -8.885   8.032  16.618  1.00  0.00     0.011 C 
HETATM   16  C31 UNL     1      -7.386   7.782  16.419  1.00  0.00     0.039 C 
HETATM   17  C32 UNL     1      -7.113   6.542  15.557  1.00  0.00     0.073 C 
HETATM   18  C33 UNL     1      -5.635   6.101  15.556  1.00  0.00     0.071 C 
ENDROOT
BRANCH   1  19
HETATM   19  O2  UNL     1      -4.581   8.299  15.414  1.00  0.00    -0.356 OA
BRANCH  19  20
HETATM   20  C4  UNL     1      -3.453   9.063  14.961  1.00  0.00     0.263 C 
HETATM   21  C3  UNL     1      -3.636  10.486  15.473  1.00  0.00     0.095 C 
HETATM   22  C2  UNL     1      -2.523  11.411  14.970  1.00  0.00     0.156 C 
HETATM   23  C36 UNL     1      -1.291  10.629  14.474  1.00  0.00     0.175 C 
HETATM   24  C34 UNL     1      -1.070   9.312  15.247  1.00  0.00     0.151 C 
HETATM   25  O7  UNL     1      -2.249   8.538  15.498  1.00  0.00    -0.354 OA
HETATM   26  C35 UNL     1      -0.402   9.551  16.597  1.00  0.00     0.042 C 
BRANCH  22  27
HETATM   27  O1  UNL     1      -2.095  12.324  15.992  1.00  0.00    -0.388 OA
HETATM   28  C1  UNL     1      -1.006  13.151  15.596  1.00  0.00     0.202 C 
ENDBRANCH  22  27
BRANCH  23  29
HETATM   29  O8  UNL     1      -1.487  10.310  13.084  1.00  0.00    -0.390 OA
HETATM   30  H50 UNL     1      -1.312  11.122  12.577  1.00  0.00     0.210 HD
ENDBRANCH  23  29
ENDBRANCH  19  20
ENDBRANCH   1  19
BRANCH  17  31
HETATM   31  O6  UNL     1      -7.823   5.453  16.188  1.00  0.00    -0.389 OA
HETATM   32  H42 UNL     1      -7.455   5.346  17.088  1.00  0.00     0.210 HD
ENDBRANCH  17  31
BRANCH   4  33
HETATM   33  C9  UNL     1      -7.837   5.407  13.460  1.00  0.00     0.069 C 
HETATM   34  N1  UNL     1      -7.787   4.316  14.144  1.00  0.00    -0.397 N 
ATOM     35  H1  UNL     1      -7.644   4.295  15.155  1.00  0.00     0.159 HD
BRANCH  34  36
HETATM   36  C10 UNL     1      -7.954   3.110  13.336  1.00  0.00     0.158 C 
BRANCH  36  37
HETATM   37  C11 UNL     1      -6.688   2.788  12.599  1.00  0.00    -0.025 A 
HETATM   38  C12 UNL     1      -5.566   3.619  12.677  1.00  0.00     0.011 A 
HETATM   39  C13 UNL     1      -4.399   3.273  11.997  1.00  0.00     0.018 A 
HETATM   40  C14 UNL     1      -4.395   2.097  11.266  1.00  0.00     0.087 A 
HETATM   41  N2  UNL     1      -5.451   1.261  11.174  1.00  0.00    -0.375 N 
HETATM   42  C15 UNL     1      -6.568   1.620  11.852  1.00  0.00     0.096 A 
ATOM     43  H2  UNL     1      -5.411   0.404  10.622  1.00  0.00     0.164 HD
ENDBRANCH  36  37
ENDBRANCH  34  36
ENDBRANCH   4  33
BRANCH  13  44
HETATM   44  O5  UNL     1     -11.854   7.864  16.682  1.00  0.00    -0.389 OA
HETATM   45  H36 UNL     1     -11.357   8.248  17.426  1.00  0.00     0.210 HD
ENDBRANCH  13  44
BRANCH  10  46
HETATM   46  C22 UNL     1     -14.189   8.950  13.226  1.00  0.00    -0.045 A 
HETATM   47  C23 UNL     1     -15.111   8.073  12.830  1.00  0.00     0.087 A 
HETATM   48  C24 UNL     1     -15.758   8.629  11.640  1.00  0.00     0.283 A 
HETATM   49  O3  UNL     1     -16.672   8.101  11.034  1.00  0.00    -0.260 OA
HETATM   50  O4  UNL     1     -15.180   9.820  11.335  1.00  0.00    -0.314 OA
HETATM   51  C25 UNL     1     -14.166  10.106  12.296  1.00  0.00     0.213 A 
ENDBRANCH  10  46
TORSDOF 10
ENDMDL
MODEL 5
REMARK minimizedAffinity -7.53509045
REMARK CNNscore 0.302388877
REMARK CNNaffinity 6.15870619
REMARK  10 active torsions:
REMARK  status: ('A' for Active; 'I' for Inactive)
REMARK    1  A    between atoms: O1_2  and  C2_3 
REMARK    2  A    between atoms: C4_5  and  O2_6 
REMARK    3  A    between atoms: O2_6  and  C5_7 
REMARK    4  A    between atoms: C8_10  and  C9_11 
REMARK    5  A    between atoms: N1_12  and  C10_14 
REMARK    6  A    between atoms: C10_14  and  C11_15 
REMARK    7  A    between atoms: C21_27  and  C22_28 
REMARK    8  A    between atoms: C28_36  and  O5_37 
REMARK    9  A    between atoms: C32_41  and  O6_42 
REMARK   10  A    between atoms: C36_47  and  O8_48 
ROOT
HETATM    1  C5  UNL     1     -13.001  10.299  18.396  1.00  0.00     0.127 C 
HETATM    2  C6  UNL     1     -11.831   9.995  19.332  1.00  0.00     0.033 C 
HETATM    3  C7  UNL     1     -12.079   8.785  20.239  1.00  0.00     0.021 C 
HETATM    4  C8  UNL     1     -13.420   8.823  21.039  1.00  0.00     0.026 C 
HETATM    5  C16 UNL     1     -13.592   7.389  21.709  1.00  0.00     0.009 C 
HETATM    6  C17 UNL     1     -12.996   7.313  23.132  1.00  0.00     0.007 C 
HETATM    7  C18 UNL     1     -13.126   5.920  23.748  1.00  0.00     0.013 C 
HETATM    8  C19 UNL     1     -14.592   5.418  23.791  1.00  0.00    -0.005 C 
HETATM    9  C20 UNL     1     -15.390   6.224  24.835  1.00  0.00     0.019 C 
HETATM   10  C21 UNL     1     -14.678   3.887  24.079  1.00  0.00     0.028 C 
HETATM   11  C26 UNL     1     -14.281   3.242  22.738  1.00  0.00     0.013 C 
HETATM   12  C27 UNL     1     -14.622   4.267  21.647  1.00  0.00     0.040 C 
HETATM   13  C28 UNL     1     -15.231   5.486  22.373  1.00  0.00     0.070 C 
HETATM   14  C29 UNL     1     -15.042   6.857  21.667  1.00  0.00     0.026 C 
HETATM   15  C30 UNL     1     -15.594   6.841  20.217  1.00  0.00     0.011 C 
HETATM   16  C31 UNL     1     -15.032   7.938  19.304  1.00  0.00     0.039 C 
HETATM   17  C32 UNL     1     -14.611   9.187  20.089  1.00  0.00     0.073 C 
HETATM   18  C33 UNL     1     -14.297  10.404  19.195  1.00  0.00     0.071 C 
ENDROOT
BRANCH   1  19
HETATM   19  O2  UNL     1     -13.083   9.263  17.411  1.00  0.00    -0.356 OA
BRANCH  19  20
HETATM   20  C4  UNL     1     -12.405   9.587  16.187  1.00  0.00     0.263 C 
HETATM   21  C3  UNL     1     -11.000   9.006  16.282  1.00  0.00     0.095 C 
HETATM   22  C2  UNL     1     -10.157   9.370  15.055  1.00  0.00     0.156 C 
HETATM   23  C36 UNL     1     -11.024   9.821  13.863  1.00  0.00     0.175 C 
HETATM   24  C34 UNL     1     -12.394   9.113  13.821  1.00  0.00     0.151 C 
HETATM   25  O7  UNL     1     -13.067   8.996  15.080  1.00  0.00    -0.354 OA
HETATM   26  C35 UNL     1     -12.290   7.706  13.242  1.00  0.00     0.042 C 
BRANCH  22  27
HETATM   27  O1  UNL     1      -9.343   8.267  14.629  1.00  0.00    -0.388 OA
HETATM   28  C1  UNL     1      -9.400   7.147  15.504  1.00  0.00     0.202 C 
ENDBRANCH  22  27
BRANCH  23  29
HETATM   29  O8  UNL     1     -11.250  11.238  13.977  1.00  0.00    -0.390 OA
HETATM   30  H50 UNL     1     -10.432  11.681  13.692  1.00  0.00     0.210 HD
ENDBRANCH  23  29
ENDBRANCH  19  20
ENDBRANCH   1  19
BRANCH  17  31
HETATM   31  O6  UNL     1     -15.768   9.583  20.859  1.00  0.00    -0.389 OA
HETATM   32  H42 UNL     1     -16.485   9.789  20.226  1.00  0.00     0.210 HD
ENDBRANCH  17  31
BRANCH   4  33
HETATM   33  C9  UNL     1     -13.377   9.903  22.132  1.00  0.00     0.069 C 
HETATM   34  N1  UNL     1     -12.331  10.627  22.339  1.00  0.00    -0.397 N 
ATOM     35  H1  UNL     1     -11.475  10.545  21.789  1.00  0.00     0.159 HD
BRANCH  34  36
HETATM   36  C10 UNL     1     -12.487  11.579  23.438  1.00  0.00     0.158 C 
BRANCH  36  37
HETATM   37  C11 UNL     1     -11.213  12.338  23.663  1.00  0.00    -0.025 A 
HETATM   38  C12 UNL     1     -11.219  13.642  24.169  1.00  0.00     0.011 A 
HETATM   39  C13 UNL     1     -10.014  14.306  24.387  1.00  0.00     0.018 A 
HETATM   40  C14 UNL     1      -8.837  13.635  24.097  1.00  0.00     0.087 A 
HETATM   41  N2  UNL     1      -8.786  12.374  23.619  1.00  0.00    -0.375 N 
HETATM   42  C15 UNL     1      -9.974  11.751  23.425  1.00  0.00     0.096 A 
ATOM     43  H2  UNL     1      -7.900  11.912  23.414  1.00  0.00     0.164 HD
ENDBRANCH  36  37
ENDBRANCH  34  36
ENDBRANCH   4  33
BRANCH  13  44
HETATM   44  O5  UNL     1     -16.643   5.238  22.492  1.00  0.00    -0.389 OA
HETATM   45  H36 UNL     1     -17.012   5.140  21.596  1.00  0.00     0.210 HD
ENDBRANCH  13  44
BRANCH  10  46
HETATM   46  C22 UNL     1     -13.947   3.371  25.289  1.00  0.00    -0.045 A 
HETATM   47  C23 UNL     1     -12.985   2.453  25.373  1.00  0.00     0.087 A 
HETATM   48  C24 UNL     1     -12.657   2.295  26.791  1.00  0.00     0.283 A 
HETATM   49  O3  UNL     1     -11.795   1.555  27.227  1.00  0.00    -0.260 OA
HETATM   50  O4  UNL     1     -13.459   3.108  27.527  1.00  0.00    -0.314 OA
HETATM   51  C25 UNL     1     -14.317   3.835  26.649  1.00  0.00     0.213 A 
ENDBRANCH  10  46
TORSDOF 10
ENDMDL
MODEL 6
REMARK minimizedAffinity -6.95282125
REMARK CNNscore 0.279083967
REMARK CNNaffinity 6.19961166
REMARK  10 active torsions:
REMARK  status: ('A' for Active; 'I' for Inactive)
REMARK    1  A    between atoms: O1_2  and  C2_3 
REMARK    2  A    between atoms: C4_5  and  O2_6 
REMARK    3  A    between atoms: O2_6  and  C5_7 
REMARK    4  A    between atoms: C8_10  and  C9_11 
REMARK    5  A    between atoms: N1_12  and  C10_14 
REMARK    6  A    between atoms: C10_14  and  C11_15 
REMARK    7  A    between atoms: C21_27  and  C22_28 
REMARK    8  A    between atoms: C28_36  and  O5_37 
REMARK    9  A    between atoms: C32_41  and  O6_42 
REMARK   10  A    between atoms: C36_47  and  O8_48 
ROOT
HETATM    1  C5  UNL     1       7.072  16.116  -0.404  1.00  0.00     0.127 C 
HETATM    2  C6  UNL     1       5.890  16.467  -1.308  1.00  0.00     0.033 C 
HETATM    3  C7  UNL     1       4.540  16.427  -0.585  1.00  0.00     0.021 C 
HETATM    4  C8  UNL     1       4.250  15.109   0.201  1.00  0.00     0.026 C 
HETATM    5  C16 UNL     1       2.938  15.370   1.064  1.00  0.00     0.009 C 
HETATM    6  C17 UNL     1       1.642  14.963   0.330  1.00  0.00     0.007 C 
HETATM    7  C18 UNL     1       0.386  15.260   1.148  1.00  0.00     0.013 C 
HETATM    8  C19 UNL     1       0.406  14.585   2.543  1.00  0.00    -0.005 C 
HETATM    9  C20 UNL     1       0.241  13.060   2.388  1.00  0.00     0.019 C 
HETATM   10  C21 UNL     1      -0.684  15.172   3.493  1.00  0.00     0.028 C 
HETATM   11  C26 UNL     1      -0.101  16.533   3.918  1.00  0.00     0.013 C 
HETATM   12  C27 UNL     1       1.424  16.409   3.792  1.00  0.00     0.040 C 
HETATM   13  C28 UNL     1       1.703  14.967   3.314  1.00  0.00     0.070 C 
HETATM   14  C29 UNL     1       3.003  14.770   2.486  1.00  0.00     0.026 C 
HETATM   15  C30 UNL     1       4.257  15.269   3.251  1.00  0.00     0.011 C 
HETATM   16  C31 UNL     1       5.473  15.568   2.365  1.00  0.00     0.039 C 
HETATM   17  C32 UNL     1       5.482  14.720   1.087  1.00  0.00     0.073 C 
HETATM   18  C33 UNL     1       6.811  14.790   0.307  1.00  0.00     0.071 C 
ENDROOT
BRANCH   1  19
HETATM   19  O2  UNL     1       7.263  17.178   0.536  1.00  0.00    -0.356 OA
BRANCH  19  20
HETATM   20  C4  UNL     1       8.493  17.894   0.344  1.00  0.00     0.263 C 
HETATM   21  C3  UNL     1       9.108  17.392  -0.956  1.00  0.00     0.095 C 
HETATM   22  C2  UNL     1      10.476  18.034  -1.214  1.00  0.00     0.156 C 
HETATM   23  C36 UNL     1      10.688  19.314  -0.382  1.00  0.00     0.175 C 
HETATM   24  C34 UNL     1       9.376  20.088  -0.134  1.00  0.00     0.151 C 
HETATM   25  O7  UNL     1       8.244  19.286   0.222  1.00  0.00    -0.354 OA
HETATM   26  C35 UNL     1       8.968  20.917  -1.347  1.00  0.00     0.042 C 
BRANCH  22  27
HETATM   27  O1  UNL     1      10.651  18.363  -2.600  1.00  0.00    -0.388 OA
HETATM   28  C1  UNL     1      11.783  17.739  -3.194  1.00  0.00     0.202 C 
ENDBRANCH  22  27
BRANCH  23  29
HETATM   29  O8  UNL     1      11.240  18.940   0.893  1.00  0.00    -0.390 OA
HETATM   30  H50 UNL     1      12.183  18.744   0.750  1.00  0.00     0.210 HD
ENDBRANCH  23  29
ENDBRANCH  19  20
ENDBRANCH   1  19
BRANCH  17  31
HETATM   31  O6  UNL     1       5.380  13.345   1.519  1.00  0.00    -0.389 OA
HETATM   32  H42 UNL     1       6.161  13.154   2.075  1.00  0.00     0.210 HD
ENDBRANCH  17  31
BRANCH   4  33
HETATM   33  C9  UNL     1       4.010  13.936  -0.764  1.00  0.00     0.069 C 
HETATM   34  N1  UNL     1       4.973  13.360  -1.397  1.00  0.00    -0.397 N 
ATOM     35  H1  UNL     1       5.952  13.629  -1.291  1.00  0.00     0.159 HD
BRANCH  34  36
HETATM   36  C10 UNL     1       4.531  12.284  -2.281  1.00  0.00     0.158 C 
BRANCH  36  37
HETATM   37  C11 UNL     1       4.975  12.543  -3.691  1.00  0.00    -0.025 A 
HETATM   38  C12 UNL     1       5.436  11.511  -4.513  1.00  0.00     0.011 A 
HETATM   39  C13 UNL     1       5.817  11.787  -5.825  1.00  0.00     0.018 A 
HETATM   40  C14 UNL     1       5.714  13.094  -6.273  1.00  0.00     0.087 A 
HETATM   41  N2  UNL     1       5.263  14.117  -5.515  1.00  0.00    -0.375 N 
HETATM   42  C15 UNL     1       4.893  13.815  -4.248  1.00  0.00     0.096 A 
ATOM     43  H2  UNL     1       5.204  15.068  -5.879  1.00  0.00     0.164 HD
ENDBRANCH  36  37
ENDBRANCH  34  36
ENDBRANCH   4  33
BRANCH  13  44
HETATM   44  O5  UNL     1       1.798  14.147   4.491  1.00  0.00    -0.389 OA
HETATM   45  H36 UNL     1       2.528  14.485   5.040  1.00  0.00     0.210 HD
ENDBRANCH  13  44
BRANCH  10  46
HETATM   46  C22 UNL     1      -2.098  15.203   2.983  1.00  0.00    -0.045 A 
HETATM   47  C23 UNL     1      -2.673  14.474   2.026  1.00  0.00     0.087 A 
HETATM   48  C24 UNL     1      -4.056  14.938   1.896  1.00  0.00     0.283 A 
HETATM   49  O3  UNL     1      -4.879  14.468   1.133  1.00  0.00    -0.260 OA
HETATM   50  O4  UNL     1      -4.265  15.962   2.765  1.00  0.00    -0.314 OA
HETATM   51  C25 UNL     1      -3.067  16.200   3.502  1.00  0.00     0.213 A 
ENDBRANCH  10  46
TORSDOF 10
ENDMDL
MODEL 7
REMARK minimizedAffinity -8.7970047
REMARK CNNscore 0.262818813
REMARK CNNaffinity 6.8163662
REMARK  10 active torsions:
REMARK  status: ('A' for Active; 'I' for Inactive)
REMARK    1  A    between atoms: O1_2  and  C2_3 
REMARK    2  A    between atoms: C4_5  and  O2_6 
REMARK    3  A    between atoms: O2_6  and  C5_7 
REMARK    4  A    between atoms: C8_10  and  C9_11 
REMARK    5  A    between atoms: N1_12  and  C10_14 
REMARK    6  A    between atoms: C10_14  and  C11_15 
REMARK    7  A    between atoms: C21_27  and  C22_28 
REMARK    8  A    between atoms: C28_36  and  O5_37 
REMARK    9  A    between atoms: C32_41  and  O6_42 
REMARK   10  A    between atoms: C36_47  and  O8_48 
ROOT
HETATM    1  C5  UNL     1      -4.690   7.816  14.395  1.00  0.00     0.127 C 
HETATM    2  C6  UNL     1      -4.220   9.127  13.763  1.00  0.00     0.033 C 
HETATM    3  C7  UNL     1      -2.710   9.171  13.512  1.00  0.00     0.021 C 
HETATM    4  C8  UNL     1      -1.824   8.816  14.748  1.00  0.00     0.026 C 
HETATM    5  C16 UNL     1      -0.330   8.681  14.216  1.00  0.00     0.009 C 
HETATM    6  C17 UNL     1       0.463  10.004  14.300  1.00  0.00     0.007 C 
HETATM    7  C18 UNL     1       1.880   9.875  13.744  1.00  0.00     0.013 C 
HETATM    8  C19 UNL     1       2.698   8.756  14.439  1.00  0.00    -0.005 C 
HETATM    9  C20 UNL     1       3.038   9.177  15.882  1.00  0.00     0.019 C 
HETATM   10  C21 UNL     1       3.989   8.393  13.641  1.00  0.00     0.028 C 
HETATM   11  C26 UNL     1       3.464   7.558  12.459  1.00  0.00     0.013 C 
HETATM   12  C27 UNL     1       2.139   6.934  12.924  1.00  0.00     0.040 C 
HETATM   13  C28 UNL     1       1.927   7.404  14.380  1.00  0.00     0.070 C 
HETATM   14  C29 UNL     1       0.449   7.506  14.848  1.00  0.00     0.026 C 
HETATM   15  C30 UNL     1      -0.309   6.165  14.665  1.00  0.00     0.011 C 
HETATM   16  C31 UNL     1      -1.837   6.290  14.630  1.00  0.00     0.039 C 
HETATM   17  C32 UNL     1      -2.338   7.502  15.428  1.00  0.00     0.073 C 
HETATM   18  C33 UNL     1      -3.866   7.512  15.643  1.00  0.00     0.071 C 
ENDROOT
BRANCH   1  19
HETATM   19  O2  UNL     1      -4.569   6.769  13.426  1.00  0.00    -0.356 OA
BRANCH  19  20
HETATM   20  C4  UNL     1      -5.808   6.096  13.158  1.00  0.00     0.263 C 
HETATM   21  C3  UNL     1      -5.464   4.705  12.641  1.00  0.00     0.095 C 
HETATM   22  C2  UNL     1      -6.722   3.927  12.240  1.00  0.00     0.156 C 
HETATM   23  C36 UNL     1      -8.002   4.526  12.856  1.00  0.00     0.175 C 
HETATM   24  C34 UNL     1      -7.754   5.165  14.239  1.00  0.00     0.151 C 
HETATM   25  O7  UNL     1      -6.570   5.963  14.348  1.00  0.00    -0.354 OA
HETATM   26  C35 UNL     1      -7.686   4.117  15.345  1.00  0.00     0.042 C 
BRANCH  22  27
HETATM   27  O1  UNL     1      -6.636   2.549  12.632  1.00  0.00    -0.388 OA
HETATM   28  C1  UNL     1      -6.288   1.676  11.563  1.00  0.00     0.202 C 
ENDBRANCH  22  27
BRANCH  23  29
HETATM   29  O8  UNL     1      -8.497   5.546  11.969  1.00  0.00    -0.390 OA
HETATM   30  H50 UNL     1      -8.935   5.092  11.228  1.00  0.00     0.210 HD
ENDBRANCH  23  29
ENDBRANCH  19  20
ENDBRANCH   1  19
BRANCH  17  31
HETATM   31  O6  UNL     1      -1.779   7.365  16.753  1.00  0.00    -0.389 OA
HETATM   32  H42 UNL     1      -2.119   6.529  17.130  1.00  0.00     0.210 HD
ENDBRANCH  17  31
BRANCH   4  33
HETATM   33  C9  UNL     1      -1.896   9.923  15.812  1.00  0.00     0.069 C 
HETATM   34  N1  UNL     1      -2.278  11.122  15.530  1.00  0.00    -0.397 N 
ATOM     35  H1  UNL     1      -2.569  11.410  14.595  1.00  0.00     0.159 HD
BRANCH  34  36
HETATM   36  C10 UNL     1      -2.253  12.029  16.675  1.00  0.00     0.158 C 
BRANCH  36  37
HETATM   37  C11 UNL     1      -3.604  12.645  16.890  1.00  0.00    -0.025 A 
HETATM   38  C12 UNL     1      -4.028  13.053  18.158  1.00  0.00     0.011 A 
HETATM   39  C13 UNL     1      -5.281  13.644  18.313  1.00  0.00     0.018 A 
HETATM   40  C14 UNL     1      -6.066  13.814  17.185  1.00  0.00     0.087 A 
HETATM   41  N2  UNL     1      -5.690  13.445  15.941  1.00  0.00    -0.375 N 
HETATM   42  C15 UNL     1      -4.464  12.881  15.822  1.00  0.00     0.096 A 
ATOM     43  H2  UNL     1      -6.297  13.584  15.134  1.00  0.00     0.164 HD
ENDBRANCH  36  37
ENDBRANCH  34  36
ENDBRANCH   4  33
BRANCH  13  44
HETATM   44  O5  UNL     1       2.597   6.455  15.227  1.00  0.00    -0.389 OA
HETATM   45  H36 UNL     1       2.200   5.579  15.077  1.00  0.00     0.210 HD
ENDBRANCH  13  44
BRANCH  10  46
HETATM   46  C22 UNL     1       4.914   9.522  13.277  1.00  0.00    -0.045 A 
HETATM   47  C23 UNL     1       4.896  10.326  12.214  1.00  0.00     0.087 A 
HETATM   48  C24 UNL     1       6.049  11.222  12.327  1.00  0.00     0.283 A 
HETATM   49  O3  UNL     1       6.321  12.108  11.539  1.00  0.00    -0.260 OA
HETATM   50  O4  UNL     1       6.748  10.908  13.449  1.00  0.00    -0.314 OA
HETATM   51  C25 UNL     1       6.096   9.831  14.120  1.00  0.00     0.213 A 
ENDBRANCH  10  46
TORSDOF 10
ENDMDL
MODEL 8
REMARK minimizedAffinity -7.43326187
REMARK CNNscore 0.258221388
REMARK CNNaffinity 5.91835022
REMARK  10 active torsions:
REMARK  status: ('A' for Active; 'I' for Inactive)
REMARK    1  A    between atoms: O1_2  and  C2_3 
REMARK    2  A    between atoms: C4_5  and  O2_6 
REMARK    3  A    between atoms: O2_6  and  C5_7 
REMARK    4  A    between atoms: C8_10  and  C9_11 
REMARK    5  A    between atoms: N1_12  and  C10_14 
REMARK    6  A    between atoms: C10_14  and  C11_15 
REMARK    7  A    between atoms: C21_27  and  C22_28 
REMARK    8  A    between atoms: C28_36  and  O5_37 
REMARK    9  A    between atoms: C32_41  and  O6_42 
REMARK   10  A    between atoms: C36_47  and  O8_48 
ROOT
HETATM    1  C5  UNL     1     -12.972  10.410  18.150  1.00  0.00     0.127 C 
HETATM    2  C6  UNL     1     -11.762   9.945  18.961  1.00  0.00     0.033 C 
HETATM    3  C7  UNL     1     -12.069   8.762  19.884  1.00  0.00     0.021 C 
HETATM    4  C8  UNL     1     -13.306   8.955  20.817  1.00  0.00     0.026 C 
HETATM    5  C16 UNL     1     -13.591   7.544  21.497  1.00  0.00     0.009 C 
HETATM    6  C17 UNL     1     -12.869   7.369  22.851  1.00  0.00     0.007 C 
HETATM    7  C18 UNL     1     -13.112   5.995  23.472  1.00  0.00     0.013 C 
HETATM    8  C19 UNL     1     -14.618   5.680  23.663  1.00  0.00    -0.005 C 
HETATM    9  C20 UNL     1     -15.198   6.563  24.786  1.00  0.00     0.019 C 
HETATM   10  C21 UNL     1     -14.868   4.168  23.953  1.00  0.00     0.028 C 
HETATM   11  C26 UNL     1     -14.694   3.500  22.577  1.00  0.00     0.013 C 
HETATM   12  C27 UNL     1     -15.010   4.578  21.529  1.00  0.00     0.040 C 
HETATM   13  C28 UNL     1     -15.383   5.852  22.318  1.00  0.00     0.070 C 
HETATM   14  C29 UNL     1     -15.094   7.199  21.601  1.00  0.00     0.026 C 
HETATM   15  C30 UNL     1     -15.787   7.277  20.215  1.00  0.00     0.011 C 
HETATM   16  C31 UNL     1     -15.185   8.309  19.254  1.00  0.00     0.039 C 
HETATM   17  C32 UNL     1     -14.532   9.483  19.996  1.00  0.00     0.073 C 
HETATM   18  C33 UNL     1     -14.158  10.665  19.078  1.00  0.00     0.071 C 
ENDROOT
BRANCH   1  19
HETATM   19  O2  UNL     1     -13.284   9.409  17.175  1.00  0.00    -0.356 OA
BRANCH  19  20
HETATM   20  C4  UNL     1     -12.736   9.688  15.878  1.00  0.00     0.263 C 
HETATM   21  C3  UNL     1     -11.886   8.489  15.479  1.00  0.00     0.095 C 
HETATM   22  C2  UNL     1     -11.181   8.722  14.138  1.00  0.00     0.156 C 
HETATM   23  C36 UNL     1     -11.828   9.861  13.326  1.00  0.00     0.175 C 
HETATM   24  C34 UNL     1     -13.349   9.969  13.561  1.00  0.00     0.151 C 
HETATM   25  O7  UNL     1     -13.774   9.847  14.924  1.00  0.00    -0.354 OA
HETATM   26  C35 UNL     1     -14.123   8.928  12.760  1.00  0.00     0.042 C 
BRANCH  22  27
HETATM   27  O1  UNL     1     -11.181   7.535  13.330  1.00  0.00    -0.388 OA
HETATM   28  C1  UNL     1     -10.083   6.669  13.593  1.00  0.00     0.202 C 
ENDBRANCH  22  27
BRANCH  23  29
HETATM   29  O8  UNL     1     -11.219  11.103  13.723  1.00  0.00    -0.390 OA
HETATM   30  H50 UNL     1     -10.347  11.144  13.293  1.00  0.00     0.210 HD
ENDBRANCH  23  29
ENDBRANCH  19  20
ENDBRANCH   1  19
BRANCH  17  31
HETATM   31  O6  UNL     1     -15.545  10.009  20.881  1.00  0.00    -0.389 OA
HETATM   32  H42 UNL     1     -16.290  10.313  20.325  1.00  0.00     0.210 HD
ENDBRANCH  17  31
BRANCH   4  33
HETATM   33  C9  UNL     1     -13.016  10.003  21.904  1.00  0.00     0.069 C 
HETATM   34  N1  UNL     1     -11.816  10.358  22.211  1.00  0.00    -0.397 N 
ATOM     35  H1  UNL     1     -10.987   9.983  21.750  1.00  0.00     0.159 HD
BRANCH  34  36
HETATM   36  C10 UNL     1     -11.755  11.348  23.284  1.00  0.00     0.158 C 
BRANCH  36  37
HETATM   37  C11 UNL     1     -10.407  12.005  23.322  1.00  0.00    -0.025 A 
HETATM   38  C12 UNL     1      -9.679  12.247  22.153  1.00  0.00     0.011 A 
HETATM   39  C13 UNL     1      -8.440  12.880  22.226  1.00  0.00     0.018 A 
HETATM   40  C14 UNL     1      -7.974  13.259  23.474  1.00  0.00     0.087 A 
HETATM   41  N2  UNL     1      -8.649  13.054  24.626  1.00  0.00    -0.375 N 
HETATM   42  C15 UNL     1      -9.854  12.444  24.521  1.00  0.00     0.096 A 
ATOM     43  H2  UNL     1      -8.272  13.345  25.528  1.00  0.00     0.164 HD
ENDBRANCH  36  37
ENDBRANCH  34  36
ENDBRANCH   4  33
BRANCH  13  44
HETATM   44  O5  UNL     1     -16.796   5.782  22.580  1.00  0.00    -0.389 OA
HETATM   45  H36 UNL     1     -17.263   5.746  21.726  1.00  0.00     0.210 HD
ENDBRANCH  13  44
BRANCH  10  46
HETATM   46  C22 UNL     1     -14.091   3.545  25.080  1.00  0.00    -0.045 A 
HETATM   47  C23 UNL     1     -13.094   2.661  25.037  1.00  0.00     0.087 A 
HETATM   48  C24 UNL     1     -12.727   2.352  26.421  1.00  0.00     0.283 A 
HETATM   49  O3  UNL     1     -11.828   1.601  26.751  1.00  0.00    -0.260 OA
HETATM   50  O4  UNL     1     -13.541   3.043  27.262  1.00  0.00    -0.314 OA
HETATM   51  C25 UNL     1     -14.445   3.832  26.492  1.00  0.00     0.213 A 
ENDBRANCH  10  46
TORSDOF 10
ENDMDL
MODEL 9
REMARK minimizedAffinity -9.00579453
REMARK CNNscore 0.251141042
REMARK CNNaffinity 6.65995407
REMARK  10 active torsions:
REMARK  status: ('A' for Active; 'I' for Inactive)
REMARK    1  A    between atoms: O1_2  and  C2_3 
REMARK    2  A    between atoms: C4_5  and  O2_6 
REMARK    3  A    between atoms: O2_6  and  C5_7 
REMARK    4  A    between atoms: C8_10  and  C9_11 
REMARK    5  A    between atoms: N1_12  and  C10_14 
REMARK    6  A    between atoms: C10_14  and  C11_15 
REMARK    7  A    between atoms: C21_27  and  C22_28 
REMARK    8  A    between atoms: C28_36  and  O5_37 
REMARK    9  A    between atoms: C32_41  and  O6_42 
REMARK   10  A    between atoms: C36_47  and  O8_48 
ROOT
HETATM    1  C5  UNL     1       0.569  11.474  18.500  1.00  0.00     0.127 C 
HETATM    2  C6  UNL     1      -0.882  11.321  18.956  1.00  0.00     0.033 C 
HETATM    3  C7  UNL     1      -1.664  10.278  18.152  1.00  0.00     0.021 C 
HETATM    4  C8  UNL     1      -1.598  10.454  16.602  1.00  0.00     0.026 C 
HETATM    5  C16 UNL     1      -2.255   9.151  15.966  1.00  0.00     0.009 C 
HETATM    6  C17 UNL     1      -3.770   9.306  15.702  1.00  0.00     0.007 C 
HETATM    7  C18 UNL     1      -4.399   8.034  15.135  1.00  0.00     0.013 C 
HETATM    8  C19 UNL     1      -3.710   7.553  13.832  1.00  0.00    -0.005 C 
HETATM    9  C20 UNL     1      -4.037   8.524  12.680  1.00  0.00     0.019 C 
HETATM   10  C21 UNL     1      -4.111   6.091  13.464  1.00  0.00     0.028 C 
HETATM   11  C26 UNL     1      -3.299   5.232  14.453  1.00  0.00     0.013 C 
HETATM   12  C27 UNL     1      -2.070   6.066  14.843  1.00  0.00     0.040 C 
HETATM   13  C28 UNL     1      -2.178   7.390  14.057  1.00  0.00     0.070 C 
HETATM   14  C29 UNL     1      -1.509   8.626  14.720  1.00  0.00     0.026 C 
HETATM   15  C30 UNL     1      -0.009   8.375  15.026  1.00  0.00     0.011 C 
HETATM   16  C31 UNL     1       0.594   9.304  16.087  1.00  0.00     0.039 C 
HETATM   17  C32 UNL     1      -0.116  10.664  16.139  1.00  0.00     0.073 C 
HETATM   18  C33 UNL     1       0.621  11.715  16.993  1.00  0.00     0.071 C 
ENDROOT
BRANCH   1  19
HETATM   19  O2  UNL     1       1.291  10.291  18.859  1.00  0.00    -0.356 OA
BRANCH  19  20
HETATM   20  C4  UNL     1       2.571  10.563  19.449  1.00  0.00     0.263 C 
HETATM   21  C3  UNL     1       2.526  11.986  19.990  1.00  0.00     0.095 C 
HETATM   22  C2  UNL     1       3.880  12.410  20.569  1.00  0.00     0.156 C 
HETATM   23  C36 UNL     1       4.790  11.205  20.874  1.00  0.00     0.175 C 
HETATM   24  C34 UNL     1       3.995   9.952  21.299  1.00  0.00     0.151 C 
HETATM   25  O7  UNL     1       2.820   9.674  20.527  1.00  0.00    -0.354 OA
HETATM   26  C35 UNL     1       3.561  10.022  22.759  1.00  0.00     0.042 C 
BRANCH  22  27
HETATM   27  O1  UNL     1       3.722  13.173  21.775  1.00  0.00    -0.388 OA
HETATM   28  C1  UNL     1       2.368  13.496  22.069  1.00  0.00     0.202 C 
ENDBRANCH  22  27
BRANCH  23  29
HETATM   29  O8  UNL     1       5.535  10.886  19.685  1.00  0.00    -0.390 OA
HETATM   30  H50 UNL     1       6.248  11.545  19.610  1.00  0.00     0.210 HD
ENDBRANCH  23  29
ENDBRANCH  19  20
ENDBRANCH   1  19
BRANCH  17  31
HETATM   31  O6  UNL     1      -0.076  11.187  14.793  1.00  0.00    -0.389 OA
HETATM   32  H42 UNL     1       0.865  11.289  14.546  1.00  0.00     0.210 HD
ENDBRANCH  17  31
BRANCH   4  33
HETATM   33  C9  UNL     1      -2.383  11.699  16.156  1.00  0.00     0.069 C 
HETATM   34  N1  UNL     1      -2.835  12.562  16.999  1.00  0.00    -0.397 N 
ATOM     35  H1  UNL     1      -2.693  12.488  18.007  1.00  0.00     0.159 HD
BRANCH  34  36
HETATM   36  C10 UNL     1      -3.572  13.659  16.375  1.00  0.00     0.158 C 
BRANCH  36  37
HETATM   37  C11 UNL     1      -2.729  14.338  15.336  1.00  0.00    -0.025 A 
HETATM   38  C12 UNL     1      -1.412  14.724  15.602  1.00  0.00     0.011 A 
HETATM   39  C13 UNL     1      -0.653  15.331  14.604  1.00  0.00     0.018 A 
HETATM   40  C14 UNL     1      -1.240  15.525  13.364  1.00  0.00     0.087 A 
HETATM   41  N2  UNL     1      -2.504  15.158  13.063  1.00  0.00    -0.375 N 
HETATM   42  C15 UNL     1      -3.214  14.563  14.052  1.00  0.00     0.096 A 
ATOM     43  H2  UNL     1      -2.904  15.320  12.139  1.00  0.00     0.164 HD
ENDBRANCH  36  37
ENDBRANCH  34  36
ENDBRANCH   4  33
BRANCH  13  44
HETATM   44  O5  UNL     1      -1.547   7.173  12.783  1.00  0.00    -0.389 OA
HETATM   45  H36 UNL     1      -0.617   6.931  12.941  1.00  0.00     0.210 HD
ENDBRANCH  13  44
BRANCH  10  46
HETATM   46  C22 UNL     1      -5.579   5.777  13.387  1.00  0.00    -0.045 A 
HETATM   47  C23 UNL     1      -6.628   6.530  13.720  1.00  0.00     0.087 A 
HETATM   48  C24 UNL     1      -7.830   5.727  13.490  1.00  0.00     0.283 A 
HETATM   49  O3  UNL     1      -8.970   6.117  13.662  1.00  0.00    -0.260 OA
HETATM   50  O4  UNL     1      -7.466   4.495  13.049  1.00  0.00    -0.314 OA
HETATM   51  C25 UNL     1      -6.043   4.436  12.952  1.00  0.00     0.213 A 
ENDBRANCH  10  46
TORSDOF 10
ENDMDL
