MODEL 1
REMARK minimizedAffinity -7.51579285
REMARK CNNscore 0.403574646
REMARK CNNaffinity 6.54966402
REMARK  6 active torsions:
REMARK  status: ('A' for Active; 'I' for Inactive)
REMARK    1  A    between atoms: C2_2  and  O2_4 
REMARK    2  A    between atoms: O2_4  and  C3_5 
REMARK    3  A    between atoms: C13_15  and  C14_16 
REMARK    4  A    between atoms: C14_16  and  C16_18 
REMARK    5  A    between atoms: C17_19  and  C18_20 
REMARK    6  A    between atoms: C18_20  and  C20_22 
ROOT
HETATM    1  C3  UNL     1      -5.364   4.360  12.599  1.00  0.00     0.135 C 
HETATM    2  C4  UNL     1      -6.581   5.148  13.098  1.00  0.00     0.034 C 
HETATM    3  C5  UNL     1      -6.229   6.600  13.425  1.00  0.00     0.015 C 
HETATM    4  C6  UNL     1      -5.058   6.730  14.438  1.00  0.00     0.001 C 
HETATM    5  C7  UNL     1      -5.552   6.220  15.817  1.00  0.00     0.019 C 
HETATM    6  C8  UNL     1      -4.567   8.238  14.489  1.00  0.00     0.039 C 
HETATM    7  C9  UNL     1      -5.083   9.081  15.679  1.00  0.00     0.010 C 
HETATM    8  C10 UNL     1      -4.504  10.509  15.705  1.00  0.00     0.010 C 
HETATM    9  C11 UNL     1      -2.964  10.499  15.678  1.00  0.00    -0.033 C 
HETATM   10  C12 UNL     1      -2.435   9.906  16.998  1.00  0.00     0.016 C 
HETATM   11  C13 UNL     1      -2.316  11.877  15.343  1.00  0.00     0.001 C 
HETATM   12  C23 UNL     1      -0.920  11.494  14.780  1.00  0.00     0.006 C 
HETATM   13  C24 UNL     1      -1.042  10.048  14.261  1.00  0.00     0.009 C 
HETATM   14  C25 UNL     1      -2.528   9.726  14.409  1.00  0.00     0.036 C 
HETATM   15  C26 UNL     1      -3.009   8.275  14.306  1.00  0.00     0.123 C 
HETATM   16  C27 UNL     1      -2.292   7.246  15.144  1.00  0.00     0.014 C 
HETATM   17  C28 UNL     1      -2.697   5.989  14.917  1.00  0.00     0.014 C 
HETATM   18  C29 UNL     1      -3.835   5.892  13.926  1.00  0.00     0.124 C 
HETATM   19  C30 UNL     1      -4.199   4.444  13.593  1.00  0.00     0.079 C 
HETATM   20  O3  UNL     1      -3.389   6.511  12.687  1.00  0.00    -0.223 OA
HETATM   21  O4  UNL     1      -2.759   7.840  12.939  1.00  0.00    -0.224 OA
ENDROOT
BRANCH  11  22
HETATM   22  C14 UNL     1      -2.325  13.017  16.399  1.00  0.00     0.008 C 
HETATM   23  C15 UNL     1      -1.087  12.888  17.305  1.00  0.00     0.014 C 
BRANCH  22  24
HETATM   24  C16 UNL     1      -3.606  13.167  17.196  1.00  0.00    -0.026 C 
HETATM   25  C17 UNL     1      -3.773  12.968  18.516  1.00  0.00    -0.026 C 
BRANCH  25  26
HETATM   26  C18 UNL     1      -5.097  13.155  19.230  1.00  0.00     0.007 C 
HETATM   27  C19 UNL     1      -6.084  13.846  18.285  1.00  0.00     0.014 C 
BRANCH  26  28
HETATM   28  C20 UNL     1      -4.906  13.878  20.593  1.00  0.00    -0.015 C 
HETATM   29  C21 UNL     1      -5.037  15.403  20.523  1.00  0.00     0.010 C 
HETATM   30  C22 UNL     1      -5.870  13.333  21.654  1.00  0.00     0.010 C 
ENDBRANCH  26  28
ENDBRANCH  25  26
ENDBRANCH  22  24
ENDBRANCH  11  22
BRANCH   1  31
HETATM   31  O2  UNL     1      -5.703   2.965  12.465  1.00  0.00    -0.316 OA
BRANCH  31  32
HETATM   32  C2  UNL     1      -5.604   2.439  11.214  1.00  0.00     0.255 C 
HETATM   33  C1  UNL     1      -4.800   3.351  10.340  1.00  0.00     0.126 C 
HETATM   34  O1  UNL     1      -6.111   1.394  10.835  1.00  0.00    -0.266 OA
ENDBRANCH  31  32
ENDBRANCH   1  31
TORSDOF 6
ENDMDL
MODEL 2
REMARK minimizedAffinity -9.31767654
REMARK CNNscore 0.37427941
REMARK CNNaffinity 6.79684973
REMARK  6 active torsions:
REMARK  status: ('A' for Active; 'I' for Inactive)
REMARK    1  A    between atoms: C2_2  and  O2_4 
REMARK    2  A    between atoms: O2_4  and  C3_5 
REMARK    3  A    between atoms: C13_15  and  C14_16 
REMARK    4  A    between atoms: C14_16  and  C16_18 
REMARK    5  A    between atoms: C17_19  and  C18_20 
REMARK    6  A    between atoms: C18_20  and  C20_22 
ROOT
HETATM    1  C3  UNL     1       1.714   7.872  10.951  1.00  0.00     0.135 C 
HETATM    2  C4  UNL     1       1.414   6.389  10.704  1.00  0.00     0.034 C 
HETATM    3  C5  UNL     1      -0.042   6.040  11.010  1.00  0.00     0.015 C 
HETATM    4  C6  UNL     1      -0.476   6.439  12.449  1.00  0.00     0.001 C 
HETATM    5  C7  UNL     1       0.272   5.522  13.451  1.00  0.00     0.019 C 
HETATM    6  C8  UNL     1      -2.053   6.320  12.578  1.00  0.00     0.039 C 
HETATM    7  C9  UNL     1      -2.584   5.042  13.267  1.00  0.00     0.010 C 
HETATM    8  C10 UNL     1      -4.117   5.033  13.427  1.00  0.00     0.010 C 
HETATM    9  C11 UNL     1      -4.620   6.290  14.161  1.00  0.00    -0.033 C 
HETATM   10  C12 UNL     1      -4.137   6.253  15.624  1.00  0.00     0.016 C 
HETATM   11  C13 UNL     1      -6.156   6.532  14.048  1.00  0.00     0.001 C 
HETATM   12  C23 UNL     1      -6.301   8.060  14.286  1.00  0.00     0.006 C 
HETATM   13  C24 UNL     1      -4.940   8.687  13.926  1.00  0.00     0.009 C 
HETATM   14  C25 UNL     1      -4.134   7.521  13.358  1.00  0.00     0.036 C 
HETATM   15  C26 UNL     1      -2.618   7.655  13.182  1.00  0.00     0.123 C 
HETATM   16  C27 UNL     1      -1.823   8.150  14.365  1.00  0.00     0.014 C 
HETATM   17  C28 UNL     1      -0.524   8.344  14.099  1.00  0.00     0.014 C 
HETATM   18  C29 UNL     1      -0.132   7.949  12.692  1.00  0.00     0.124 C 
HETATM   19  C30 UNL     1       1.325   8.291  12.375  1.00  0.00     0.079 C 
HETATM   20  O3  UNL     1      -0.955   8.723  11.776  1.00  0.00    -0.223 OA
HETATM   21  O4  UNL     1      -2.396   8.675  12.167  1.00  0.00    -0.224 OA
ENDROOT
BRANCH  11  22
HETATM   22  C14 UNL     1      -7.144   5.631  14.839  1.00  0.00     0.008 C 
HETATM   23  C15 UNL     1      -7.371   4.317  14.068  1.00  0.00     0.014 C 
BRANCH  22  24
HETATM   24  C16 UNL     1      -8.448   6.286  15.253  1.00  0.00    -0.026 C 
HETATM   25  C17 UNL     1      -9.392   6.803  14.447  1.00  0.00    -0.026 C 
BRANCH  25  26
HETATM   26  C18 UNL     1     -10.675   7.430  14.956  1.00  0.00     0.007 C 
HETATM   27  C19 UNL     1     -11.852   6.907  14.128  1.00  0.00     0.014 C 
BRANCH  26  28
HETATM   28  C20 UNL     1     -10.567   8.980  15.003  1.00  0.00    -0.015 C 
HETATM   29  C21 UNL     1      -9.163   9.505  15.320  1.00  0.00     0.010 C 
HETATM   30  C22 UNL     1     -11.064   9.614  13.698  1.00  0.00     0.010 C 
ENDBRANCH  26  28
ENDBRANCH  25  26
ENDBRANCH  22  24
ENDBRANCH  11  22
BRANCH   1  31
HETATM   31  O2  UNL     1       3.129   8.117  10.813  1.00  0.00    -0.316 OA
BRANCH  31  32
HETATM   32  C2  UNL     1       3.715   7.636   9.682  1.00  0.00     0.255 C 
HETATM   33  C1  UNL     1       3.187   8.365   8.485  1.00  0.00     0.126 C 
HETATM   34  O1  UNL     1       4.531   6.729   9.630  1.00  0.00    -0.266 OA
ENDBRANCH  31  32
ENDBRANCH   1  31
TORSDOF 6
ENDMDL
MODEL 3
REMARK minimizedAffinity -9.80486202
REMARK CNNscore 0.365075469
REMARK CNNaffinity 6.77547455
REMARK  6 active torsions:
REMARK  status: ('A' for Active; 'I' for Inactive)
REMARK    1  A    between atoms: C2_2  and  O2_4 
REMARK    2  A    between atoms: O2_4  and  C3_5 
REMARK    3  A    between atoms: C13_15  and  C14_16 
REMARK    4  A    between atoms: C14_16  and  C16_18 
REMARK    5  A    between atoms: C17_19  and  C18_20 
REMARK    6  A    between atoms: C18_20  and  C20_22 
ROOT
HETATM    1  C3  UNL     1       2.024   8.102  11.159  1.00  0.00     0.135 C 
HETATM    2  C4  UNL     1       1.546   6.752  10.612  1.00  0.00     0.034 C 
HETATM    3  C5  UNL     1       0.055   6.527  10.862  1.00  0.00     0.015 C 
HETATM    4  C6  UNL     1      -0.340   6.665  12.359  1.00  0.00     0.001 C 
HETATM    5  C7  UNL     1       0.280   5.473  13.135  1.00  0.00     0.019 C 
HETATM    6  C8  UNL     1      -1.921   6.716  12.487  1.00  0.00     0.039 C 
HETATM    7  C9  UNL     1      -2.611   5.396  12.902  1.00  0.00     0.010 C 
HETATM    8  C10 UNL     1      -4.135   5.540  13.082  1.00  0.00     0.010 C 
HETATM    9  C11 UNL     1      -4.487   6.667  14.071  1.00  0.00    -0.033 C 
HETATM   10  C12 UNL     1      -4.026   6.265  15.485  1.00  0.00     0.016 C 
HETATM   11  C13 UNL     1      -5.981   7.113  14.036  1.00  0.00     0.001 C 
HETATM   12  C23 UNL     1      -5.939   8.563  14.592  1.00  0.00     0.006 C 
HETATM   13  C24 UNL     1      -4.508   9.081  14.348  1.00  0.00     0.009 C 
HETATM   14  C25 UNL     1      -3.846   7.970  13.535  1.00  0.00     0.036 C 
HETATM   15  C26 UNL     1      -2.323   7.952  13.366  1.00  0.00     0.123 C 
HETATM   16  C27 UNL     1      -1.485   8.087  14.613  1.00  0.00     0.014 C 
HETATM   17  C28 UNL     1      -0.170   8.173  14.372  1.00  0.00     0.014 C 
HETATM   18  C29 UNL     1       0.185   8.037  12.908  1.00  0.00     0.124 C 
HETATM   19  C30 UNL     1       1.676   8.257  12.645  1.00  0.00     0.079 C 
HETATM   20  O3  UNL     1      -0.529   9.080  12.188  1.00  0.00    -0.223 OA
HETATM   21  O4  UNL     1      -1.968   9.128  12.584  1.00  0.00    -0.224 OA
ENDROOT
BRANCH  11  22
HETATM   22  C14 UNL     1      -7.079   6.194  14.638  1.00  0.00     0.008 C 
HETATM   23  C15 UNL     1      -6.844   6.035  16.151  1.00  0.00     0.014 C 
BRANCH  22  24
HETATM   24  C16 UNL     1      -7.277   4.860  13.944  1.00  0.00    -0.026 C 
HETATM   25  C17 UNL     1      -6.794   4.485  12.747  1.00  0.00    -0.026 C 
BRANCH  25  26
HETATM   26  C18 UNL     1      -7.036   3.118  12.137  1.00  0.00     0.007 C 
HETATM   27  C19 UNL     1      -7.727   2.223  13.169  1.00  0.00     0.014 C 
BRANCH  26  28
HETATM   28  C20 UNL     1      -5.725   2.521  11.551  1.00  0.00    -0.015 C 
HETATM   29  C21 UNL     1      -5.813   1.033  11.196  1.00  0.00     0.010 C 
HETATM   30  C22 UNL     1      -5.254   3.309  10.323  1.00  0.00     0.010 C 
ENDBRANCH  26  28
ENDBRANCH  25  26
ENDBRANCH  22  24
ENDBRANCH  11  22
BRANCH   1  31
HETATM   31  O2  UNL     1       3.459   8.196  11.051  1.00  0.00    -0.316 OA
BRANCH  31  32
HETATM   32  C2  UNL     1       4.013   7.671   9.925  1.00  0.00     0.255 C 
HETATM   33  C1  UNL     1       3.599   8.474   8.731  1.00  0.00     0.126 C 
HETATM   34  O1  UNL     1       4.724   6.679   9.873  1.00  0.00    -0.266 OA
ENDBRANCH  31  32
ENDBRANCH   1  31
TORSDOF 6
ENDMDL
MODEL 4
REMARK minimizedAffinity -8.9526968
REMARK CNNscore 0.342260242
REMARK CNNaffinity 6.68431282
REMARK  6 active torsions:
REMARK  status: ('A' for Active; 'I' for Inactive)
REMARK    1  A    between atoms: C2_2  and  O2_4 
REMARK    2  A    between atoms: O2_4  and  C3_5 
REMARK    3  A    between atoms: C13_15  and  C14_16 
REMARK    4  A    between atoms: C14_16  and  C16_18 
REMARK    5  A    between atoms: C17_19  and  C18_20 
REMARK    6  A    between atoms: C18_20  and  C20_22 
ROOT
HETATM    1  C3  UNL     1       3.594   6.119  10.639  1.00  0.00     0.135 C 
HETATM    2  C4  UNL     1       3.386   7.609  10.344  1.00  0.00     0.034 C 
HETATM    3  C5  UNL     1       2.300   8.222  11.228  1.00  0.00     0.015 C 
HETATM    4  C6  UNL     1       0.944   7.468  11.140  1.00  0.00     0.001 C 
HETATM    5  C7  UNL     1       0.351   7.701   9.725  1.00  0.00     0.019 C 
HETATM    6  C8  UNL     1      -0.020   7.976  12.293  1.00  0.00     0.039 C 
HETATM    7  C9  UNL     1      -1.092   9.009  11.877  1.00  0.00     0.010 C 
HETATM    8  C10 UNL     1      -2.039   9.397  13.029  1.00  0.00     0.010 C 
HETATM    9  C11 UNL     1      -2.701   8.159  13.663  1.00  0.00    -0.033 C 
HETATM   10  C12 UNL     1      -3.666   7.520  12.645  1.00  0.00     0.016 C 
HETATM   11  C13 UNL     1      -3.380   8.424  15.042  1.00  0.00     0.001 C 
HETATM   12  C23 UNL     1      -3.393   7.024  15.715  1.00  0.00     0.006 C 
HETATM   13  C24 UNL     1      -2.265   6.211  15.050  1.00  0.00     0.009 C 
HETATM   14  C25 UNL     1      -1.565   7.222  14.143  1.00  0.00     0.036 C 
HETATM   15  C26 UNL     1      -0.592   6.735  13.064  1.00  0.00     0.123 C 
HETATM   16  C27 UNL     1      -1.069   5.637  12.145  1.00  0.00     0.014 C 
HETATM   17  C28 UNL     1      -0.126   5.192  11.304  1.00  0.00     0.014 C 
HETATM   18  C29 UNL     1       1.183   5.942  11.413  1.00  0.00     0.124 C 
HETATM   19  C30 UNL     1       2.277   5.339  10.530  1.00  0.00     0.079 C 
HETATM   20  O3  UNL     1       1.639   5.826  12.789  1.00  0.00    -0.223 OA
HETATM   21  O4  UNL     1       0.542   6.137  13.754  1.00  0.00    -0.224 OA
ENDROOT
BRANCH  11  22
HETATM   22  C14 UNL     1      -4.715   9.216  15.109  1.00  0.00     0.008 C 
HETATM   23  C15 UNL     1      -4.748  10.058  16.399  1.00  0.00     0.014 C 
BRANCH  22  24
HETATM   24  C16 UNL     1      -5.978   8.398  14.926  1.00  0.00    -0.026 C 
HETATM   25  C17 UNL     1      -6.081   7.058  14.872  1.00  0.00    -0.026 C 
BRANCH  25  26
HETATM   26  C18 UNL     1      -7.396   6.325  14.697  1.00  0.00     0.007 C 
HETATM   27  C19 UNL     1      -7.754   5.616  16.006  1.00  0.00     0.014 C 
BRANCH  26  28
HETATM   28  C20 UNL     1      -7.362   5.392  13.454  1.00  0.00    -0.015 C 
HETATM   29  C21 UNL     1      -7.367   3.896  13.788  1.00  0.00     0.010 C 
HETATM   30  C22 UNL     1      -8.515   5.702  12.491  1.00  0.00     0.010 C 
ENDBRANCH  26  28
ENDBRANCH  25  26
ENDBRANCH  22  24
ENDBRANCH  11  22
BRANCH   1  31
HETATM   31  O2  UNL     1       4.501   5.548   9.673  1.00  0.00    -0.316 OA
BRANCH  31  32
HETATM   32  C2  UNL     1       3.956   4.687   8.772  1.00  0.00     0.255 C 
HETATM   33  C1  UNL     1       4.448   3.296   9.035  1.00  0.00     0.126 C 
HETATM   34  O1  UNL     1       3.198   4.987   7.862  1.00  0.00    -0.266 OA
ENDBRANCH  31  32
ENDBRANCH   1  31
TORSDOF 6
ENDMDL
MODEL 5
REMARK minimizedAffinity -7.43821478
REMARK CNNscore 0.325684667
REMARK CNNaffinity 6.18645096
REMARK  6 active torsions:
REMARK  status: ('A' for Active; 'I' for Inactive)
REMARK    1  A    between atoms: C2_2  and  O2_4 
REMARK    2  A    between atoms: O2_4  and  C3_5 
REMARK    3  A    between atoms: C13_15  and  C14_16 
REMARK    4  A    between atoms: C14_16  and  C16_18 
REMARK    5  A    between atoms: C17_19  and  C18_20 
REMARK    6  A    between atoms: C18_20  and  C20_22 
ROOT
HETATM    1  C3  UNL     1      -2.638  12.167  18.570  1.00  0.00     0.135 C 
HETATM    2  C4  UNL     1      -3.888  11.818  17.754  1.00  0.00     0.034 C 
HETATM    3  C5  UNL     1      -3.655  10.620  16.834  1.00  0.00     0.015 C 
HETATM    4  C6  UNL     1      -2.436  10.804  15.888  1.00  0.00     0.001 C 
HETATM    5  C7  UNL     1      -2.784  11.912  14.860  1.00  0.00     0.019 C 
HETATM    6  C8  UNL     1      -2.089   9.420  15.195  1.00  0.00     0.039 C 
HETATM    7  C9  UNL     1      -2.601   9.239  13.747  1.00  0.00     0.010 C 
HETATM    8  C10 UNL     1      -2.160   7.905  13.112  1.00  0.00     0.010 C 
HETATM    9  C11 UNL     1      -0.632   7.724  13.170  1.00  0.00    -0.033 C 
HETATM   10  C12 UNL     1       0.039   8.763  12.251  1.00  0.00     0.016 C 
HETATM   11  C13 UNL     1      -0.143   6.271  12.884  1.00  0.00     0.001 C 
HETATM   12  C23 UNL     1       1.242   6.210  13.584  1.00  0.00     0.006 C 
HETATM   13  C24 UNL     1       1.223   7.295  14.680  1.00  0.00     0.009 C 
HETATM   14  C25 UNL     1      -0.212   7.818  14.657  1.00  0.00     0.036 C 
HETATM   15  C26 UNL     1      -0.557   9.128  15.374  1.00  0.00     0.123 C 
HETATM   16  C27 UNL     1       0.310  10.328  15.082  1.00  0.00     0.014 C 
HETATM   17  C28 UNL     1       0.013  11.401  15.828  1.00  0.00     0.014 C 
HETATM   18  C29 UNL     1      -1.176  11.192  16.739  1.00  0.00     0.124 C 
HETATM   19  C30 UNL     1      -1.421  12.386  17.663  1.00  0.00     0.079 C 
HETATM   20  O3  UNL     1      -0.877  10.053  17.592  1.00  0.00    -0.223 OA
HETATM   21  O4  UNL     1      -0.360   8.899  16.798  1.00  0.00    -0.224 OA
ENDROOT
BRANCH  11  22
HETATM   22  C14 UNL     1      -0.190   5.708  11.436  1.00  0.00     0.008 C 
HETATM   23  C15 UNL     1      -0.201   4.169  11.484  1.00  0.00     0.014 C 
BRANCH  22  24
HETATM   24  C16 UNL     1       0.862   6.245  10.485  1.00  0.00    -0.026 C 
HETATM   25  C17 UNL     1       2.073   5.721  10.228  1.00  0.00    -0.026 C 
BRANCH  25  26
HETATM   26  C18 UNL     1       3.057   6.325   9.246  1.00  0.00     0.007 C 
HETATM   27  C19 UNL     1       4.174   7.028  10.022  1.00  0.00     0.014 C 
BRANCH  26  28
HETATM   28  C20 UNL     1       2.335   7.230   8.208  1.00  0.00    -0.015 C 
HETATM   29  C21 UNL     1       2.990   8.600   8.000  1.00  0.00     0.010 C 
HETATM   30  C22 UNL     1       2.193   6.524   6.854  1.00  0.00     0.010 C 
ENDBRANCH  26  28
ENDBRANCH  25  26
ENDBRANCH  22  24
ENDBRANCH  11  22
BRANCH   1  31
HETATM   31  O2  UNL     1      -2.851  13.397  19.293  1.00  0.00    -0.316 OA
BRANCH  31  32
HETATM   32  C2  UNL     1      -4.146  13.724  19.556  1.00  0.00     0.255 C 
HETATM   33  C1  UNL     1      -4.521  14.965  18.806  1.00  0.00     0.126 C 
HETATM   34  O1  UNL     1      -4.897  13.123  20.309  1.00  0.00    -0.266 OA
ENDBRANCH  31  32
ENDBRANCH   1  31
TORSDOF 6
ENDMDL
MODEL 6
REMARK minimizedAffinity -6.81331253
REMARK CNNscore 0.323027492
REMARK CNNaffinity 6.23948288
REMARK  6 active torsions:
REMARK  status: ('A' for Active; 'I' for Inactive)
REMARK    1  A    between atoms: C2_2  and  O2_4 
REMARK    2  A    between atoms: O2_4  and  C3_5 
REMARK    3  A    between atoms: C13_15  and  C14_16 
REMARK    4  A    between atoms: C14_16  and  C16_18 
REMARK    5  A    between atoms: C17_19  and  C18_20 
REMARK    6  A    between atoms: C18_20  and  C20_22 
ROOT
HETATM    1  C3  UNL     1      -3.289   5.330  12.729  1.00  0.00     0.135 C 
HETATM    2  C4  UNL     1      -3.006   4.885  14.168  1.00  0.00     0.034 C 
HETATM    3  C5  UNL     1      -3.163   6.034  15.165  1.00  0.00     0.015 C 
HETATM    4  C6  UNL     1      -2.296   7.274  14.810  1.00  0.00     0.001 C 
HETATM    5  C7  UNL     1      -0.805   6.896  15.016  1.00  0.00     0.019 C 
HETATM    6  C8  UNL     1      -2.740   8.505  15.706  1.00  0.00     0.039 C 
HETATM    7  C9  UNL     1      -1.849   8.808  16.934  1.00  0.00     0.010 C 
HETATM    8  C10 UNL     1      -2.296  10.062  17.711  1.00  0.00     0.010 C 
HETATM    9  C11 UNL     1      -2.388  11.296  16.794  1.00  0.00    -0.033 C 
HETATM   10  C12 UNL     1      -0.975  11.687  16.323  1.00  0.00     0.016 C 
HETATM   11  C13 UNL     1      -3.165  12.500  17.409  1.00  0.00     0.001 C 
HETATM   12  C23 UNL     1      -3.644  13.297  16.165  1.00  0.00     0.006 C 
HETATM   13  C24 UNL     1      -3.680  12.295  14.995  1.00  0.00     0.009 C 
HETATM   14  C25 UNL     1      -3.372  10.949  15.649  1.00  0.00     0.036 C 
HETATM   15  C26 UNL     1      -2.995   9.746  14.779  1.00  0.00     0.123 C 
HETATM   16  C27 UNL     1      -1.912   9.946  13.749  1.00  0.00     0.014 C 
HETATM   17  C28 UNL     1      -1.718   8.882  12.957  1.00  0.00     0.014 C 
HETATM   18  C29 UNL     1      -2.577   7.692  13.325  1.00  0.00     0.124 C 
HETATM   19  C30 UNL     1      -2.425   6.535  12.336  1.00  0.00     0.079 C 
HETATM   20  O3  UNL     1      -3.965   8.121  13.263  1.00  0.00    -0.223 OA
HETATM   21  O4  UNL     1      -4.169   9.412  13.984  1.00  0.00    -0.224 OA
ENDROOT
BRANCH  11  22
HETATM   22  C14 UNL     1      -2.518  13.345  18.541  1.00  0.00     0.008 C 
HETATM   23  C15 UNL     1      -1.366  12.548  19.182  1.00  0.00     0.014 C 
BRANCH  22  24
HETATM   24  C16 UNL     1      -3.473  13.905  19.577  1.00  0.00    -0.026 C 
HETATM   25  C17 UNL     1      -4.811  13.772  19.608  1.00  0.00    -0.026 C 
BRANCH  25  26
HETATM   26  C18 UNL     1      -5.686  14.361  20.696  1.00  0.00     0.007 C 
HETATM   27  C19 UNL     1      -4.800  15.078  21.720  1.00  0.00     0.014 C 
BRANCH  26  28
HETATM   28  C20 UNL     1      -6.627  13.286  21.309  1.00  0.00    -0.015 C 
HETATM   29  C21 UNL     1      -6.623  13.242  22.841  1.00  0.00     0.010 C 
HETATM   30  C22 UNL     1      -8.067  13.455  20.809  1.00  0.00     0.010 C 
ENDBRANCH  26  28
ENDBRANCH  25  26
ENDBRANCH  22  24
ENDBRANCH  11  22
BRANCH   1  31
HETATM   31  O2  UNL     1      -2.966   4.265  11.813  1.00  0.00    -0.316 OA
BRANCH  31  32
HETATM   32  C2  UNL     1      -3.751   3.155  11.879  1.00  0.00     0.255 C 
HETATM   33  C1  UNL     1      -5.194   3.544  11.769  1.00  0.00     0.126 C 
HETATM   34  O1  UNL     1      -3.359   2.008  12.031  1.00  0.00    -0.266 OA
ENDBRANCH  31  32
ENDBRANCH   1  31
TORSDOF 6
ENDMDL
MODEL 7
REMARK minimizedAffinity -8.63996983
REMARK CNNscore 0.231200501
REMARK CNNaffinity 6.412992
REMARK  6 active torsions:
REMARK  status: ('A' for Active; 'I' for Inactive)
REMARK    1  A    between atoms: C2_2  and  O2_4 
REMARK    2  A    between atoms: O2_4  and  C3_5 
REMARK    3  A    between atoms: C13_15  and  C14_16 
REMARK    4  A    between atoms: C14_16  and  C16_18 
REMARK    5  A    between atoms: C17_19  and  C18_20 
REMARK    6  A    between atoms: C18_20  and  C20_22 
ROOT
HETATM    1  C3  UNL     1      -5.286   4.641  12.949  1.00  0.00     0.135 C 
HETATM    2  C4  UNL     1      -3.862   4.092  13.097  1.00  0.00     0.034 C 
HETATM    3  C5  UNL     1      -3.054   4.867  14.137  1.00  0.00     0.015 C 
HETATM    4  C6  UNL     1      -3.009   6.396  13.860  1.00  0.00     0.001 C 
HETATM    5  C7  UNL     1      -2.162   6.630  12.582  1.00  0.00     0.019 C 
HETATM    6  C8  UNL     1      -2.418   7.146  15.127  1.00  0.00     0.039 C 
HETATM    7  C9  UNL     1      -0.928   7.552  15.042  1.00  0.00     0.010 C 
HETATM    8  C10 UNL     1      -0.446   8.344  16.272  1.00  0.00     0.010 C 
HETATM    9  C11 UNL     1      -1.327   9.579  16.536  1.00  0.00    -0.033 C 
HETATM   10  C12 UNL     1      -1.133  10.596  15.395  1.00  0.00     0.016 C 
HETATM   11  C13 UNL     1      -1.135  10.222  17.944  1.00  0.00     0.001 C 
HETATM   12  C23 UNL     1      -2.474  10.969  18.188  1.00  0.00     0.006 C 
HETATM   13  C24 UNL     1      -3.526  10.277  17.299  1.00  0.00     0.009 C 
HETATM   14  C25 UNL     1      -2.783   9.081  16.709  1.00  0.00     0.036 C 
HETATM   15  C26 UNL     1      -3.381   8.322  15.519  1.00  0.00     0.123 C 
HETATM   16  C27 UNL     1      -3.831   9.137  14.332  1.00  0.00     0.014 C 
HETATM   17  C28 UNL     1      -4.441   8.414  13.383  1.00  0.00     0.014 C 
HETATM   18  C29 UNL     1      -4.472   6.931  13.680  1.00  0.00     0.124 C 
HETATM   19  C30 UNL     1      -5.276   6.144  12.644  1.00  0.00     0.079 C 
HETATM   20  O3  UNL     1      -5.145   6.757  14.957  1.00  0.00    -0.223 OA
HETATM   21  O4  UNL     1      -4.606   7.692  15.989  1.00  0.00    -0.224 OA
ENDROOT
BRANCH  11  22
HETATM   22  C14 UNL     1       0.154  11.030  18.258  1.00  0.00     0.008 C 
HETATM   23  C15 UNL     1       1.274  10.610  17.288  1.00  0.00     0.014 C 
BRANCH  22  24
HETATM   24  C16 UNL     1       0.610  11.010  19.704  1.00  0.00    -0.026 C 
HETATM   25  C17 UNL     1       1.847  10.752  20.165  1.00  0.00    -0.026 C 
BRANCH  25  26
HETATM   26  C18 UNL     1       2.213  10.766  21.636  1.00  0.00     0.007 C 
HETATM   27  C19 UNL     1       2.827  12.124  21.988  1.00  0.00     0.014 C 
BRANCH  26  28
HETATM   28  C20 UNL     1       3.103   9.547  22.009  1.00  0.00    -0.015 C 
HETATM   29  C21 UNL     1       4.260   9.878  22.958  1.00  0.00     0.010 C 
HETATM   30  C22 UNL     1       2.267   8.407  22.604  1.00  0.00     0.010 C 
ENDBRANCH  26  28
ENDBRANCH  25  26
ENDBRANCH  22  24
ENDBRANCH  11  22
BRANCH   1  31
HETATM   31  O2  UNL     1      -5.951   3.993  11.845  1.00  0.00    -0.316 OA
BRANCH  31  32
HETATM   32  C2  UNL     1      -5.181   3.177  11.074  1.00  0.00     0.255 C 
HETATM   33  C1  UNL     1      -5.599   1.752  11.265  1.00  0.00     0.126 C 
HETATM   34  O1  UNL     1      -4.265   3.534  10.349  1.00  0.00    -0.266 OA
ENDBRANCH  31  32
ENDBRANCH   1  31
TORSDOF 6
ENDMDL
MODEL 8
REMARK minimizedAffinity -6.29892921
REMARK CNNscore 0.228607908
REMARK CNNaffinity 5.97596931
REMARK  6 active torsions:
REMARK  status: ('A' for Active; 'I' for Inactive)
REMARK    1  A    between atoms: C2_2  and  O2_4 
REMARK    2  A    between atoms: O2_4  and  C3_5 
REMARK    3  A    between atoms: C13_15  and  C14_16 
REMARK    4  A    between atoms: C14_16  and  C16_18 
REMARK    5  A    between atoms: C17_19  and  C18_20 
REMARK    6  A    between atoms: C18_20  and  C20_22 
ROOT
HETATM    1  C3  UNL     1     -14.702   3.892  23.453  1.00  0.00     0.135 C 
HETATM    2  C4  UNL     1     -14.844   3.978  21.928  1.00  0.00     0.034 C 
HETATM    3  C5  UNL     1     -13.992   5.099  21.335  1.00  0.00     0.015 C 
HETATM    4  C6  UNL     1     -14.277   6.487  21.976  1.00  0.00     0.001 C 
HETATM    5  C7  UNL     1     -15.702   6.931  21.551  1.00  0.00     0.019 C 
HETATM    6  C8  UNL     1     -13.160   7.518  21.525  1.00  0.00     0.039 C 
HETATM    7  C9  UNL     1     -13.546   8.481  20.378  1.00  0.00     0.010 C 
HETATM    8  C10 UNL     1     -12.442   9.503  20.048  1.00  0.00     0.010 C 
HETATM    9  C11 UNL     1     -12.009  10.296  21.295  1.00  0.00    -0.033 C 
HETATM   10  C12 UNL     1     -13.168  11.202  21.750  1.00  0.00     0.016 C 
HETATM   11  C13 UNL     1     -10.670  11.080  21.129  1.00  0.00     0.001 C 
HETATM   12  C23 UNL     1     -10.162  11.243  22.587  1.00  0.00     0.006 C 
HETATM   13  C24 UNL     1     -10.817  10.112  23.405  1.00  0.00     0.009 C 
HETATM   14  C25 UNL     1     -11.542   9.270  22.357  1.00  0.00     0.036 C 
HETATM   15  C26 UNL     1     -12.583   8.235  22.796  1.00  0.00     0.123 C 
HETATM   16  C27 UNL     1     -13.656   8.694  23.752  1.00  0.00     0.014 C 
HETATM   17  C28 UNL     1     -14.460   7.708  24.173  1.00  0.00     0.014 C 
HETATM   18  C29 UNL     1     -14.158   6.370  23.535  1.00  0.00     0.124 C 
HETATM   19  C30 UNL     1     -15.008   5.239  24.119  1.00  0.00     0.079 C 
HETATM   20  O3  UNL     1     -12.770   6.050  23.829  1.00  0.00    -0.223 OA
HETATM   21  O4  UNL     1     -11.873   7.208  23.544  1.00  0.00    -0.224 OA
ENDROOT
BRANCH  11  22
HETATM   22  C14 UNL     1     -10.627  12.363  20.254  1.00  0.00     0.008 C 
HETATM   23  C15 UNL     1     -10.516  11.969  18.769  1.00  0.00     0.014 C 
BRANCH  22  24
HETATM   24  C16 UNL     1      -9.593  13.399  20.651  1.00  0.00    -0.026 C 
HETATM   25  C17 UNL     1      -8.347  13.534  20.165  1.00  0.00    -0.026 C 
BRANCH  25  26
HETATM   26  C18 UNL     1      -7.383  14.614  20.618  1.00  0.00     0.007 C 
HETATM   27  C19 UNL     1      -7.104  15.561  19.448  1.00  0.00     0.014 C 
BRANCH  26  28
HETATM   28  C20 UNL     1      -6.108  14.000  21.261  1.00  0.00    -0.015 C 
HETATM   29  C21 UNL     1      -6.378  13.139  22.500  1.00  0.00     0.010 C 
HETATM   30  C22 UNL     1      -5.306  13.183  20.240  1.00  0.00     0.010 C 
ENDBRANCH  26  28
ENDBRANCH  25  26
ENDBRANCH  22  24
ENDBRANCH  11  22
BRANCH   1  31
HETATM   31  O2  UNL     1     -15.646   2.938  23.981  1.00  0.00    -0.316 OA
BRANCH  31  32
HETATM   32  C2  UNL     1     -15.220   2.193  25.038  1.00  0.00     0.255 C 
HETATM   33  C1  UNL     1     -13.859   1.636  24.753  1.00  0.00     0.126 C 
HETATM   34  O1  UNL     1     -15.850   1.978  26.062  1.00  0.00    -0.266 OA
ENDBRANCH  31  32
ENDBRANCH   1  31
TORSDOF 6
ENDMDL
MODEL 9
REMARK minimizedAffinity -8.52218819
REMARK CNNscore 0.225390062
REMARK CNNaffinity 6.50846148
REMARK  6 active torsions:
REMARK  status: ('A' for Active; 'I' for Inactive)
REMARK    1  A    between atoms: C2_2  and  O2_4 
REMARK    2  A    between atoms: O2_4  and  C3_5 
REMARK    3  A    between atoms: C13_15  and  C14_16 
REMARK    4  A    between atoms: C14_16  and  C16_18 
REMARK    5  A    between atoms: C17_19  and  C18_20 
REMARK    6  A    between atoms: C18_20  and  C20_22 
ROOT
HETATM    1  C3  UNL     1      -6.318   6.652  14.891  1.00  0.00     0.135 C 
HETATM    2  C4  UNL     1      -6.271   8.057  14.279  1.00  0.00     0.034 C 
HETATM    3  C5  UNL     1      -5.122   8.209  13.283  1.00  0.00     0.015 C 
HETATM    4  C6  UNL     1      -3.737   7.846  13.887  1.00  0.00     0.001 C 
HETATM    5  C7  UNL     1      -3.371   8.924  14.940  1.00  0.00     0.019 C 
HETATM    6  C8  UNL     1      -2.662   7.742  12.725  1.00  0.00     0.039 C 
HETATM    7  C9  UNL     1      -1.743   8.971  12.538  1.00  0.00     0.010 C 
HETATM    8  C10 UNL     1      -0.676   8.768  11.445  1.00  0.00     0.010 C 
HETATM    9  C11 UNL     1       0.163   7.501  11.698  1.00  0.00    -0.033 C 
HETATM   10  C12 UNL     1       1.021   7.702  12.962  1.00  0.00     0.016 C 
HETATM   11  C13 UNL     1       1.008   7.032  10.473  1.00  0.00     0.001 C 
HETATM   12  C23 UNL     1       1.225   5.518  10.742  1.00  0.00     0.006 C 
HETATM   13  C24 UNL     1       0.081   5.073  11.675  1.00  0.00     0.009 C 
HETATM   14  C25 UNL     1      -0.817   6.305  11.773  1.00  0.00     0.036 C 
HETATM   15  C26 UNL     1      -1.892   6.381  12.862  1.00  0.00     0.123 C 
HETATM   16  C27 UNL     1      -1.466   6.084  14.278  1.00  0.00     0.014 C 
HETATM   17  C28 UNL     1      -2.481   6.064  15.153  1.00  0.00     0.014 C 
HETATM   18  C29 UNL     1      -3.816   6.420  14.536  1.00  0.00     0.124 C 
HETATM   19  C30 UNL     1      -4.973   6.274  15.525  1.00  0.00     0.079 C 
HETATM   20  O3  UNL     1      -4.062   5.478  13.456  1.00  0.00    -0.223 OA
HETATM   21  O4  UNL     1      -2.867   5.341  12.571  1.00  0.00    -0.224 OA
ENDROOT
BRANCH  11  22
HETATM   22  C14 UNL     1       2.273   7.829  10.052  1.00  0.00     0.008 C 
HETATM   23  C15 UNL     1       2.935   7.140   8.844  1.00  0.00     0.014 C 
BRANCH  22  24
HETATM   24  C16 UNL     1       3.266   8.125  11.159  1.00  0.00    -0.026 C 
HETATM   25  C17 UNL     1       4.371   7.425  11.471  1.00  0.00    -0.026 C 
BRANCH  25  26
HETATM   26  C18 UNL     1       5.315   7.808  12.595  1.00  0.00     0.007 C 
HETATM   27  C19 UNL     1       5.565   9.318  12.548  1.00  0.00     0.014 C 
BRANCH  26  28
HETATM   28  C20 UNL     1       6.608   6.946  12.564  1.00  0.00    -0.015 C 
HETATM   29  C21 UNL     1       6.982   6.418  11.174  1.00  0.00     0.010 C 
HETATM   30  C22 UNL     1       7.800   7.706  13.157  1.00  0.00     0.010 C 
ENDBRANCH  26  28
ENDBRANCH  25  26
ENDBRANCH  22  24
ENDBRANCH  11  22
BRANCH   1  31
HETATM   31  O2  UNL     1      -7.305   6.607  15.942  1.00  0.00    -0.316 OA
BRANCH  31  32
HETATM   32  C2  UNL     1      -8.581   6.915  15.582  1.00  0.00     0.255 C 
HETATM   33  C1  UNL     1      -9.171   7.875  16.569  1.00  0.00     0.126 C 
HETATM   34  O1  UNL     1      -9.181   6.466  14.617  1.00  0.00    -0.266 OA
ENDBRANCH  31  32
ENDBRANCH   1  31
TORSDOF 6
ENDMDL
