MODEL 1
REMARK minimizedAffinity -8.10672855
REMARK CNNscore 0.667395115
REMARK CNNaffinity 7.40855551
REMARK  6 active torsions:
REMARK  status: ('A' for Active; 'I' for Inactive)
REMARK    1  A    between atoms: C2_2  and  C30_32 
REMARK    2  A    between atoms: C3_3  and  C4_4 
REMARK    3  A    between atoms: C4_4  and  C5_5 
REMARK    4  A    between atoms: C5_5  and  C6_6 
REMARK    5  A    between atoms: C6_6  and  C8_8 
REMARK    6  A    between atoms: C30_32  and  O4_34 
ROOT
HETATM    1  C8  UNL     1      -2.469   7.279  13.646  1.00  0.00    -0.002 C 
HETATM    2  C9  UNL     1      -2.598   6.193  12.540  1.00  0.00     0.007 C 
HETATM    3  C10 UNL     1      -4.057   5.694  12.563  1.00  0.00     0.015 C 
HETATM    4  C11 UNL     1      -4.623   6.185  13.908  1.00  0.00    -0.005 C 
HETATM    5  C12 UNL     1      -4.163   5.169  15.001  1.00  0.00     0.021 C 
HETATM    6  C13 UNL     1      -6.126   6.310  14.109  1.00  0.00    -0.000 C 
HETATM    7  C14 UNL     1      -6.647   7.238  14.958  1.00  0.00    -0.060 C 
HETATM    8  C15 UNL     1      -5.745   8.238  15.680  1.00  0.00     0.036 C 
HETATM    9  C16 UNL     1      -4.230   8.171  15.391  1.00  0.00     0.015 C 
HETATM   10  C17 UNL     1      -3.951   7.615  13.987  1.00  0.00    -0.028 C 
HETATM   11  C18 UNL     1      -4.527   8.617  12.941  1.00  0.00     0.016 C 
HETATM   12  C19 UNL     1      -8.165   7.284  15.256  1.00  0.00    -0.014 C 
HETATM   13  C20 UNL     1      -8.390   6.222  16.364  1.00  0.00     0.020 C 
HETATM   14  C21 UNL     1      -8.715   8.634  15.812  1.00  0.00     0.021 C 
HETATM   15  C22 UNL     1      -9.250   9.559  14.729  1.00  0.00     0.080 C 
HETATM   16  C23 UNL     1     -10.446   8.905  14.067  1.00  0.00     0.135 C 
HETATM   17  O1  UNL     1     -11.443   9.572  13.784  1.00  0.00    -0.297 OA
HETATM   18  C24 UNL     1     -10.354   7.398  13.757  1.00  0.00     0.018 C 
HETATM   19  C25 UNL     1     -11.310   6.656  14.697  1.00  0.00     0.023 C 
HETATM   20  C26 UNL     1     -10.848   7.197  12.308  1.00  0.00     0.023 C 
HETATM   21  C27 UNL     1      -8.857   6.971  13.882  1.00  0.00     0.020 C 
HETATM   22  C28 UNL     1      -8.527   5.545  13.439  1.00  0.00     0.090 C 
HETATM   23  C29 UNL     1      -7.027   5.310  13.438  1.00  0.00     0.157 C 
HETATM   24  O2  UNL     1      -6.568   4.299  12.910  1.00  0.00    -0.293 OA
ENDROOT
BRANCH   1  25
HETATM   25  C6  UNL     1      -1.393   8.363  13.338  1.00  0.00    -0.014 C 
HETATM   26  C7  UNL     1      -0.134   8.365  14.214  1.00  0.00     0.010 C 
BRANCH  25  27
HETATM   27  C5  UNL     1      -1.013   8.374  11.840  1.00  0.00     0.008 C 
BRANCH  27  28
HETATM   28  C4  UNL     1       0.373   7.782  11.562  1.00  0.00     0.028 C 
BRANCH  28  29
HETATM   29  C3  UNL     1       0.910   8.255  10.237  1.00  0.00    -0.013 C 
HETATM   30  C2  UNL     1       1.740   7.613   9.393  1.00  0.00     0.008 C 
HETATM   31  C1  UNL     1       2.109   8.195   8.057  1.00  0.00     0.055 C 
BRANCH  30  32
HETATM   32  C30 UNL     1       2.358   6.293   9.653  1.00  0.00     0.171 C 
HETATM   33  O3  UNL     1       1.765   5.308  10.061  1.00  0.00    -0.646 OA
BRANCH  32  34
HETATM   34  O4  UNL     1       3.651   6.227   9.301  1.00  0.00    -0.773 OA
HETATM   35  H44 UNL     1       3.893   5.299   9.491  1.00  0.00     0.167 HD
ENDBRANCH  32  34
ENDBRANCH  30  32
ENDBRANCH  28  29
ENDBRANCH  27  28
ENDBRANCH  25  27
ENDBRANCH   1  25
TORSDOF 6
ENDMDL
MODEL 2
REMARK minimizedAffinity -8.12353802
REMARK CNNscore 0.427561939
REMARK CNNaffinity 5.99959993
REMARK  6 active torsions:
REMARK  status: ('A' for Active; 'I' for Inactive)
REMARK    1  A    between atoms: C2_2  and  C30_32 
REMARK    2  A    between atoms: C3_3  and  C4_4 
REMARK    3  A    between atoms: C4_4  and  C5_5 
REMARK    4  A    between atoms: C5_5  and  C6_6 
REMARK    5  A    between atoms: C6_6  and  C8_8 
REMARK    6  A    between atoms: C30_32  and  O4_34 
ROOT
HETATM    1  C8  UNL     1      10.833  12.786  18.905  1.00  0.00    -0.002 C 
HETATM    2  C9  UNL     1      11.488  12.308  20.232  1.00  0.00     0.007 C 
HETATM    3  C10 UNL     1      10.367  12.235  21.290  1.00  0.00     0.015 C 
HETATM    4  C11 UNL     1       9.200  13.039  20.687  1.00  0.00    -0.005 C 
HETATM    5  C12 UNL     1       9.487  14.549  20.965  1.00  0.00     0.021 C 
HETATM    6  C13 UNL     1       7.779  12.820  21.185  1.00  0.00    -0.000 C 
HETATM    7  C14 UNL     1       6.709  13.007  20.364  1.00  0.00    -0.060 C 
HETATM    8  C15 UNL     1       6.901  13.366  18.891  1.00  0.00     0.036 C 
HETATM    9  C16 UNL     1       8.350  13.484  18.369  1.00  0.00     0.015 C 
HETATM   10  C17 UNL     1       9.310  12.596  19.172  1.00  0.00    -0.028 C 
HETATM   11  C18 UNL     1       8.909  11.107  18.943  1.00  0.00     0.016 C 
HETATM   12  C19 UNL     1       5.261  12.905  20.902  1.00  0.00    -0.014 C 
HETATM   13  C20 UNL     1       4.963  14.297  21.519  1.00  0.00     0.020 C 
HETATM   14  C21 UNL     1       4.151  12.638  19.840  1.00  0.00     0.021 C 
HETATM   15  C22 UNL     1       3.823  11.163  19.668  1.00  0.00     0.080 C 
HETATM   16  C23 UNL     1       3.245  10.630  20.965  1.00  0.00     0.135 C 
HETATM   17  O1  UNL     1       2.285   9.859  20.947  1.00  0.00    -0.297 OA
HETATM   18  C24 UNL     1       3.912  11.079  22.280  1.00  0.00     0.018 C 
HETATM   19  C25 UNL     1       2.945  12.018  23.011  1.00  0.00     0.023 C 
HETATM   20  C26 UNL     1       4.110   9.818  23.147  1.00  0.00     0.023 C 
HETATM   21  C27 UNL     1       5.294  11.715  21.926  1.00  0.00     0.020 C 
HETATM   22  C28 UNL     1       6.194  12.065  23.113  1.00  0.00     0.090 C 
HETATM   23  C29 UNL     1       7.568  12.505  22.641  1.00  0.00     0.157 C 
HETATM   24  O2  UNL     1       8.485  12.620  23.453  1.00  0.00    -0.293 OA
ENDROOT
BRANCH   1  25
HETATM   25  C6  UNL     1      11.551  12.260  17.626  1.00  0.00    -0.014 C 
HETATM   26  C7  UNL     1      11.546  13.177  16.397  1.00  0.00     0.010 C 
BRANCH  25  27
HETATM   27  C5  UNL     1      12.986  11.780  17.940  1.00  0.00     0.008 C 
BRANCH  27  28
HETATM   28  C4  UNL     1      14.057  12.839  17.652  1.00  0.00     0.028 C 
BRANCH  28  29
HETATM   29  C3  UNL     1      15.425  12.348  18.042  1.00  0.00    -0.013 C 
HETATM   30  C2  UNL     1      16.041  12.444  19.236  1.00  0.00     0.008 C 
HETATM   31  C1  UNL     1      17.383  11.814  19.484  1.00  0.00     0.055 C 
BRANCH  30  32
HETATM   32  C30 UNL     1      15.488  13.141  20.420  1.00  0.00     0.171 C 
HETATM   33  O3  UNL     1      15.501  14.348  20.594  1.00  0.00    -0.646 OA
BRANCH  32  34
HETATM   34  O4  UNL     1      14.859  12.323  21.278  1.00  0.00    -0.773 OA
HETATM   35  H44 UNL     1      14.520  12.930  21.966  1.00  0.00     0.167 HD
ENDBRANCH  32  34
ENDBRANCH  30  32
ENDBRANCH  28  29
ENDBRANCH  27  28
ENDBRANCH  25  27
ENDBRANCH   1  25
TORSDOF 6
ENDMDL
MODEL 3
REMARK minimizedAffinity -9.82163429
REMARK CNNscore 0.392359197
REMARK CNNaffinity 7.11851931
REMARK  6 active torsions:
REMARK  status: ('A' for Active; 'I' for Inactive)
REMARK    1  A    between atoms: C2_2  and  C30_32 
REMARK    2  A    between atoms: C3_3  and  C4_4 
REMARK    3  A    between atoms: C4_4  and  C5_5 
REMARK    4  A    between atoms: C5_5  and  C6_6 
REMARK    5  A    between atoms: C6_6  and  C8_8 
REMARK    6  A    between atoms: C30_32  and  O4_34 
ROOT
HETATM    1  C8  UNL     1      -5.249   6.762  14.867  1.00  0.00    -0.002 C 
HETATM    2  C9  UNL     1      -5.613   8.172  14.319  1.00  0.00     0.007 C 
HETATM    3  C10 UNL     1      -4.319   8.780  13.741  1.00  0.00     0.015 C 
HETATM    4  C11 UNL     1      -3.182   7.914  14.315  1.00  0.00    -0.005 C 
HETATM    5  C12 UNL     1      -2.889   8.434  15.758  1.00  0.00     0.021 C 
HETATM    6  C13 UNL     1      -1.822   7.883  13.634  1.00  0.00    -0.000 C 
HETATM    7  C14 UNL     1      -1.029   6.777  13.696  1.00  0.00    -0.060 C 
HETATM    8  C15 UNL     1      -1.512   5.501  14.384  1.00  0.00     0.036 C 
HETATM    9  C16 UNL     1      -2.935   5.508  14.982  1.00  0.00     0.015 C 
HETATM   10  C17 UNL     1      -3.854   6.484  14.233  1.00  0.00    -0.028 C 
HETATM   11  C18 UNL     1      -4.023   5.973  12.771  1.00  0.00     0.016 C 
HETATM   12  C19 UNL     1       0.404   6.787  13.110  1.00  0.00    -0.014 C 
HETATM   13  C20 UNL     1       1.287   7.417  14.219  1.00  0.00     0.020 C 
HETATM   14  C21 UNL     1       1.022   5.393  12.783  1.00  0.00     0.021 C 
HETATM   15  C22 UNL     1       0.806   4.963  11.340  1.00  0.00     0.080 C 
HETATM   16  C23 UNL     1       1.533   5.926  10.422  1.00  0.00     0.135 C 
HETATM   17  O1  UNL     1       2.155   5.505   9.446  1.00  0.00    -0.297 OA
HETATM   18  C24 UNL     1       1.447   7.429  10.754  1.00  0.00     0.018 C 
HETATM   19  C25 UNL     1       2.825   7.893  11.236  1.00  0.00     0.023 C 
HETATM   20  C26 UNL     1       1.120   8.170   9.440  1.00  0.00     0.023 C 
HETATM   21  C27 UNL     1       0.294   7.628  11.789  1.00  0.00     0.020 C 
HETATM   22  C28 UNL     1      -0.072   9.077  12.114  1.00  0.00     0.090 C 
HETATM   23  C29 UNL     1      -1.313   9.141  12.986  1.00  0.00     0.157 C 
HETATM   24  O2  UNL     1      -1.875  10.220  13.170  1.00  0.00    -0.293 OA
ENDROOT
BRANCH   1  25
HETATM   25  C6  UNL     1      -6.430   5.747  14.819  1.00  0.00    -0.014 C 
HETATM   26  C7  UNL     1      -7.588   5.978  15.799  1.00  0.00     0.010 C 
BRANCH  25  27
HETATM   27  C5  UNL     1      -6.964   5.567  13.380  1.00  0.00     0.008 C 
BRANCH  27  28
HETATM   28  C4  UNL     1      -6.943   4.109  12.904  1.00  0.00     0.028 C 
BRANCH  28  29
HETATM   29  C3  UNL     1      -5.541   3.564  12.886  1.00  0.00    -0.013 C 
HETATM   30  C2  UNL     1      -4.970   2.752  11.975  1.00  0.00     0.008 C 
HETATM   31  C1  UNL     1      -3.518   2.372  12.058  1.00  0.00     0.055 C 
BRANCH  30  32
HETATM   32  C30 UNL     1      -5.667   2.167  10.807  1.00  0.00     0.171 C 
HETATM   33  O3  UNL     1      -6.407   1.198  10.843  1.00  0.00    -0.646 OA
BRANCH  32  34
HETATM   34  O4  UNL     1      -5.497   2.868   9.675  1.00  0.00    -0.773 OA
HETATM   35  H44 UNL     1      -6.045   2.386   9.023  1.00  0.00     0.167 HD
ENDBRANCH  32  34
ENDBRANCH  30  32
ENDBRANCH  28  29
ENDBRANCH  27  28
ENDBRANCH  25  27
ENDBRANCH   1  25
TORSDOF 6
ENDMDL
MODEL 4
REMARK minimizedAffinity -6.85938168
REMARK CNNscore 0.391056299
REMARK CNNaffinity 5.81751871
REMARK  6 active torsions:
REMARK  status: ('A' for Active; 'I' for Inactive)
REMARK    1  A    between atoms: C2_2  and  C30_32 
REMARK    2  A    between atoms: C3_3  and  C4_4 
REMARK    3  A    between atoms: C4_4  and  C5_5 
REMARK    4  A    between atoms: C5_5  and  C6_6 
REMARK    5  A    between atoms: C6_6  and  C8_8 
REMARK    6  A    between atoms: C30_32  and  O4_34 
ROOT
HETATM    1  C8  UNL     1       2.485  11.879  19.611  1.00  0.00    -0.002 C 
HETATM    2  C9  UNL     1       1.527  11.413  20.744  1.00  0.00     0.007 C 
HETATM    3  C10 UNL     1       0.229  10.926  20.068  1.00  0.00     0.015 C 
HETATM    4  C11 UNL     1       0.295  11.482  18.634  1.00  0.00    -0.005 C 
HETATM    5  C12 UNL     1      -0.185  12.967  18.692  1.00  0.00     0.021 C 
HETATM    6  C13 UNL     1      -0.535  10.853  17.526  1.00  0.00    -0.000 C 
HETATM    7  C14 UNL     1      -0.112  10.870  16.232  1.00  0.00    -0.060 C 
HETATM    8  C15 UNL     1       1.250  11.452  15.858  1.00  0.00     0.036 C 
HETATM    9  C16 UNL     1       2.132  11.995  17.003  1.00  0.00     0.015 C 
HETATM   10  C17 UNL     1       1.835  11.280  18.329  1.00  0.00    -0.028 C 
HETATM   11  C18 UNL     1       2.234   9.781  18.176  1.00  0.00     0.016 C 
HETATM   12  C19 UNL     1      -1.012  10.340  15.090  1.00  0.00    -0.014 C 
HETATM   13  C20 UNL     1      -1.956  11.521  14.741  1.00  0.00     0.020 C 
HETATM   14  C21 UNL     1      -0.284   9.942  13.769  1.00  0.00     0.021 C 
HETATM   15  C22 UNL     1       0.079   8.467  13.702  1.00  0.00     0.080 C 
HETATM   16  C23 UNL     1      -1.194   7.644  13.696  1.00  0.00     0.135 C 
HETATM   17  O1  UNL     1      -1.298   6.665  12.955  1.00  0.00    -0.297 OA
HETATM   18  C24 UNL     1      -2.324   8.072  14.652  1.00  0.00     0.018 C 
HETATM   19  C25 UNL     1      -3.475   8.636  13.812  1.00  0.00     0.023 C 
HETATM   20  C26 UNL     1      -2.825   6.799  15.368  1.00  0.00     0.023 C 
HETATM   21  C27 UNL     1      -1.723   9.074  15.689  1.00  0.00     0.020 C 
HETATM   22  C28 UNL     1      -2.645   9.483  16.839  1.00  0.00     0.090 C 
HETATM   23  C29 UNL     1      -1.896  10.310  17.868  1.00  0.00     0.157 C 
HETATM   24  O2  UNL     1      -2.416  10.544  18.958  1.00  0.00    -0.293 OA
ENDROOT
BRANCH   1  25
HETATM   25  C6  UNL     1       3.995  11.719  19.961  1.00  0.00    -0.014 C 
HETATM   26  C7  UNL     1       5.008  12.165  18.899  1.00  0.00     0.010 C 
BRANCH  25  27
HETATM   27  C5  UNL     1       4.328  12.353  21.331  1.00  0.00     0.008 C 
BRANCH  27  28
HETATM   28  C4  UNL     1       5.708  11.951  21.865  1.00  0.00     0.028 C 
BRANCH  28  29
HETATM   29  C3  UNL     1       6.364  13.096  22.589  1.00  0.00    -0.013 C 
HETATM   30  C2  UNL     1       7.652  13.221  22.965  1.00  0.00     0.008 C 
HETATM   31  C1  UNL     1       8.168  14.479  23.604  1.00  0.00     0.055 C 
BRANCH  30  32
HETATM   32  C30 UNL     1       8.691  12.180  22.786  1.00  0.00     0.171 C 
HETATM   33  O3  UNL     1       8.737  11.122  23.391  1.00  0.00    -0.646 OA
BRANCH  32  34
HETATM   34  O4  UNL     1       9.560  12.454  21.801  1.00  0.00    -0.773 OA
HETATM   35  H44 UNL     1      10.140  11.667  21.783  1.00  0.00     0.167 HD
ENDBRANCH  32  34
ENDBRANCH  30  32
ENDBRANCH  28  29
ENDBRANCH  27  28
ENDBRANCH  25  27
ENDBRANCH   1  25
TORSDOF 6
ENDMDL
MODEL 5
REMARK minimizedAffinity -7.52905035
REMARK CNNscore 0.344186604
REMARK CNNaffinity 6.74926758
REMARK  6 active torsions:
REMARK  status: ('A' for Active; 'I' for Inactive)
REMARK    1  A    between atoms: C2_2  and  C30_32 
REMARK    2  A    between atoms: C3_3  and  C4_4 
REMARK    3  A    between atoms: C4_4  and  C5_5 
REMARK    4  A    between atoms: C5_5  and  C6_6 
REMARK    5  A    between atoms: C6_6  and  C8_8 
REMARK    6  A    between atoms: C30_32  and  O4_34 
ROOT
HETATM    1  C8  UNL     1      -9.390   7.094  14.031  1.00  0.00    -0.002 C 
HETATM    2  C9  UNL     1      -8.976   7.035  15.529  1.00  0.00     0.007 C 
HETATM    3  C10 UNL     1      -9.983   7.902  16.312  1.00  0.00     0.015 C 
HETATM    4  C11 UNL     1     -10.691   8.752  15.241  1.00  0.00    -0.005 C 
HETATM    5  C12 UNL     1      -9.758   9.963  14.920  1.00  0.00     0.021 C 
HETATM    6  C13 UNL     1     -12.047   9.378  15.530  1.00  0.00    -0.000 C 
HETATM    7  C14 UNL     1     -12.947   9.599  14.532  1.00  0.00    -0.060 C 
HETATM    8  C15 UNL     1     -12.659   9.153  13.100  1.00  0.00     0.036 C 
HETATM    9  C16 UNL     1     -11.324   8.425  12.835  1.00  0.00     0.015 C 
HETATM   10  C17 UNL     1     -10.832   7.681  14.085  1.00  0.00    -0.028 C 
HETATM   11  C18 UNL     1     -11.856   6.555  14.419  1.00  0.00     0.016 C 
HETATM   12  C19 UNL     1     -14.275  10.347  14.806  1.00  0.00    -0.014 C 
HETATM   13  C20 UNL     1     -13.909  11.853  14.736  1.00  0.00     0.020 C 
HETATM   14  C21 UNL     1     -15.419  10.115  13.771  1.00  0.00     0.021 C 
HETATM   15  C22 UNL     1     -16.370   8.996  14.165  1.00  0.00     0.080 C 
HETATM   16  C23 UNL     1     -17.086   9.381  15.444  1.00  0.00     0.135 C 
HETATM   17  O1  UNL     1     -18.289   9.150  15.578  1.00  0.00    -0.297 OA
HETATM   18  C24 UNL     1     -16.253  10.052  16.553  1.00  0.00     0.018 C 
HETATM   19  C25 UNL     1     -16.683  11.519  16.656  1.00  0.00     0.023 C 
HETATM   20  C26 UNL     1     -16.608   9.349  17.881  1.00  0.00     0.023 C 
HETATM   21  C27 UNL     1     -14.742   9.839  16.216  1.00  0.00     0.020 C 
HETATM   22  C28 UNL     1     -13.747  10.278  17.291  1.00  0.00     0.090 C 
HETATM   23  C29 UNL     1     -12.334   9.859  16.926  1.00  0.00     0.157 C 
HETATM   24  O2  UNL     1     -11.438   9.937  17.765  1.00  0.00    -0.293 OA
ENDROOT
BRANCH   1  25
HETATM   25  C6  UNL     1      -9.016   5.814  13.226  1.00  0.00    -0.014 C 
HETATM   26  C7  UNL     1      -8.912   5.954  11.702  1.00  0.00     0.010 C 
BRANCH  25  27
HETATM   27  C5  UNL     1      -7.750   5.136  13.797  1.00  0.00     0.008 C 
BRANCH  27  28
HETATM   28  C4  UNL     1      -7.257   3.958  12.948  1.00  0.00     0.028 C 
BRANCH  28  29
HETATM   29  C3  UNL     1      -5.753   3.903  12.917  1.00  0.00    -0.013 C 
HETATM   30  C2  UNL     1      -4.958   3.195  12.091  1.00  0.00     0.008 C 
HETATM   31  C1  UNL     1      -3.462   3.326  12.134  1.00  0.00     0.055 C 
BRANCH  30  32
HETATM   32  C30 UNL     1      -5.439   2.248  11.059  1.00  0.00     0.171 C 
HETATM   33  O3  UNL     1      -5.835   1.115  11.275  1.00  0.00    -0.646 OA
BRANCH  32  34
HETATM   34  O4  UNL     1      -5.500   2.781   9.829  1.00  0.00    -0.773 OA
HETATM   35  H44 UNL     1      -5.870   2.057   9.284  1.00  0.00     0.167 HD
ENDBRANCH  32  34
ENDBRANCH  30  32
ENDBRANCH  28  29
ENDBRANCH  27  28
ENDBRANCH  25  27
ENDBRANCH   1  25
TORSDOF 6
ENDMDL
MODEL 6
REMARK minimizedAffinity -7.51073408
REMARK CNNscore 0.333668649
REMARK CNNaffinity 6.1404705
REMARK  6 active torsions:
REMARK  status: ('A' for Active; 'I' for Inactive)
REMARK    1  A    between atoms: C2_2  and  C30_32 
REMARK    2  A    between atoms: C3_3  and  C4_4 
REMARK    3  A    between atoms: C4_4  and  C5_5 
REMARK    4  A    between atoms: C5_5  and  C6_6 
REMARK    5  A    between atoms: C6_6  and  C8_8 
REMARK    6  A    between atoms: C30_32  and  O4_34 
ROOT
HETATM    1  C8  UNL     1     -12.810   9.749  23.336  1.00  0.00    -0.002 C 
HETATM    2  C9  UNL     1     -12.977  10.180  24.821  1.00  0.00     0.007 C 
HETATM    3  C10 UNL     1     -13.474   8.944  25.598  1.00  0.00     0.015 C 
HETATM    4  C11 UNL     1     -13.966   7.966  24.514  1.00  0.00    -0.005 C 
HETATM    5  C12 UNL     1     -15.409   8.408  24.113  1.00  0.00     0.021 C 
HETATM    6  C13 UNL     1     -14.090   6.481  24.820  1.00  0.00    -0.000 C 
HETATM    7  C14 UNL     1     -13.929   5.546  23.843  1.00  0.00    -0.060 C 
HETATM    8  C15 UNL     1     -13.540   5.951  22.422  1.00  0.00     0.036 C 
HETATM    9  C16 UNL     1     -13.314   7.454  22.146  1.00  0.00     0.015 C 
HETATM   10  C17 UNL     1     -12.856   8.195  23.410  1.00  0.00    -0.028 C 
HETATM   11  C18 UNL     1     -11.461   7.637  23.825  1.00  0.00     0.016 C 
HETATM   12  C19 UNL     1     -14.177   4.044  24.126  1.00  0.00    -0.014 C 
HETATM   13  C20 UNL     1     -15.710   3.855  23.981  1.00  0.00     0.020 C 
HETATM   14  C21 UNL     1     -13.506   3.040  23.140  1.00  0.00     0.021 C 
HETATM   15  C22 UNL     1     -12.145   2.550  23.611  1.00  0.00     0.080 C 
HETATM   16  C23 UNL     1     -12.320   1.763  24.895  1.00  0.00     0.135 C 
HETATM   17  O1  UNL     1     -11.688   0.721  25.077  1.00  0.00    -0.297 OA
HETATM   18  C24 UNL     1     -13.297   2.324  25.947  1.00  0.00     0.018 C 
HETATM   19  C25 UNL     1     -14.523   1.405  26.001  1.00  0.00     0.023 C 
HETATM   20  C26 UNL     1     -12.583   2.258  27.315  1.00  0.00     0.023 C 
HETATM   21  C27 UNL     1     -13.610   3.807  25.571  1.00  0.00     0.020 C 
HETATM   22  C28 UNL     1     -14.425   4.600  26.594  1.00  0.00     0.090 C 
HETATM   23  C29 UNL     1     -14.511   6.064  26.202  1.00  0.00     0.157 C 
HETATM   24  O2  UNL     1     -14.941   6.888  27.009  1.00  0.00    -0.293 OA
ENDROOT
BRANCH   1  25
HETATM   25  C6  UNL     1     -11.703  10.539  22.574  1.00  0.00    -0.014 C 
HETATM   26  C7  UNL     1     -12.169  11.603  21.573  1.00  0.00     0.010 C 
BRANCH  25  27
HETATM   27  C5  UNL     1     -10.657  11.129  23.548  1.00  0.00     0.008 C 
BRANCH  27  28
HETATM   28  C4  UNL     1     -10.194  12.538  23.159  1.00  0.00     0.028 C 
BRANCH  28  29
HETATM   29  C3  UNL     1      -8.696  12.658  23.236  1.00  0.00    -0.013 C 
HETATM   30  C2  UNL     1      -7.835  13.036  22.271  1.00  0.00     0.008 C 
HETATM   31  C1  UNL     1      -6.366  13.192  22.543  1.00  0.00     0.055 C 
BRANCH  30  32
HETATM   32  C30 UNL     1      -8.215  13.352  20.875  1.00  0.00     0.171 C 
HETATM   33  O3  UNL     1      -9.134  12.835  20.263  1.00  0.00    -0.646 OA
BRANCH  32  34
HETATM   34  O4  UNL     1      -7.506  14.358  20.342  1.00  0.00    -0.773 OA
HETATM   35  H44 UNL     1      -7.899  14.470  19.453  1.00  0.00     0.167 HD
ENDBRANCH  32  34
ENDBRANCH  30  32
ENDBRANCH  28  29
ENDBRANCH  27  28
ENDBRANCH  25  27
ENDBRANCH   1  25
TORSDOF 6
ENDMDL
MODEL 7
REMARK minimizedAffinity -9.04495716
REMARK CNNscore 0.306443959
REMARK CNNaffinity 6.68920469
REMARK  6 active torsions:
REMARK  status: ('A' for Active; 'I' for Inactive)
REMARK    1  A    between atoms: C2_2  and  C30_32 
REMARK    2  A    between atoms: C3_3  and  C4_4 
REMARK    3  A    between atoms: C4_4  and  C5_5 
REMARK    4  A    between atoms: C5_5  and  C6_6 
REMARK    5  A    between atoms: C6_6  and  C8_8 
REMARK    6  A    between atoms: C30_32  and  O4_34 
ROOT
HETATM    1  C8  UNL     1      -5.466   6.944  14.886  1.00  0.00    -0.002 C 
HETATM    2  C9  UNL     1      -5.748   8.356  14.300  1.00  0.00     0.007 C 
HETATM    3  C10 UNL     1      -4.412   8.894  13.748  1.00  0.00     0.015 C 
HETATM    4  C11 UNL     1      -3.333   7.990  14.374  1.00  0.00    -0.005 C 
HETATM    5  C12 UNL     1      -3.059   8.526  15.815  1.00  0.00     0.021 C 
HETATM    6  C13 UNL     1      -1.956   7.883  13.735  1.00  0.00    -0.000 C 
HETATM    7  C14 UNL     1      -1.217   6.745  13.843  1.00  0.00    -0.060 C 
HETATM    8  C15 UNL     1      -1.777   5.506  14.540  1.00  0.00     0.036 C 
HETATM    9  C16 UNL     1      -3.216   5.589  15.095  1.00  0.00     0.015 C 
HETATM   10  C17 UNL     1      -4.067   6.590  14.300  1.00  0.00    -0.028 C 
HETATM   11  C18 UNL     1      -4.216   6.057  12.843  1.00  0.00     0.016 C 
HETATM   12  C19 UNL     1       0.232   6.679  13.300  1.00  0.00    -0.014 C 
HETATM   13  C20 UNL     1       1.109   7.291  14.423  1.00  0.00     0.020 C 
HETATM   14  C21 UNL     1       0.795   5.251  13.019  1.00  0.00     0.021 C 
HETATM   15  C22 UNL     1       0.603   4.801  11.579  1.00  0.00     0.080 C 
HETATM   16  C23 UNL     1       1.399   5.712  10.665  1.00  0.00     0.135 C 
HETATM   17  O1  UNL     1       2.030   5.243   9.716  1.00  0.00    -0.297 OA
HETATM   18  C24 UNL     1       1.372   7.223  10.964  1.00  0.00     0.018 C 
HETATM   19  C25 UNL     1       2.755   7.635  11.479  1.00  0.00     0.023 C 
HETATM   20  C26 UNL     1       1.117   7.951   9.627  1.00  0.00     0.023 C 
HETATM   21  C27 UNL     1       0.199   7.496  11.960  1.00  0.00     0.020 C 
HETATM   22  C28 UNL     1      -0.110   8.966  12.246  1.00  0.00     0.090 C 
HETATM   23  C29 UNL     1      -1.372   9.104  13.078  1.00  0.00     0.157 C 
HETATM   24  O2  UNL     1      -1.889  10.210  13.224  1.00  0.00    -0.293 OA
ENDROOT
BRANCH   1  25
HETATM   25  C6  UNL     1      -6.690   5.981  14.822  1.00  0.00    -0.014 C 
HETATM   26  C7  UNL     1      -7.274   5.508  16.158  1.00  0.00     0.010 C 
BRANCH  25  27
HETATM   27  C5  UNL     1      -7.804   6.543  13.909  1.00  0.00     0.008 C 
BRANCH  27  28
HETATM   28  C4  UNL     1      -9.002   7.099  14.687  1.00  0.00     0.028 C 
BRANCH  28  29
HETATM   29  C3  UNL     1     -10.283   6.906  13.922  1.00  0.00    -0.013 C 
HETATM   30  C2  UNL     1     -11.289   7.784  13.736  1.00  0.00     0.008 C 
HETATM   31  C1  UNL     1     -12.466   7.460  12.861  1.00  0.00     0.055 C 
BRANCH  30  32
HETATM   32  C30 UNL     1     -11.351   9.137  14.334  1.00  0.00     0.171 C 
HETATM   33  O3  UNL     1     -11.462   9.375  15.525  1.00  0.00    -0.646 OA
BRANCH  32  34
HETATM   34  O4  UNL     1     -11.173  10.125  13.443  1.00  0.00    -0.773 OA
HETATM   35  H44 UNL     1     -11.198  10.935  13.991  1.00  0.00     0.167 HD
ENDBRANCH  32  34
ENDBRANCH  30  32
ENDBRANCH  28  29
ENDBRANCH  27  28
ENDBRANCH  25  27
ENDBRANCH   1  25
TORSDOF 6
ENDMDL
MODEL 8
REMARK minimizedAffinity -7.05678129
REMARK CNNscore 0.297346145
REMARK CNNaffinity 6.00372362
REMARK  6 active torsions:
REMARK  status: ('A' for Active; 'I' for Inactive)
REMARK    1  A    between atoms: C2_2  and  C30_32 
REMARK    2  A    between atoms: C3_3  and  C4_4 
REMARK    3  A    between atoms: C4_4  and  C5_5 
REMARK    4  A    between atoms: C5_5  and  C6_6 
REMARK    5  A    between atoms: C6_6  and  C8_8 
REMARK    6  A    between atoms: C30_32  and  O4_34 
ROOT
HETATM    1  C8  UNL     1      12.497  -6.198   6.852  1.00  0.00    -0.002 C 
HETATM    2  C9  UNL     1      13.444  -7.406   7.102  1.00  0.00     0.007 C 
HETATM    3  C10 UNL     1      14.199  -7.671   5.784  1.00  0.00     0.015 C 
HETATM    4  C11 UNL     1      13.404  -6.904   4.711  1.00  0.00    -0.005 C 
HETATM    5  C12 UNL     1      12.192  -7.801   4.303  1.00  0.00     0.021 C 
HETATM    6  C13 UNL     1      14.061  -6.525   3.392  1.00  0.00    -0.000 C 
HETATM    7  C14 UNL     1      13.676  -5.412   2.708  1.00  0.00    -0.060 C 
HETATM    8  C15 UNL     1      12.625  -4.462   3.280  1.00  0.00     0.036 C 
HETATM    9  C16 UNL     1      12.038  -4.799   4.667  1.00  0.00     0.015 C 
HETATM   10  C17 UNL     1      13.036  -5.595   5.521  1.00  0.00    -0.028 C 
HETATM   11  C18 UNL     1      14.270  -4.687   5.805  1.00  0.00     0.016 C 
HETATM   12  C19 UNL     1      14.257  -5.094   1.309  1.00  0.00    -0.014 C 
HETATM   13  C20 UNL     1      13.406  -5.932   0.320  1.00  0.00     0.020 C 
HETATM   14  C21 UNL     1      14.152  -3.608   0.844  1.00  0.00     0.021 C 
HETATM   15  C22 UNL     1      15.391  -2.788   1.165  1.00  0.00     0.080 C 
HETATM   16  C23 UNL     1      16.570  -3.346   0.392  1.00  0.00     0.135 C 
HETATM   17  O1  UNL     1      17.380  -2.587  -0.142  1.00  0.00    -0.297 OA
HETATM   18  C24 UNL     1      16.711  -4.879   0.317  1.00  0.00     0.018 C 
HETATM   19  C25 UNL     1      16.413  -5.319  -1.120  1.00  0.00     0.023 C 
HETATM   20  C26 UNL     1      18.184  -5.219   0.631  1.00  0.00     0.023 C 
HETATM   21  C27 UNL     1      15.771  -5.502   1.398  1.00  0.00     0.020 C 
HETATM   22  C28 UNL     1      15.898  -7.012   1.607  1.00  0.00     0.090 C 
HETATM   23  C29 UNL     1      15.070  -7.467   2.794  1.00  0.00     0.157 C 
HETATM   24  O2  UNL     1      15.216  -8.604   3.241  1.00  0.00    -0.293 OA
ENDROOT
BRANCH   1  25
HETATM   25  C6  UNL     1      12.216  -5.346   8.126  1.00  0.00    -0.014 C 
HETATM   26  C7  UNL     1      11.774  -6.102   9.386  1.00  0.00     0.010 C 
BRANCH  25  27
HETATM   27  C5  UNL     1      13.396  -4.400   8.446  1.00  0.00     0.008 C 
BRANCH  27  28
HETATM   28  C4  UNL     1      14.557  -5.098   9.164  1.00  0.00     0.028 C 
BRANCH  28  29
HETATM   29  C3  UNL     1      15.656  -4.125   9.492  1.00  0.00    -0.013 C 
HETATM   30  C2  UNL     1      16.939  -4.386   9.811  1.00  0.00     0.008 C 
HETATM   31  C1  UNL     1      17.939  -3.285  10.023  1.00  0.00     0.055 C 
BRANCH  30  32
HETATM   32  C30 UNL     1      17.512  -5.742   9.969  1.00  0.00     0.171 C 
HETATM   33  O3  UNL     1      18.239  -6.296   9.162  1.00  0.00    -0.646 OA
BRANCH  32  34
HETATM   34  O4  UNL     1      17.240  -6.304  11.158  1.00  0.00    -0.773 OA
HETATM   35  H44 UNL     1      17.716  -7.158  11.121  1.00  0.00     0.167 HD
ENDBRANCH  32  34
ENDBRANCH  30  32
ENDBRANCH  28  29
ENDBRANCH  27  28
ENDBRANCH  25  27
ENDBRANCH   1  25
TORSDOF 6
ENDMDL
MODEL 9
REMARK minimizedAffinity -6.89663363
REMARK CNNscore 0.283311158
REMARK CNNaffinity 6.26577711
REMARK  6 active torsions:
REMARK  status: ('A' for Active; 'I' for Inactive)
REMARK    1  A    between atoms: C2_2  and  C30_32 
REMARK    2  A    between atoms: C3_3  and  C4_4 
REMARK    3  A    between atoms: C4_4  and  C5_5 
REMARK    4  A    between atoms: C5_5  and  C6_6 
REMARK    5  A    between atoms: C6_6  and  C8_8 
REMARK    6  A    between atoms: C30_32  and  O4_34 
ROOT
HETATM    1  C8  UNL     1     -13.324   9.666  23.396  1.00  0.00    -0.002 C 
HETATM    2  C9  UNL     1     -13.483  10.071  24.889  1.00  0.00     0.007 C 
HETATM    3  C10 UNL     1     -13.869   8.795  25.666  1.00  0.00     0.015 C 
HETATM    4  C11 UNL     1     -14.317   7.793  24.585  1.00  0.00    -0.005 C 
HETATM    5  C12 UNL     1     -15.798   8.133  24.225  1.00  0.00     0.021 C 
HETATM    6  C13 UNL     1     -14.325   6.301  24.878  1.00  0.00    -0.000 C 
HETATM    7  C14 UNL     1     -14.122   5.388  23.888  1.00  0.00    -0.060 C 
HETATM    8  C15 UNL     1     -13.801   5.833  22.462  1.00  0.00     0.036 C 
HETATM    9  C16 UNL     1     -13.692   7.350  22.195  1.00  0.00     0.015 C 
HETATM   10  C17 UNL     1     -13.255   8.111  23.455  1.00  0.00    -0.028 C 
HETATM   11  C18 UNL     1     -11.813   7.653  23.829  1.00  0.00     0.016 C 
HETATM   12  C19 UNL     1     -14.253   3.870  24.161  1.00  0.00    -0.014 C 
HETATM   13  C20 UNL     1     -15.771   3.571  24.053  1.00  0.00     0.020 C 
HETATM   14  C21 UNL     1     -13.537   2.925  23.147  1.00  0.00     0.021 C 
HETATM   15  C22 UNL     1     -12.133   2.532  23.579  1.00  0.00     0.080 C 
HETATM   16  C23 UNL     1     -12.217   1.723  24.859  1.00  0.00     0.135 C 
HETATM   17  O1  UNL     1     -11.507   0.728  25.014  1.00  0.00    -0.297 OA
HETATM   18  C24 UNL     1     -13.204   2.202  25.941  1.00  0.00     0.018 C 
HETATM   19  C25 UNL     1     -14.358   1.197  26.016  1.00  0.00     0.023 C 
HETATM   20  C26 UNL     1     -12.452   2.177  27.290  1.00  0.00     0.023 C 
HETATM   21  C27 UNL     1     -13.633   3.662  25.589  1.00  0.00     0.020 C 
HETATM   22  C28 UNL     1     -14.477   4.385  26.641  1.00  0.00     0.090 C 
HETATM   23  C29 UNL     1     -14.678   5.842  26.266  1.00  0.00     0.157 C 
HETATM   24  O2  UNL     1     -15.146   6.625  27.092  1.00  0.00    -0.293 OA
ENDROOT
BRANCH   1  25
HETATM   25  C6  UNL     1     -12.297  10.540  22.615  1.00  0.00    -0.014 C 
HETATM   26  C7  UNL     1     -10.829  10.446  23.049  1.00  0.00     0.010 C 
BRANCH  25  27
HETATM   27  C5  UNL     1     -12.427  10.336  21.088  1.00  0.00     0.008 C 
BRANCH  27  28
HETATM   28  C4  UNL     1     -11.098   9.986  20.408  1.00  0.00     0.028 C 
BRANCH  28  29
HETATM   29  C3  UNL     1     -11.323   9.456  19.018  1.00  0.00    -0.013 C 
HETATM   30  C2  UNL     1     -11.063  10.056  17.840  1.00  0.00     0.008 C 
HETATM   31  C1  UNL     1     -11.263   9.345  16.532  1.00  0.00     0.055 C 
BRANCH  30  32
HETATM   32  C30 UNL     1     -10.546  11.436  17.689  1.00  0.00     0.171 C 
HETATM   33  O3  UNL     1     -10.181  11.938  16.640  1.00  0.00    -0.646 OA
BRANCH  32  34
HETATM   34  O4  UNL     1     -10.603  12.156  18.820  1.00  0.00    -0.773 OA
HETATM   35  H44 UNL     1     -10.274  13.036  18.547  1.00  0.00     0.167 HD
ENDBRANCH  32  34
ENDBRANCH  30  32
ENDBRANCH  28  29
ENDBRANCH  27  28
ENDBRANCH  25  27
ENDBRANCH   1  25
TORSDOF 6
ENDMDL
