MODEL 1
REMARK minimizedAffinity -8.37244892
REMARK CNNscore 0.730633378
REMARK CNNaffinity 7.22633553
REMARK  8 active torsions:
REMARK  status: ('A' for Active; 'I' for Inactive)
REMARK    1  A    between atoms: C2_2  and  C3_3 
REMARK    2  A    between atoms: C2_2  and  C29_30 
REMARK    3  A    between atoms: C3_3  and  C4_4 
REMARK    4  A    between atoms: C4_4  and  C5_5 
REMARK    5  A    between atoms: C5_5  and  C7_7 
REMARK    6  A    between atoms: C29_30  and  C31_32 
REMARK    7  A    between atoms: C31_32  and  O2_33 
REMARK    8  A    between atoms: O2_33  and  C32_34 
ROOT
HETATM    1  C7  UNL     1      -1.907  10.067  17.820  1.00  0.00    -0.002 C 
HETATM    2  C8  UNL     1      -3.365  10.393  18.167  1.00  0.00     0.006 C 
HETATM    3  C9  UNL     1      -4.052  10.695  16.850  1.00  0.00     0.011 C 
HETATM    4  C10 UNL     1      -3.384   9.800  15.768  1.00  0.00    -0.032 C 
HETATM    5  C11 UNL     1      -3.159  10.688  14.523  1.00  0.00     0.016 C 
HETATM    6  C12 UNL     1      -4.346   8.593  15.426  1.00  0.00     0.004 C 
HETATM    7  C13 UNL     1      -5.616   8.973  14.645  1.00  0.00     0.007 C 
HETATM    8  C14 UNL     1      -6.486   7.738  14.446  1.00  0.00     0.007 C 
HETATM    9  C15 UNL     1      -5.842   6.700  13.501  1.00  0.00     0.010 C 
HETATM   10  C16 UNL     1      -6.698   5.387  13.401  1.00  0.00     0.018 C 
HETATM   11  C17 UNL     1      -8.031   5.687  12.675  1.00  0.00     0.023 C 
HETATM   12  C18 UNL     1      -7.034   4.765  14.769  1.00  0.00     0.023 C 
HETATM   13  C19 UNL     1      -5.968   4.320  12.569  1.00  0.00     0.135 C 
HETATM   14  O1  UNL     1      -6.579   3.424  11.978  1.00  0.00    -0.297 OA
HETATM   15  C20 UNL     1      -4.467   4.375  12.479  1.00  0.00     0.080 C 
HETATM   16  C21 UNL     1      -3.889   5.017  13.722  1.00  0.00     0.018 C 
HETATM   17  C22 UNL     1      -4.349   6.458  13.837  1.00  0.00    -0.026 A 
HETATM   18  C23 UNL     1      -3.370   7.467  13.266  1.00  0.00     0.021 A 
HETATM   19  C24 UNL     1      -3.590   7.441  14.762  1.00  0.00    -0.027 A 
HETATM   20  C25 UNL     1      -2.471   6.883  15.625  1.00  0.00     0.011 C 
HETATM   21  C26 UNL     1      -2.139   7.783  16.810  1.00  0.00     0.011 C 
HETATM   22  C27 UNL     1      -2.020   9.301  16.445  1.00  0.00    -0.032 C 
HETATM   23  C28 UNL     1      -0.787   9.432  15.532  1.00  0.00     0.016 C 
ENDROOT
BRANCH   1  24
HETATM   24  C5  UNL     1      -0.949  11.283  18.035  1.00  0.00    -0.014 C 
HETATM   25  C6  UNL     1      -0.600  12.117  16.803  1.00  0.00     0.010 C 
BRANCH  24  26
HETATM   26  C4  UNL     1       0.249  10.913  18.958  1.00  0.00     0.009 C 
BRANCH  26  27
HETATM   27  C3  UNL     1       1.584  11.616  18.679  1.00  0.00     0.034 C 
BRANCH  27  28
HETATM   28  C2  UNL     1       2.361  11.917  19.952  1.00  0.00    -0.083 C 
HETATM   29  C1  UNL     1       1.806  12.698  20.898  1.00  0.00     0.015 C 
BRANCH  28  30
HETATM   30  C29 UNL     1       3.754  11.290  20.079  1.00  0.00     0.034 C 
HETATM   31  C30 UNL     1       4.869  12.319  20.314  1.00  0.00     0.017 C 
BRANCH  30  32
HETATM   32  C31 UNL     1       3.802  10.221  21.191  1.00  0.00     0.187 C 
BRANCH  32  33
HETATM   33  O2  UNL     1       2.700   9.298  21.106  1.00  0.00    -0.321 OA
BRANCH  33  34
HETATM   34  C32 UNL     1       2.335   8.707  22.275  1.00  0.00     0.254 C 
HETATM   35  C33 UNL     1       2.959   9.428  23.429  1.00  0.00     0.126 C 
HETATM   36  O3  UNL     1       1.609   7.729  22.382  1.00  0.00    -0.266 OA
ENDBRANCH  33  34
ENDBRANCH  32  33
ENDBRANCH  30  32
ENDBRANCH  28  30
ENDBRANCH  27  28
ENDBRANCH  26  27
ENDBRANCH  24  26
ENDBRANCH   1  24
TORSDOF 8
ENDMDL
MODEL 2
REMARK minimizedAffinity -6.86336374
REMARK CNNscore 0.479201555
REMARK CNNaffinity 6.49274588
REMARK  8 active torsions:
REMARK  status: ('A' for Active; 'I' for Inactive)
REMARK    1  A    between atoms: C2_2  and  C3_3 
REMARK    2  A    between atoms: C2_2  and  C29_30 
REMARK    3  A    between atoms: C3_3  and  C4_4 
REMARK    4  A    between atoms: C4_4  and  C5_5 
REMARK    5  A    between atoms: C5_5  and  C7_7 
REMARK    6  A    between atoms: C29_30  and  C31_32 
REMARK    7  A    between atoms: C31_32  and  O2_33 
REMARK    8  A    between atoms: O2_33  and  C32_34 
ROOT
HETATM    1  C7  UNL     1     -13.385   6.031  23.383  1.00  0.00    -0.002 C 
HETATM    2  C8  UNL     1     -13.668   6.330  21.905  1.00  0.00     0.006 C 
HETATM    3  C9  UNL     1     -14.436   7.637  21.881  1.00  0.00     0.011 C 
HETATM    4  C10 UNL     1     -13.913   8.498  23.067  1.00  0.00    -0.032 C 
HETATM    5  C11 UNL     1     -15.151   9.126  23.749  1.00  0.00     0.016 C 
HETATM    6  C12 UNL     1     -12.953   9.623  22.508  1.00  0.00     0.004 C 
HETATM    7  C13 UNL     1     -13.652  10.740  21.714  1.00  0.00     0.007 C 
HETATM    8  C14 UNL     1     -12.612  11.714  21.172  1.00  0.00     0.007 C 
HETATM    9  C15 UNL     1     -11.911  12.520  22.288  1.00  0.00     0.010 C 
HETATM   10  C16 UNL     1     -10.764  13.431  21.722  1.00  0.00     0.018 C 
HETATM   11  C17 UNL     1     -11.373  14.558  20.855  1.00  0.00     0.023 C 
HETATM   12  C18 UNL     1      -9.743  12.668  20.856  1.00  0.00     0.023 C 
HETATM   13  C19 UNL     1      -9.992  14.113  22.863  1.00  0.00     0.135 C 
HETATM   14  O1  UNL     1      -9.387  15.176  22.695  1.00  0.00    -0.297 OA
HETATM   15  C20 UNL     1      -9.980  13.460  24.219  1.00  0.00     0.080 C 
HETATM   16  C21 UNL     1     -10.131  11.961  24.081  1.00  0.00     0.018 C 
HETATM   17  C22 UNL     1     -11.477  11.618  23.470  1.00  0.00    -0.026 A 
HETATM   18  C23 UNL     1     -12.555  11.297  24.488  1.00  0.00     0.021 A 
HETATM   19  C24 UNL     1     -12.044  10.183  23.603  1.00  0.00    -0.027 A 
HETATM   20  C25 UNL     1     -11.160   9.127  24.245  1.00  0.00     0.011 C 
HETATM   21  C26 UNL     1     -11.590   7.707  23.891  1.00  0.00     0.011 C 
HETATM   22  C27 UNL     1     -13.132   7.459  24.004  1.00  0.00    -0.032 C 
HETATM   23  C28 UNL     1     -13.483   7.584  25.498  1.00  0.00     0.016 C 
ENDROOT
BRANCH   1  24
HETATM   24  C5  UNL     1     -14.397   5.009  23.996  1.00  0.00    -0.014 C 
HETATM   25  C6  UNL     1     -14.922   5.311  25.398  1.00  0.00     0.010 C 
BRANCH  24  26
HETATM   26  C4  UNL     1     -13.947   3.539  23.749  1.00  0.00     0.009 C 
BRANCH  26  27
HETATM   27  C3  UNL     1     -12.471   3.210  24.007  1.00  0.00     0.034 C 
BRANCH  27  28
HETATM   28  C2  UNL     1     -12.292   2.122  25.055  1.00  0.00    -0.083 C 
HETATM   29  C1  UNL     1     -11.420   1.121  24.829  1.00  0.00     0.015 C 
BRANCH  28  30
HETATM   30  C29 UNL     1     -13.129   2.245  26.333  1.00  0.00     0.034 C 
HETATM   31  C30 UNL     1     -14.378   1.352  26.334  1.00  0.00     0.017 C 
BRANCH  30  32
HETATM   32  C31 UNL     1     -12.292   1.955  27.597  1.00  0.00     0.187 C 
BRANCH  32  33
HETATM   33  O2  UNL     1     -12.506   2.937  28.627  1.00  0.00    -0.321 OA
BRANCH  33  34
HETATM   34  C32 UNL     1     -13.140   2.490  29.745  1.00  0.00     0.254 C 
HETATM   35  C33 UNL     1     -12.270   2.701  30.945  1.00  0.00     0.126 C 
HETATM   36  O3  UNL     1     -14.254   1.986  29.778  1.00  0.00    -0.266 OA
ENDBRANCH  33  34
ENDBRANCH  32  33
ENDBRANCH  30  32
ENDBRANCH  28  30
ENDBRANCH  27  28
ENDBRANCH  26  27
ENDBRANCH  24  26
ENDBRANCH   1  24
TORSDOF 8
ENDMDL
MODEL 3
REMARK minimizedAffinity -8.26431274
REMARK CNNscore 0.465589732
REMARK CNNaffinity 7.14068174
REMARK  8 active torsions:
REMARK  status: ('A' for Active; 'I' for Inactive)
REMARK    1  A    between atoms: C2_2  and  C3_3 
REMARK    2  A    between atoms: C2_2  and  C29_30 
REMARK    3  A    between atoms: C3_3  and  C4_4 
REMARK    4  A    between atoms: C4_4  and  C5_5 
REMARK    5  A    between atoms: C5_5  and  C7_7 
REMARK    6  A    between atoms: C29_30  and  C31_32 
REMARK    7  A    between atoms: C31_32  and  O2_33 
REMARK    8  A    between atoms: O2_33  and  C32_34 
ROOT
HETATM    1  C7  UNL     1      -5.522   7.004  14.205  1.00  0.00    -0.002 C 
HETATM    2  C8  UNL     1      -5.434   8.346  13.466  1.00  0.00     0.006 C 
HETATM    3  C9  UNL     1      -4.109   8.961  13.870  1.00  0.00     0.011 C 
HETATM    4  C10 UNL     1      -3.108   7.791  14.088  1.00  0.00    -0.032 C 
HETATM    5  C11 UNL     1      -2.324   8.104  15.384  1.00  0.00     0.016 C 
HETATM    6  C12 UNL     1      -2.128   7.709  12.850  1.00  0.00     0.004 C 
HETATM    7  C13 UNL     1      -1.109   8.856  12.747  1.00  0.00     0.007 C 
HETATM    8  C14 UNL     1      -0.280   8.697  11.478  1.00  0.00     0.007 C 
HETATM    9  C15 UNL     1       0.647   7.463  11.522  1.00  0.00     0.010 C 
HETATM   10  C16 UNL     1       1.405   7.249  10.164  1.00  0.00     0.018 C 
HETATM   11  C17 UNL     1       2.419   8.397   9.945  1.00  0.00     0.023 C 
HETATM   12  C18 UNL     1       0.471   7.204   8.939  1.00  0.00     0.023 C 
HETATM   13  C19 UNL     1       2.211   5.941  10.186  1.00  0.00     0.135 C 
HETATM   14  O1  UNL     1       3.205   5.776   9.472  1.00  0.00    -0.297 OA
HETATM   15  C20 UNL     1       1.769   4.834  11.106  1.00  0.00     0.080 C 
HETATM   16  C21 UNL     1       0.275   4.909  11.336  1.00  0.00     0.018 C 
HETATM   17  C22 UNL     1      -0.088   6.203  12.042  1.00  0.00    -0.026 A 
HETATM   18  C23 UNL     1      -0.198   6.075  13.550  1.00  0.00     0.021 A 
HETATM   19  C24 UNL     1      -1.456   6.338  12.754  1.00  0.00    -0.027 A 
HETATM   20  C25 UNL     1      -2.447   5.194  12.611  1.00  0.00     0.011 C 
HETATM   21  C26 UNL     1      -3.881   5.619  12.912  1.00  0.00     0.011 C 
HETATM   22  C27 UNL     1      -4.032   6.487  14.206  1.00  0.00    -0.032 C 
HETATM   23  C28 UNL     1      -3.667   5.571  15.388  1.00  0.00     0.016 C 
ENDROOT
BRANCH   1  24
HETATM   24  C5  UNL     1      -6.389   7.087  15.504  1.00  0.00    -0.014 C 
HETATM   25  C6  UNL     1      -6.944   5.773  16.051  1.00  0.00     0.010 C 
BRANCH  24  26
HETATM   26  C4  UNL     1      -7.399   8.270  15.445  1.00  0.00     0.009 C 
BRANCH  26  27
HETATM   27  C3  UNL     1      -8.863   7.921  15.146  1.00  0.00     0.034 C 
BRANCH  27  28
HETATM   28  C2  UNL     1      -9.747   9.155  15.045  1.00  0.00    -0.083 C 
HETATM   29  C1  UNL     1      -9.255  10.355  15.405  1.00  0.00     0.015 C 
BRANCH  28  30
HETATM   30  C29 UNL     1     -11.171   8.945  14.518  1.00  0.00     0.034 C 
HETATM   31  C30 UNL     1     -11.701  10.131  13.699  1.00  0.00     0.017 C 
BRANCH  30  32
HETATM   32  C31 UNL     1     -11.288   7.653  13.681  1.00  0.00     0.187 C 
BRANCH  32  33
HETATM   33  O2  UNL     1     -12.406   7.693  12.775  1.00  0.00    -0.321 OA
BRANCH  33  34
HETATM   34  C32 UNL     1     -13.482   6.942  13.133  1.00  0.00     0.254 C 
HETATM   35  C33 UNL     1     -13.125   6.053  14.284  1.00  0.00     0.126 C 
HETATM   36  O3  UNL     1     -14.583   6.974  12.601  1.00  0.00    -0.266 OA
ENDBRANCH  33  34
ENDBRANCH  32  33
ENDBRANCH  30  32
ENDBRANCH  28  30
ENDBRANCH  27  28
ENDBRANCH  26  27
ENDBRANCH  24  26
ENDBRANCH   1  24
TORSDOF 8
ENDMDL
MODEL 4
REMARK minimizedAffinity -9.14830494
REMARK CNNscore 0.442111194
REMARK CNNaffinity 7.33877897
REMARK  8 active torsions:
REMARK  status: ('A' for Active; 'I' for Inactive)
REMARK    1  A    between atoms: C2_2  and  C3_3 
REMARK    2  A    between atoms: C2_2  and  C29_30 
REMARK    3  A    between atoms: C3_3  and  C4_4 
REMARK    4  A    between atoms: C4_4  and  C5_5 
REMARK    5  A    between atoms: C5_5  and  C7_7 
REMARK    6  A    between atoms: C29_30  and  C31_32 
REMARK    7  A    between atoms: C31_32  and  O2_33 
REMARK    8  A    between atoms: O2_33  and  C32_34 
ROOT
HETATM    1  C7  UNL     1      -0.276   7.755  12.373  1.00  0.00    -0.002 C 
HETATM    2  C8  UNL     1      -0.500   6.565  11.432  1.00  0.00     0.006 C 
HETATM    3  C9  UNL     1      -1.073   5.454  12.289  1.00  0.00     0.011 C 
HETATM    4  C10 UNL     1      -1.942   6.127  13.390  1.00  0.00    -0.032 C 
HETATM    5  C11 UNL     1      -1.619   5.408  14.721  1.00  0.00     0.016 C 
HETATM    6  C12 UNL     1      -3.469   5.958  13.021  1.00  0.00     0.004 C 
HETATM    7  C13 UNL     1      -4.017   4.526  13.150  1.00  0.00     0.007 C 
HETATM    8  C14 UNL     1      -5.472   4.488  12.697  1.00  0.00     0.007 C 
HETATM    9  C15 UNL     1      -6.412   5.265  13.644  1.00  0.00     0.010 C 
HETATM   10  C16 UNL     1      -7.884   5.313  13.100  1.00  0.00     0.018 C 
HETATM   11  C17 UNL     1      -8.502   3.895  13.138  1.00  0.00     0.023 C 
HETATM   12  C18 UNL     1      -7.989   5.836  11.655  1.00  0.00     0.023 C 
HETATM   13  C19 UNL     1      -8.767   6.208  13.986  1.00  0.00     0.135 C 
HETATM   14  O1  UNL     1      -9.990   6.055  14.052  1.00  0.00    -0.297 OA
HETATM   15  C20 UNL     1      -8.113   7.298  14.791  1.00  0.00     0.080 C 
HETATM   16  C21 UNL     1      -6.851   7.773  14.104  1.00  0.00     0.018 C 
HETATM   17  C22 UNL     1      -5.834   6.650  14.028  1.00  0.00    -0.026 A 
HETATM   18  C23 UNL     1      -4.821   6.654  15.159  1.00  0.00     0.021 A 
HETATM   19  C24 UNL     1      -4.343   6.972  13.761  1.00  0.00    -0.027 A 
HETATM   20  C25 UNL     1      -3.972   8.415  13.458  1.00  0.00     0.011 C 
HETATM   21  C26 UNL     1      -2.628   8.538  12.747  1.00  0.00     0.011 C 
HETATM   22  C27 UNL     1      -1.491   7.664  13.375  1.00  0.00    -0.032 C 
HETATM   23  C28 UNL     1      -1.218   8.247  14.774  1.00  0.00     0.016 C 
ENDROOT
BRANCH   1  24
HETATM   24  C5  UNL     1       1.208   7.876  12.851  1.00  0.00    -0.014 C 
HETATM   25  C6  UNL     1       1.819   9.275  12.868  1.00  0.00     0.010 C 
BRANCH  24  26
HETATM   26  C4  UNL     1       2.101   6.759  12.236  1.00  0.00     0.009 C 
BRANCH  26  27
HETATM   27  C3  UNL     1       3.598   7.066  12.093  1.00  0.00     0.034 C 
BRANCH  27  28
HETATM   28  C2  UNL     1       3.982   7.449  10.672  1.00  0.00    -0.083 C 
HETATM   29  C1  UNL     1       4.637   8.603  10.450  1.00  0.00     0.015 C 
BRANCH  28  30
HETATM   30  C29 UNL     1       3.596   6.465   9.561  1.00  0.00     0.034 C 
HETATM   31  C30 UNL     1       4.079   5.031   9.820  1.00  0.00     0.017 C 
BRANCH  30  32
HETATM   32  C31 UNL     1       2.073   6.453   9.310  1.00  0.00     0.187 C 
BRANCH  32  33
HETATM   33  O2  UNL     1       1.612   7.678   8.710  1.00  0.00    -0.321 OA
BRANCH  33  34
HETATM   34  C32 UNL     1       2.248   8.050   7.566  1.00  0.00     0.254 C 
HETATM   35  C33 UNL     1       1.820   7.168   6.434  1.00  0.00     0.126 C 
HETATM   36  O3  UNL     1       3.054   8.964   7.464  1.00  0.00    -0.266 OA
ENDBRANCH  33  34
ENDBRANCH  32  33
ENDBRANCH  30  32
ENDBRANCH  28  30
ENDBRANCH  27  28
ENDBRANCH  26  27
ENDBRANCH  24  26
ENDBRANCH   1  24
TORSDOF 8
ENDMDL
MODEL 5
REMARK minimizedAffinity -6.66431904
REMARK CNNscore 0.440874636
REMARK CNNaffinity 6.73364782
REMARK  8 active torsions:
REMARK  status: ('A' for Active; 'I' for Inactive)
REMARK    1  A    between atoms: C2_2  and  C3_3 
REMARK    2  A    between atoms: C2_2  and  C29_30 
REMARK    3  A    between atoms: C3_3  and  C4_4 
REMARK    4  A    between atoms: C4_4  and  C5_5 
REMARK    5  A    between atoms: C5_5  and  C7_7 
REMARK    6  A    between atoms: C29_30  and  C31_32 
REMARK    7  A    between atoms: C31_32  and  O2_33 
REMARK    8  A    between atoms: O2_33  and  C32_34 
ROOT
HETATM    1  C7  UNL     1      -0.023  11.952  18.392  1.00  0.00    -0.002 C 
HETATM    2  C8  UNL     1      -1.478  12.031  18.870  1.00  0.00     0.006 C 
HETATM    3  C9  UNL     1      -2.309  12.325  17.637  1.00  0.00     0.011 C 
HETATM    4  C10 UNL     1      -1.614  11.624  16.437  1.00  0.00    -0.032 C 
HETATM    5  C11 UNL     1      -1.623  12.627  15.260  1.00  0.00     0.016 C 
HETATM    6  C12 UNL     1      -2.419  10.316  16.062  1.00  0.00     0.004 C 
HETATM    7  C13 UNL     1      -3.792  10.560  15.411  1.00  0.00     0.007 C 
HETATM    8  C14 UNL     1      -4.491   9.228  15.168  1.00  0.00     0.007 C 
HETATM    9  C15 UNL     1      -3.787   8.371  14.093  1.00  0.00     0.010 C 
HETATM   10  C16 UNL     1      -4.452   6.957  13.941  1.00  0.00     0.018 C 
HETATM   11  C17 UNL     1      -5.871   7.109  13.343  1.00  0.00     0.023 C 
HETATM   12  C18 UNL     1      -4.580   6.191  15.272  1.00  0.00     0.023 C 
HETATM   13  C19 UNL     1      -3.651   6.076  12.970  1.00  0.00     0.135 C 
HETATM   14  O1  UNL     1      -4.175   5.147  12.349  1.00  0.00    -0.297 OA
HETATM   15  C20 UNL     1      -2.186   6.361  12.776  1.00  0.00     0.080 C 
HETATM   16  C21 UNL     1      -1.603   6.986  14.025  1.00  0.00     0.018 C 
HETATM   17  C22 UNL     1      -2.252   8.330  14.298  1.00  0.00    -0.026 A 
HETATM   18  C23 UNL     1      -1.479   9.514  13.747  1.00  0.00     0.021 A 
HETATM   19  C24 UNL     1      -1.566   9.342  15.247  1.00  0.00    -0.027 A 
HETATM   20  C25 UNL     1      -0.310   8.894  15.975  1.00  0.00     0.011 C 
HETATM   21  C26 UNL     1      -0.011   9.742  17.207  1.00  0.00     0.011 C 
HETATM   22  C27 UNL     1      -0.140  11.284  16.968  1.00  0.00    -0.032 C 
HETATM   23  C28 UNL     1       0.980  11.665  15.982  1.00  0.00     0.016 C 
ENDROOT
BRANCH   1  24
HETATM   24  C5  UNL     1       0.767  13.278  18.642  1.00  0.00    -0.014 C 
HETATM   25  C6  UNL     1       0.917  14.229  17.456  1.00  0.00     0.010 C 
BRANCH  24  26
HETATM   26  C4  UNL     1       2.061  13.027  19.470  1.00  0.00     0.009 C 
BRANCH  26  27
HETATM   27  C3  UNL     1       1.897  12.877  20.988  1.00  0.00     0.034 C 
BRANCH  27  28
HETATM   28  C2  UNL     1       2.326  11.505  21.488  1.00  0.00    -0.083 C 
HETATM   29  C1  UNL     1       1.918  10.403  20.832  1.00  0.00     0.015 C 
BRANCH  28  30
HETATM   30  C29 UNL     1       3.225  11.471  22.729  1.00  0.00     0.034 C 
HETATM   31  C30 UNL     1       3.721  10.062  23.085  1.00  0.00     0.017 C 
BRANCH  30  32
HETATM   32  C31 UNL     1       4.436  12.418  22.587  1.00  0.00     0.187 C 
BRANCH  32  33
HETATM   33  O2  UNL     1       5.493  11.835  21.804  1.00  0.00    -0.321 OA
BRANCH  33  34
HETATM   34  C32 UNL     1       6.695  12.467  21.874  1.00  0.00     0.254 C 
HETATM   35  C33 UNL     1       6.671  13.494  22.963  1.00  0.00     0.126 C 
HETATM   36  O3  UNL     1       7.661  12.244  21.157  1.00  0.00    -0.266 OA
ENDBRANCH  33  34
ENDBRANCH  32  33
ENDBRANCH  30  32
ENDBRANCH  28  30
ENDBRANCH  27  28
ENDBRANCH  26  27
ENDBRANCH  24  26
ENDBRANCH   1  24
TORSDOF 8
ENDMDL
MODEL 6
REMARK minimizedAffinity -8.57646942
REMARK CNNscore 0.435741425
REMARK CNNaffinity 7.17564726
REMARK  8 active torsions:
REMARK  status: ('A' for Active; 'I' for Inactive)
REMARK    1  A    between atoms: C2_2  and  C3_3 
REMARK    2  A    between atoms: C2_2  and  C29_30 
REMARK    3  A    between atoms: C3_3  and  C4_4 
REMARK    4  A    between atoms: C4_4  and  C5_5 
REMARK    5  A    between atoms: C5_5  and  C7_7 
REMARK    6  A    between atoms: C29_30  and  C31_32 
REMARK    7  A    between atoms: C31_32  and  O2_33 
REMARK    8  A    between atoms: O2_33  and  C32_34 
ROOT
HETATM    1  C7  UNL     1      -0.128   8.128  15.406  1.00  0.00    -0.002 C 
HETATM    2  C8  UNL     1      -1.168   9.084  16.003  1.00  0.00     0.006 C 
HETATM    3  C9  UNL     1      -2.100   9.453  14.866  1.00  0.00     0.011 C 
HETATM    4  C10 UNL     1      -2.197   8.214  13.932  1.00  0.00    -0.032 C 
HETATM    5  C11 UNL     1      -2.100   8.735  12.479  1.00  0.00     0.016 C 
HETATM    6  C12 UNL     1      -3.580   7.488  14.173  1.00  0.00     0.004 C 
HETATM    7  C13 UNL     1      -4.814   8.250  13.659  1.00  0.00     0.007 C 
HETATM    8  C14 UNL     1      -6.080   7.481  14.018  1.00  0.00     0.007 C 
HETATM    9  C15 UNL     1      -6.203   6.144  13.256  1.00  0.00     0.010 C 
HETATM   10  C16 UNL     1      -7.451   5.313  13.724  1.00  0.00     0.018 C 
HETATM   11  C17 UNL     1      -8.750   6.039  13.298  1.00  0.00     0.023 C 
HETATM   12  C18 UNL     1      -7.509   5.096  15.247  1.00  0.00     0.023 C 
HETATM   13  C19 UNL     1      -7.472   3.931  13.053  1.00  0.00     0.135 C 
HETATM   14  O1  UNL     1      -8.521   3.300  12.892  1.00  0.00    -0.297 OA
HETATM   15  C20 UNL     1      -6.172   3.336  12.582  1.00  0.00     0.080 C 
HETATM   16  C21 UNL     1      -5.025   3.847  13.426  1.00  0.00     0.018 C 
HETATM   17  C22 UNL     1      -4.874   5.348  13.263  1.00  0.00    -0.026 A 
HETATM   18  C23 UNL     1      -3.851   5.758  12.220  1.00  0.00     0.021 A 
HETATM   19  C24 UNL     1      -3.553   6.042  13.674  1.00  0.00    -0.027 A 
HETATM   20  C25 UNL     1      -2.487   5.196  14.350  1.00  0.00     0.011 C 
HETATM   21  C26 UNL     1      -1.480   6.034  15.132  1.00  0.00     0.011 C 
HETATM   22  C27 UNL     1      -0.958   7.291  14.358  1.00  0.00    -0.032 C 
HETATM   23  C28 UNL     1      -0.140   6.758  13.166  1.00  0.00     0.016 C 
ENDROOT
BRANCH   1  24
HETATM   24  C5  UNL     1       1.214   8.845  15.045  1.00  0.00    -0.014 C 
HETATM   25  C6  UNL     1       1.477  10.197  15.706  1.00  0.00     0.010 C 
BRANCH  24  26
HETATM   26  C4  UNL     1       1.508   8.775  13.518  1.00  0.00     0.009 C 
BRANCH  26  27
HETATM   27  C3  UNL     1       2.697   7.912  13.078  1.00  0.00     0.034 C 
BRANCH  27  28
HETATM   28  C2  UNL     1       3.544   8.587  12.009  1.00  0.00    -0.083 C 
HETATM   29  C1  UNL     1       4.250   9.690  12.321  1.00  0.00     0.015 C 
BRANCH  28  30
HETATM   30  C29 UNL     1       3.542   7.946  10.617  1.00  0.00     0.034 C 
HETATM   31  C30 UNL     1       4.397   6.674  10.529  1.00  0.00     0.017 C 
BRANCH  30  32
HETATM   32  C31 UNL     1       2.110   7.634  10.131  1.00  0.00     0.187 C 
BRANCH  32  33
HETATM   33  O2  UNL     1       1.699   8.504   9.060  1.00  0.00    -0.321 OA
BRANCH  33  34
HETATM   34  C32 UNL     1       2.411   8.394   7.906  1.00  0.00     0.254 C 
HETATM   35  C33 UNL     1       2.015   7.147   7.178  1.00  0.00     0.126 C 
HETATM   36  O3  UNL     1       3.254   9.187   7.511  1.00  0.00    -0.266 OA
ENDBRANCH  33  34
ENDBRANCH  32  33
ENDBRANCH  30  32
ENDBRANCH  28  30
ENDBRANCH  27  28
ENDBRANCH  26  27
ENDBRANCH  24  26
ENDBRANCH   1  24
TORSDOF 8
ENDMDL
MODEL 7
REMARK minimizedAffinity -7.77429485
REMARK CNNscore 0.356007636
REMARK CNNaffinity 6.77214861
REMARK  8 active torsions:
REMARK  status: ('A' for Active; 'I' for Inactive)
REMARK    1  A    between atoms: C2_2  and  C3_3 
REMARK    2  A    between atoms: C2_2  and  C29_30 
REMARK    3  A    between atoms: C3_3  and  C4_4 
REMARK    4  A    between atoms: C4_4  and  C5_5 
REMARK    5  A    between atoms: C5_5  and  C7_7 
REMARK    6  A    between atoms: C29_30  and  C31_32 
REMARK    7  A    between atoms: C31_32  and  O2_33 
REMARK    8  A    between atoms: O2_33  and  C32_34 
ROOT
HETATM    1  C7  UNL     1      -2.783  10.275  14.306  1.00  0.00    -0.002 C 
HETATM    2  C8  UNL     1      -1.526   9.731  13.615  1.00  0.00     0.006 C 
HETATM    3  C9  UNL     1      -1.235   8.394  14.266  1.00  0.00     0.011 C 
HETATM    4  C10 UNL     1      -2.604   7.763  14.649  1.00  0.00    -0.032 C 
HETATM    5  C11 UNL     1      -2.448   7.177  16.072  1.00  0.00     0.016 C 
HETATM    6  C12 UNL     1      -2.958   6.623  13.613  1.00  0.00     0.004 C 
HETATM    7  C13 UNL     1      -2.093   5.355  13.717  1.00  0.00     0.007 C 
HETATM    8  C14 UNL     1      -2.486   4.372  12.621  1.00  0.00     0.007 C 
HETATM    9  C15 UNL     1      -3.905   3.794  12.818  1.00  0.00     0.010 C 
HETATM   10  C16 UNL     1      -4.337   2.876  11.621  1.00  0.00     0.018 C 
HETATM   11  C17 UNL     1      -3.474   1.592  11.610  1.00  0.00     0.023 C 
HETATM   12  C18 UNL     1      -4.195   3.552  10.244  1.00  0.00     0.023 C 
HETATM   13  C19 UNL     1      -5.800   2.428  11.773  1.00  0.00     0.135 C 
HETATM   14  O1  UNL     1      -6.221   1.390  11.254  1.00  0.00    -0.297 OA
HETATM   15  C20 UNL     1      -6.738   3.286  12.579  1.00  0.00     0.080 C 
HETATM   16  C21 UNL     1      -6.299   4.733  12.531  1.00  0.00     0.018 C 
HETATM   17  C22 UNL     1      -4.935   4.895  13.175  1.00  0.00    -0.026 A 
HETATM   18  C23 UNL     1      -4.985   5.307  14.635  1.00  0.00     0.021 A 
HETATM   19  C24 UNL     1      -4.453   6.297  13.623  1.00  0.00    -0.027 A 
HETATM   20  C25 UNL     1      -5.328   7.491  13.283  1.00  0.00     0.011 C 
HETATM   21  C26 UNL     1      -4.562   8.810  13.319  1.00  0.00     0.011 C 
HETATM   22  C27 UNL     1      -3.643   8.980  14.575  1.00  0.00    -0.032 C 
HETATM   23  C28 UNL     1      -4.583   9.071  15.791  1.00  0.00     0.016 C 
ENDROOT
BRANCH   1  24
HETATM   24  C5  UNL     1      -2.454  11.319  15.423  1.00  0.00    -0.014 C 
HETATM   25  C6  UNL     1      -1.509  10.869  16.535  1.00  0.00     0.010 C 
BRANCH  24  26
HETATM   26  C4  UNL     1      -3.730  12.079  15.891  1.00  0.00     0.009 C 
BRANCH  26  27
HETATM   27  C3  UNL     1      -4.021  12.087  17.397  1.00  0.00     0.034 C 
BRANCH  27  28
HETATM   28  C2  UNL     1      -4.441  13.459  17.902  1.00  0.00    -0.083 C 
HETATM   29  C1  UNL     1      -4.366  14.520  17.078  1.00  0.00     0.015 C 
BRANCH  28  30
HETATM   30  C29 UNL     1      -4.943  13.541  19.349  1.00  0.00     0.034 C 
HETATM   31  C30 UNL     1      -4.175  14.558  20.205  1.00  0.00     0.017 C 
BRANCH  30  32
HETATM   32  C31 UNL     1      -6.453  13.853  19.415  1.00  0.00     0.187 C 
BRANCH  32  33
HETATM   33  O2  UNL     1      -6.866  14.257  20.733  1.00  0.00    -0.321 OA
BRANCH  33  34
HETATM   34  C32 UNL     1      -7.674  13.383  21.391  1.00  0.00     0.254 C 
HETATM   35  C33 UNL     1      -7.140  13.130  22.767  1.00  0.00     0.126 C 
HETATM   36  O3  UNL     1      -8.687  12.870  20.938  1.00  0.00    -0.266 OA
ENDBRANCH  33  34
ENDBRANCH  32  33
ENDBRANCH  30  32
ENDBRANCH  28  30
ENDBRANCH  27  28
ENDBRANCH  26  27
ENDBRANCH  24  26
ENDBRANCH   1  24
TORSDOF 8
ENDMDL
MODEL 8
REMARK minimizedAffinity -7.0493021
REMARK CNNscore 0.353492886
REMARK CNNaffinity 5.70713663
REMARK  8 active torsions:
REMARK  status: ('A' for Active; 'I' for Inactive)
REMARK    1  A    between atoms: C2_2  and  C3_3 
REMARK    2  A    between atoms: C2_2  and  C29_30 
REMARK    3  A    between atoms: C3_3  and  C4_4 
REMARK    4  A    between atoms: C4_4  and  C5_5 
REMARK    5  A    between atoms: C5_5  and  C7_7 
REMARK    6  A    between atoms: C29_30  and  C31_32 
REMARK    7  A    between atoms: C31_32  and  O2_33 
REMARK    8  A    between atoms: O2_33  and  C32_34 
ROOT
HETATM    1  C7  UNL     1       8.375  10.677  14.425  1.00  0.00    -0.002 C 
HETATM    2  C8  UNL     1       9.079   9.906  13.301  1.00  0.00     0.006 C 
HETATM    3  C9  UNL     1       8.564   8.483  13.381  1.00  0.00     0.011 C 
HETATM    4  C10 UNL     1       7.088   8.557  13.867  1.00  0.00    -0.032 C 
HETATM    5  C11 UNL     1       6.907   7.450  14.931  1.00  0.00     0.016 C 
HETATM    6  C12 UNL     1       6.124   8.312  12.638  1.00  0.00     0.004 C 
HETATM    7  C13 UNL     1       6.108   6.872  12.098  1.00  0.00     0.007 C 
HETATM    8  C14 UNL     1       5.201   6.789  10.876  1.00  0.00     0.007 C 
HETATM    9  C15 UNL     1       3.712   7.006  11.223  1.00  0.00     0.010 C 
HETATM   10  C16 UNL     1       2.808   7.034   9.940  1.00  0.00     0.018 C 
HETATM   11  C17 UNL     1       2.779   5.630   9.291  1.00  0.00     0.023 C 
HETATM   12  C18 UNL     1       3.286   8.037   8.873  1.00  0.00     0.023 C 
HETATM   13  C19 UNL     1       1.356   7.389  10.299  1.00  0.00     0.135 C 
HETATM   14  O1  UNL     1       0.406   7.042   9.591  1.00  0.00    -0.297 OA
HETATM   15  C20 UNL     1       1.095   8.184  11.550  1.00  0.00     0.080 C 
HETATM   16  C21 UNL     1       2.283   9.064  11.871  1.00  0.00     0.018 C 
HETATM   17  C22 UNL     1       3.506   8.216  12.168  1.00  0.00    -0.026 A 
HETATM   18  C23 UNL     1       3.729   7.948  13.645  1.00  0.00     0.021 A 
HETATM   19  C24 UNL     1       4.713   8.834  12.916  1.00  0.00    -0.027 A 
HETATM   20  C25 UNL     1       4.674  10.323  13.218  1.00  0.00     0.011 C 
HETATM   21  C26 UNL     1       6.058  10.902  13.492  1.00  0.00     0.011 C 
HETATM   22  C27 UNL     1       6.933  10.037  14.460  1.00  0.00    -0.032 C 
HETATM   23  C28 UNL     1       6.239  10.088  15.834  1.00  0.00     0.016 C 
ENDROOT
BRANCH   1  24
HETATM   24  C5  UNL     1       9.264  10.830  15.702  1.00  0.00    -0.014 C 
HETATM   25  C6  UNL     1       9.367   9.616  16.624  1.00  0.00     0.010 C 
BRANCH  24  26
HETATM   26  C4  UNL     1       9.020  12.194  16.411  1.00  0.00     0.009 C 
BRANCH  26  27
HETATM   27  C3  UNL     1       8.900  12.171  17.940  1.00  0.00     0.034 C 
BRANCH  27  28
HETATM   28  C2  UNL     1      10.167  12.652  18.631  1.00  0.00    -0.083 C 
HETATM   29  C1  UNL     1      10.913  13.612  18.055  1.00  0.00     0.015 C 
BRANCH  28  30
HETATM   30  C29 UNL     1      10.512  12.000  19.975  1.00  0.00     0.034 C 
HETATM   31  C30 UNL     1      12.011  11.716  20.149  1.00  0.00     0.017 C 
BRANCH  30  32
HETATM   32  C31 UNL     1      10.011  12.844  21.167  1.00  0.00     0.187 C 
BRANCH  32  33
HETATM   33  O2  UNL     1       9.459  12.027  22.216  1.00  0.00    -0.321 OA
BRANCH  33  34
HETATM   34  C32 UNL     1       8.671  12.677  23.115  1.00  0.00     0.254 C 
HETATM   35  C33 UNL     1       7.262  12.181  23.013  1.00  0.00     0.126 C 
HETATM   36  O3  UNL     1       9.045  13.542  23.895  1.00  0.00    -0.266 OA
ENDBRANCH  33  34
ENDBRANCH  32  33
ENDBRANCH  30  32
ENDBRANCH  28  30
ENDBRANCH  27  28
ENDBRANCH  26  27
ENDBRANCH  24  26
ENDBRANCH   1  24
TORSDOF 8
ENDMDL
MODEL 9
REMARK minimizedAffinity -6.77685022
REMARK CNNscore 0.334004104
REMARK CNNaffinity 6.54439163
REMARK  8 active torsions:
REMARK  status: ('A' for Active; 'I' for Inactive)
REMARK    1  A    between atoms: C2_2  and  C3_3 
REMARK    2  A    between atoms: C2_2  and  C29_30 
REMARK    3  A    between atoms: C3_3  and  C4_4 
REMARK    4  A    between atoms: C4_4  and  C5_5 
REMARK    5  A    between atoms: C5_5  and  C7_7 
REMARK    6  A    between atoms: C29_30  and  C31_32 
REMARK    7  A    between atoms: C31_32  and  O2_33 
REMARK    8  A    between atoms: O2_33  and  C32_34 
ROOT
HETATM    1  C7  UNL     1      -1.554   9.892  17.549  1.00  0.00    -0.002 C 
HETATM    2  C8  UNL     1      -2.900  10.247  18.194  1.00  0.00     0.006 C 
HETATM    3  C9  UNL     1      -3.818  10.649  17.056  1.00  0.00     0.011 C 
HETATM    4  C10 UNL     1      -3.415   9.797  15.819  1.00  0.00    -0.032 C 
HETATM    5  C11 UNL     1      -3.399  10.749  14.601  1.00  0.00     0.016 C 
HETATM    6  C12 UNL     1      -4.478   8.645  15.614  1.00  0.00     0.004 C 
HETATM    7  C13 UNL     1      -5.858   9.113  15.121  1.00  0.00     0.007 C 
HETATM    8  C14 UNL     1      -6.806   7.922  15.035  1.00  0.00     0.007 C 
HETATM    9  C15 UNL     1      -6.406   6.920  13.930  1.00  0.00     0.010 C 
HETATM   10  C16 UNL     1      -7.323   5.645  13.934  1.00  0.00     0.018 C 
HETATM   11  C17 UNL     1      -8.758   6.033  13.504  1.00  0.00     0.023 C 
HETATM   12  C18 UNL     1      -7.412   4.956  15.309  1.00  0.00     0.023 C 
HETATM   13  C19 UNL     1      -6.819   4.605  12.921  1.00  0.00     0.135 C 
HETATM   14  O1  UNL     1      -7.574   3.767  12.418  1.00  0.00    -0.297 OA
HETATM   15  C20 UNL     1      -5.364   4.615  12.538  1.00  0.00     0.080 C 
HETATM   16  C21 UNL     1      -4.526   5.162  13.673  1.00  0.00     0.018 C 
HETATM   17  C22 UNL     1      -4.889   6.609  13.950  1.00  0.00    -0.026 A 
HETATM   18  C23 UNL     1      -3.997   7.616  13.249  1.00  0.00     0.021 A 
HETATM   19  C24 UNL     1      -3.920   7.509  14.755  1.00  0.00    -0.027 A 
HETATM   20  C25 UNL     1      -2.680   6.864  15.350  1.00  0.00     0.011 C 
HETATM   21  C26 UNL     1      -2.082   7.681  16.490  1.00  0.00     0.011 C 
HETATM   22  C27 UNL     1      -1.968   9.213  16.187  1.00  0.00    -0.032 C 
HETATM   23  C28 UNL     1      -0.934   9.356  15.055  1.00  0.00     0.016 C 
ENDROOT
BRANCH   1  24
HETATM   24  C5  UNL     1      -0.519  11.061  17.631  1.00  0.00    -0.014 C 
HETATM   25  C6  UNL     1      -0.715  12.230  16.668  1.00  0.00     0.010 C 
BRANCH  24  26
HETATM   26  C4  UNL     1       0.939  10.528  17.754  1.00  0.00     0.009 C 
BRANCH  26  27
HETATM   27  C3  UNL     1       1.933  11.396  18.535  1.00  0.00     0.034 C 
BRANCH  27  28
HETATM   28  C2  UNL     1       1.530  11.578  19.990  1.00  0.00    -0.083 C 
HETATM   29  C1  UNL     1       1.416  10.499  20.787  1.00  0.00     0.015 C 
BRANCH  28  30
HETATM   30  C29 UNL     1       1.283  13.014  20.466  1.00  0.00     0.034 C 
HETATM   31  C30 UNL     1       2.259  13.472  21.560  1.00  0.00     0.017 C 
BRANCH  30  32
HETATM   32  C31 UNL     1       1.319  14.020  19.296  1.00  0.00     0.187 C 
BRANCH  32  33
HETATM   33  O2  UNL     1       0.047  14.664  19.095  1.00  0.00    -0.321 OA
BRANCH  33  34
HETATM   34  C32 UNL     1       0.010  15.995  19.377  1.00  0.00     0.254 C 
HETATM   35  C33 UNL     1       1.388  16.574  19.293  1.00  0.00     0.126 C 
HETATM   36  O3  UNL     1      -0.992  16.635  19.661  1.00  0.00    -0.266 OA
ENDBRANCH  33  34
ENDBRANCH  32  33
ENDBRANCH  30  32
ENDBRANCH  28  30
ENDBRANCH  27  28
ENDBRANCH  26  27
ENDBRANCH  24  26
ENDBRANCH   1  24
TORSDOF 8
ENDMDL
