MODEL 1
REMARK minimizedAffinity -7.33621454
REMARK CNNscore 0.559822202
REMARK CNNaffinity 6.45012331
REMARK  14 active torsions:
REMARK  status: ('A' for Active; 'I' for Inactive)
REMARK    1  A    between atoms: C2_2  and  O2_4 
REMARK    2  A    between atoms: O2_4  and  C3_5 
REMARK    3  A    between atoms: C3_5  and  C4_6 
REMARK    4  A    between atoms: C4_6  and  C5_8 
REMARK    5  A    between atoms: C5_8  and  O4_9 
REMARK    6  A    between atoms: O4_9  and  C6_10 
REMARK    7  A    between atoms: C6_10  and  C7_12 
REMARK    8  A    between atoms: C7_12  and  C8_13 
REMARK    9  A    between atoms: C8_13  and  C9_14 
REMARK       I    between atoms: C9_14  and  N1_16 
REMARK   10  A    between atoms: N1_16  and  C10_17 
REMARK   11  A    between atoms: C10_17  and  C11_18 
REMARK   12  A    between atoms: C10_17  and  C18_25 
REMARK   13  A    between atoms: C11_18  and  C12_19 
REMARK   14  A    between atoms: C18_25  and  O8_27 
ROOT
HETATM    1  C3  UNL     1      -8.984  46.198 -25.342  1.00  0.00     0.140 C 
HETATM    2  C19 UNL     1      -8.486  46.180 -26.844  1.00  0.00     0.048 C 
HETATM    3  C20 UNL     1      -7.211  47.055 -26.922  1.00  0.00     0.009 C 
HETATM    4  C21 UNL     1      -6.888  47.289 -25.460  1.00  0.00     0.002 C 
HETATM    5  C22 UNL     1      -5.892  48.332 -24.956  1.00  0.00    -0.004 C 
HETATM    6  C23 UNL     1      -4.675  48.612 -25.845  1.00  0.00     0.010 C 
HETATM    7  C24 UNL     1      -3.328  48.456 -25.140  1.00  0.00     0.035 C 
HETATM    8  C25 UNL     1      -3.262  48.971 -23.717  1.00  0.00    -0.068 C 
HETATM    9  C26 UNL     1      -2.070  49.343 -23.217  1.00  0.00     0.053 C 
HETATM   10  C27 UNL     1      -1.893  49.651 -21.779  1.00  0.00     0.149 C 
HETATM   11  O9  UNL     1      -0.846  50.175 -21.404  1.00  0.00    -0.293 OA
HETATM   12  C28 UNL     1      -3.001  49.306 -20.813  1.00  0.00     0.084 C 
HETATM   13  C29 UNL     1      -4.085  48.424 -21.437  1.00  0.00     0.022 C 
HETATM   14  C30 UNL     1      -4.524  48.898 -22.848  1.00  0.00    -0.016 C 
HETATM   15  C31 UNL     1      -5.170  50.301 -22.745  1.00  0.00     0.020 C 
HETATM   16  C32 UNL     1      -5.506  47.879 -23.514  1.00  0.00     0.002 C 
HETATM   17  C33 UNL     1      -6.751  47.437 -22.690  1.00  0.00     0.007 C 
HETATM   18  C34 UNL     1      -8.126  47.757 -23.298  1.00  0.00     0.013 C 
HETATM   19  C35 UNL     1      -8.298  47.509 -24.819  1.00  0.00    -0.001 C 
HETATM   20  C36 UNL     1      -9.000  48.777 -25.407  1.00  0.00     0.019 C 
ENDROOT
BRANCH   1  21
HETATM   21  O2  UNL     1      -8.358  45.016 -24.751  1.00  0.00    -0.301 OA
BRANCH  21  22
HETATM   22  C2  UNL     1      -8.418  43.822 -25.393  1.00  0.00     0.256 C 
HETATM   23  C1  UNL     1      -9.353  42.896 -24.679  1.00  0.00     0.126 C 
HETATM   24  O1  UNL     1      -7.834  43.548 -26.430  1.00  0.00    -0.266 OA
ENDBRANCH  21  22
ENDBRANCH   1  21
BRANCH   1  25
HETATM   25  C4  UNL     1     -10.521  45.987 -25.386  1.00  0.00     0.186 C 
HETATM   26  O3  UNL     1     -11.059  45.673 -26.459  1.00  0.00    -0.292 OA
BRANCH  25  27
HETATM   27  C5  UNL     1     -11.339  46.081 -24.104  1.00  0.00     0.260 C 
BRANCH  27  28
HETATM   28  O4  UNL     1     -12.461  46.959 -24.256  1.00  0.00    -0.314 OA
BRANCH  28  29
HETATM   29  C6  UNL     1     -13.623  46.494 -23.721  1.00  0.00     0.259 C 
HETATM   30  O5  UNL     1     -13.842  46.383 -22.523  1.00  0.00    -0.265 OA
BRANCH  29  31
HETATM   31  C7  UNL     1     -14.632  46.193 -24.803  1.00  0.00     0.120 C 
BRANCH  31  32
HETATM   32  C8  UNL     1     -14.973  44.710 -24.896  1.00  0.00     0.112 C 
BRANCH  32  33
HETATM   33  C9  UNL     1     -16.461  44.480 -25.059  1.00  0.00     0.218 C 
HETATM   34  O6  UNL     1     -16.941  43.741 -25.911  1.00  0.00    -0.274 OA
HETATM   35  N1  UNL     1     -17.222  45.150 -24.139  1.00  0.00    -0.346 N 
HETATM   36  H10 UNL     1     -16.798  45.804 -23.488  1.00  0.00     0.163 HD
BRANCH  35  37
HETATM   37  C10 UNL     1     -18.686  45.065 -24.117  1.00  0.00     0.186 C 
BRANCH  37  38
HETATM   38  C11 UNL     1     -19.272  45.307 -22.714  1.00  0.00     0.074 C 
BRANCH  38  39
HETATM   39  C12 UNL     1     -18.232  45.571 -21.644  1.00  0.00    -0.056 A 
HETATM   40  C13 UNL     1     -18.313  46.720 -20.847  1.00  0.00     0.007 A 
HETATM   41  C14 UNL     1     -17.373  46.952 -19.840  1.00  0.00     0.001 A 
HETATM   42  C15 UNL     1     -16.343  46.037 -19.623  1.00  0.00     0.000 A 
HETATM   43  C16 UNL     1     -16.249  44.894 -20.413  1.00  0.00     0.001 A 
HETATM   44  C17 UNL     1     -17.185  44.663 -21.424  1.00  0.00     0.007 A 
ENDBRANCH  38  39
ENDBRANCH  37  38
BRANCH  37  45
HETATM   45  C18 UNL     1     -19.308  46.019 -25.137  1.00  0.00     0.163 C 
HETATM   46  O7  UNL     1     -19.753  47.133 -24.907  1.00  0.00    -0.648 OA
BRANCH  45  47
HETATM   47  O8  UNL     1     -19.332  45.530 -26.400  1.00  0.00    -0.775 OA
HETATM   48  H19 UNL     1     -19.734  46.255 -26.922  1.00  0.00     0.167 HD
ENDBRANCH  45  47
ENDBRANCH  37  45
ENDBRANCH  35  37
ENDBRANCH  32  33
ENDBRANCH  31  32
ENDBRANCH  29  31
ENDBRANCH  28  29
ENDBRANCH  27  28
ENDBRANCH  25  27
ENDBRANCH   1  25
TORSDOF 14
ENDMDL
MODEL 2
REMARK minimizedAffinity -7.72638988
REMARK CNNscore 0.32635504
REMARK CNNaffinity 7.10111618
REMARK  14 active torsions:
REMARK  status: ('A' for Active; 'I' for Inactive)
REMARK    1  A    between atoms: C2_2  and  O2_4 
REMARK    2  A    between atoms: O2_4  and  C3_5 
REMARK    3  A    between atoms: C3_5  and  C4_6 
REMARK    4  A    between atoms: C4_6  and  C5_8 
REMARK    5  A    between atoms: C5_8  and  O4_9 
REMARK    6  A    between atoms: O4_9  and  C6_10 
REMARK    7  A    between atoms: C6_10  and  C7_12 
REMARK    8  A    between atoms: C7_12  and  C8_13 
REMARK    9  A    between atoms: C8_13  and  C9_14 
REMARK       I    between atoms: C9_14  and  N1_16 
REMARK   10  A    between atoms: N1_16  and  C10_17 
REMARK   11  A    between atoms: C10_17  and  C11_18 
REMARK   12  A    between atoms: C10_17  and  C18_25 
REMARK   13  A    between atoms: C11_18  and  C12_19 
REMARK   14  A    between atoms: C18_25  and  O8_27 
ROOT
HETATM    1  C3  UNL     1      -0.881  53.031 -10.028  1.00  0.00     0.140 C 
HETATM    2  C19 UNL     1      -0.239  53.144 -11.469  1.00  0.00     0.048 C 
HETATM    3  C20 UNL     1       0.885  54.207 -11.397  1.00  0.00     0.009 C 
HETATM    4  C21 UNL     1       1.021  54.434  -9.904  1.00  0.00     0.002 C 
HETATM    5  C22 UNL     1       1.787  55.597  -9.278  1.00  0.00    -0.004 C 
HETATM    6  C23 UNL     1       3.028  56.092 -10.030  1.00  0.00     0.010 C 
HETATM    7  C24 UNL     1       4.306  56.119  -9.192  1.00  0.00     0.035 C 
HETATM    8  C25 UNL     1       4.148  56.586  -7.759  1.00  0.00    -0.068 C 
HETATM    9  C26 UNL     1       5.213  57.117  -7.130  1.00  0.00     0.053 C 
HETATM   10  C27 UNL     1       5.195  57.396  -5.676  1.00  0.00     0.149 C 
HETATM   11  O9  UNL     1       6.105  58.059  -5.183  1.00  0.00    -0.293 OA
HETATM   12  C28 UNL     1       4.064  56.850  -4.838  1.00  0.00     0.084 C 
HETATM   13  C29 UNL     1       3.199  55.836  -5.589  1.00  0.00     0.022 C 
HETATM   14  C30 UNL     1       2.833  56.289  -7.028  1.00  0.00    -0.016 C 
HETATM   15  C31 UNL     1       1.970  57.571  -6.964  1.00  0.00     0.020 C 
HETATM   16  C32 UNL     1       2.094  55.157  -7.813  1.00  0.00     0.002 C 
HETATM   17  C33 UNL     1       0.857  54.500  -7.132  1.00  0.00     0.007 C 
HETATM   18  C34 UNL     1      -0.484  54.627  -7.873  1.00  0.00     0.013 C 
HETATM   19  C35 UNL     1      -0.463  54.412  -9.409  1.00  0.00    -0.001 C 
HETATM   20  C36 UNL     1      -1.292  55.578 -10.041  1.00  0.00     0.019 C 
ENDROOT
BRANCH   1  21
HETATM   21  O2  UNL     1      -0.140  51.938  -9.399  1.00  0.00    -0.301 OA
BRANCH  21  22
HETATM   22  C2  UNL     1      -0.052  50.733 -10.017  1.00  0.00     0.256 C 
HETATM   23  C1  UNL     1      -0.829  49.703  -9.256  1.00  0.00     0.126 C 
HETATM   24  O1  UNL     1       0.533  50.518 -11.066  1.00  0.00    -0.266 OA
ENDBRANCH  21  22
ENDBRANCH   1  21
BRANCH   1  25
HETATM   25  C4  UNL     1      -2.354  52.590 -10.236  1.00  0.00     0.186 C 
HETATM   26  O3  UNL     1      -3.059  52.348  -9.244  1.00  0.00    -0.292 OA
BRANCH  25  27
HETATM   27  C5  UNL     1      -2.943  52.540 -11.640  1.00  0.00     0.260 C 
BRANCH  27  28
HETATM   28  O4  UNL     1      -3.479  51.246 -11.943  1.00  0.00    -0.314 OA
BRANCH  28  29
HETATM   29  C6  UNL     1      -2.697  50.484 -12.756  1.00  0.00     0.259 C 
HETATM   30  O5  UNL     1      -2.452  49.299 -12.576  1.00  0.00    -0.265 OA
BRANCH  29  31
HETATM   31  C7  UNL     1      -2.224  51.280 -13.948  1.00  0.00     0.120 C 
BRANCH  31  32
HETATM   32  C8  UNL     1      -3.034  50.995 -15.208  1.00  0.00     0.112 C 
BRANCH  32  33
HETATM   33  C9  UNL     1      -2.159  50.523 -16.350  1.00  0.00     0.218 C 
HETATM   34  O6  UNL     1      -1.222  49.746 -16.207  1.00  0.00    -0.274 OA
HETATM   35  N1  UNL     1      -2.536  51.020 -17.569  1.00  0.00    -0.346 N 
HETATM   36  H10 UNL     1      -3.276  51.710 -17.645  1.00  0.00     0.163 HD
BRANCH  35  37
HETATM   37  C10 UNL     1      -1.825  50.687 -18.808  1.00  0.00     0.186 C 
BRANCH  37  38
HETATM   38  C11 UNL     1      -0.319  50.998 -18.727  1.00  0.00     0.074 C 
BRANCH  38  39
HETATM   39  C12 UNL     1       0.189  51.898 -19.835  1.00  0.00    -0.056 A 
HETATM   40  C13 UNL     1       0.199  51.451 -21.163  1.00  0.00     0.007 A 
HETATM   41  C14 UNL     1       0.639  52.288 -22.190  1.00  0.00     0.001 A 
HETATM   42  C15 UNL     1       1.074  53.581 -21.899  1.00  0.00     0.000 A 
HETATM   43  C16 UNL     1       1.074  54.034 -20.582  1.00  0.00     0.001 A 
HETATM   44  C17 UNL     1       0.639  53.197 -19.553  1.00  0.00     0.007 A 
ENDBRANCH  38  39
ENDBRANCH  37  38
BRANCH  37  45
HETATM   45  C18 UNL     1      -2.057  49.228 -19.201  1.00  0.00     0.163 C 
HETATM   46  O7  UNL     1      -2.964  48.803 -19.899  1.00  0.00    -0.648 OA
BRANCH  45  47
HETATM   47  O8  UNL     1      -1.130  48.374 -18.704  1.00  0.00    -0.775 OA
HETATM   48  H19 UNL     1      -1.405  47.502 -19.057  1.00  0.00     0.167 HD
ENDBRANCH  45  47
ENDBRANCH  37  45
ENDBRANCH  35  37
ENDBRANCH  32  33
ENDBRANCH  31  32
ENDBRANCH  29  31
ENDBRANCH  28  29
ENDBRANCH  27  28
ENDBRANCH  25  27
ENDBRANCH   1  25
TORSDOF 14
ENDMDL
MODEL 3
REMARK minimizedAffinity -7.807055
REMARK CNNscore 0.309316605
REMARK CNNaffinity 6.75326586
REMARK  14 active torsions:
REMARK  status: ('A' for Active; 'I' for Inactive)
REMARK    1  A    between atoms: C2_2  and  O2_4 
REMARK    2  A    between atoms: O2_4  and  C3_5 
REMARK    3  A    between atoms: C3_5  and  C4_6 
REMARK    4  A    between atoms: C4_6  and  C5_8 
REMARK    5  A    between atoms: C5_8  and  O4_9 
REMARK    6  A    between atoms: O4_9  and  C6_10 
REMARK    7  A    between atoms: C6_10  and  C7_12 
REMARK    8  A    between atoms: C7_12  and  C8_13 
REMARK    9  A    between atoms: C8_13  and  C9_14 
REMARK       I    between atoms: C9_14  and  N1_16 
REMARK   10  A    between atoms: N1_16  and  C10_17 
REMARK   11  A    between atoms: C10_17  and  C11_18 
REMARK   12  A    between atoms: C10_17  and  C18_25 
REMARK   13  A    between atoms: C11_18  and  C12_19 
REMARK   14  A    between atoms: C18_25  and  O8_27 
ROOT
HETATM    1  C3  UNL     1      -3.779  49.266 -20.413  1.00  0.00     0.140 C 
HETATM    2  C19 UNL     1      -5.293  49.442 -20.836  1.00  0.00     0.048 C 
HETATM    3  C20 UNL     1      -5.326  50.382 -22.067  1.00  0.00     0.009 C 
HETATM    4  C21 UNL     1      -3.862  50.464 -22.452  1.00  0.00     0.002 C 
HETATM    5  C22 UNL     1      -3.286  51.490 -23.426  1.00  0.00    -0.004 C 
HETATM    6  C23 UNL     1      -4.190  51.927 -24.584  1.00  0.00     0.010 C 
HETATM    7  C24 UNL     1      -3.568  51.758 -25.970  1.00  0.00     0.035 C 
HETATM    8  C25 UNL     1      -2.099  52.111 -26.084  1.00  0.00    -0.068 C 
HETATM    9  C26 UNL     1      -1.613  52.481 -27.282  1.00  0.00     0.053 C 
HETATM   10  C27 UNL     1      -0.159  52.632 -27.517  1.00  0.00     0.149 C 
HETATM   11  O9  UNL     1       0.227  53.160 -28.558  1.00  0.00    -0.293 OA
HETATM   12  C28 UNL     1       0.809  52.126 -26.474  1.00  0.00     0.084 C 
HETATM   13  C29 UNL     1       0.136  51.270 -25.400  1.00  0.00     0.022 C 
HETATM   14  C30 UNL     1      -1.190  51.879 -24.871  1.00  0.00    -0.016 C 
HETATM   15  C31 UNL     1      -0.897  53.228 -24.171  1.00  0.00     0.020 C 
HETATM   16  C32 UNL     1      -1.925  50.895 -23.902  1.00  0.00     0.002 C 
HETATM   17  C33 UNL     1      -1.103  50.303 -22.719  1.00  0.00     0.007 C 
HETATM   18  C34 UNL     1      -1.608  50.622 -21.304  1.00  0.00     0.013 C 
HETATM   19  C35 UNL     1      -3.139  50.541 -21.067  1.00  0.00    -0.001 C 
HETATM   20  C36 UNL     1      -3.545  51.832 -20.283  1.00  0.00     0.019 C 
ENDROOT
BRANCH   1  21
HETATM   21  O2  UNL     1      -3.356  48.056 -21.118  1.00  0.00    -0.301 OA
BRANCH  21  22
HETATM   22  C2  UNL     1      -4.200  46.999 -21.218  1.00  0.00     0.256 C 
HETATM   23  C1  UNL     1      -3.761  45.897 -20.305  1.00  0.00     0.126 C 
HETATM   24  O1  UNL     1      -5.203  46.958 -21.915  1.00  0.00    -0.266 OA
ENDBRANCH  21  22
ENDBRANCH   1  21
BRANCH   1  25
HETATM   25  C4  UNL     1      -3.779  48.987 -18.886  1.00  0.00     0.186 C 
HETATM   26  O3  UNL     1      -4.850  48.727 -18.318  1.00  0.00    -0.292 OA
BRANCH  25  27
HETATM   27  C5  UNL     1      -2.462  48.949 -18.120  1.00  0.00     0.260 C 
BRANCH  27  28
HETATM   28  O4  UNL     1      -2.436  49.921 -17.066  1.00  0.00    -0.314 OA
BRANCH  28  29
HETATM   29  C6  UNL     1      -1.302  50.673 -17.015  1.00  0.00     0.259 C 
HETATM   30  O5  UNL     1      -0.862  51.333 -17.946  1.00  0.00    -0.265 OA
BRANCH  29  31
HETATM   31  C7  UNL     1      -0.693  50.635 -15.635  1.00  0.00     0.120 C 
BRANCH  31  32
HETATM   32  C8  UNL     1       0.627  49.874 -15.592  1.00  0.00     0.112 C 
BRANCH  32  33
HETATM   33  C9  UNL     1       1.720  50.673 -14.915  1.00  0.00     0.218 C 
HETATM   34  O6  UNL     1       2.184  51.709 -15.376  1.00  0.00    -0.274 OA
HETATM   35  N1  UNL     1       2.119  50.147 -13.715  1.00  0.00    -0.346 N 
HETATM   36  H10 UNL     1       1.760  49.254 -13.392  1.00  0.00     0.163 HD
BRANCH  35  37
HETATM   37  C10 UNL     1       3.164  50.766 -12.893  1.00  0.00     0.186 C 
BRANCH  37  38
HETATM   38  C11 UNL     1       2.675  51.109 -11.475  1.00  0.00     0.074 C 
BRANCH  38  39
HETATM   39  C12 UNL     1       3.349  52.320 -10.862  1.00  0.00    -0.056 A 
HETATM   40  C13 UNL     1       3.054  53.607 -11.330  1.00  0.00     0.007 A 
HETATM   41  C14 UNL     1       3.652  54.727 -10.749  1.00  0.00     0.001 A 
HETATM   42  C15 UNL     1       4.550  54.571  -9.694  1.00  0.00     0.000 A 
HETATM   43  C16 UNL     1       4.855  53.296  -9.223  1.00  0.00     0.001 A 
HETATM   44  C17 UNL     1       4.263  52.174  -9.807  1.00  0.00     0.007 A 
ENDBRANCH  38  39
ENDBRANCH  37  38
BRANCH  37  45
HETATM   45  C18 UNL     1       4.414  49.887 -12.839  1.00  0.00     0.163 C 
HETATM   46  O7  UNL     1       5.025  49.561 -11.833  1.00  0.00    -0.648 OA
BRANCH  45  47
HETATM   47  O8  UNL     1       4.829  49.452 -14.052  1.00  0.00    -0.775 OA
HETATM   48  H19 UNL     1       5.611  48.898 -13.845  1.00  0.00     0.167 HD
ENDBRANCH  45  47
ENDBRANCH  37  45
ENDBRANCH  35  37
ENDBRANCH  32  33
ENDBRANCH  31  32
ENDBRANCH  29  31
ENDBRANCH  28  29
ENDBRANCH  27  28
ENDBRANCH  25  27
ENDBRANCH   1  25
TORSDOF 14
ENDMDL
MODEL 4
REMARK minimizedAffinity -8.10993958
REMARK CNNscore 0.298883736
REMARK CNNaffinity 7.06002378
REMARK  14 active torsions:
REMARK  status: ('A' for Active; 'I' for Inactive)
REMARK    1  A    between atoms: C2_2  and  O2_4 
REMARK    2  A    between atoms: O2_4  and  C3_5 
REMARK    3  A    between atoms: C3_5  and  C4_6 
REMARK    4  A    between atoms: C4_6  and  C5_8 
REMARK    5  A    between atoms: C5_8  and  O4_9 
REMARK    6  A    between atoms: O4_9  and  C6_10 
REMARK    7  A    between atoms: C6_10  and  C7_12 
REMARK    8  A    between atoms: C7_12  and  C8_13 
REMARK    9  A    between atoms: C8_13  and  C9_14 
REMARK       I    between atoms: C9_14  and  N1_16 
REMARK   10  A    between atoms: N1_16  and  C10_17 
REMARK   11  A    between atoms: C10_17  and  C11_18 
REMARK   12  A    between atoms: C10_17  and  C18_25 
REMARK   13  A    between atoms: C11_18  and  C12_19 
REMARK   14  A    between atoms: C18_25  and  O8_27 
ROOT
HETATM    1  C3  UNL     1       0.836  49.972 -14.106  1.00  0.00     0.140 C 
HETATM    2  C19 UNL     1       0.231  48.531 -14.348  1.00  0.00     0.048 C 
HETATM    3  C20 UNL     1      -0.393  48.519 -15.765  1.00  0.00     0.009 C 
HETATM    4  C21 UNL     1       0.121  49.817 -16.356  1.00  0.00     0.002 C 
HETATM    5  C22 UNL     1      -0.420  50.452 -17.636  1.00  0.00    -0.004 C 
HETATM    6  C23 UNL     1      -0.903  49.496 -18.732  1.00  0.00     0.010 C 
HETATM    7  C24 UNL     1      -0.252  49.719 -20.097  1.00  0.00     0.035 C 
HETATM    8  C25 UNL     1      -0.039  51.164 -20.501  1.00  0.00    -0.068 C 
HETATM    9  C26 UNL     1       0.033  51.466 -21.810  1.00  0.00     0.053 C 
HETATM   10  C27 UNL     1       0.450  52.809 -22.274  1.00  0.00     0.149 C 
HETATM   11  O9  UNL     1       0.312  53.101 -23.460  1.00  0.00    -0.293 OA
HETATM   12  C28 UNL     1       1.042  53.778 -21.278  1.00  0.00     0.084 C 
HETATM   13  C29 UNL     1       1.374  53.127 -19.935  1.00  0.00     0.022 C 
HETATM   14  C30 UNL     1       0.247  52.200 -19.407  1.00  0.00    -0.016 C 
HETATM   15  C31 UNL     1      -1.026  53.036 -19.134  1.00  0.00     0.020 C 
HETATM   16  C32 UNL     1       0.695  51.429 -18.122  1.00  0.00     0.002 C 
HETATM   17  C33 UNL     1       1.286  52.267 -16.950  1.00  0.00     0.007 C 
HETATM   18  C34 UNL     1       0.533  52.205 -15.613  1.00  0.00     0.013 C 
HETATM   19  C35 UNL     1       0.025  50.813 -15.155  1.00  0.00    -0.001 C 
HETATM   20  C36 UNL     1      -1.457  51.003 -14.689  1.00  0.00     0.019 C 
ENDROOT
BRANCH   1  21
HETATM   21  O2  UNL     1       2.233  49.840 -14.520  1.00  0.00    -0.301 OA
BRANCH  21  22
HETATM   22  C2  UNL     1       3.206  50.505 -13.848  1.00  0.00     0.256 C 
HETATM   23  C1  UNL     1       3.678  51.680 -14.647  1.00  0.00     0.126 C 
HETATM   24  O1  UNL     1       3.613  50.223 -12.732  1.00  0.00    -0.266 OA
ENDBRANCH  21  22
ENDBRANCH   1  21
BRANCH   1  25
HETATM   25  C4  UNL     1       0.784  50.220 -12.575  1.00  0.00     0.186 C 
HETATM   26  O3  UNL     1       0.910  49.259 -11.801  1.00  0.00    -0.292 OA
BRANCH  25  27
HETATM   27  C5  UNL     1       0.666  51.641 -12.038  1.00  0.00     0.260 C 
BRANCH  27  28
HETATM   28  O4  UNL     1      -0.182  51.700 -10.884  1.00  0.00    -0.314 OA
BRANCH  28  29
HETATM   29  C6  UNL     1      -1.206  52.593 -10.977  1.00  0.00     0.259 C 
HETATM   30  O5  UNL     1      -2.050  52.595 -11.862  1.00  0.00    -0.265 OA
BRANCH  29  31
HETATM   31  C7  UNL     1      -1.199  53.544  -9.804  1.00  0.00     0.120 C 
BRANCH  31  32
HETATM   32  C8  UNL     1      -0.277  54.739 -10.019  1.00  0.00     0.112 C 
BRANCH  32  33
HETATM   33  C9  UNL     1       0.798  54.824  -8.956  1.00  0.00     0.218 C 
HETATM   34  O6  UNL     1       1.531  53.887  -8.661  1.00  0.00    -0.274 OA
HETATM   35  N1  UNL     1       0.900  56.061  -8.378  1.00  0.00    -0.346 N 
HETATM   36  H10 UNL     1       0.236  56.796  -8.600  1.00  0.00     0.163 HD
BRANCH  35  37
HETATM   37  C10 UNL     1       1.878  56.360  -7.328  1.00  0.00     0.186 C 
BRANCH  37  38
HETATM   38  C11 UNL     1       3.043  57.229  -7.834  1.00  0.00     0.074 C 
BRANCH  38  39
HETATM   39  C12 UNL     1       4.249  56.438  -8.301  1.00  0.00    -0.056 A 
HETATM   40  C13 UNL     1       4.296  55.918  -9.601  1.00  0.00     0.007 A 
HETATM   41  C14 UNL     1       5.418  55.215 -10.044  1.00  0.00     0.001 A 
HETATM   42  C15 UNL     1       6.503  55.023  -9.190  1.00  0.00     0.000 A 
HETATM   43  C16 UNL     1       6.466  55.530  -7.893  1.00  0.00     0.001 A 
HETATM   44  C17 UNL     1       5.342  56.230  -7.447  1.00  0.00     0.007 A 
ENDBRANCH  38  39
ENDBRANCH  37  38
BRANCH  37  45
HETATM   45  C18 UNL     1       1.205  57.009  -6.117  1.00  0.00     0.163 C 
HETATM   46  O7  UNL     1       1.766  57.613  -5.216  1.00  0.00    -0.648 OA
BRANCH  45  47
HETATM   47  O8  UNL     1      -0.142  56.873  -6.103  1.00  0.00    -0.775 OA
HETATM   48  H19 UNL     1      -0.416  57.350  -5.292  1.00  0.00     0.167 HD
ENDBRANCH  45  47
ENDBRANCH  37  45
ENDBRANCH  35  37
ENDBRANCH  32  33
ENDBRANCH  31  32
ENDBRANCH  29  31
ENDBRANCH  28  29
ENDBRANCH  27  28
ENDBRANCH  25  27
ENDBRANCH   1  25
TORSDOF 14
ENDMDL
MODEL 5
REMARK minimizedAffinity -8.46693039
REMARK CNNscore 0.270457178
REMARK CNNaffinity 7.09372902
REMARK  14 active torsions:
REMARK  status: ('A' for Active; 'I' for Inactive)
REMARK    1  A    between atoms: C2_2  and  O2_4 
REMARK    2  A    between atoms: O2_4  and  C3_5 
REMARK    3  A    between atoms: C3_5  and  C4_6 
REMARK    4  A    between atoms: C4_6  and  C5_8 
REMARK    5  A    between atoms: C5_8  and  O4_9 
REMARK    6  A    between atoms: O4_9  and  C6_10 
REMARK    7  A    between atoms: C6_10  and  C7_12 
REMARK    8  A    between atoms: C7_12  and  C8_13 
REMARK    9  A    between atoms: C8_13  and  C9_14 
REMARK       I    between atoms: C9_14  and  N1_16 
REMARK   10  A    between atoms: N1_16  and  C10_17 
REMARK   11  A    between atoms: C10_17  and  C11_18 
REMARK   12  A    between atoms: C10_17  and  C18_25 
REMARK   13  A    between atoms: C11_18  and  C12_19 
REMARK   14  A    between atoms: C18_25  and  O8_27 
ROOT
HETATM    1  C3  UNL     1       0.274  51.074 -13.944  1.00  0.00     0.140 C 
HETATM    2  C19 UNL     1      -1.245  51.357 -14.282  1.00  0.00     0.048 C 
HETATM    3  C20 UNL     1      -1.843  52.162 -13.102  1.00  0.00     0.009 C 
HETATM    4  C21 UNL     1      -0.608  52.538 -12.307  1.00  0.00     0.002 C 
HETATM    5  C22 UNL     1      -0.638  53.092 -10.884  1.00  0.00    -0.004 C 
HETATM    6  C23 UNL     1      -1.829  53.984 -10.514  1.00  0.00     0.010 C 
HETATM    7  C24 UNL     1      -1.443  55.356  -9.962  1.00  0.00     0.035 C 
HETATM    8  C25 UNL     1      -0.257  55.381  -9.020  1.00  0.00    -0.068 C 
HETATM    9  C26 UNL     1      -0.164  56.379  -8.123  1.00  0.00     0.053 C 
HETATM   10  C27 UNL     1       1.063  56.589  -7.320  1.00  0.00     0.149 C 
HETATM   11  O9  UNL     1       1.035  57.380  -6.380  1.00  0.00    -0.293 OA
HETATM   12  C28 UNL     1       2.317  55.831  -7.686  1.00  0.00     0.084 C 
HETATM   13  C29 UNL     1       2.214  55.119  -9.035  1.00  0.00     0.022 C 
HETATM   14  C30 UNL     1       0.872  54.364  -9.229  1.00  0.00    -0.016 C 
HETATM   15  C31 UNL     1       0.758  53.233  -8.179  1.00  0.00     0.020 C 
HETATM   16  C32 UNL     1       0.740  53.794 -10.680  1.00  0.00     0.002 C 
HETATM   17  C33 UNL     1       1.918  52.933 -11.223  1.00  0.00     0.007 C 
HETATM   18  C34 UNL     1       1.588  51.482 -11.608  1.00  0.00     0.013 C 
HETATM   19  C35 UNL     1       0.266  51.243 -12.383  1.00  0.00    -0.001 C 
HETATM   20  C36 UNL     1      -0.448  50.032 -11.697  1.00  0.00     0.019 C 
ENDROOT
BRANCH   1  21
HETATM   21  O2  UNL     1       0.987  52.183 -14.579  1.00  0.00    -0.301 OA
BRANCH  21  22
HETATM   22  C2  UNL     1       1.173  52.189 -15.923  1.00  0.00     0.256 C 
HETATM   23  C1  UNL     1       2.632  52.298 -16.244  1.00  0.00     0.126 C 
HETATM   24  O1  UNL     1       0.290  52.076 -16.759  1.00  0.00    -0.266 OA
ENDBRANCH  21  22
ENDBRANCH   1  21
BRANCH   1  25
HETATM   25  C4  UNL     1       0.647  49.753 -14.667  1.00  0.00     0.186 C 
HETATM   26  O3  UNL     1       1.828  49.373 -14.663  1.00  0.00    -0.292 OA
BRANCH  25  27
HETATM   27  C5  UNL     1      -0.444  48.896 -15.298  1.00  0.00     0.260 C 
BRANCH  27  28
HETATM   28  O4  UNL     1      -0.473  49.042 -16.723  1.00  0.00    -0.314 OA
BRANCH  28  29
HETATM   29  C6  UNL     1      -1.722  49.115 -17.261  1.00  0.00     0.259 C 
HETATM   30  O5  UNL     1      -2.759  48.935 -16.639  1.00  0.00    -0.265 OA
BRANCH  29  31
HETATM   31  C7  UNL     1      -1.658  49.511 -18.716  1.00  0.00     0.120 C 
BRANCH  31  32
HETATM   32  C8  UNL     1      -0.292  50.054 -19.121  1.00  0.00     0.112 C 
BRANCH  32  33
HETATM   33  C9  UNL     1      -0.406  51.192 -20.113  1.00  0.00     0.218 C 
HETATM   34  O6  UNL     1      -1.437  51.830 -20.294  1.00  0.00    -0.274 OA
HETATM   35  N1  UNL     1       0.765  51.468 -20.766  1.00  0.00    -0.346 N 
HETATM   36  H10 UNL     1       1.583  50.881 -20.641  1.00  0.00     0.163 HD
BRANCH  35  37
HETATM   37  C10 UNL     1       0.875  52.534 -21.767  1.00  0.00     0.186 C 
BRANCH  37  38
HETATM   38  C11 UNL     1      -0.374  52.639 -22.660  1.00  0.00     0.074 C 
BRANCH  38  39
HETATM   39  C12 UNL     1      -0.220  51.993 -24.022  1.00  0.00    -0.056 A 
HETATM   40  C13 UNL     1      -1.183  51.088 -24.489  1.00  0.00     0.007 A 
HETATM   41  C14 UNL     1      -1.059  50.513 -25.756  1.00  0.00     0.001 A 
HETATM   42  C15 UNL     1       0.029  50.836 -26.566  1.00  0.00     0.000 A 
HETATM   43  C16 UNL     1       0.996  51.729 -26.109  1.00  0.00     0.001 A 
HETATM   44  C17 UNL     1       0.876  52.301 -24.841  1.00  0.00     0.007 A 
ENDBRANCH  38  39
ENDBRANCH  37  38
BRANCH  37  45
HETATM   45  C18 UNL     1       1.185  53.879 -21.107  1.00  0.00     0.163 C 
HETATM   46  O7  UNL     1       2.002  54.701 -21.491  1.00  0.00    -0.648 OA
BRANCH  45  47
HETATM   47  O8  UNL     1       0.444  54.128 -20.001  1.00  0.00    -0.775 OA
HETATM   48  H19 UNL     1       0.743  55.017 -19.717  1.00  0.00     0.167 HD
ENDBRANCH  45  47
ENDBRANCH  37  45
ENDBRANCH  35  37
ENDBRANCH  32  33
ENDBRANCH  31  32
ENDBRANCH  29  31
ENDBRANCH  28  29
ENDBRANCH  27  28
ENDBRANCH  25  27
ENDBRANCH   1  25
TORSDOF 14
ENDMDL
MODEL 6
REMARK minimizedAffinity -8.66651249
REMARK CNNscore 0.240682751
REMARK CNNaffinity 6.8440876
REMARK  14 active torsions:
REMARK  status: ('A' for Active; 'I' for Inactive)
REMARK    1  A    between atoms: C2_2  and  O2_4 
REMARK    2  A    between atoms: O2_4  and  C3_5 
REMARK    3  A    between atoms: C3_5  and  C4_6 
REMARK    4  A    between atoms: C4_6  and  C5_8 
REMARK    5  A    between atoms: C5_8  and  O4_9 
REMARK    6  A    between atoms: O4_9  and  C6_10 
REMARK    7  A    between atoms: C6_10  and  C7_12 
REMARK    8  A    between atoms: C7_12  and  C8_13 
REMARK    9  A    between atoms: C8_13  and  C9_14 
REMARK       I    between atoms: C9_14  and  N1_16 
REMARK   10  A    between atoms: N1_16  and  C10_17 
REMARK   11  A    between atoms: C10_17  and  C11_18 
REMARK   12  A    between atoms: C10_17  and  C18_25 
REMARK   13  A    between atoms: C11_18  and  C12_19 
REMARK   14  A    between atoms: C18_25  and  O8_27 
ROOT
HETATM    1  C3  UNL     1      -3.392  49.545 -22.226  1.00  0.00     0.140 C 
HETATM    2  C19 UNL     1      -3.781  49.029 -23.670  1.00  0.00     0.048 C 
HETATM    3  C20 UNL     1      -5.064  48.173 -23.528  1.00  0.00     0.009 C 
HETATM    4  C21 UNL     1      -5.495  48.468 -22.105  1.00  0.00     0.002 C 
HETATM    5  C22 UNL     1      -6.544  47.663 -21.340  1.00  0.00    -0.004 C 
HETATM    6  C23 UNL     1      -7.700  47.078 -22.161  1.00  0.00     0.010 C 
HETATM    7  C24 UNL     1      -9.090  47.463 -21.656  1.00  0.00     0.035 C 
HETATM    8  C25 UNL     1      -9.267  47.483 -20.151  1.00  0.00    -0.068 C 
HETATM    9  C26 UNL     1     -10.499  47.303 -19.642  1.00  0.00     0.053 C 
HETATM   10  C27 UNL     1     -10.783  47.521 -18.205  1.00  0.00     0.149 C 
HETATM   11  O9  UNL     1     -11.864  47.156 -17.747  1.00  0.00    -0.293 OA
HETATM   12  C28 UNL     1      -9.740  48.193 -17.344  1.00  0.00     0.084 C 
HETATM   13  C29 UNL     1      -8.598  48.805 -18.157  1.00  0.00     0.022 C 
HETATM   14  C30 UNL     1      -8.069  47.867 -19.275  1.00  0.00    -0.016 C 
HETATM   15  C31 UNL     1      -7.459  46.595 -18.637  1.00  0.00     0.020 C 
HETATM   16  C32 UNL     1      -7.023  48.592 -20.183  1.00  0.00     0.002 C 
HETATM   17  C33 UNL     1      -5.831  49.306 -19.478  1.00  0.00     0.007 C 
HETATM   18  C34 UNL     1      -4.423  48.802 -19.832  1.00  0.00     0.013 C 
HETATM   19  C35 UNL     1      -4.139  48.498 -21.326  1.00  0.00    -0.001 C 
HETATM   20  C36 UNL     1      -3.421  47.109 -21.377  1.00  0.00     0.019 C 
ENDROOT
BRANCH   1  21
HETATM   21  O2  UNL     1      -4.036  50.855 -22.137  1.00  0.00    -0.301 OA
BRANCH  21  22
HETATM   22  C2  UNL     1      -4.153  51.631 -23.244  1.00  0.00     0.256 C 
HETATM   23  C1  UNL     1      -3.013  52.600 -23.320  1.00  0.00     0.126 C 
HETATM   24  O1  UNL     1      -5.031  51.532 -24.087  1.00  0.00    -0.266 OA
ENDBRANCH  21  22
ENDBRANCH   1  21
BRANCH   1  25
HETATM   25  C4  UNL     1      -1.852  49.738 -22.229  1.00  0.00     0.186 C 
HETATM   26  O3  UNL     1      -1.246  49.763 -23.311  1.00  0.00    -0.292 OA
BRANCH  25  27
HETATM   27  C5  UNL     1      -1.113  49.979 -20.918  1.00  0.00     0.260 C 
BRANCH  27  28
HETATM   28  O4  UNL     1      -1.656  51.096 -20.203  1.00  0.00    -0.314 OA
BRANCH  28  29
HETATM   29  C6  UNL     1      -0.759  51.765 -19.428  1.00  0.00     0.259 C 
HETATM   30  O5  UNL     1      -0.118  51.265 -18.514  1.00  0.00    -0.265 OA
BRANCH  29  31
HETATM   31  C7  UNL     1      -0.611  53.195 -19.889  1.00  0.00     0.120 C 
BRANCH  31  32
HETATM   32  C8  UNL     1       0.840  53.662 -19.908  1.00  0.00     0.112 C 
BRANCH  32  33
HETATM   33  C9  UNL     1       1.368  53.814 -21.320  1.00  0.00     0.218 C 
HETATM   34  O6  UNL     1       2.386  54.438 -21.597  1.00  0.00    -0.274 OA
HETATM   35  N1  UNL     1       0.618  53.156 -22.258  1.00  0.00    -0.346 N 
HETATM   36  H10 UNL     1      -0.253  52.702 -22.004  1.00  0.00     0.163 HD
BRANCH  35  37
HETATM   37  C10 UNL     1       0.955  53.171 -23.685  1.00  0.00     0.186 C 
BRANCH  37  38
HETATM   38  C11 UNL     1       0.347  51.980 -24.448  1.00  0.00     0.074 C 
BRANCH  38  39
HETATM   39  C12 UNL     1       0.846  51.836 -25.872  1.00  0.00    -0.056 A 
HETATM   40  C13 UNL     1      -0.056  51.855 -26.944  1.00  0.00     0.007 A 
HETATM   41  C14 UNL     1       0.403  51.752 -28.258  1.00  0.00     0.001 A 
HETATM   42  C15 UNL     1       1.768  51.627 -28.514  1.00  0.00     0.000 A 
HETATM   43  C16 UNL     1       2.673  51.601 -27.456  1.00  0.00     0.001 A 
HETATM   44  C17 UNL     1       2.216  51.699 -26.140  1.00  0.00     0.007 A 
ENDBRANCH  38  39
ENDBRANCH  37  38
BRANCH  37  45
HETATM   45  C18 UNL     1       0.547  54.495 -24.333  1.00  0.00     0.163 C 
HETATM   46  O7  UNL     1      -0.442  54.688 -25.021  1.00  0.00    -0.648 OA
BRANCH  45  47
HETATM   47  O8  UNL     1       1.400  55.515 -24.074  1.00  0.00    -0.775 OA
HETATM   48  H19 UNL     1       0.994  56.280 -24.534  1.00  0.00     0.167 HD
ENDBRANCH  45  47
ENDBRANCH  37  45
ENDBRANCH  35  37
ENDBRANCH  32  33
ENDBRANCH  31  32
ENDBRANCH  29  31
ENDBRANCH  28  29
ENDBRANCH  27  28
ENDBRANCH  25  27
ENDBRANCH   1  25
TORSDOF 14
ENDMDL
MODEL 7
REMARK minimizedAffinity -8.90372753
REMARK CNNscore 0.225470543
REMARK CNNaffinity 6.64636564
REMARK  14 active torsions:
REMARK  status: ('A' for Active; 'I' for Inactive)
REMARK    1  A    between atoms: C2_2  and  O2_4 
REMARK    2  A    between atoms: O2_4  and  C3_5 
REMARK    3  A    between atoms: C3_5  and  C4_6 
REMARK    4  A    between atoms: C4_6  and  C5_8 
REMARK    5  A    between atoms: C5_8  and  O4_9 
REMARK    6  A    between atoms: O4_9  and  C6_10 
REMARK    7  A    between atoms: C6_10  and  C7_12 
REMARK    8  A    between atoms: C7_12  and  C8_13 
REMARK    9  A    between atoms: C8_13  and  C9_14 
REMARK       I    between atoms: C9_14  and  N1_16 
REMARK   10  A    between atoms: N1_16  and  C10_17 
REMARK   11  A    between atoms: C10_17  and  C11_18 
REMARK   12  A    between atoms: C10_17  and  C18_25 
REMARK   13  A    between atoms: C11_18  and  C12_19 
REMARK   14  A    between atoms: C18_25  and  O8_27 
ROOT
HETATM    1  C3  UNL     1      -6.873  46.825 -30.599  1.00  0.00     0.140 C 
HETATM    2  C19 UNL     1      -7.848  48.067 -30.696  1.00  0.00     0.048 C 
HETATM    3  C20 UNL     1      -8.922  47.733 -31.762  1.00  0.00     0.009 C 
HETATM    4  C21 UNL     1      -8.687  46.255 -32.006  1.00  0.00     0.002 C 
HETATM    5  C22 UNL     1      -9.278  45.474 -33.179  1.00  0.00    -0.004 C 
HETATM    6  C23 UNL     1     -10.666  45.905 -33.667  1.00  0.00     0.010 C 
HETATM    7  C24 UNL     1     -11.699  44.779 -33.706  1.00  0.00     0.035 C 
HETATM    8  C25 UNL     1     -11.195  43.434 -34.189  1.00  0.00    -0.068 C 
HETATM    9  C26 UNL     1     -12.073  42.570 -34.730  1.00  0.00     0.053 C 
HETATM   10  C27 UNL     1     -11.700  41.168 -35.025  1.00  0.00     0.149 C 
HETATM   11  O9  UNL     1     -12.463  40.475 -35.696  1.00  0.00    -0.293 OA
HETATM   12  C28 UNL     1     -10.398  40.626 -34.487  1.00  0.00     0.084 C 
HETATM   13  C29 UNL     1      -9.742  41.555 -33.463  1.00  0.00     0.022 C 
HETATM   14  C30 UNL     1      -9.741  43.045 -33.898  1.00  0.00    -0.016 C 
HETATM   15  C31 UNL     1      -8.889  43.209 -35.180  1.00  0.00     0.020 C 
HETATM   16  C32 UNL     1      -9.215  43.974 -32.755  1.00  0.00     0.002 C 
HETATM   17  C33 UNL     1      -7.848  43.609 -32.104  1.00  0.00     0.007 C 
HETATM   18  C34 UNL     1      -6.731  44.658 -32.220  1.00  0.00     0.013 C 
HETATM   19  C35 UNL     1      -7.128  46.139 -31.987  1.00  0.00    -0.001 C 
HETATM   20  C36 UNL     1      -6.480  46.968 -33.145  1.00  0.00     0.019 C 
ENDROOT
BRANCH   1  21
HETATM   21  O2  UNL     1      -7.436  46.021 -29.515  1.00  0.00    -0.301 OA
BRANCH  21  22
HETATM   22  C2  UNL     1      -8.340  46.567 -28.663  1.00  0.00     0.256 C 
HETATM   23  C1  UNL     1      -9.635  45.817 -28.731  1.00  0.00     0.126 C 
HETATM   24  O1  UNL     1      -8.126  47.506 -27.912  1.00  0.00    -0.266 OA
ENDBRANCH  21  22
ENDBRANCH   1  21
BRANCH   1  25
HETATM   25  C4  UNL     1      -5.495  47.383 -30.152  1.00  0.00     0.186 C 
HETATM   26  O3  UNL     1      -4.489  47.127 -30.831  1.00  0.00    -0.292 OA
BRANCH  25  27
HETATM   27  C5  UNL     1      -5.403  48.304 -28.941  1.00  0.00     0.260 C 
BRANCH  27  28
HETATM   28  O4  UNL     1      -4.090  48.291 -28.367  1.00  0.00    -0.314 OA
BRANCH  28  29
HETATM   29  C6  UNL     1      -4.062  48.435 -27.013  1.00  0.00     0.259 C 
HETATM   30  O5  UNL     1      -4.993  48.171 -26.265  1.00  0.00    -0.265 OA
BRANCH  29  31
HETATM   31  C7  UNL     1      -2.703  48.902 -26.550  1.00  0.00     0.120 C 
BRANCH  31  32
HETATM   32  C8  UNL     1      -2.317  50.259 -27.130  1.00  0.00     0.112 C 
BRANCH  32  33
HETATM   33  C9  UNL     1      -1.206  50.917 -26.338  1.00  0.00     0.218 C 
HETATM   34  O6  UNL     1      -0.044  50.528 -26.354  1.00  0.00    -0.274 OA
HETATM   35  N1  UNL     1      -1.615  52.015 -25.630  1.00  0.00    -0.346 N 
HETATM   36  H10 UNL     1      -2.596  52.272 -25.588  1.00  0.00     0.163 HD
BRANCH  35  37
HETATM   37  C10 UNL     1      -0.698  52.801 -24.799  1.00  0.00     0.186 C 
BRANCH  37  38
HETATM   38  C11 UNL     1       0.151  51.923 -23.862  1.00  0.00     0.074 C 
BRANCH  38  39
HETATM   39  C12 UNL     1       0.249  52.444 -22.442  1.00  0.00    -0.056 A 
HETATM   40  C13 UNL     1       1.033  53.569 -22.153  1.00  0.00     0.007 A 
HETATM   41  C14 UNL     1       1.101  54.068 -20.850  1.00  0.00     0.001 A 
HETATM   42  C15 UNL     1       0.388  53.448 -19.826  1.00  0.00     0.000 A 
HETATM   43  C16 UNL     1      -0.390  52.325 -20.101  1.00  0.00     0.001 A 
HETATM   44  C17 UNL     1      -0.456  51.821 -21.401  1.00  0.00     0.007 A 
ENDBRANCH  38  39
ENDBRANCH  37  38
BRANCH  37  45
HETATM   45  C18 UNL     1       0.193  53.697 -25.659  1.00  0.00     0.163 C 
HETATM   46  O7  UNL     1       0.064  54.901 -25.823  1.00  0.00    -0.648 OA
BRANCH  45  47
HETATM   47  O8  UNL     1       1.210  53.038 -26.263  1.00  0.00    -0.775 OA
HETATM   48  H19 UNL     1       1.688  53.743 -26.749  1.00  0.00     0.167 HD
ENDBRANCH  45  47
ENDBRANCH  37  45
ENDBRANCH  35  37
ENDBRANCH  32  33
ENDBRANCH  31  32
ENDBRANCH  29  31
ENDBRANCH  28  29
ENDBRANCH  27  28
ENDBRANCH  25  27
ENDBRANCH   1  25
TORSDOF 14
ENDMDL
MODEL 8
REMARK minimizedAffinity -8.55854893
REMARK CNNscore 0.20549199
REMARK CNNaffinity 6.12800741
REMARK  14 active torsions:
REMARK  status: ('A' for Active; 'I' for Inactive)
REMARK    1  A    between atoms: C2_2  and  O2_4 
REMARK    2  A    between atoms: O2_4  and  C3_5 
REMARK    3  A    between atoms: C3_5  and  C4_6 
REMARK    4  A    between atoms: C4_6  and  C5_8 
REMARK    5  A    between atoms: C5_8  and  O4_9 
REMARK    6  A    between atoms: O4_9  and  C6_10 
REMARK    7  A    between atoms: C6_10  and  C7_12 
REMARK    8  A    between atoms: C7_12  and  C8_13 
REMARK    9  A    between atoms: C8_13  and  C9_14 
REMARK       I    between atoms: C9_14  and  N1_16 
REMARK   10  A    between atoms: N1_16  and  C10_17 
REMARK   11  A    between atoms: C10_17  and  C11_18 
REMARK   12  A    between atoms: C10_17  and  C18_25 
REMARK   13  A    between atoms: C11_18  and  C12_19 
REMARK   14  A    between atoms: C18_25  and  O8_27 
ROOT
HETATM    1  C3  UNL     1      -4.562  49.673 -21.845  1.00  0.00     0.140 C 
HETATM    2  C19 UNL     1      -5.744  49.454 -22.874  1.00  0.00     0.048 C 
HETATM    3  C20 UNL     1      -5.290  50.038 -24.234  1.00  0.00     0.009 C 
HETATM    4  C21 UNL     1      -3.815  50.294 -24.002  1.00  0.00     0.002 C 
HETATM    5  C22 UNL     1      -2.934  51.138 -24.922  1.00  0.00    -0.004 C 
HETATM    6  C23 UNL     1      -3.262  51.100 -26.418  1.00  0.00     0.010 C 
HETATM    7  C24 UNL     1      -2.084  50.714 -27.313  1.00  0.00     0.035 C 
HETATM    8  C25 UNL     1      -0.740  51.296 -26.927  1.00  0.00    -0.068 C 
HETATM    9  C26 UNL     1       0.199  51.444 -27.878  1.00  0.00     0.053 C 
HETATM   10  C27 UNL     1       1.596  51.801 -27.541  1.00  0.00     0.149 C 
HETATM   11  O9  UNL     1       2.368  52.119 -28.444  1.00  0.00    -0.293 OA
HETATM   12  C28 UNL     1       2.036  51.757 -26.097  1.00  0.00     0.084 C 
HETATM   13  C29 UNL     1       1.014  51.082 -25.181  1.00  0.00     0.022 C 
HETATM   14  C30 UNL     1      -0.444  51.544 -25.442  1.00  0.00    -0.016 C 
HETATM   15  C31 UNL     1      -0.573  53.054 -25.129  1.00  0.00     0.020 C 
HETATM   16  C32 UNL     1      -1.467  50.710 -24.604  1.00  0.00     0.002 C 
HETATM   17  C33 UNL     1      -1.214  50.591 -23.072  1.00  0.00     0.007 C 
HETATM   18  C34 UNL     1      -2.309  51.149 -22.150  1.00  0.00     0.013 C 
HETATM   19  C35 UNL     1      -3.780  50.844 -22.538  1.00  0.00    -0.001 C 
HETATM   20  C36 UNL     1      -4.569  52.189 -22.415  1.00  0.00     0.019 C 
ENDROOT
BRANCH   1  21
HETATM   21  O2  UNL     1      -3.798  48.428 -21.917  1.00  0.00    -0.301 OA
BRANCH  21  22
HETATM   22  C2  UNL     1      -4.370  47.257 -21.537  1.00  0.00     0.256 C 
HETATM   23  C1  UNL     1      -3.665  46.701 -20.339  1.00  0.00     0.126 C 
HETATM   24  O1  UNL     1      -5.347  46.745 -22.060  1.00  0.00    -0.266 OA
ENDBRANCH  21  22
ENDBRANCH   1  21
BRANCH   1  25
HETATM   25  C4  UNL     1      -5.216  49.784 -20.441  1.00  0.00     0.186 C 
HETATM   26  O3  UNL     1      -4.494  49.969 -19.450  1.00  0.00    -0.292 OA
BRANCH  25  27
HETATM   27  C5  UNL     1      -6.734  49.751 -20.304  1.00  0.00     0.260 C 
BRANCH  27  28
HETATM   28  O4  UNL     1      -7.200  48.454 -19.913  1.00  0.00    -0.314 OA
BRANCH  28  29
HETATM   29  C6  UNL     1      -7.765  48.404 -18.675  1.00  0.00     0.259 C 
HETATM   30  O5  UNL     1      -7.152  48.190 -17.638  1.00  0.00    -0.265 OA
BRANCH  29  31
HETATM   31  C7  UNL     1      -9.241  48.711 -18.743  1.00  0.00     0.120 C 
BRANCH  31  32
HETATM   32  C8  UNL     1     -10.109  47.461 -18.641  1.00  0.00     0.112 C 
BRANCH  32  33
HETATM   33  C9  UNL     1     -11.180  47.601 -17.580  1.00  0.00     0.218 C 
HETATM   34  O6  UNL     1     -10.935  47.760 -16.390  1.00  0.00    -0.274 OA
HETATM   35  N1  UNL     1     -12.454  47.569 -18.081  1.00  0.00    -0.346 N 
HETATM   36  H10 UNL     1     -12.624  47.373 -19.062  1.00  0.00     0.163 HD
BRANCH  35  37
HETATM   37  C10 UNL     1     -13.639  47.691 -17.225  1.00  0.00     0.186 C 
BRANCH  37  38
HETATM   38  C11 UNL     1     -14.816  48.379 -17.939  1.00  0.00     0.074 C 
BRANCH  38  39
HETATM   39  C12 UNL     1     -15.161  47.780 -19.287  1.00  0.00    -0.056 A 
HETATM   40  C13 UNL     1     -16.363  47.081 -19.466  1.00  0.00     0.007 A 
HETATM   41  C14 UNL     1     -16.697  46.553 -20.714  1.00  0.00     0.001 A 
HETATM   42  C15 UNL     1     -15.832  46.717 -21.796  1.00  0.00     0.000 A 
HETATM   43  C16 UNL     1     -14.632  47.404 -21.629  1.00  0.00     0.001 A 
HETATM   44  C17 UNL     1     -14.294  47.928 -20.380  1.00  0.00     0.007 A 
ENDBRANCH  38  39
ENDBRANCH  37  38
BRANCH  37  45
HETATM   45  C18 UNL     1     -14.061  46.328 -16.673  1.00  0.00     0.163 C 
HETATM   46  O7  UNL     1     -14.229  45.307 -17.320  1.00  0.00    -0.648 OA
BRANCH  45  47
HETATM   47  O8  UNL     1     -14.241  46.315 -15.331  1.00  0.00    -0.775 OA
HETATM   48  H19 UNL     1     -14.484  45.385 -15.138  1.00  0.00     0.167 HD
ENDBRANCH  45  47
ENDBRANCH  37  45
ENDBRANCH  35  37
ENDBRANCH  32  33
ENDBRANCH  31  32
ENDBRANCH  29  31
ENDBRANCH  28  29
ENDBRANCH  27  28
ENDBRANCH  25  27
ENDBRANCH   1  25
TORSDOF 14
ENDMDL
MODEL 9
REMARK minimizedAffinity -9.26789761
REMARK CNNscore 0.181670204
REMARK CNNaffinity 6.86065054
REMARK  14 active torsions:
REMARK  status: ('A' for Active; 'I' for Inactive)
REMARK    1  A    between atoms: C2_2  and  O2_4 
REMARK    2  A    between atoms: O2_4  and  C3_5 
REMARK    3  A    between atoms: C3_5  and  C4_6 
REMARK    4  A    between atoms: C4_6  and  C5_8 
REMARK    5  A    between atoms: C5_8  and  O4_9 
REMARK    6  A    between atoms: O4_9  and  C6_10 
REMARK    7  A    between atoms: C6_10  and  C7_12 
REMARK    8  A    between atoms: C7_12  and  C8_13 
REMARK    9  A    between atoms: C8_13  and  C9_14 
REMARK       I    between atoms: C9_14  and  N1_16 
REMARK   10  A    between atoms: N1_16  and  C10_17 
REMARK   11  A    between atoms: C10_17  and  C11_18 
REMARK   12  A    between atoms: C10_17  and  C18_25 
REMARK   13  A    between atoms: C11_18  and  C12_19 
REMARK   14  A    between atoms: C18_25  and  O8_27 
ROOT
HETATM    1  C3  UNL     1      -3.706  48.935 -19.205  1.00  0.00     0.140 C 
HETATM    2  C19 UNL     1      -5.165  48.471 -18.806  1.00  0.00     0.048 C 
HETATM    3  C20 UNL     1      -6.022  48.469 -20.096  1.00  0.00     0.009 C 
HETATM    4  C21 UNL     1      -4.977  48.646 -21.179  1.00  0.00     0.002 C 
HETATM    5  C22 UNL     1      -5.295  49.004 -22.630  1.00  0.00    -0.004 C 
HETATM    6  C23 UNL     1      -6.605  48.453 -23.206  1.00  0.00     0.010 C 
HETATM    7  C24 UNL     1      -6.439  47.652 -24.498  1.00  0.00     0.035 C 
HETATM    8  C25 UNL     1      -5.436  48.200 -25.493  1.00  0.00    -0.068 C 
HETATM    9  C26 UNL     1      -5.584  47.896 -26.795  1.00  0.00     0.053 C 
HETATM   10  C27 UNL     1      -4.534  48.213 -27.790  1.00  0.00     0.149 C 
HETATM   11  O9  UNL     1      -4.790  48.101 -28.986  1.00  0.00    -0.293 OA
HETATM   12  C28 UNL     1      -3.174  48.658 -27.304  1.00  0.00     0.084 C 
HETATM   13  C29 UNL     1      -2.986  48.469 -25.798  1.00  0.00     0.022 C 
HETATM   14  C30 UNL     1      -4.204  48.944 -24.963  1.00  0.00    -0.016 C 
HETATM   15  C31 UNL     1      -4.395  50.468 -25.146  1.00  0.00     0.020 C 
HETATM   16  C32 UNL     1      -4.038  48.579 -23.451  1.00  0.00     0.002 C 
HETATM   17  C33 UNL     1      -2.714  49.006 -22.750  1.00  0.00     0.007 C 
HETATM   18  C34 UNL     1      -2.847  49.967 -21.559  1.00  0.00     0.013 C 
HETATM   19  C35 UNL     1      -3.992  49.687 -20.552  1.00  0.00    -0.001 C 
HETATM   20  C36 UNL     1      -4.704  51.055 -20.284  1.00  0.00     0.019 C 
ENDROOT
BRANCH   1  21
HETATM   21  O2  UNL     1      -2.996  47.681 -19.455  1.00  0.00    -0.301 OA
BRANCH  21  22
HETATM   22  C2  UNL     1      -3.503  46.509 -18.994  1.00  0.00     0.256 C 
HETATM   23  C1  UNL     1      -3.038  46.260 -17.592  1.00  0.00     0.126 C 
HETATM   24  O1  UNL     1      -4.266  45.779 -19.606  1.00  0.00    -0.266 OA
ENDBRANCH  21  22
ENDBRANCH   1  21
BRANCH   1  25
HETATM   25  C4  UNL     1      -3.102  49.615 -17.948  1.00  0.00     0.186 C 
HETATM   26  O3  UNL     1      -3.339  49.138 -16.827  1.00  0.00    -0.292 OA
BRANCH  25  27
HETATM   27  C5  UNL     1      -2.159  50.803 -18.104  1.00  0.00     0.260 C 
BRANCH  27  28
HETATM   28  O4  UNL     1      -0.793  50.422 -17.902  1.00  0.00    -0.314 OA
BRANCH  28  29
HETATM   29  C6  UNL     1       0.107  51.431 -18.067  1.00  0.00     0.259 C 
HETATM   30  O5  UNL     1       0.990  51.714 -17.269  1.00  0.00    -0.265 OA
BRANCH  29  31
HETATM   31  C7  UNL     1      -0.088  52.113 -19.399  1.00  0.00     0.120 C 
BRANCH  31  32
HETATM   32  C8  UNL     1       1.095  52.992 -19.791  1.00  0.00     0.112 C 
BRANCH  32  33
HETATM   33  C9  UNL     1       0.955  53.536 -21.198  1.00  0.00     0.218 C 
HETATM   34  O6  UNL     1       1.434  54.604 -21.560  1.00  0.00    -0.274 OA
HETATM   35  N1  UNL     1       0.271  52.702 -22.041  1.00  0.00    -0.346 N 
HETATM   36  H10 UNL     1      -0.168  51.855 -21.695  1.00  0.00     0.163 HD
BRANCH  35  37
HETATM   37  C10 UNL     1       0.024  53.036 -23.448  1.00  0.00     0.186 C 
BRANCH  37  38
HETATM   38  C11 UNL     1       1.175  52.595 -24.371  1.00  0.00     0.074 C 
BRANCH  38  39
HETATM   39  C12 UNL     1       0.839  52.641 -25.847  1.00  0.00    -0.056 A 
HETATM   40  C13 UNL     1       0.190  53.757 -26.392  1.00  0.00     0.007 A 
HETATM   41  C14 UNL     1      -0.096  53.814 -27.758  1.00  0.00     0.001 A 
HETATM   42  C15 UNL     1       0.264  52.756 -28.591  1.00  0.00     0.000 A 
HETATM   43  C16 UNL     1       0.903  51.638 -28.060  1.00  0.00     0.001 A 
HETATM   44  C17 UNL     1       1.185  51.577 -26.693  1.00  0.00     0.007 A 
ENDBRANCH  38  39
ENDBRANCH  37  38
BRANCH  37  45
HETATM   45  C18 UNL     1      -1.307  52.455 -23.926  1.00  0.00     0.163 C 
HETATM   46  O7  UNL     1      -2.358  53.064 -24.052  1.00  0.00    -0.648 OA
BRANCH  45  47
HETATM   47  O8  UNL     1      -1.249  51.137 -24.233  1.00  0.00    -0.775 OA
HETATM   48  H19 UNL     1      -2.159  50.929 -24.536  1.00  0.00     0.167 HD
ENDBRANCH  45  47
ENDBRANCH  37  45
ENDBRANCH  35  37
ENDBRANCH  32  33
ENDBRANCH  31  32
ENDBRANCH  29  31
ENDBRANCH  28  29
ENDBRANCH  27  28
ENDBRANCH  25  27
ENDBRANCH   1  25
TORSDOF 14
ENDMDL
