MODEL 1
REMARK minimizedAffinity -7.64141941
REMARK CNNscore 0.525999248
REMARK CNNaffinity 6.80825472
REMARK  16 active torsions:
REMARK  status: ('A' for Active; 'I' for Inactive)
REMARK    1  A    between atoms: S1_2  and  C2_3 
REMARK    2  A    between atoms: C2_3  and  C3_4 
REMARK    3  A    between atoms: C3_4  and  C4_5 
REMARK    4  A    between atoms: C4_5  and  N1_6 
REMARK    5  A    between atoms: C4_5  and  C33_44 
REMARK       I    between atoms: N1_6  and  C5_7 
REMARK    6  A    between atoms: C5_7  and  C6_9 
REMARK    7  A    between atoms: C6_9  and  N2_11 
REMARK       I    between atoms: N2_11  and  C8_12 
REMARK    8  A    between atoms: C8_12  and  C9_14 
REMARK    9  A    between atoms: C9_14  and  C10_15 
REMARK   10  A    between atoms: C10_15  and  C11_16 
REMARK   11  A    between atoms: C11_16  and  O4_18 
REMARK   12  A    between atoms: O4_18  and  C12_19 
REMARK   13  A    between atoms: C12_19  and  C13_20 
REMARK   14  A    between atoms: C13_20  and  C14_22 
REMARK   15  A    between atoms: C14_22  and  O6_23 
REMARK   16  A    between atoms: C33_44  and  O10_46 
ROOT
HETATM    1  C12 UNL     1      -1.210   9.499  17.376  1.00  0.00     0.260 C 
ENDROOT
BRANCH   1   2
HETATM    2  O4  UNL     1      -0.791  10.817  17.709  1.00  0.00    -0.314 OA
BRANCH   2   3
HETATM    3  C11 UNL     1       0.547  10.951  17.936  1.00  0.00     0.259 C 
HETATM    4  O3  UNL     1       1.418  10.485  17.215  1.00  0.00    -0.265 OA
BRANCH   3   5
HETATM    5  C10 UNL     1       0.778  11.701  19.225  1.00  0.00     0.120 C 
BRANCH   5   6
HETATM    6  C9  UNL     1       0.784  10.753  20.416  1.00  0.00     0.112 C 
BRANCH   6   7
HETATM    7  C8  UNL     1       2.193  10.489  20.912  1.00  0.00     0.218 C 
HETATM    8  N2  UNL     1       2.608  11.387  21.872  1.00  0.00    -0.348 N 
HETATM    9  H14 UNL     1       1.866  11.860  22.382  1.00  0.00     0.163 HD
HETATM   10  O2  UNL     1       2.905   9.597  20.463  1.00  0.00    -0.274 OA
BRANCH   8  11
HETATM   11  C6  UNL     1       3.777  11.084  22.691  1.00  0.00     0.172 C 
HETATM   12  C7  UNL     1       4.111   9.602  22.629  1.00  0.00     0.042 C 
BRANCH  11  13
HETATM   13  C5  UNL     1       4.952  11.903  22.123  1.00  0.00     0.240 C 
HETATM   14  N1  UNL     1       5.435  12.881  22.968  1.00  0.00    -0.345 N 
HETATM   15  H9  UNL     1       5.233  12.765  23.954  1.00  0.00     0.163 HD
HETATM   16  O1  UNL     1       5.444  11.658  21.023  1.00  0.00    -0.271 OA
BRANCH  14  17
HETATM   17  C4  UNL     1       6.666  13.604  22.636  1.00  0.00     0.183 C 
BRANCH  17  18
HETATM   18  C3  UNL     1       6.624  15.031  23.198  1.00  0.00     0.046 C 
BRANCH  18  19
HETATM   19  C2  UNL     1       7.255  16.087  22.290  1.00  0.00     0.076 C 
BRANCH  19  20
HETATM   20  S1  UNL     1       6.116  17.397  21.735  1.00  0.00    -0.173 SA
HETATM   21  C1  UNL     1       4.816  17.235  22.981  1.00  0.00     0.089 C 
ENDBRANCH  19  20
ENDBRANCH  18  19
ENDBRANCH  17  18
BRANCH  17  22
HETATM   22  C33 UNL     1       7.889  12.887  23.223  1.00  0.00     0.163 C 
HETATM   23  O9  UNL     1       8.898  13.422  23.655  1.00  0.00    -0.648 OA
BRANCH  22  24
HETATM   24  O10 UNL     1       7.759  11.542  23.305  1.00  0.00    -0.775 OA
HETATM   25  H46 UNL     1       8.621  11.253  23.670  1.00  0.00     0.167 HD
ENDBRANCH  22  24
ENDBRANCH  17  22
ENDBRANCH  14  17
ENDBRANCH  11  13
ENDBRANCH   8  11
ENDBRANCH   6   7
ENDBRANCH   5   6
ENDBRANCH   3   5
ENDBRANCH   2   3
ENDBRANCH   1   2
BRANCH   1  26
HETATM   26  C13 UNL     1      -2.242   9.314  16.256  1.00  0.00     0.185 C 
HETATM   27  O5  UNL     1      -3.271   9.995  16.246  1.00  0.00    -0.292 OA
BRANCH  26  28
HETATM   28  C14 UNL     1      -1.962   8.263  15.157  1.00  0.00     0.128 C 
HETATM   29  C15 UNL     1      -3.177   8.026  14.228  1.00  0.00     0.047 C 
HETATM   30  C16 UNL     1      -2.612   7.628  12.850  1.00  0.00     0.009 C 
HETATM   31  C17 UNL     1      -1.100   7.562  13.056  1.00  0.00     0.002 C 
HETATM   32  C18 UNL     1      -0.172   7.573  11.834  1.00  0.00     0.003 C 
HETATM   33  C31 UNL     1      -0.813   8.622  14.144  1.00  0.00     0.005 C 
HETATM   34  C19 UNL     1      -0.696   8.283  10.568  1.00  0.00     0.010 C 
HETATM   35  C28 UNL     1       1.250   8.096  12.154  1.00  0.00     0.072 C 
HETATM   36  C20 UNL     1       0.421   8.580   9.551  1.00  0.00     0.035 C 
HETATM   37  C21 UNL     1       1.568   7.605   9.696  1.00  0.00    -0.067 C 
HETATM   38  C22 UNL     1       1.874   6.759   8.697  1.00  0.00     0.053 C 
HETATM   39  C26 UNL     1       2.270   7.585  11.070  1.00  0.00    -0.009 C 
HETATM   40  C23 UNL     1       2.929   5.732   8.848  1.00  0.00     0.149 C 
HETATM   41  O7  UNL     1       3.255   5.062   7.868  1.00  0.00    -0.293 OA
HETATM   42  C24 UNL     1       3.598   5.563  10.189  1.00  0.00     0.084 C 
HETATM   43  C25 UNL     1       2.760   6.135  11.332  1.00  0.00     0.022 C 
HETATM   44  C27 UNL     1       3.475   8.551  11.018  1.00  0.00     0.021 C 
HETATM   45  C29 UNL     1       1.617   7.918  13.629  1.00  0.00     0.133 C 
HETATM   46  O8  UNL     1       2.716   7.498  13.988  1.00  0.00    -0.297 OA
HETATM   47  C30 UNL     1       0.618   8.404  14.679  1.00  0.00     0.091 C 
HETATM   48  C32 UNL     1      -0.972  10.072  13.612  1.00  0.00     0.019 C 
BRANCH  28  49
HETATM   49  O6  UNL     1      -1.684   7.001  15.782  1.00  0.00    -0.381 OA
HETATM   50  H21 UNL     1      -1.144   7.174  16.583  1.00  0.00     0.211 HD
ENDBRANCH  28  49
ENDBRANCH  26  28
ENDBRANCH   1  26
TORSDOF 16
ENDMDL
MODEL 2
REMARK minimizedAffinity -8.26006508
REMARK CNNscore 0.421257287
REMARK CNNaffinity 6.32419062
REMARK  16 active torsions:
REMARK  status: ('A' for Active; 'I' for Inactive)
REMARK    1  A    between atoms: S1_2  and  C2_3 
REMARK    2  A    between atoms: C2_3  and  C3_4 
REMARK    3  A    between atoms: C3_4  and  C4_5 
REMARK    4  A    between atoms: C4_5  and  N1_6 
REMARK    5  A    between atoms: C4_5  and  C33_44 
REMARK       I    between atoms: N1_6  and  C5_7 
REMARK    6  A    between atoms: C5_7  and  C6_9 
REMARK    7  A    between atoms: C6_9  and  N2_11 
REMARK       I    between atoms: N2_11  and  C8_12 
REMARK    8  A    between atoms: C8_12  and  C9_14 
REMARK    9  A    between atoms: C9_14  and  C10_15 
REMARK   10  A    between atoms: C10_15  and  C11_16 
REMARK   11  A    between atoms: C11_16  and  O4_18 
REMARK   12  A    between atoms: O4_18  and  C12_19 
REMARK   13  A    between atoms: C12_19  and  C13_20 
REMARK   14  A    between atoms: C13_20  and  C14_22 
REMARK   15  A    between atoms: C14_22  and  O6_23 
REMARK   16  A    between atoms: C33_44  and  O10_46 
ROOT
HETATM    1  C12 UNL     1      -0.227   9.764  15.998  1.00  0.00     0.260 C 
ENDROOT
BRANCH   1   2
HETATM    2  O4  UNL     1       0.418   9.736  17.265  1.00  0.00    -0.314 OA
BRANCH   2   3
HETATM    3  C11 UNL     1      -0.109  10.586  18.193  1.00  0.00     0.259 C 
HETATM    4  O3  UNL     1      -1.307  10.782  18.347  1.00  0.00    -0.265 OA
BRANCH   3   5
HETATM    5  C10 UNL     1       1.000  11.278  18.946  1.00  0.00     0.120 C 
BRANCH   5   6
HETATM    6  C9  UNL     1       0.986  10.890  20.419  1.00  0.00     0.112 C 
BRANCH   6   7
HETATM    7  C8  UNL     1       2.375  10.533  20.913  1.00  0.00     0.218 C 
HETATM    8  N2  UNL     1       2.869  11.428  21.839  1.00  0.00    -0.348 N 
HETATM    9  H14 UNL     1       2.171  11.974  22.337  1.00  0.00     0.163 HD
HETATM   10  O2  UNL     1       3.011   9.574  20.490  1.00  0.00    -0.274 OA
BRANCH   8  11
HETATM   11  C6  UNL     1       4.019  11.062  22.659  1.00  0.00     0.172 C 
HETATM   12  C7  UNL     1       4.238   9.557  22.642  1.00  0.00     0.042 C 
BRANCH  11  13
HETATM   13  C5  UNL     1       5.247  11.770  22.058  1.00  0.00     0.240 C 
HETATM   14  N1  UNL     1       6.004  12.483  22.966  1.00  0.00    -0.345 N 
HETATM   15  H9  UNL     1       5.906  12.219  23.939  1.00  0.00     0.163 HD
HETATM   16  O1  UNL     1       5.548  11.656  20.871  1.00  0.00    -0.271 OA
BRANCH  14  17
HETATM   17  C4  UNL     1       7.299  13.044  22.570  1.00  0.00     0.183 C 
BRANCH  17  18
HETATM   18  C3  UNL     1       7.392  14.522  22.971  1.00  0.00     0.046 C 
BRANCH  18  19
HETATM   19  C2  UNL     1       7.482  15.493  21.793  1.00  0.00     0.076 C 
BRANCH  19  20
HETATM   20  S1  UNL     1       6.946  17.195  22.163  1.00  0.00    -0.173 SA
HETATM   21  C1  UNL     1       7.954  17.534  23.626  1.00  0.00     0.089 C 
ENDBRANCH  19  20
ENDBRANCH  18  19
ENDBRANCH  17  18
BRANCH  17  22
HETATM   22  C33 UNL     1       8.447  12.284  23.246  1.00  0.00     0.163 C 
HETATM   23  O9  UNL     1       9.457  12.780  23.721  1.00  0.00    -0.648 OA
BRANCH  22  24
HETATM   24  O10 UNL     1       8.242  10.951  23.357  1.00  0.00    -0.775 OA
HETATM   25  H46 UNL     1       9.067  10.629  23.778  1.00  0.00     0.167 HD
ENDBRANCH  22  24
ENDBRANCH  17  22
ENDBRANCH  14  17
ENDBRANCH  11  13
ENDBRANCH   8  11
ENDBRANCH   6   7
ENDBRANCH   5   6
ENDBRANCH   3   5
ENDBRANCH   2   3
ENDBRANCH   1   2
BRANCH   1  26
HETATM   26  C13 UNL     1      -0.051   8.567  15.054  1.00  0.00     0.185 C 
HETATM   27  O5  UNL     1       0.803   8.603  14.165  1.00  0.00    -0.292 OA
BRANCH  26  28
HETATM   28  C14 UNL     1      -0.963   7.333  15.245  1.00  0.00     0.128 C 
HETATM   29  C15 UNL     1      -2.134   7.595  16.224  1.00  0.00     0.047 C 
HETATM   30  C16 UNL     1      -3.299   6.693  15.774  1.00  0.00     0.009 C 
HETATM   31  C17 UNL     1      -2.733   5.879  14.612  1.00  0.00     0.002 C 
HETATM   32  C18 UNL     1      -3.694   5.152  13.662  1.00  0.00     0.003 C 
HETATM   33  C31 UNL     1      -1.697   6.818  13.953  1.00  0.00     0.005 C 
HETATM   34  C19 UNL     1      -5.102   5.763  13.496  1.00  0.00     0.010 C 
HETATM   35  C28 UNL     1      -3.088   4.894  12.261  1.00  0.00     0.072 C 
HETATM   36  C20 UNL     1      -5.843   5.212  12.264  1.00  0.00     0.035 C 
HETATM   37  C21 UNL     1      -5.350   3.831  11.899  1.00  0.00    -0.067 C 
HETATM   38  C22 UNL     1      -6.175   2.771  11.970  1.00  0.00     0.053 C 
HETATM   39  C26 UNL     1      -3.851   3.716  11.550  1.00  0.00    -0.009 C 
HETATM   40  C23 UNL     1      -5.694   1.396  11.709  1.00  0.00     0.149 C 
HETATM   41  O7  UNL     1      -6.509   0.475  11.668  1.00  0.00    -0.293 OA
HETATM   42  C24 UNL     1      -4.223   1.170  11.466  1.00  0.00     0.084 C 
HETATM   43  C25 UNL     1      -3.363   2.314  12.004  1.00  0.00     0.022 C 
HETATM   44  C27 UNL     1      -3.691   3.864  10.021  1.00  0.00     0.021 C 
HETATM   45  C29 UNL     1      -1.558   4.848  12.290  1.00  0.00     0.133 C 
HETATM   46  O8  UNL     1      -0.914   3.991  11.687  1.00  0.00    -0.297 OA
HETATM   47  C30 UNL     1      -0.819   5.987  12.993  1.00  0.00     0.091 C 
HETATM   48  C32 UNL     1      -2.367   7.991  13.188  1.00  0.00     0.019 C 
BRANCH  28  49
HETATM   49  O6  UNL     1      -0.190   6.270  15.822  1.00  0.00    -0.381 OA
HETATM   50  H21 UNL     1       0.701   6.287  15.410  1.00  0.00     0.211 HD
ENDBRANCH  28  49
ENDBRANCH  26  28
ENDBRANCH   1  26
TORSDOF 16
ENDMDL
MODEL 3
REMARK minimizedAffinity -8.51224899
REMARK CNNscore 0.395819873
REMARK CNNaffinity 7.06312895
REMARK  16 active torsions:
REMARK  status: ('A' for Active; 'I' for Inactive)
REMARK    1  A    between atoms: S1_2  and  C2_3 
REMARK    2  A    between atoms: C2_3  and  C3_4 
REMARK    3  A    between atoms: C3_4  and  C4_5 
REMARK    4  A    between atoms: C4_5  and  N1_6 
REMARK    5  A    between atoms: C4_5  and  C33_44 
REMARK       I    between atoms: N1_6  and  C5_7 
REMARK    6  A    between atoms: C5_7  and  C6_9 
REMARK    7  A    between atoms: C6_9  and  N2_11 
REMARK       I    between atoms: N2_11  and  C8_12 
REMARK    8  A    between atoms: C8_12  and  C9_14 
REMARK    9  A    between atoms: C9_14  and  C10_15 
REMARK   10  A    between atoms: C10_15  and  C11_16 
REMARK   11  A    between atoms: C11_16  and  O4_18 
REMARK   12  A    between atoms: O4_18  and  C12_19 
REMARK   13  A    between atoms: C12_19  and  C13_20 
REMARK   14  A    between atoms: C13_20  and  C14_22 
REMARK   15  A    between atoms: C14_22  and  O6_23 
REMARK   16  A    between atoms: C33_44  and  O10_46 
ROOT
HETATM    1  C12 UNL     1      -6.298   8.203  15.022  1.00  0.00     0.260 C 
ENDROOT
BRANCH   1   2
HETATM    2  O4  UNL     1      -7.031   7.002  15.232  1.00  0.00    -0.314 OA
BRANCH   2   3
HETATM    3  C11 UNL     1      -8.172   6.893  14.494  1.00  0.00     0.259 C 
HETATM    4  O3  UNL     1      -9.190   7.539  14.697  1.00  0.00    -0.265 OA
BRANCH   3   5
HETATM    5  C10 UNL     1      -8.004   5.825  13.441  1.00  0.00     0.120 C 
BRANCH   5   6
HETATM    6  C9  UNL     1      -7.456   4.540  14.047  1.00  0.00     0.112 C 
BRANCH   6   7
HETATM    7  C8  UNL     1      -7.182   3.495  12.983  1.00  0.00     0.218 C 
HETATM    8  N2  UNL     1      -6.182   3.860  12.107  1.00  0.00    -0.348 N 
HETATM    9  H14 UNL     1      -5.527   4.555  12.454  1.00  0.00     0.163 HD
HETATM   10  O2  UNL     1      -7.825   2.454  12.885  1.00  0.00    -0.274 OA
BRANCH   8  11
HETATM   11  C6  UNL     1      -5.564   2.852  11.251  1.00  0.00     0.172 C 
HETATM   12  C7  UNL     1      -5.756   3.197   9.783  1.00  0.00     0.042 C 
BRANCH  11  13
HETATM   13  C5  UNL     1      -4.061   2.834  11.586  1.00  0.00     0.240 C 
HETATM   14  N1  UNL     1      -3.226   2.845  10.487  1.00  0.00    -0.345 N 
HETATM   15  H9  UNL     1      -3.622   3.194   9.623  1.00  0.00     0.163 HD
HETATM   16  O1  UNL     1      -3.652   2.861  12.745  1.00  0.00    -0.271 OA
BRANCH  14  17
HETATM   17  C4  UNL     1      -1.781   3.022  10.659  1.00  0.00     0.183 C 
BRANCH  17  18
HETATM   18  C3  UNL     1      -1.485   3.901  11.881  1.00  0.00     0.046 C 
BRANCH  18  19
HETATM   19  C2  UNL     1      -0.799   5.228  11.554  1.00  0.00     0.076 C 
BRANCH  19  20
HETATM   20  S1  UNL     1       1.014   5.132  11.395  1.00  0.00    -0.173 SA
HETATM   21  C1  UNL     1       1.504   6.384  12.604  1.00  0.00     0.089 C 
ENDBRANCH  19  20
ENDBRANCH  18  19
ENDBRANCH  17  18
BRANCH  17  22
HETATM   22  C33 UNL     1      -1.090   1.666  10.857  1.00  0.00     0.163 C 
HETATM   23  O9  UNL     1      -1.640   0.577  10.894  1.00  0.00    -0.648 OA
BRANCH  22  24
HETATM   24  O10 UNL     1       0.260   1.735  10.929  1.00  0.00    -0.775 OA
HETATM   25  H46 UNL     1       0.527   0.804  11.078  1.00  0.00     0.167 HD
ENDBRANCH  22  24
ENDBRANCH  17  22
ENDBRANCH  14  17
ENDBRANCH  11  13
ENDBRANCH   8  11
ENDBRANCH   6   7
ENDBRANCH   5   6
ENDBRANCH   3   5
ENDBRANCH   2   3
ENDBRANCH   1   2
BRANCH   1  26
HETATM   26  C13 UNL     1      -4.959   8.129  14.277  1.00  0.00     0.185 C 
HETATM   27  O5  UNL     1      -4.927   8.258  13.051  1.00  0.00    -0.292 OA
BRANCH  26  28
HETATM   28  C14 UNL     1      -3.669   7.889  15.095  1.00  0.00     0.128 C 
HETATM   29  C15 UNL     1      -2.572   7.153  14.287  1.00  0.00     0.047 C 
HETATM   30  C16 UNL     1      -1.216   7.629  14.844  1.00  0.00     0.009 C 
HETATM   31  C17 UNL     1      -1.576   8.550  16.008  1.00  0.00     0.002 C 
HETATM   32  C18 UNL     1      -0.517   9.510  16.565  1.00  0.00     0.003 C 
HETATM   33  C31 UNL     1      -2.925   9.182  15.596  1.00  0.00     0.005 C 
HETATM   34  C19 UNL     1       0.578   9.982  15.585  1.00  0.00     0.010 C 
HETATM   35  C28 UNL     1      -1.127  10.745  17.273  1.00  0.00     0.072 C 
HETATM   36  C20 UNL     1       1.345  11.212  16.105  1.00  0.00     0.035 C 
HETATM   37  C21 UNL     1       1.319  11.278  17.614  1.00  0.00    -0.067 C 
HETATM   38  C22 UNL     1       2.457  11.169  18.321  1.00  0.00     0.053 C 
HETATM   39  C26 UNL     1      -0.077  11.372  18.265  1.00  0.00    -0.009 C 
HETATM   40  C23 UNL     1       2.450  11.136  19.801  1.00  0.00     0.149 C 
HETATM   41  O7  UNL     1       3.522  11.156  20.404  1.00  0.00    -0.293 OA
HETATM   42  C24 UNL     1       1.127  11.114  20.525  1.00  0.00     0.084 C 
HETATM   43  C25 UNL     1      -0.016  10.636  19.630  1.00  0.00     0.022 C 
HETATM   44  C27 UNL     1      -0.418  12.863  18.481  1.00  0.00     0.021 C 
HETATM   45  C29 UNL     1      -2.540  10.476  17.795  1.00  0.00     0.133 C 
HETATM   46  O8  UNL     1      -2.907  10.833  18.914  1.00  0.00    -0.297 OA
HETATM   47  C30 UNL     1      -3.554   9.856  16.834  1.00  0.00     0.091 C 
HETATM   48  C32 UNL     1      -2.767  10.213  14.446  1.00  0.00     0.019 C 
BRANCH  28  49
HETATM   49  O6  UNL     1      -3.979   7.042  16.212  1.00  0.00    -0.381 OA
HETATM   50  H21 UNL     1      -4.856   7.312  16.560  1.00  0.00     0.211 HD
ENDBRANCH  28  49
ENDBRANCH  26  28
ENDBRANCH   1  26
TORSDOF 16
ENDMDL
MODEL 4
REMARK minimizedAffinity -7.79686499
REMARK CNNscore 0.38511306
REMARK CNNaffinity 7.42311668
REMARK  16 active torsions:
REMARK  status: ('A' for Active; 'I' for Inactive)
REMARK    1  A    between atoms: S1_2  and  C2_3 
REMARK    2  A    between atoms: C2_3  and  C3_4 
REMARK    3  A    between atoms: C3_4  and  C4_5 
REMARK    4  A    between atoms: C4_5  and  N1_6 
REMARK    5  A    between atoms: C4_5  and  C33_44 
REMARK       I    between atoms: N1_6  and  C5_7 
REMARK    6  A    between atoms: C5_7  and  C6_9 
REMARK    7  A    between atoms: C6_9  and  N2_11 
REMARK       I    between atoms: N2_11  and  C8_12 
REMARK    8  A    between atoms: C8_12  and  C9_14 
REMARK    9  A    between atoms: C9_14  and  C10_15 
REMARK   10  A    between atoms: C10_15  and  C11_16 
REMARK   11  A    between atoms: C11_16  and  O4_18 
REMARK   12  A    between atoms: O4_18  and  C12_19 
REMARK   13  A    between atoms: C12_19  and  C13_20 
REMARK   14  A    between atoms: C13_20  and  C14_22 
REMARK   15  A    between atoms: C14_22  and  O6_23 
REMARK   16  A    between atoms: C33_44  and  O10_46 
ROOT
HETATM    1  C12 UNL     1     -14.295   7.585  13.473  1.00  0.00     0.260 C 
ENDROOT
BRANCH   1   2
HETATM    2  O4  UNL     1     -14.893   6.625  12.610  1.00  0.00    -0.314 OA
BRANCH   2   3
HETATM    3  C11 UNL     1     -16.143   6.224  12.981  1.00  0.00     0.259 C 
HETATM    4  O3  UNL     1     -17.028   5.912  12.197  1.00  0.00    -0.265 OA
BRANCH   3   5
HETATM    5  C10 UNL     1     -16.277   6.281  14.483  1.00  0.00     0.120 C 
BRANCH   5   6
HETATM    6  C9  UNL     1     -15.717   5.022  15.131  1.00  0.00     0.112 C 
BRANCH   6   7
HETATM    7  C8  UNL     1     -16.551   3.802  14.788  1.00  0.00     0.218 C 
HETATM    8  N2  UNL     1     -15.812   2.778  14.234  1.00  0.00    -0.348 N 
HETATM    9  H14 UNL     1     -14.817   2.791  14.441  1.00  0.00     0.163 HD
HETATM   10  O2  UNL     1     -17.767   3.756  14.942  1.00  0.00    -0.274 OA
BRANCH   8  11
HETATM   11  C6  UNL     1     -16.376   1.433  14.164  1.00  0.00     0.172 C 
HETATM   12  C7  UNL     1     -16.185   0.838  12.778  1.00  0.00     0.042 C 
BRANCH  11  13
HETATM   13  C5  UNL     1     -15.629   0.575  15.203  1.00  0.00     0.240 C 
HETATM   14  N1  UNL     1     -16.004  -0.753  15.230  1.00  0.00    -0.345 N 
HETATM   15  H9  UNL     1     -16.450  -1.113  14.394  1.00  0.00     0.163 HD
HETATM   16  O1  UNL     1     -14.735   1.039  15.908  1.00  0.00    -0.271 OA
BRANCH  14  17
HETATM   17  C4  UNL     1     -15.246  -1.718  16.031  1.00  0.00     0.183 C 
BRANCH  17  18
HETATM   18  C3  UNL     1     -16.196  -2.662  16.781  1.00  0.00     0.046 C 
BRANCH  18  19
HETATM   19  C2  UNL     1     -17.041  -3.559  15.876  1.00  0.00     0.076 C 
BRANCH  19  20
HETATM   20  S1  UNL     1     -18.763  -3.007  15.646  1.00  0.00    -0.173 SA
HETATM   21  C1  UNL     1     -18.983  -3.381  13.891  1.00  0.00     0.089 C 
ENDBRANCH  19  20
ENDBRANCH  18  19
ENDBRANCH  17  18
BRANCH  17  22
HETATM   22  C33 UNL     1     -14.329  -2.563  15.136  1.00  0.00     0.163 C 
HETATM   23  O9  UNL     1     -13.561  -3.435  15.511  1.00  0.00    -0.648 OA
BRANCH  22  24
HETATM   24  O10 UNL     1     -14.472  -2.324  13.811  1.00  0.00    -0.775 OA
HETATM   25  H46 UNL     1     -13.808  -2.918  13.402  1.00  0.00     0.167 HD
ENDBRANCH  22  24
ENDBRANCH  17  22
ENDBRANCH  14  17
ENDBRANCH  11  13
ENDBRANCH   8  11
ENDBRANCH   6   7
ENDBRANCH   5   6
ENDBRANCH   3   5
ENDBRANCH   2   3
ENDBRANCH   1   2
BRANCH   1  26
HETATM   26  C13 UNL     1     -13.659   8.836  12.855  1.00  0.00     0.185 C 
HETATM   27  O5  UNL     1     -14.327   9.574  12.127  1.00  0.00    -0.292 OA
BRANCH  26  28
HETATM   28  C14 UNL     1     -12.174   9.141  13.164  1.00  0.00     0.128 C 
HETATM   29  C15 UNL     1     -11.995  10.111  14.357  1.00  0.00     0.047 C 
HETATM   30  C16 UNL     1     -10.651   9.753  15.022  1.00  0.00     0.009 C 
HETATM   31  C17 UNL     1     -10.062   8.655  14.139  1.00  0.00     0.002 C 
HETATM   32  C18 UNL     1      -8.923   7.781  14.681  1.00  0.00     0.003 C 
HETATM   33  C31 UNL     1     -11.294   7.906  13.582  1.00  0.00     0.005 C 
HETATM   34  C19 UNL     1      -8.865   7.585  16.211  1.00  0.00     0.010 C 
HETATM   35  C28 UNL     1      -8.834   6.398  13.991  1.00  0.00     0.072 C 
HETATM   36  C20 UNL     1      -7.955   6.412  16.622  1.00  0.00     0.035 C 
HETATM   37  C21 UNL     1      -6.888   6.156  15.583  1.00  0.00    -0.067 C 
HETATM   38  C22 UNL     1      -5.589   6.326  15.885  1.00  0.00     0.053 C 
HETATM   39  C26 UNL     1      -7.390   5.798  14.169  1.00  0.00    -0.009 C 
HETATM   40  C23 UNL     1      -4.529   6.173  14.862  1.00  0.00     0.149 C 
HETATM   41  O7  UNL     1      -3.350   6.220  15.211  1.00  0.00    -0.293 OA
HETATM   42  C24 UNL     1      -4.928   5.929  13.428  1.00  0.00     0.084 C 
HETATM   43  C25 UNL     1      -6.368   6.359  13.145  1.00  0.00     0.022 C 
HETATM   44  C27 UNL     1      -7.468   4.259  14.052  1.00  0.00     0.021 C 
HETATM   45  C29 UNL     1      -9.441   6.410  12.587  1.00  0.00     0.133 C 
HETATM   46  O8  UNL     1      -8.892   5.871  11.627  1.00  0.00    -0.297 OA
HETATM   47  C30 UNL     1     -10.839   7.006  12.414  1.00  0.00     0.091 C 
HETATM   48  C32 UNL     1     -12.008   7.056  14.668  1.00  0.00     0.019 C 
BRANCH  28  49
HETATM   49  O6  UNL     1     -11.588   9.793  12.027  1.00  0.00    -0.381 OA
HETATM   50  H21 UNL     1     -11.947   9.369  11.218  1.00  0.00     0.211 HD
ENDBRANCH  28  49
ENDBRANCH  26  28
ENDBRANCH   1  26
TORSDOF 16
ENDMDL
MODEL 5
REMARK minimizedAffinity -7.93053007
REMARK CNNscore 0.35475868
REMARK CNNaffinity 6.84429932
REMARK  16 active torsions:
REMARK  status: ('A' for Active; 'I' for Inactive)
REMARK    1  A    between atoms: S1_2  and  C2_3 
REMARK    2  A    between atoms: C2_3  and  C3_4 
REMARK    3  A    between atoms: C3_4  and  C4_5 
REMARK    4  A    between atoms: C4_5  and  N1_6 
REMARK    5  A    between atoms: C4_5  and  C33_44 
REMARK       I    between atoms: N1_6  and  C5_7 
REMARK    6  A    between atoms: C5_7  and  C6_9 
REMARK    7  A    between atoms: C6_9  and  N2_11 
REMARK       I    between atoms: N2_11  and  C8_12 
REMARK    8  A    between atoms: C8_12  and  C9_14 
REMARK    9  A    between atoms: C9_14  and  C10_15 
REMARK   10  A    between atoms: C10_15  and  C11_16 
REMARK   11  A    between atoms: C11_16  and  O4_18 
REMARK   12  A    between atoms: O4_18  and  C12_19 
REMARK   13  A    between atoms: C12_19  and  C13_20 
REMARK   14  A    between atoms: C13_20  and  C14_22 
REMARK   15  A    between atoms: C14_22  and  O6_23 
REMARK   16  A    between atoms: C33_44  and  O10_46 
ROOT
HETATM    1  C12 UNL     1       1.913   7.130  12.152  1.00  0.00     0.260 C 
ENDROOT
BRANCH   1   2
HETATM    2  O4  UNL     1       1.442   8.251  11.413  1.00  0.00    -0.314 OA
BRANCH   2   3
HETATM    3  C11 UNL     1       1.321   8.041  10.071  1.00  0.00     0.259 C 
HETATM    4  O3  UNL     1       0.260   7.842   9.497  1.00  0.00    -0.265 OA
BRANCH   3   5
HETATM    5  C10 UNL     1       2.686   8.033   9.427  1.00  0.00     0.120 C 
BRANCH   5   6
HETATM    6  C9  UNL     1       2.972   6.690   8.769  1.00  0.00     0.112 C 
BRANCH   6   7
HETATM    7  C8  UNL     1       3.913   5.848   9.610  1.00  0.00     0.218 C 
HETATM    8  N2  UNL     1       4.954   6.572  10.152  1.00  0.00    -0.348 N 
HETATM    9  H14 UNL     1       4.794   7.572  10.241  1.00  0.00     0.163 HD
HETATM   10  O2  UNL     1       3.784   4.636   9.749  1.00  0.00    -0.274 OA
BRANCH   8  11
HETATM   11  C6  UNL     1       5.740   6.006  11.244  1.00  0.00     0.172 C 
HETATM   12  C7  UNL     1       6.874   5.148  10.706  1.00  0.00     0.042 C 
BRANCH  11  13
HETATM   13  C5  UNL     1       6.320   7.188  12.043  1.00  0.00     0.240 C 
HETATM   14  N1  UNL     1       5.481   7.693  13.015  1.00  0.00    -0.345 N 
HETATM   15  H9  UNL     1       4.748   7.076  13.344  1.00  0.00     0.163 HD
HETATM   16  O1  UNL     1       7.462   7.603  11.854  1.00  0.00    -0.271 OA
BRANCH  14  17
HETATM   17  C4  UNL     1       5.974   8.687  13.973  1.00  0.00     0.183 C 
BRANCH  17  18
HETATM   18  C3  UNL     1       5.048   9.910  14.008  1.00  0.00     0.046 C 
BRANCH  18  19
HETATM   19  C2  UNL     1       4.831  10.499  15.403  1.00  0.00     0.076 C 
BRANCH  19  20
HETATM   20  S1  UNL     1       3.105  10.941  15.785  1.00  0.00    -0.173 SA
HETATM   21  C1  UNL     1       2.304  10.456  14.237  1.00  0.00     0.089 C 
ENDBRANCH  19  20
ENDBRANCH  18  19
ENDBRANCH  17  18
BRANCH  17  22
HETATM   22  C33 UNL     1       6.043   8.090  15.385  1.00  0.00     0.163 C 
HETATM   23  O9  UNL     1       6.812   8.427  16.272  1.00  0.00    -0.648 OA
BRANCH  22  24
HETATM   24  O10 UNL     1       5.102   7.152  15.638  1.00  0.00    -0.775 OA
HETATM   25  H46 UNL     1       5.306   6.868  16.554  1.00  0.00     0.167 HD
ENDBRANCH  22  24
ENDBRANCH  17  22
ENDBRANCH  14  17
ENDBRANCH  11  13
ENDBRANCH   8  11
ENDBRANCH   6   7
ENDBRANCH   5   6
ENDBRANCH   3   5
ENDBRANCH   2   3
ENDBRANCH   1   2
BRANCH   1  26
HETATM   26  C13 UNL     1       0.947   5.971  12.428  1.00  0.00     0.185 C 
HETATM   27  O5  UNL     1       0.950   4.977  11.697  1.00  0.00    -0.292 OA
BRANCH  26  28
HETATM   28  C14 UNL     1      -0.019   6.082  13.631  1.00  0.00     0.128 C 
HETATM   29  C15 UNL     1       0.355   7.231  14.598  1.00  0.00     0.047 C 
HETATM   30  C16 UNL     1      -0.960   7.721  15.236  1.00  0.00     0.009 C 
HETATM   31  C17 UNL     1      -2.031   6.783  14.684  1.00  0.00     0.002 C 
HETATM   32  C18 UNL     1      -3.509   7.184  14.783  1.00  0.00     0.003 C 
HETATM   33  C31 UNL     1      -1.519   6.398  13.277  1.00  0.00     0.005 C 
HETATM   34  C19 UNL     1      -3.819   8.696  14.809  1.00  0.00     0.010 C 
HETATM   35  C28 UNL     1      -4.399   6.505  13.714  1.00  0.00     0.072 C 
HETATM   36  C20 UNL     1      -5.301   9.000  14.522  1.00  0.00     0.035 C 
HETATM   37  C21 UNL     1      -6.184   7.835  14.906  1.00  0.00    -0.067 C 
HETATM   38  C22 UNL     1      -7.095   7.965  15.887  1.00  0.00     0.053 C 
HETATM   39  C26 UNL     1      -5.901   6.502  14.183  1.00  0.00    -0.009 C 
HETATM   40  C23 UNL     1      -7.907   6.816  16.347  1.00  0.00     0.149 C 
HETATM   41  O7  UNL     1      -8.809   7.009  17.161  1.00  0.00    -0.293 OA
HETATM   42  C24 UNL     1      -7.627   5.448  15.775  1.00  0.00     0.084 C 
HETATM   43  C25 UNL     1      -6.228   5.348  15.168  1.00  0.00     0.022 C 
HETATM   44  C27 UNL     1      -6.815   6.414  12.941  1.00  0.00     0.021 C 
HETATM   45  C29 UNL     1      -3.799   5.190  13.210  1.00  0.00     0.133 C 
HETATM   46  O8  UNL     1      -4.476   4.174  13.055  1.00  0.00    -0.297 OA
HETATM   47  C30 UNL     1      -2.336   5.192  12.767  1.00  0.00     0.091 C 
HETATM   48  C32 UNL     1      -1.617   7.577  12.271  1.00  0.00     0.019 C 
BRANCH  28  49
HETATM   49  O6  UNL     1       0.055   4.872  14.398  1.00  0.00    -0.381 OA
HETATM   50  H21 UNL     1       0.131   4.121  13.771  1.00  0.00     0.211 HD
ENDBRANCH  28  49
ENDBRANCH  26  28
ENDBRANCH   1  26
TORSDOF 16
ENDMDL
MODEL 6
REMARK minimizedAffinity -8.61940861
REMARK CNNscore 0.354700506
REMARK CNNaffinity 6.83146286
REMARK  16 active torsions:
REMARK  status: ('A' for Active; 'I' for Inactive)
REMARK    1  A    between atoms: S1_2  and  C2_3 
REMARK    2  A    between atoms: C2_3  and  C3_4 
REMARK    3  A    between atoms: C3_4  and  C4_5 
REMARK    4  A    between atoms: C4_5  and  N1_6 
REMARK    5  A    between atoms: C4_5  and  C33_44 
REMARK       I    between atoms: N1_6  and  C5_7 
REMARK    6  A    between atoms: C5_7  and  C6_9 
REMARK    7  A    between atoms: C6_9  and  N2_11 
REMARK       I    between atoms: N2_11  and  C8_12 
REMARK    8  A    between atoms: C8_12  and  C9_14 
REMARK    9  A    between atoms: C9_14  and  C10_15 
REMARK   10  A    between atoms: C10_15  and  C11_16 
REMARK   11  A    between atoms: C11_16  and  O4_18 
REMARK   12  A    between atoms: O4_18  and  C12_19 
REMARK   13  A    between atoms: C12_19  and  C13_20 
REMARK   14  A    between atoms: C13_20  and  C14_22 
REMARK   15  A    between atoms: C14_22  and  O6_23 
REMARK   16  A    between atoms: C33_44  and  O10_46 
ROOT
HETATM    1  C12 UNL     1       4.213   6.593  10.935  1.00  0.00     0.260 C 
ENDROOT
BRANCH   1   2
HETATM    2  O4  UNL     1       5.353   6.943  10.161  1.00  0.00    -0.314 OA
BRANCH   2   3
HETATM    3  C11 UNL     1       6.380   7.490  10.872  1.00  0.00     0.259 C 
HETATM    4  O3  UNL     1       6.909   8.561  10.608  1.00  0.00    -0.265 OA
BRANCH   3   5
HETATM    5  C10 UNL     1       6.793   6.555  11.983  1.00  0.00     0.120 C 
BRANCH   5   6
HETATM    6  C9  UNL     1       6.576   7.196  13.347  1.00  0.00     0.112 C 
BRANCH   6   7
HETATM    7  C8  UNL     1       7.862   7.782  13.898  1.00  0.00     0.218 C 
HETATM    8  N2  UNL     1       7.883   7.847  15.275  1.00  0.00    -0.348 N 
HETATM    9  H14 UNL     1       7.256   7.207  15.755  1.00  0.00     0.163 HD
HETATM   10  O2  UNL     1       8.767   8.202  13.184  1.00  0.00    -0.274 OA
BRANCH   8  11
HETATM   11  C6  UNL     1       9.149   8.056  15.971  1.00  0.00     0.172 C 
HETATM   12  C7  UNL     1      10.315   8.021  14.996  1.00  0.00     0.042 C 
BRANCH  11  13
HETATM   13  C5  UNL     1       9.075   9.443  16.638  1.00  0.00     0.240 C 
HETATM   14  N1  UNL     1      10.074   9.695  17.556  1.00  0.00    -0.345 N 
HETATM   15  H9  UNL     1      10.916   9.138  17.471  1.00  0.00     0.163 HD
HETATM   16  O1  UNL     1       8.218  10.269  16.329  1.00  0.00    -0.271 OA
BRANCH  14  17
HETATM   17  C4  UNL     1      10.236  11.037  18.122  1.00  0.00     0.183 C 
BRANCH  17  18
HETATM   18  C3  UNL     1      10.007  11.015  19.639  1.00  0.00     0.046 C 
BRANCH  18  19
HETATM   19  C2  UNL     1       9.029  12.076  20.147  1.00  0.00     0.076 C 
BRANCH  19  20
HETATM   20  S1  UNL     1       9.610  13.021  21.593  1.00  0.00    -0.173 SA
HETATM   21  C1  UNL     1       8.777  12.116  22.918  1.00  0.00     0.089 C 
ENDBRANCH  19  20
ENDBRANCH  18  19
ENDBRANCH  17  18
BRANCH  17  22
HETATM   22  C33 UNL     1      11.649  11.571  17.852  1.00  0.00     0.163 C 
HETATM   23  O9  UNL     1      11.927  12.622  17.295  1.00  0.00    -0.648 OA
BRANCH  22  24
HETATM   24  O10 UNL     1      12.640  10.799  18.354  1.00  0.00    -0.775 OA
HETATM   25  H46 UNL     1      13.455  11.266  18.073  1.00  0.00     0.167 HD
ENDBRANCH  22  24
ENDBRANCH  17  22
ENDBRANCH  14  17
ENDBRANCH  11  13
ENDBRANCH   8  11
ENDBRANCH   6   7
ENDBRANCH   5   6
ENDBRANCH   3   5
ENDBRANCH   2   3
ENDBRANCH   1   2
BRANCH   1  26
HETATM   26  C13 UNL     1       3.122   7.649  11.160  1.00  0.00     0.185 C 
HETATM   27  O5  UNL     1       3.430   8.789  11.516  1.00  0.00    -0.292 OA
BRANCH  26  28
HETATM   28  C14 UNL     1       1.646   7.248  10.932  1.00  0.00     0.128 C 
HETATM   29  C15 UNL     1       1.482   5.767  10.513  1.00  0.00     0.047 C 
HETATM   30  C16 UNL     1       0.109   5.306  11.040  1.00  0.00     0.009 C 
HETATM   31  C17 UNL     1      -0.507   6.556  11.665  1.00  0.00     0.002 C 
HETATM   32  C18 UNL     1      -1.694   6.412  12.626  1.00  0.00     0.003 C 
HETATM   33  C31 UNL     1       0.704   7.362  12.187  1.00  0.00     0.005 C 
HETATM   34  C19 UNL     1      -1.795   5.090  13.414  1.00  0.00     0.010 C 
HETATM   35  C28 UNL     1      -1.827   7.599  13.612  1.00  0.00     0.072 C 
HETATM   36  C20 UNL     1      -2.763   5.185  14.607  1.00  0.00     0.035 C 
HETATM   37  C21 UNL     1      -3.818   6.243  14.375  1.00  0.00    -0.067 C 
HETATM   38  C22 UNL     1      -5.114   5.903  14.277  1.00  0.00     0.053 C 
HETATM   39  C26 UNL     1      -3.299   7.681  14.162  1.00  0.00    -0.009 C 
HETATM   40  C23 UNL     1      -6.156   6.905  13.957  1.00  0.00     0.149 C 
HETATM   41  O7  UNL     1      -7.339   6.570  13.996  1.00  0.00    -0.293 OA
HETATM   42  C24 UNL     1      -5.736   8.315  13.627  1.00  0.00     0.084 C 
HETATM   43  C25 UNL     1      -4.273   8.398  13.190  1.00  0.00     0.022 C 
HETATM   44  C27 UNL     1      -3.285   8.404  15.528  1.00  0.00     0.021 C 
HETATM   45  C29 UNL     1      -1.189   8.879  13.069  1.00  0.00     0.133 C 
HETATM   46  O8  UNL     1      -1.739   9.976  13.153  1.00  0.00    -0.297 OA
HETATM   47  C30 UNL     1       0.236   8.794  12.523  1.00  0.00     0.091 C 
HETATM   48  C32 UNL     1       1.356   6.705  13.434  1.00  0.00     0.019 C 
BRANCH  28  49
HETATM   49  O6  UNL     1       1.114   8.031   9.853  1.00  0.00    -0.381 OA
HETATM   50  H21 UNL     1       1.472   8.941   9.936  1.00  0.00     0.211 HD
ENDBRANCH  28  49
ENDBRANCH  26  28
ENDBRANCH   1  26
TORSDOF 16
ENDMDL
MODEL 7
REMARK minimizedAffinity -8.37888432
REMARK CNNscore 0.333821535
REMARK CNNaffinity 6.44638443
REMARK  16 active torsions:
REMARK  status: ('A' for Active; 'I' for Inactive)
REMARK    1  A    between atoms: S1_2  and  C2_3 
REMARK    2  A    between atoms: C2_3  and  C3_4 
REMARK    3  A    between atoms: C3_4  and  C4_5 
REMARK    4  A    between atoms: C4_5  and  N1_6 
REMARK    5  A    between atoms: C4_5  and  C33_44 
REMARK       I    between atoms: N1_6  and  C5_7 
REMARK    6  A    between atoms: C5_7  and  C6_9 
REMARK    7  A    between atoms: C6_9  and  N2_11 
REMARK       I    between atoms: N2_11  and  C8_12 
REMARK    8  A    between atoms: C8_12  and  C9_14 
REMARK    9  A    between atoms: C9_14  and  C10_15 
REMARK   10  A    between atoms: C10_15  and  C11_16 
REMARK   11  A    between atoms: C11_16  and  O4_18 
REMARK   12  A    between atoms: O4_18  and  C12_19 
REMARK   13  A    between atoms: C12_19  and  C13_20 
REMARK   14  A    between atoms: C13_20  and  C14_22 
REMARK   15  A    between atoms: C14_22  and  O6_23 
REMARK   16  A    between atoms: C33_44  and  O10_46 
ROOT
HETATM    1  C12 UNL     1      -0.123  11.105  15.962  1.00  0.00     0.260 C 
ENDROOT
BRANCH   1   2
HETATM    2  O4  UNL     1       0.885  11.741  16.738  1.00  0.00    -0.314 OA
BRANCH   2   3
HETATM    3  C11 UNL     1       0.527  12.017  18.024  1.00  0.00     0.259 C 
HETATM    4  O3  UNL     1       0.206  13.126  18.428  1.00  0.00    -0.265 OA
BRANCH   3   5
HETATM    5  C10 UNL     1       0.643  10.773  18.870  1.00  0.00     0.120 C 
BRANCH   5   6
HETATM    6  C9  UNL     1       0.880  11.125  20.332  1.00  0.00     0.112 C 
BRANCH   6   7
HETATM    7  C8  UNL     1       2.252  10.677  20.797  1.00  0.00     0.218 C 
HETATM    8  N2  UNL     1       2.846  11.562  21.672  1.00  0.00    -0.348 N 
HETATM    9  H14 UNL     1       2.211  12.180  22.170  1.00  0.00     0.163 HD
HETATM   10  O2  UNL     1       2.795   9.654  20.393  1.00  0.00    -0.274 OA
BRANCH   8  11
HETATM   11  C6  UNL     1       3.990  11.135  22.470  1.00  0.00     0.172 C 
HETATM   12  C7  UNL     1       4.030   9.619  22.591  1.00  0.00     0.042 C 
BRANCH  11  13
HETATM   13  C5  UNL     1       5.257  11.629  21.746  1.00  0.00     0.240 C 
HETATM   14  N1  UNL     1       6.135  12.338  22.540  1.00  0.00    -0.345 N 
HETATM   15  H9  UNL     1       6.060  12.190  23.539  1.00  0.00     0.163 HD
HETATM   16  O1  UNL     1       5.479  11.359  20.567  1.00  0.00    -0.271 OA
BRANCH  14  17
HETATM   17  C4  UNL     1       7.461  12.701  22.033  1.00  0.00     0.183 C 
BRANCH  17  18
HETATM   18  C3  UNL     1       7.496  14.178  21.618  1.00  0.00     0.046 C 
BRANCH  18  19
HETATM   19  C2  UNL     1       8.307  14.461  20.353  1.00  0.00     0.076 C 
BRANCH  19  20
HETATM   20  S1  UNL     1       9.264  13.042  19.726  1.00  0.00    -0.173 SA
HETATM   21  C1  UNL     1       8.098  12.386  18.510  1.00  0.00     0.089 C 
ENDBRANCH  19  20
ENDBRANCH  18  19
ENDBRANCH  17  18
BRANCH  17  22
HETATM   22  C33 UNL     1       8.532  12.474  23.109  1.00  0.00     0.163 C 
HETATM   23  O9  UNL     1       9.062  13.337  23.790  1.00  0.00    -0.648 OA
BRANCH  22  24
HETATM   24  O10 UNL     1       8.833  11.173  23.327  1.00  0.00    -0.775 OA
HETATM   25  H46 UNL     1       9.535  11.214  24.010  1.00  0.00     0.167 HD
ENDBRANCH  22  24
ENDBRANCH  17  22
ENDBRANCH  14  17
ENDBRANCH  11  13
ENDBRANCH   8  11
ENDBRANCH   6   7
ENDBRANCH   5   6
ENDBRANCH   3   5
ENDBRANCH   2   3
ENDBRANCH   1   2
BRANCH   1  26
HETATM   26  C13 UNL     1       0.303  10.194  14.804  1.00  0.00     0.185 C 
HETATM   27  O5  UNL     1       1.491   9.897  14.656  1.00  0.00    -0.292 OA
BRANCH  26  28
HETATM   28  C14 UNL     1      -0.784   9.666  13.838  1.00  0.00     0.128 C 
HETATM   29  C15 UNL     1      -0.193   8.928  12.613  1.00  0.00     0.047 C 
HETATM   30  C16 UNL     1      -1.228   7.866  12.192  1.00  0.00     0.009 C 
HETATM   31  C17 UNL     1      -2.413   8.087  13.130  1.00  0.00     0.002 C 
HETATM   32  C18 UNL     1      -3.473   6.988  13.276  1.00  0.00     0.003 C 
HETATM   33  C31 UNL     1      -1.776   8.604  14.440  1.00  0.00     0.005 C 
HETATM   34  C19 UNL     1      -3.010   5.536  13.031  1.00  0.00     0.010 C 
HETATM   35  C28 UNL     1      -4.237   7.053  14.621  1.00  0.00     0.072 C 
HETATM   36  C20 UNL     1      -4.012   4.498  13.567  1.00  0.00     0.035 C 
HETATM   37  C21 UNL     1      -5.414   5.059  13.611  1.00  0.00    -0.067 C 
HETATM   38  C22 UNL     1      -6.384   4.533  12.843  1.00  0.00     0.053 C 
HETATM   39  C26 UNL     1      -5.617   6.307  14.496  1.00  0.00    -0.009 C 
HETATM   40  C23 UNL     1      -7.741   5.122  12.795  1.00  0.00     0.149 C 
HETATM   41  O7  UNL     1      -8.625   4.536  12.172  1.00  0.00    -0.293 OA
HETATM   42  C24 UNL     1      -8.006   6.405  13.542  1.00  0.00     0.084 C 
HETATM   43  C25 UNL     1      -6.723   7.179  13.842  1.00  0.00     0.022 C 
HETATM   44  C27 UNL     1      -6.068   5.844  15.899  1.00  0.00     0.021 C 
HETATM   45  C29 UNL     1      -4.231   8.459  15.225  1.00  0.00     0.133 C 
HETATM   46  O8  UNL     1      -5.238   8.972  15.711  1.00  0.00    -0.297 OA
HETATM   47  C30 UNL     1      -2.891   9.187  15.334  1.00  0.00     0.091 C 
HETATM   48  C32 UNL     1      -1.006   7.491  15.201  1.00  0.00     0.019 C 
BRANCH  28  49
HETATM   49  O6  UNL     1      -1.522  10.781  13.317  1.00  0.00    -0.381 OA
HETATM   50  H21 UNL     1      -1.643  11.428  14.044  1.00  0.00     0.211 HD
ENDBRANCH  28  49
ENDBRANCH  26  28
ENDBRANCH   1  26
TORSDOF 16
ENDMDL
MODEL 8
REMARK minimizedAffinity -7.66150331
REMARK CNNscore 0.328524262
REMARK CNNaffinity 5.94422197
REMARK  16 active torsions:
REMARK  status: ('A' for Active; 'I' for Inactive)
REMARK    1  A    between atoms: S1_2  and  C2_3 
REMARK    2  A    between atoms: C2_3  and  C3_4 
REMARK    3  A    between atoms: C3_4  and  C4_5 
REMARK    4  A    between atoms: C4_5  and  N1_6 
REMARK    5  A    between atoms: C4_5  and  C33_44 
REMARK       I    between atoms: N1_6  and  C5_7 
REMARK    6  A    between atoms: C5_7  and  C6_9 
REMARK    7  A    between atoms: C6_9  and  N2_11 
REMARK       I    between atoms: N2_11  and  C8_12 
REMARK    8  A    between atoms: C8_12  and  C9_14 
REMARK    9  A    between atoms: C9_14  and  C10_15 
REMARK   10  A    between atoms: C10_15  and  C11_16 
REMARK   11  A    between atoms: C11_16  and  O4_18 
REMARK   12  A    between atoms: O4_18  and  C12_19 
REMARK   13  A    between atoms: C12_19  and  C13_20 
REMARK   14  A    between atoms: C13_20  and  C14_22 
REMARK   15  A    between atoms: C14_22  and  O6_23 
REMARK   16  A    between atoms: C33_44  and  O10_46 
ROOT
HETATM    1  C12 UNL     1       2.016   9.814  14.195  1.00  0.00     0.260 C 
ENDROOT
BRANCH   1   2
HETATM    2  O4  UNL     1       2.654   8.573  14.473  1.00  0.00    -0.314 OA
BRANCH   2   3
HETATM    3  C11 UNL     1       3.888   8.681  15.043  1.00  0.00     0.259 C 
HETATM    4  O3  UNL     1       4.421   7.801  15.704  1.00  0.00    -0.265 OA
BRANCH   3   5
HETATM    5  C10 UNL     1       4.457  10.054  14.784  1.00  0.00     0.120 C 
BRANCH   5   6
HETATM    6  C9  UNL     1       5.178  10.589  16.014  1.00  0.00     0.112 C 
BRANCH   6   7
HETATM    7  C8  UNL     1       6.683  10.466  15.874  1.00  0.00     0.218 C 
HETATM    8  N2  UNL     1       7.300  10.010  17.020  1.00  0.00    -0.348 N 
HETATM    9  H14 UNL     1       6.708   9.489  17.661  1.00  0.00     0.163 HD
HETATM   10  O2  UNL     1       7.290  10.789  14.859  1.00  0.00    -0.274 OA
BRANCH   8  11
HETATM   11  C6  UNL     1       8.671   9.514  16.957  1.00  0.00     0.172 C 
HETATM   12  C7  UNL     1       9.071   9.212  15.521  1.00  0.00     0.042 C 
BRANCH  11  13
HETATM   13  C5  UNL     1       9.580  10.621  17.525  1.00  0.00     0.240 C 
HETATM   14  N1  UNL     1      10.797  10.179  18.001  1.00  0.00    -0.345 N 
HETATM   15  H9  UNL     1      11.123   9.286  17.649  1.00  0.00     0.163 HD
HETATM   16  O1  UNL     1       9.254  11.806  17.500  1.00  0.00    -0.271 OA
BRANCH  14  17
HETATM   17  C4  UNL     1      11.832  11.141  18.392  1.00  0.00     0.183 C 
BRANCH  17  18
HETATM   18  C3  UNL     1      11.717  12.425  17.561  1.00  0.00     0.046 C 
BRANCH  18  19
HETATM   19  C2  UNL     1      12.973  12.777  16.764  1.00  0.00     0.076 C 
BRANCH  19  20
HETATM   20  S1  UNL     1      14.391  11.667  17.042  1.00  0.00    -0.173 SA
HETATM   21  C1  UNL     1      15.395  12.702  18.132  1.00  0.00     0.089 C 
ENDBRANCH  19  20
ENDBRANCH  18  19
ENDBRANCH  17  18
BRANCH  17  22
HETATM   22  C33 UNL     1      11.695  11.509  19.876  1.00  0.00     0.163 C 
HETATM   23  O9  UNL     1      12.580  11.953  20.591  1.00  0.00    -0.648 OA
BRANCH  22  24
HETATM   24  O10 UNL     1      10.443  11.369  20.370  1.00  0.00    -0.775 OA
HETATM   25  H46 UNL     1      10.544  11.617  21.313  1.00  0.00     0.167 HD
ENDBRANCH  22  24
ENDBRANCH  17  22
ENDBRANCH  14  17
ENDBRANCH  11  13
ENDBRANCH   8  11
ENDBRANCH   6   7
ENDBRANCH   5   6
ENDBRANCH   3   5
ENDBRANCH   2   3
ENDBRANCH   1   2
BRANCH   1  26
HETATM   26  C13 UNL     1       0.565  10.016  14.651  1.00  0.00     0.185 C 
HETATM   27  O5  UNL     1       0.327  10.547  15.738  1.00  0.00    -0.292 OA
BRANCH  26  28
HETATM   28  C14 UNL     1      -0.576   9.540  13.722  1.00  0.00     0.128 C 
HETATM   29  C15 UNL     1      -0.057   8.842  12.441  1.00  0.00     0.047 C 
HETATM   30  C16 UNL     1      -1.128   7.810  12.033  1.00  0.00     0.009 C 
HETATM   31  C17 UNL     1      -2.262   8.011  13.036  1.00  0.00     0.002 C 
HETATM   32  C18 UNL     1      -3.330   6.922  13.194  1.00  0.00     0.003 C 
HETATM   33  C31 UNL     1      -1.553   8.469  14.331  1.00  0.00     0.005 C 
HETATM   34  C19 UNL     1      -2.901   5.474  12.871  1.00  0.00     0.010 C 
HETATM   35  C28 UNL     1      -4.026   6.945  14.577  1.00  0.00     0.072 C 
HETATM   36  C20 UNL     1      -3.891   4.429  13.418  1.00  0.00     0.035 C 
HETATM   37  C21 UNL     1      -5.281   5.007  13.552  1.00  0.00    -0.067 C 
HETATM   38  C22 UNL     1      -6.295   4.523  12.814  1.00  0.00     0.053 C 
HETATM   39  C26 UNL     1      -5.422   6.223  14.492  1.00  0.00    -0.009 C 
HETATM   40  C23 UNL     1      -7.644   5.132  12.857  1.00  0.00     0.149 C 
HETATM   41  O7  UNL     1      -8.567   4.582  12.257  1.00  0.00    -0.293 OA
HETATM   42  C24 UNL     1      -7.853   6.389  13.664  1.00  0.00     0.084 C 
HETATM   43  C25 UNL     1      -6.545   7.134  13.928  1.00  0.00     0.022 C 
HETATM   44  C27 UNL     1      -5.809   5.713  15.898  1.00  0.00     0.021 C 
HETATM   45  C29 UNL     1      -3.969   8.327  15.232  1.00  0.00     0.133 C 
HETATM   46  O8  UNL     1      -4.943   8.834  15.787  1.00  0.00    -0.297 OA
HETATM   47  C30 UNL     1      -2.614   9.032  15.301  1.00  0.00     0.091 C 
HETATM   48  C32 UNL     1      -0.764   7.317  15.010  1.00  0.00     0.019 C 
BRANCH  28  49
HETATM   49  O6  UNL     1      -1.322  10.684  13.280  1.00  0.00    -0.381 OA
HETATM   50  H21 UNL     1      -1.398  11.305  14.036  1.00  0.00     0.211 HD
ENDBRANCH  28  49
ENDBRANCH  26  28
ENDBRANCH   1  26
TORSDOF 16
ENDMDL
MODEL 9
REMARK minimizedAffinity -7.43802595
REMARK CNNscore 0.275927901
REMARK CNNaffinity 6.14104223
REMARK  16 active torsions:
REMARK  status: ('A' for Active; 'I' for Inactive)
REMARK    1  A    between atoms: S1_2  and  C2_3 
REMARK    2  A    between atoms: C2_3  and  C3_4 
REMARK    3  A    between atoms: C3_4  and  C4_5 
REMARK    4  A    between atoms: C4_5  and  N1_6 
REMARK    5  A    between atoms: C4_5  and  C33_44 
REMARK       I    between atoms: N1_6  and  C5_7 
REMARK    6  A    between atoms: C5_7  and  C6_9 
REMARK    7  A    between atoms: C6_9  and  N2_11 
REMARK       I    between atoms: N2_11  and  C8_12 
REMARK    8  A    between atoms: C8_12  and  C9_14 
REMARK    9  A    between atoms: C9_14  and  C10_15 
REMARK   10  A    between atoms: C10_15  and  C11_16 
REMARK   11  A    between atoms: C11_16  and  O4_18 
REMARK   12  A    between atoms: O4_18  and  C12_19 
REMARK   13  A    between atoms: C12_19  and  C13_20 
REMARK   14  A    between atoms: C13_20  and  C14_22 
REMARK   15  A    between atoms: C14_22  and  O6_23 
REMARK   16  A    between atoms: C33_44  and  O10_46 
ROOT
HETATM    1  C12 UNL     1     -14.123  10.156  19.789  1.00  0.00     0.260 C 
ENDROOT
BRANCH   1   2
HETATM    2  O4  UNL     1     -12.752  10.530  19.863  1.00  0.00    -0.314 OA
BRANCH   2   3
HETATM    3  C11 UNL     1     -12.214  10.960  18.687  1.00  0.00     0.259 C 
HETATM    4  O3  UNL     1     -12.477  12.031  18.158  1.00  0.00    -0.265 OA
BRANCH   3   5
HETATM    5  C10 UNL     1     -11.303   9.899  18.119  1.00  0.00     0.120 C 
BRANCH   5   6
HETATM    6  C9  UNL     1     -10.976  10.183  16.659  1.00  0.00     0.112 C 
BRANCH   6   7
HETATM    7  C8  UNL     1     -11.510   9.095  15.747  1.00  0.00     0.218 C 
HETATM    8  N2  UNL     1     -10.538   8.525  14.952  1.00  0.00    -0.348 N 
HETATM    9  H14 UNL     1      -9.584   8.614  15.292  1.00  0.00     0.163 HD
HETATM   10  O2  UNL     1     -12.698   8.791  15.690  1.00  0.00    -0.274 OA
BRANCH   8  11
HETATM   11  C6  UNL     1     -10.802   7.257  14.280  1.00  0.00     0.172 C 
HETATM   12  C7  UNL     1     -11.301   7.489  12.863  1.00  0.00     0.042 C 
BRANCH  11  13
HETATM   13  C5  UNL     1      -9.472   6.481  14.239  1.00  0.00     0.240 C 
HETATM   14  N1  UNL     1      -9.278   5.729  13.098  1.00  0.00    -0.345 N 
HETATM   15  H9  UNL     1      -9.817   5.999  12.284  1.00  0.00     0.163 HD
HETATM   16  O1  UNL     1      -8.635   6.576  15.136  1.00  0.00    -0.271 OA
BRANCH  14  17
HETATM   17  C4  UNL     1      -7.981   5.096  12.842  1.00  0.00     0.183 C 
BRANCH  17  18
HETATM   18  C3  UNL     1      -6.839   5.965  13.385  1.00  0.00     0.046 C 
BRANCH  18  19
HETATM   19  C2  UNL     1      -5.456   5.318  13.297  1.00  0.00     0.076 C 
BRANCH  19  20
HETATM   20  S1  UNL     1      -4.059   6.471  13.491  1.00  0.00    -0.173 SA
HETATM   21  C1  UNL     1      -3.575   6.100  15.193  1.00  0.00     0.089 C 
ENDBRANCH  19  20
ENDBRANCH  18  19
ENDBRANCH  17  18
BRANCH  17  22
HETATM   22  C33 UNL     1      -7.909   3.720  13.517  1.00  0.00     0.163 C 
HETATM   23  O9  UNL     1      -7.951   2.638  12.952  1.00  0.00    -0.648 OA
BRANCH  22  24
HETATM   24  O10 UNL     1      -7.715   3.767  14.856  1.00  0.00    -0.775 OA
HETATM   25  H46 UNL     1      -7.719   2.823  15.118  1.00  0.00     0.167 HD
ENDBRANCH  22  24
ENDBRANCH  17  22
ENDBRANCH  14  17
ENDBRANCH  11  13
ENDBRANCH   8  11
ENDBRANCH   6   7
ENDBRANCH   5   6
ENDBRANCH   3   5
ENDBRANCH   2   3
ENDBRANCH   1   2
BRANCH   1  26
HETATM   26  C13 UNL     1     -14.561   8.830  20.423  1.00  0.00     0.185 C 
HETATM   27  O5  UNL     1     -15.615   8.294  20.070  1.00  0.00    -0.292 OA
BRANCH  26  28
HETATM   28  C14 UNL     1     -13.658   8.192  21.505  1.00  0.00     0.128 C 
HETATM   29  C15 UNL     1     -13.337   9.161  22.669  1.00  0.00     0.047 C 
HETATM   30  C16 UNL     1     -13.142   8.293  23.928  1.00  0.00     0.009 C 
HETATM   31  C17 UNL     1     -13.268   6.855  23.431  1.00  0.00     0.002 C 
HETATM   32  C18 UNL     1     -13.512   5.727  24.441  1.00  0.00     0.003 C 
HETATM   33  C31 UNL     1     -14.258   6.941  22.247  1.00  0.00     0.005 C 
HETATM   34  C19 UNL     1     -14.250   6.106  25.742  1.00  0.00     0.010 C 
HETATM   35  C28 UNL     1     -14.197   4.486  23.816  1.00  0.00     0.072 C 
HETATM   36  C20 UNL     1     -14.785   4.876  26.498  1.00  0.00     0.035 C 
HETATM   37  C21 UNL     1     -13.969   3.642  26.187  1.00  0.00    -0.067 C 
HETATM   38  C22 UNL     1     -13.263   3.030  27.152  1.00  0.00     0.053 C 
HETATM   39  C26 UNL     1     -13.927   3.215  24.704  1.00  0.00    -0.009 C 
HETATM   40  C23 UNL     1     -12.382   1.878  26.856  1.00  0.00     0.149 C 
HETATM   41  O7  UNL     1     -11.851   1.276  27.789  1.00  0.00    -0.293 OA
HETATM   42  C24 UNL     1     -12.192   1.454  25.421  1.00  0.00     0.084 C 
HETATM   43  C25 UNL     1     -12.541   2.569  24.435  1.00  0.00     0.022 C 
HETATM   44  C27 UNL     1     -15.050   2.183  24.460  1.00  0.00     0.021 C 
HETATM   45  C29 UNL     1     -13.943   4.380  22.311  1.00  0.00     0.133 C 
HETATM   46  O8  UNL     1     -13.649   3.317  21.766  1.00  0.00    -0.297 OA
HETATM   47  C30 UNL     1     -14.194   5.620  21.452  1.00  0.00     0.091 C 
HETATM   48  C32 UNL     1     -15.713   7.216  22.714  1.00  0.00     0.019 C 
BRANCH  28  49
HETATM   49  O6  UNL     1     -12.397   7.847  20.912  1.00  0.00    -0.381 OA
HETATM   50  H21 UNL     1     -12.573   7.500  20.011  1.00  0.00     0.211 HD
ENDBRANCH  28  49
ENDBRANCH  26  28
ENDBRANCH   1  26
TORSDOF 16
ENDMDL
