MODEL 1
REMARK minimizedAffinity -8.23810196
REMARK CNNscore 0.679794431
REMARK CNNaffinity 7.16298246
REMARK  12 active torsions:
REMARK  status: ('A' for Active; 'I' for Inactive)
REMARK    1  A    between atoms: N1_6  and  O1_8 
REMARK    2  A    between atoms: O1_8  and  C6_9 
REMARK    3  A    between atoms: C6_9  and  C7_10 
REMARK       I    between atoms: C7_10  and  N2_12 
REMARK    4  A    between atoms: N2_12  and  C8_13 
REMARK    5  A    between atoms: C8_13  and  C9_14 
REMARK    6  A    between atoms: C12_17  and  C13_18 
REMARK    7  A    between atoms: C13_18  and  O4_20 
REMARK    8  A    between atoms: C22_29  and  O5_30 
REMARK    9  A    between atoms: C29_37  and  O6_38 
REMARK   10  A    between atoms: C29_37  and  C30_39 
REMARK   11  A    between atoms: C30_39  and  C31_41 
REMARK   12  A    between atoms: C31_41  and  O8_42 
ROOT
HETATM    1  C1  UNL     1      -0.240  49.639 -20.534  1.00  0.00     0.020 C 
HETATM    2  C2  UNL     1      -1.164  50.523 -19.664  1.00  0.00    -0.014 C 
HETATM    3  C3  UNL     1      -0.812  52.023 -19.885  1.00  0.00     0.020 C 
HETATM    4  C4  UNL     1       0.528  52.430 -19.291  1.00  0.00     0.060 C 
HETATM    5  C5  UNL     1       0.611  52.081 -17.820  1.00  0.00     0.032 C 
HETATM    6  N1  UNL     1       1.394  52.816 -17.090  1.00  0.00    -0.271 N 
ATOM      7  H1  UNL     1       1.917  53.617 -17.444  1.00  0.00     0.194 HD
HETATM    8  C16 UNL     1      -0.154  50.888 -17.357  1.00  0.00     0.030 C 
HETATM    9  C17 UNL     1      -0.922  50.161 -18.190  1.00  0.00    -0.069 C 
HETATM   10  C18 UNL     1      -1.563  48.890 -17.675  1.00  0.00     0.035 C 
HETATM   11  C19 UNL     1      -3.034  48.773 -18.064  1.00  0.00     0.010 C 
HETATM   12  C20 UNL     1      -3.201  48.922 -19.581  1.00  0.00    -0.002 C 
HETATM   13  C21 UNL     1      -2.690  50.316 -20.021  1.00  0.00     0.031 C 
HETATM   14  C22 UNL     1      -3.063  50.633 -21.492  1.00  0.00     0.124 C 
HETATM   15  C23 UNL     1      -3.660  49.462 -22.282  1.00  0.00     0.045 C 
HETATM   16  C24 UNL     1      -4.755  48.584 -21.588  1.00  0.00     0.001 C 
HETATM   17  C25 UNL     1      -4.493  47.138 -22.078  1.00  0.00     0.019 C 
HETATM   18  C26 UNL     1      -4.644  48.642 -20.040  1.00  0.00     0.002 C 
HETATM   19  C27 UNL     1      -5.699  49.655 -19.556  1.00  0.00     0.009 C 
HETATM   20  C28 UNL     1      -6.521  50.067 -20.772  1.00  0.00     0.047 C 
HETATM   21  C29 UNL     1      -6.239  49.017 -21.856  1.00  0.00     0.128 C 
ENDROOT
BRANCH   6  22
HETATM   22  O1  UNL     1       1.437  52.380 -15.756  1.00  0.00    -0.271 OA
BRANCH  22  23
HETATM   23  C6  UNL     1       2.777  52.023 -15.442  1.00  0.00     0.303 C 
BRANCH  23  24
HETATM   24  C7  UNL     1       2.822  51.430 -14.041  1.00  0.00     0.244 C 
HETATM   25  O2  UNL     1       3.396  50.374 -13.786  1.00  0.00    -0.271 OA
HETATM   26  N2  UNL     1       2.188  52.198 -13.085  1.00  0.00    -0.355 N 
HETATM   27  H10 UNL     1       1.841  53.111 -13.351  1.00  0.00     0.162 HD
BRANCH  26  28
HETATM   28  C8  UNL     1       2.244  51.864 -11.681  1.00  0.00     0.161 C 
BRANCH  28  29
HETATM   29  C9  UNL     1       3.286  52.691 -10.969  1.00  0.00    -0.040 A 
HETATM   30  C10 UNL     1       4.307  52.080 -10.229  1.00  0.00     0.010 A 
HETATM   31  C11 UNL     1       5.250  52.859  -9.551  1.00  0.00     0.019 A 
HETATM   32  C12 UNL     1       5.177  54.257  -9.596  1.00  0.00     0.037 A 
HETATM   33  C14 UNL     1       4.155  54.873 -10.327  1.00  0.00     0.019 A 
HETATM   34  C15 UNL     1       3.216  54.093 -11.007  1.00  0.00     0.010 A 
BRANCH  32  35
HETATM   35  C13 UNL     1       6.196  55.038  -8.854  1.00  0.00     0.176 C 
HETATM   36  O3  UNL     1       5.970  55.878  -8.003  1.00  0.00    -0.646 OA
BRANCH  35  37
HETATM   37  O4  UNL     1       7.454  54.736  -9.219  1.00  0.00    -0.773 OA
HETATM   38  H15 UNL     1       8.007  55.323  -8.662  1.00  0.00     0.167 HD
ENDBRANCH  35  37
ENDBRANCH  32  35
ENDBRANCH  28  29
ENDBRANCH  26  28
ENDBRANCH  23  24
ENDBRANCH  22  23
ENDBRANCH   6  22
BRANCH  14  39
HETATM   39  O5  UNL     1      -3.986  51.719 -21.523  1.00  0.00    -0.395 OA
HETATM   40  H26 UNL     1      -3.541  52.507 -21.167  1.00  0.00     0.210 HD
ENDBRANCH  14  39
BRANCH  21  41
HETATM   41  O6  UNL     1      -6.407  49.662 -23.112  1.00  0.00    -0.381 OA
HETATM   42  H37 UNL     1      -6.256  48.998 -23.813  1.00  0.00     0.211 HD
ENDBRANCH  21  41
BRANCH  21  43
HETATM   43  C30 UNL     1      -7.282  47.862 -21.685  1.00  0.00     0.184 C 
HETATM   44  O7  UNL     1      -7.520  47.345 -20.587  1.00  0.00    -0.292 OA
BRANCH  43  45
HETATM   45  C31 UNL     1      -7.942  47.275 -22.941  1.00  0.00     0.245 C 
BRANCH  45  46
HETATM   46  O8  UNL     1      -7.646  45.928 -23.258  1.00  0.00    -0.393 OA
HETATM   47  H40 UNL     1      -6.715  45.908 -23.552  1.00  0.00     0.209 HD
ENDBRANCH  45  46
ENDBRANCH  43  45
ENDBRANCH  21  43
TORSDOF 12
ENDMDL
MODEL 2
REMARK minimizedAffinity -8.46743584
REMARK CNNscore 0.670553982
REMARK CNNaffinity 7.34728241
REMARK  12 active torsions:
REMARK  status: ('A' for Active; 'I' for Inactive)
REMARK    1  A    between atoms: N1_6  and  O1_8 
REMARK    2  A    between atoms: O1_8  and  C6_9 
REMARK    3  A    between atoms: C6_9  and  C7_10 
REMARK       I    between atoms: C7_10  and  N2_12 
REMARK    4  A    between atoms: N2_12  and  C8_13 
REMARK    5  A    between atoms: C8_13  and  C9_14 
REMARK    6  A    between atoms: C12_17  and  C13_18 
REMARK    7  A    between atoms: C13_18  and  O4_20 
REMARK    8  A    between atoms: C22_29  and  O5_30 
REMARK    9  A    between atoms: C29_37  and  O6_38 
REMARK   10  A    between atoms: C29_37  and  C30_39 
REMARK   11  A    between atoms: C30_39  and  C31_41 
REMARK   12  A    between atoms: C31_41  and  O8_42 
ROOT
HETATM    1  C1  UNL     1      -0.901  49.020 -21.037  1.00  0.00     0.020 C 
HETATM    2  C2  UNL     1      -1.699  50.301 -20.705  1.00  0.00    -0.014 C 
HETATM    3  C3  UNL     1      -1.022  51.529 -21.381  1.00  0.00     0.020 C 
HETATM    4  C4  UNL     1       0.310  51.914 -20.755  1.00  0.00     0.060 C 
HETATM    5  C5  UNL     1       0.176  52.142 -19.264  1.00  0.00     0.032 C 
HETATM    6  N1  UNL     1       1.022  52.965 -18.722  1.00  0.00    -0.271 N 
ATOM      7  H1  UNL     1       1.733  53.478 -19.245  1.00  0.00     0.194 HD
HETATM    8  C16 UNL     1      -0.862  51.352 -18.543  1.00  0.00     0.030 C 
HETATM    9  C17 UNL     1      -1.681  50.494 -19.180  1.00  0.00    -0.069 C 
HETATM   10  C18 UNL     1      -2.620  49.633 -18.363  1.00  0.00     0.035 C 
HETATM   11  C19 UNL     1      -4.038  49.610 -18.924  1.00  0.00     0.010 C 
HETATM   12  C20 UNL     1      -4.024  49.196 -20.401  1.00  0.00    -0.002 C 
HETATM   13  C21 UNL     1      -3.193  50.219 -21.215  1.00  0.00     0.031 C 
HETATM   14  C22 UNL     1      -3.348  50.008 -22.743  1.00  0.00     0.124 C 
HETATM   15  C23 UNL     1      -4.098  48.734 -23.154  1.00  0.00     0.045 C 
HETATM   16  C24 UNL     1      -5.414  48.371 -22.387  1.00  0.00     0.001 C 
HETATM   17  C25 UNL     1      -5.414  46.826 -22.281  1.00  0.00     0.019 C 
HETATM   18  C26 UNL     1      -5.442  48.995 -20.965  1.00  0.00     0.002 C 
HETATM   19  C27 UNL     1      -6.304  50.268 -21.055  1.00  0.00     0.009 C 
HETATM   20  C28 UNL     1      -6.901  50.312 -22.458  1.00  0.00     0.047 C 
HETATM   21  C29 UNL     1      -6.742  48.899 -23.035  1.00  0.00     0.128 C 
ENDROOT
BRANCH   6  22
HETATM   22  O1  UNL     1       0.844  53.068 -17.334  1.00  0.00    -0.271 OA
BRANCH  22  23
HETATM   23  C6  UNL     1       2.008  52.561 -16.692  1.00  0.00     0.303 C 
BRANCH  23  24
HETATM   24  C7  UNL     1       1.594  51.743 -15.478  1.00  0.00     0.244 C 
HETATM   25  O2  UNL     1       1.295  50.553 -15.551  1.00  0.00    -0.271 OA
HETATM   26  N2  UNL     1       1.611  52.449 -14.291  1.00  0.00    -0.355 N 
HETATM   27  H10 UNL     1       1.980  53.391 -14.296  1.00  0.00     0.162 HD
BRANCH  26  28
HETATM   28  C8  UNL     1       1.379  51.805 -13.020  1.00  0.00     0.161 C 
BRANCH  28  29
HETATM   29  C9  UNL     1       0.014  52.152 -12.478  1.00  0.00    -0.040 A 
HETATM   30  C10 UNL     1      -0.145  53.163 -11.521  1.00  0.00     0.010 A 
HETATM   31  C11 UNL     1      -1.412  53.456 -11.007  1.00  0.00     0.019 A 
HETATM   32  C12 UNL     1      -2.534  52.735 -11.437  1.00  0.00     0.037 A 
HETATM   33  C14 UNL     1      -2.380  51.719 -12.388  1.00  0.00     0.019 A 
HETATM   34  C15 UNL     1      -1.113  51.431 -12.902  1.00  0.00     0.010 A 
BRANCH  32  35
HETATM   35  C13 UNL     1      -3.854  53.078 -10.856  1.00  0.00     0.176 C 
HETATM   36  O3  UNL     1      -4.162  54.151 -10.371  1.00  0.00    -0.646 OA
BRANCH  35  37
HETATM   37  O4  UNL     1      -4.727  52.057 -10.903  1.00  0.00    -0.773 OA
HETATM   38  H15 UNL     1      -5.536  52.422 -10.486  1.00  0.00     0.167 HD
ENDBRANCH  35  37
ENDBRANCH  32  35
ENDBRANCH  28  29
ENDBRANCH  26  28
ENDBRANCH  23  24
ENDBRANCH  22  23
ENDBRANCH   6  22
BRANCH  14  39
HETATM   39  O5  UNL     1      -4.017  51.132 -23.310  1.00  0.00    -0.395 OA
HETATM   40  H26 UNL     1      -3.453  51.915 -23.189  1.00  0.00     0.210 HD
ENDBRANCH  14  39
BRANCH  21  41
HETATM   41  O6  UNL     1      -6.650  49.036 -24.447  1.00  0.00    -0.381 OA
HETATM   42  H37 UNL     1      -6.573  48.140 -24.832  1.00  0.00     0.211 HD
ENDBRANCH  21  41
BRANCH  21  43
HETATM   43  C30 UNL     1      -8.014  48.076 -22.642  1.00  0.00     0.184 C 
HETATM   44  O7  UNL     1      -8.442  48.036 -21.483  1.00  0.00    -0.292 OA
BRANCH  43  45
HETATM   45  C31 UNL     1      -8.681  47.197 -23.711  1.00  0.00     0.245 C 
BRANCH  45  46
HETATM   46  O8  UNL     1      -9.928  47.630 -24.219  1.00  0.00    -0.393 OA
HETATM   47  H40 UNL     1     -10.578  47.514 -23.500  1.00  0.00     0.209 HD
ENDBRANCH  45  46
ENDBRANCH  43  45
ENDBRANCH  21  43
TORSDOF 12
ENDMDL
MODEL 3
REMARK minimizedAffinity -8.63106823
REMARK CNNscore 0.652509391
REMARK CNNaffinity 6.19555616
REMARK  12 active torsions:
REMARK  status: ('A' for Active; 'I' for Inactive)
REMARK    1  A    between atoms: N1_6  and  O1_8 
REMARK    2  A    between atoms: O1_8  and  C6_9 
REMARK    3  A    between atoms: C6_9  and  C7_10 
REMARK       I    between atoms: C7_10  and  N2_12 
REMARK    4  A    between atoms: N2_12  and  C8_13 
REMARK    5  A    between atoms: C8_13  and  C9_14 
REMARK    6  A    between atoms: C12_17  and  C13_18 
REMARK    7  A    between atoms: C13_18  and  O4_20 
REMARK    8  A    between atoms: C22_29  and  O5_30 
REMARK    9  A    between atoms: C29_37  and  O6_38 
REMARK   10  A    between atoms: C29_37  and  C30_39 
REMARK   11  A    between atoms: C30_39  and  C31_41 
REMARK   12  A    between atoms: C31_41  and  O8_42 
ROOT
HETATM    1  C1  UNL     1       3.473  68.320 -35.968  1.00  0.00     0.020 C 
HETATM    2  C2  UNL     1       3.394  67.067 -36.870  1.00  0.00    -0.014 C 
HETATM    3  C3  UNL     1       2.663  65.921 -36.111  1.00  0.00     0.020 C 
HETATM    4  C4  UNL     1       3.473  65.334 -34.965  1.00  0.00     0.060 C 
HETATM    5  C5  UNL     1       4.837  64.870 -35.431  1.00  0.00     0.032 C 
HETATM    6  N1  UNL     1       5.385  63.904 -34.758  1.00  0.00    -0.271 N 
ATOM      7  H1  UNL     1       4.938  63.432 -33.972  1.00  0.00     0.194 HD
HETATM    8  C16 UNL     1       5.457  65.606 -36.570  1.00  0.00     0.030 C 
HETATM    9  C17 UNL     1       4.829  66.620 -37.194  1.00  0.00    -0.069 C 
HETATM   10  C18 UNL     1       5.575  67.403 -38.254  1.00  0.00     0.035 C 
HETATM   11  C19 UNL     1       4.744  67.630 -39.513  1.00  0.00     0.010 C 
HETATM   12  C20 UNL     1       3.403  68.284 -39.159  1.00  0.00    -0.002 C 
HETATM   13  C21 UNL     1       2.608  67.351 -38.213  1.00  0.00     0.031 C 
HETATM   14  C22 UNL     1       1.145  67.827 -38.021  1.00  0.00     0.124 C 
HETATM   15  C23 UNL     1       0.824  69.206 -38.611  1.00  0.00     0.045 C 
HETATM   16  C24 UNL     1       1.353  69.537 -40.047  1.00  0.00     0.001 C 
HETATM   17  C25 UNL     1       1.735  71.038 -40.008  1.00  0.00     0.019 C 
HETATM   18  C26 UNL     1       2.601  68.688 -40.410  1.00  0.00     0.002 C 
HETATM   19  C27 UNL     1       2.105  67.519 -41.282  1.00  0.00     0.009 C 
HETATM   20  C28 UNL     1       0.625  67.758 -41.559  1.00  0.00     0.047 C 
HETATM   21  C29 UNL     1       0.359  69.231 -41.221  1.00  0.00     0.128 C 
ENDROOT
BRANCH   6  22
HETATM   22  O1  UNL     1       6.664  63.583 -35.240  1.00  0.00    -0.271 OA
BRANCH  22  23
HETATM   23  C6  UNL     1       7.037  62.315 -34.716  1.00  0.00     0.303 C 
BRANCH  23  24
HETATM   24  C7  UNL     1       8.404  62.428 -34.057  1.00  0.00     0.244 C 
HETATM   25  O2  UNL     1       8.651  61.943 -32.955  1.00  0.00    -0.271 OA
HETATM   26  N2  UNL     1       9.342  63.098 -34.817  1.00  0.00    -0.355 N 
HETATM   27  H10 UNL     1       9.095  63.365 -35.762  1.00  0.00     0.162 HD
BRANCH  26  28
HETATM   28  C8  UNL     1      10.726  63.186 -34.415  1.00  0.00     0.161 C 
BRANCH  28  29
HETATM   29  C9  UNL     1      11.646  62.894 -35.574  1.00  0.00    -0.040 A 
HETATM   30  C10 UNL     1      11.175  62.240 -36.721  1.00  0.00     0.010 A 
HETATM   31  C11 UNL     1      12.045  61.952 -37.777  1.00  0.00     0.019 A 
HETATM   32  C12 UNL     1      13.399  62.304 -37.695  1.00  0.00     0.037 A 
HETATM   33  C14 UNL     1      13.876  62.951 -36.549  1.00  0.00     0.019 A 
HETATM   34  C15 UNL     1      13.004  63.241 -35.497  1.00  0.00     0.010 A 
BRANCH  32  35
HETATM   35  C13 UNL     1      14.282  61.969 -38.837  1.00  0.00     0.176 C 
HETATM   36  O3  UNL     1      15.405  62.402 -39.021  1.00  0.00    -0.646 OA
BRANCH  35  37
HETATM   37  O4  UNL     1      13.714  61.112 -39.704  1.00  0.00    -0.773 OA
HETATM   38  H15 UNL     1      14.398  60.992 -40.395  1.00  0.00     0.167 HD
ENDBRANCH  35  37
ENDBRANCH  32  35
ENDBRANCH  28  29
ENDBRANCH  26  28
ENDBRANCH  23  24
ENDBRANCH  22  23
ENDBRANCH   6  22
BRANCH  14  39
HETATM   39  O5  UNL     1       0.257  66.870 -38.594  1.00  0.00    -0.395 OA
HETATM   40  H26 UNL     1       0.350  66.036 -38.102  1.00  0.00     0.210 HD
ENDBRANCH  14  39
BRANCH  21  41
HETATM   41  O6  UNL     1      -1.005  69.327 -40.828  1.00  0.00    -0.381 OA
HETATM   42  H37 UNL     1      -1.197  70.266 -40.633  1.00  0.00     0.211 HD
ENDBRANCH  21  41
BRANCH  21  43
HETATM   43  C30 UNL     1       0.620  70.073 -42.514  1.00  0.00     0.184 C 
HETATM   44  O7  UNL     1      -0.236  70.827 -42.995  1.00  0.00    -0.292 OA
BRANCH  43  45
HETATM   45  C31 UNL     1       1.938  69.866 -43.274  1.00  0.00     0.245 C 
BRANCH  45  46
HETATM   46  O8  UNL     1       1.882  69.894 -44.687  1.00  0.00    -0.393 OA
HETATM   47  H40 UNL     1       1.418  69.080 -44.964  1.00  0.00     0.209 HD
ENDBRANCH  45  46
ENDBRANCH  43  45
ENDBRANCH  21  43
TORSDOF 12
ENDMDL
MODEL 4
REMARK minimizedAffinity -10.142911
REMARK CNNscore 0.553867817
REMARK CNNaffinity 7.16164589
REMARK  12 active torsions:
REMARK  status: ('A' for Active; 'I' for Inactive)
REMARK    1  A    between atoms: N1_6  and  O1_8 
REMARK    2  A    between atoms: O1_8  and  C6_9 
REMARK    3  A    between atoms: C6_9  and  C7_10 
REMARK       I    between atoms: C7_10  and  N2_12 
REMARK    4  A    between atoms: N2_12  and  C8_13 
REMARK    5  A    between atoms: C8_13  and  C9_14 
REMARK    6  A    between atoms: C12_17  and  C13_18 
REMARK    7  A    between atoms: C13_18  and  O4_20 
REMARK    8  A    between atoms: C22_29  and  O5_30 
REMARK    9  A    between atoms: C29_37  and  O6_38 
REMARK   10  A    between atoms: C29_37  and  C30_39 
REMARK   11  A    between atoms: C30_39  and  C31_41 
REMARK   12  A    between atoms: C31_41  and  O8_42 
ROOT
HETATM    1  C1  UNL     1      -2.707  49.547 -25.007  1.00  0.00     0.020 C 
HETATM    2  C2  UNL     1      -2.951  50.725 -24.036  1.00  0.00    -0.014 C 
HETATM    3  C3  UNL     1      -3.392  51.983 -24.840  1.00  0.00     0.020 C 
HETATM    4  C4  UNL     1      -2.278  52.595 -25.676  1.00  0.00     0.060 C 
HETATM    5  C5  UNL     1      -1.062  52.911 -24.831  1.00  0.00     0.032 C 
HETATM    6  N1  UNL     1      -0.304  53.882 -25.241  1.00  0.00    -0.271 N 
ATOM      7  H1  UNL     1      -0.501  54.449 -26.066  1.00  0.00     0.194 HD
HETATM    8  C16 UNL     1      -0.805  52.038 -23.650  1.00  0.00     0.030 C 
HETATM    9  C17 UNL     1      -1.630  51.030 -23.311  1.00  0.00    -0.069 C 
HETATM   10  C18 UNL     1      -1.234  50.107 -22.178  1.00  0.00     0.035 C 
HETATM   11  C19 UNL     1      -2.379  49.845 -21.204  1.00  0.00     0.010 C 
HETATM   12  C20 UNL     1      -3.613  49.330 -21.954  1.00  0.00    -0.002 C 
HETATM   13  C21 UNL     1      -4.078  50.396 -22.976  1.00  0.00     0.031 C 
HETATM   14  C22 UNL     1      -5.462  50.055 -23.583  1.00  0.00     0.124 C 
HETATM   15  C23 UNL     1      -6.003  48.662 -23.236  1.00  0.00     0.045 C 
HETATM   16  C24 UNL     1      -5.891  48.175 -21.751  1.00  0.00     0.001 C 
HETATM   17  C25 UNL     1      -5.595  46.657 -21.839  1.00  0.00     0.019 C 
HETATM   18  C26 UNL     1      -4.737  48.891 -20.997  1.00  0.00     0.002 C 
HETATM   19  C27 UNL     1      -5.380  50.021 -20.171  1.00  0.00     0.009 C 
HETATM   20  C28 UNL     1      -6.892  49.878 -20.310  1.00  0.00     0.047 C 
HETATM   21  C29 UNL     1      -7.141  48.463 -20.849  1.00  0.00     0.128 C 
ENDROOT
BRANCH   6  22
HETATM   22  O1  UNL     1       0.819  54.060 -24.418  1.00  0.00    -0.271 OA
BRANCH  22  23
HETATM   23  C6  UNL     1       0.771  53.092 -23.376  1.00  0.00     0.303 C 
BRANCH  23  24
HETATM   24  C7  UNL     1       1.195  53.743 -22.068  1.00  0.00     0.244 C 
HETATM   25  O2  UNL     1       1.764  54.831 -22.023  1.00  0.00    -0.271 OA
HETATM   26  N2  UNL     1       0.859  53.016 -20.943  1.00  0.00    -0.355 N 
HETATM   27  H10 UNL     1       0.288  52.188 -21.057  1.00  0.00     0.162 HD
BRANCH  26  28
HETATM   28  C8  UNL     1       1.060  53.538 -19.612  1.00  0.00     0.161 C 
BRANCH  28  29
HETATM   29  C9  UNL     1       0.865  52.461 -18.573  1.00  0.00    -0.040 A 
HETATM   30  C10 UNL     1      -0.002  51.385 -18.806  1.00  0.00     0.010 A 
HETATM   31  C11 UNL     1      -0.194  50.408 -17.824  1.00  0.00     0.019 A 
HETATM   32  C12 UNL     1       0.470  50.501 -16.594  1.00  0.00     0.037 A 
HETATM   33  C14 UNL     1       1.332  51.577 -16.354  1.00  0.00     0.019 A 
HETATM   34  C15 UNL     1       1.525  52.550 -17.337  1.00  0.00     0.010 A 
BRANCH  32  35
HETATM   35  C13 UNL     1       0.227  49.444 -15.583  1.00  0.00     0.176 C 
HETATM   36  O3  UNL     1      -0.185  49.621 -14.451  1.00  0.00    -0.646 OA
BRANCH  35  37
HETATM   37  O4  UNL     1       0.520  48.212 -16.034  1.00  0.00    -0.773 OA
HETATM   38  H15 UNL     1       0.321  47.630 -15.270  1.00  0.00     0.167 HD
ENDBRANCH  35  37
ENDBRANCH  32  35
ENDBRANCH  28  29
ENDBRANCH  26  28
ENDBRANCH  23  24
ENDBRANCH  22  23
ENDBRANCH   6  22
BRANCH  14  39
HETATM   39  O5  UNL     1      -6.416  51.029 -23.167  1.00  0.00    -0.395 OA
HETATM   40  H26 UNL     1      -6.151  51.890 -23.534  1.00  0.00     0.210 HD
ENDBRANCH  14  39
BRANCH  21  41
HETATM   41  O6  UNL     1      -8.355  48.507 -21.587  1.00  0.00    -0.381 OA
HETATM   42  H37 UNL     1      -8.540  47.605 -21.916  1.00  0.00     0.211 HD
ENDBRANCH  21  41
BRANCH  21  43
HETATM   43  C30 UNL     1      -7.276  47.501 -19.622  1.00  0.00     0.184 C 
HETATM   44  O7  UNL     1      -7.859  46.412 -19.698  1.00  0.00    -0.292 OA
BRANCH  43  45
HETATM   45  C31 UNL     1      -6.771  47.978 -18.252  1.00  0.00     0.245 C 
BRANCH  45  46
HETATM   46  O8  UNL     1      -7.746  48.338 -17.292  1.00  0.00    -0.393 OA
HETATM   47  H40 UNL     1      -8.150  49.171 -17.604  1.00  0.00     0.209 HD
ENDBRANCH  45  46
ENDBRANCH  43  45
ENDBRANCH  21  43
TORSDOF 12
ENDMDL
MODEL 5
REMARK minimizedAffinity -8.33967113
REMARK CNNscore 0.541031361
REMARK CNNaffinity 6.99333811
REMARK  12 active torsions:
REMARK  status: ('A' for Active; 'I' for Inactive)
REMARK    1  A    between atoms: N1_6  and  O1_8 
REMARK    2  A    between atoms: O1_8  and  C6_9 
REMARK    3  A    between atoms: C6_9  and  C7_10 
REMARK       I    between atoms: C7_10  and  N2_12 
REMARK    4  A    between atoms: N2_12  and  C8_13 
REMARK    5  A    between atoms: C8_13  and  C9_14 
REMARK    6  A    between atoms: C12_17  and  C13_18 
REMARK    7  A    between atoms: C13_18  and  O4_20 
REMARK    8  A    between atoms: C22_29  and  O5_30 
REMARK    9  A    between atoms: C29_37  and  O6_38 
REMARK   10  A    between atoms: C29_37  and  C30_39 
REMARK   11  A    between atoms: C30_39  and  C31_41 
REMARK   12  A    between atoms: C31_41  and  O8_42 
ROOT
HETATM    1  C1  UNL     1       0.558  50.391 -21.126  1.00  0.00     0.020 C 
HETATM    2  C2  UNL     1      -0.518  51.273 -20.452  1.00  0.00    -0.014 C 
HETATM    3  C3  UNL     1      -0.052  52.759 -20.455  1.00  0.00     0.020 C 
HETATM    4  C4  UNL     1       1.106  53.038 -19.509  1.00  0.00     0.060 C 
HETATM    5  C5  UNL     1       0.789  52.589 -18.098  1.00  0.00     0.032 C 
HETATM    6  N1  UNL     1       1.390  53.221 -17.136  1.00  0.00    -0.271 N 
ATOM      7  H1  UNL     1       2.023  54.008 -17.280  1.00  0.00     0.194 HD
HETATM    8  C16 UNL     1      -0.123  51.420 -17.942  1.00  0.00     0.030 C 
HETATM    9  C17 UNL     1      -0.682  50.801 -18.999  1.00  0.00    -0.069 C 
HETATM   10  C18 UNL     1      -1.491  49.543 -18.768  1.00  0.00     0.035 C 
HETATM   11  C19 UNL     1      -2.816  49.546 -19.526  1.00  0.00     0.010 C 
HETATM   12  C20 UNL     1      -2.578  49.806 -21.019  1.00  0.00    -0.002 C 
HETATM   13  C21 UNL     1      -1.908  51.190 -21.201  1.00  0.00     0.031 C 
HETATM   14  C22 UNL     1      -1.873  51.627 -22.688  1.00  0.00     0.124 C 
HETATM   15  C23 UNL     1      -2.298  50.552 -23.695  1.00  0.00     0.045 C 
HETATM   16  C24 UNL     1      -3.575  49.703 -23.376  1.00  0.00     0.001 C 
HETATM   17  C25 UNL     1      -3.261  48.278 -23.897  1.00  0.00     0.019 C 
HETATM   18  C26 UNL     1      -3.864  49.651 -21.851  1.00  0.00     0.002 C 
HETATM   19  C27 UNL     1      -4.961  50.696 -21.571  1.00  0.00     0.009 C 
HETATM   20  C28 UNL     1      -5.421  51.240 -22.919  1.00  0.00     0.047 C 
HETATM   21  C29 UNL     1      -4.918  50.248 -23.976  1.00  0.00     0.128 C 
ENDROOT
BRANCH   6  22
HETATM   22  O1  UNL     1       1.066  52.696 -15.875  1.00  0.00    -0.271 OA
BRANCH  22  23
HETATM   23  C6  UNL     1       2.215  52.040 -15.352  1.00  0.00     0.303 C 
BRANCH  23  24
HETATM   24  C7  UNL     1       1.962  51.668 -13.899  1.00  0.00     0.244 C 
HETATM   25  O2  UNL     1       1.017  50.963 -13.550  1.00  0.00    -0.271 OA
HETATM   26  N2  UNL     1       2.899  52.170 -13.018  1.00  0.00    -0.355 N 
HETATM   27  H10 UNL     1       3.710  52.643 -13.394  1.00  0.00     0.162 HD
BRANCH  26  28
HETATM   28  C8  UNL     1       2.897  51.811 -11.619  1.00  0.00     0.161 C 
BRANCH  28  29
HETATM   29  C9  UNL     1       2.058  52.772 -10.814  1.00  0.00    -0.040 A 
HETATM   30  C10 UNL     1       0.969  52.317 -10.058  1.00  0.00     0.010 A 
HETATM   31  C11 UNL     1       0.182  53.222  -9.338  1.00  0.00     0.019 A 
HETATM   32  C12 UNL     1       0.469  54.593  -9.374  1.00  0.00     0.037 A 
HETATM   33  C14 UNL     1       1.550  55.054 -10.134  1.00  0.00     0.019 A 
HETATM   34  C15 UNL     1       2.337  54.147 -10.849  1.00  0.00     0.010 A 
BRANCH  32  35
HETATM   35  C13 UNL     1      -0.399  55.512  -8.600  1.00  0.00     0.176 C 
HETATM   36  O3  UNL     1      -0.343  55.705  -7.399  1.00  0.00    -0.646 OA
BRANCH  35  37
HETATM   37  O4  UNL     1      -1.307  56.144  -9.366  1.00  0.00    -0.773 OA
HETATM   38  H15 UNL     1      -1.803  56.700  -8.729  1.00  0.00     0.167 HD
ENDBRANCH  35  37
ENDBRANCH  32  35
ENDBRANCH  28  29
ENDBRANCH  26  28
ENDBRANCH  23  24
ENDBRANCH  22  23
ENDBRANCH   6  22
BRANCH  14  39
HETATM   39  O5  UNL     1      -2.706  52.770 -22.865  1.00  0.00    -0.395 OA
HETATM   40  H26 UNL     1      -2.332  53.503 -22.345  1.00  0.00     0.210 HD
ENDBRANCH  14  39
BRANCH  21  41
HETATM   41  O6  UNL     1      -4.726  50.984 -25.177  1.00  0.00    -0.381 OA
HETATM   42  H37 UNL     1      -4.428  50.359 -25.869  1.00  0.00     0.211 HD
ENDBRANCH  21  41
BRANCH  21  43
HETATM   43  C30 UNL     1      -6.020  49.154 -24.170  1.00  0.00     0.184 C 
HETATM   44  O7  UNL     1      -7.000  49.065 -23.420  1.00  0.00    -0.292 OA
BRANCH  43  45
HETATM   45  C31 UNL     1      -5.815  48.086 -25.254  1.00  0.00     0.245 C 
BRANCH  45  46
HETATM   46  O8  UNL     1      -6.616  48.181 -26.416  1.00  0.00    -0.393 OA
HETATM   47  H40 UNL     1      -7.526  47.952 -26.147  1.00  0.00     0.209 HD
ENDBRANCH  45  46
ENDBRANCH  43  45
ENDBRANCH  21  43
TORSDOF 12
ENDMDL
MODEL 6
REMARK minimizedAffinity -8.37942123
REMARK CNNscore 0.494392127
REMARK CNNaffinity 6.85184479
REMARK  12 active torsions:
REMARK  status: ('A' for Active; 'I' for Inactive)
REMARK    1  A    between atoms: N1_6  and  O1_8 
REMARK    2  A    between atoms: O1_8  and  C6_9 
REMARK    3  A    between atoms: C6_9  and  C7_10 
REMARK       I    between atoms: C7_10  and  N2_12 
REMARK    4  A    between atoms: N2_12  and  C8_13 
REMARK    5  A    between atoms: C8_13  and  C9_14 
REMARK    6  A    between atoms: C12_17  and  C13_18 
REMARK    7  A    between atoms: C13_18  and  O4_20 
REMARK    8  A    between atoms: C22_29  and  O5_30 
REMARK    9  A    between atoms: C29_37  and  O6_38 
REMARK   10  A    between atoms: C29_37  and  C30_39 
REMARK   11  A    between atoms: C30_39  and  C31_41 
REMARK   12  A    between atoms: C31_41  and  O8_42 
ROOT
HETATM    1  C1  UNL     1      -1.604  47.706 -21.685  1.00  0.00     0.020 C 
HETATM    2  C2  UNL     1      -2.535  48.935 -21.581  1.00  0.00    -0.014 C 
HETATM    3  C3  UNL     1      -3.956  48.560 -22.095  1.00  0.00     0.020 C 
HETATM    4  C4  UNL     1      -4.024  48.340 -23.598  1.00  0.00     0.060 C 
HETATM    5  C5  UNL     1      -3.490  49.537 -24.357  1.00  0.00     0.032 C 
HETATM    6  N1  UNL     1      -3.968  49.731 -25.549  1.00  0.00    -0.271 N 
ATOM      7  H1  UNL     1      -4.691  49.151 -25.975  1.00  0.00     0.194 HD
HETATM    8  C16 UNL     1      -2.418  50.339 -23.701  1.00  0.00     0.030 C 
HETATM    9  C17 UNL     1      -1.958  50.049 -22.470  1.00  0.00    -0.069 C 
HETATM   10  C18 UNL     1      -0.780  50.828 -21.925  1.00  0.00     0.035 C 
HETATM   11  C19 UNL     1      -0.994  51.290 -20.487  1.00  0.00     0.010 C 
HETATM   12  C20 UNL     1      -1.355  50.101 -19.589  1.00  0.00    -0.002 C 
HETATM   13  C21 UNL     1      -2.669  49.455 -20.094  1.00  0.00     0.031 C 
HETATM   14  C22 UNL     1      -3.228  48.415 -19.089  1.00  0.00     0.124 C 
HETATM   15  C23 UNL     1      -2.297  48.069 -17.920  1.00  0.00     0.045 C 
HETATM   16  C24 UNL     1      -1.567  49.244 -17.185  1.00  0.00     0.001 C 
HETATM   17  C25 UNL     1      -0.168  48.690 -16.817  1.00  0.00     0.019 C 
HETATM   18  C26 UNL     1      -1.414  50.489 -18.100  1.00  0.00     0.002 C 
HETATM   19  C27 UNL     1      -2.543  51.464 -17.716  1.00  0.00     0.009 C 
HETATM   20  C28 UNL     1      -3.250  50.880 -16.498  1.00  0.00     0.047 C 
HETATM   21  C29 UNL     1      -2.305  49.815 -15.924  1.00  0.00     0.128 C 
ENDROOT
BRANCH   6  22
HETATM   22  O1  UNL     1      -3.373  50.833 -26.183  1.00  0.00    -0.271 OA
BRANCH  22  23
HETATM   23  C6  UNL     1      -3.070  50.471 -27.525  1.00  0.00     0.303 C 
BRANCH  23  24
HETATM   24  C7  UNL     1      -3.656  49.098 -27.818  1.00  0.00     0.244 C 
HETATM   25  O2  UNL     1      -3.072  48.053 -27.536  1.00  0.00    -0.271 OA
HETATM   26  N2  UNL     1      -4.908  49.133 -28.399  1.00  0.00    -0.355 N 
HETATM   27  H10 UNL     1      -5.372  50.028 -28.492  1.00  0.00     0.162 HD
BRANCH  26  28
HETATM   28  C8  UNL     1      -5.676  47.931 -28.624  1.00  0.00     0.161 C 
BRANCH  28  29
HETATM   29  C9  UNL     1      -6.132  47.841 -30.060  1.00  0.00    -0.040 A 
HETATM   30  C10 UNL     1      -7.479  48.024 -30.401  1.00  0.00     0.010 A 
HETATM   31  C11 UNL     1      -7.892  47.911 -31.732  1.00  0.00     0.019 A 
HETATM   32  C12 UNL     1      -6.966  47.603 -32.737  1.00  0.00     0.037 A 
HETATM   33  C14 UNL     1      -5.620  47.411 -32.401  1.00  0.00     0.019 A 
HETATM   34  C15 UNL     1      -5.209  47.528 -31.071  1.00  0.00     0.010 A 
BRANCH  32  35
HETATM   35  C13 UNL     1      -7.455  47.486 -34.131  1.00  0.00     0.176 C 
HETATM   36  O3  UNL     1      -8.576  47.151 -34.468  1.00  0.00    -0.646 OA
BRANCH  35  37
HETATM   37  O4  UNL     1      -6.513  47.785 -35.043  1.00  0.00    -0.773 OA
HETATM   38  H15 UNL     1      -6.970  47.659 -35.901  1.00  0.00     0.167 HD
ENDBRANCH  35  37
ENDBRANCH  32  35
ENDBRANCH  28  29
ENDBRANCH  26  28
ENDBRANCH  23  24
ENDBRANCH  22  23
ENDBRANCH   6  22
BRANCH  14  39
HETATM   39  O5  UNL     1      -4.466  48.885 -18.561  1.00  0.00    -0.395 OA
HETATM   40  H26 UNL     1      -5.106  48.945 -19.292  1.00  0.00     0.210 HD
ENDBRANCH  14  39
BRANCH  21  41
HETATM   41  O6  UNL     1      -3.118  48.846 -15.275  1.00  0.00    -0.381 OA
HETATM   42  H37 UNL     1      -2.528  48.173 -14.882  1.00  0.00     0.211 HD
ENDBRANCH  21  41
BRANCH  21  43
HETATM   43  C30 UNL     1      -1.359  50.520 -14.896  1.00  0.00     0.184 C 
HETATM   44  O7  UNL     1      -0.127  50.434 -14.967  1.00  0.00    -0.292 OA
BRANCH  43  45
HETATM   45  C31 UNL     1      -1.985  51.241 -13.693  1.00  0.00     0.245 C 
BRANCH  45  46
HETATM   46  O8  UNL     1      -1.101  51.753 -12.714  1.00  0.00    -0.393 OA
HETATM   47  H40 UNL     1      -0.724  50.982 -12.249  1.00  0.00     0.209 HD
ENDBRANCH  45  46
ENDBRANCH  43  45
ENDBRANCH  21  43
TORSDOF 12
ENDMDL
MODEL 7
REMARK minimizedAffinity -9.57274818
REMARK CNNscore 0.470160395
REMARK CNNaffinity 6.70746756
REMARK  12 active torsions:
REMARK  status: ('A' for Active; 'I' for Inactive)
REMARK    1  A    between atoms: N1_6  and  O1_8 
REMARK    2  A    between atoms: O1_8  and  C6_9 
REMARK    3  A    between atoms: C6_9  and  C7_10 
REMARK       I    between atoms: C7_10  and  N2_12 
REMARK    4  A    between atoms: N2_12  and  C8_13 
REMARK    5  A    between atoms: C8_13  and  C9_14 
REMARK    6  A    between atoms: C12_17  and  C13_18 
REMARK    7  A    between atoms: C13_18  and  O4_20 
REMARK    8  A    between atoms: C22_29  and  O5_30 
REMARK    9  A    between atoms: C29_37  and  O6_38 
REMARK   10  A    between atoms: C29_37  and  C30_39 
REMARK   11  A    between atoms: C30_39  and  C31_41 
REMARK   12  A    between atoms: C31_41  and  O8_42 
ROOT
HETATM    1  C1  UNL     1      -4.524  47.556 -20.134  1.00  0.00     0.020 C 
HETATM    2  C2  UNL     1      -3.732  48.692 -20.821  1.00  0.00    -0.014 C 
HETATM    3  C3  UNL     1      -4.723  49.726 -21.431  1.00  0.00     0.020 C 
HETATM    4  C4  UNL     1      -5.481  49.203 -22.642  1.00  0.00     0.060 C 
HETATM    5  C5  UNL     1      -4.535  48.688 -23.708  1.00  0.00     0.032 C 
HETATM    6  N1  UNL     1      -4.959  48.735 -24.934  1.00  0.00    -0.271 N 
ATOM      7  H1  UNL     1      -5.861  49.123 -25.211  1.00  0.00     0.194 HD
HETATM    8  C16 UNL     1      -3.240  48.111 -23.249  1.00  0.00     0.030 C 
HETATM    9  C17 UNL     1      -2.891  48.075 -21.949  1.00  0.00    -0.069 C 
HETATM   10  C18 UNL     1      -1.620  47.356 -21.551  1.00  0.00     0.035 C 
HETATM   11  C19 UNL     1      -0.769  48.161 -20.573  1.00  0.00     0.010 C 
HETATM   12  C20 UNL     1      -1.600  48.570 -19.351  1.00  0.00    -0.002 C 
HETATM   13  C21 UNL     1      -2.787  49.454 -19.807  1.00  0.00     0.031 C 
HETATM   14  C22 UNL     1      -3.516  50.111 -18.607  1.00  0.00     0.124 C 
HETATM   15  C23 UNL     1      -3.079  49.612 -17.224  1.00  0.00     0.045 C 
HETATM   16  C24 UNL     1      -1.547  49.451 -16.946  1.00  0.00     0.001 C 
HETATM   17  C25 UNL     1      -1.423  48.195 -16.047  1.00  0.00     0.019 C 
HETATM   18  C26 UNL     1      -0.744  49.237 -18.259  1.00  0.00     0.002 C 
HETATM   19  C27 UNL     1      -0.138  50.602 -18.636  1.00  0.00     0.009 C 
HETATM   20  C28 UNL     1      -0.443  51.564 -17.493  1.00  0.00     0.047 C 
HETATM   21  C29 UNL     1      -0.842  50.692 -16.295  1.00  0.00     0.128 C 
ENDROOT
BRANCH   6  22
HETATM   22  O1  UNL     1      -4.030  48.190 -25.835  1.00  0.00    -0.271 OA
BRANCH  22  23
HETATM   23  C6  UNL     1      -4.404  48.571 -27.153  1.00  0.00     0.303 C 
BRANCH  23  24
HETATM   24  C7  UNL     1      -3.411  49.596 -27.679  1.00  0.00     0.244 C 
HETATM   25  O2  UNL     1      -3.511  50.106 -28.793  1.00  0.00    -0.271 OA
HETATM   26  N2  UNL     1      -2.409  49.919 -26.786  1.00  0.00    -0.355 N 
HETATM   27  H10 UNL     1      -2.461  49.545 -25.847  1.00  0.00     0.162 HD
BRANCH  26  28
HETATM   28  C8  UNL     1      -1.456  50.969 -27.058  1.00  0.00     0.161 C 
BRANCH  28  29
HETATM   29  C9  UNL     1      -0.815  51.462 -25.784  1.00  0.00    -0.040 A 
HETATM   30  C10 UNL     1      -1.266  51.019 -24.533  1.00  0.00     0.010 A 
HETATM   31  C11 UNL     1      -0.682  51.504 -23.359  1.00  0.00     0.019 A 
HETATM   32  C12 UNL     1       0.353  52.447 -23.421  1.00  0.00     0.037 A 
HETATM   33  C14 UNL     1       0.803  52.898 -24.668  1.00  0.00     0.019 A 
HETATM   34  C15 UNL     1       0.220  52.409 -25.839  1.00  0.00     0.010 A 
BRANCH  32  35
HETATM   35  C13 UNL     1       0.934  52.936 -22.149  1.00  0.00     0.176 C 
HETATM   36  O3  UNL     1       1.086  52.280 -21.135  1.00  0.00    -0.646 OA
BRANCH  35  37
HETATM   37  O4  UNL     1       1.292  54.231 -22.201  1.00  0.00    -0.773 OA
HETATM   38  H15 UNL     1       1.646  54.412 -21.305  1.00  0.00     0.167 HD
ENDBRANCH  35  37
ENDBRANCH  32  35
ENDBRANCH  28  29
ENDBRANCH  26  28
ENDBRANCH  23  24
ENDBRANCH  22  23
ENDBRANCH   6  22
BRANCH  14  39
HETATM   39  O5  UNL     1      -3.334  51.524 -18.659  1.00  0.00    -0.395 OA
HETATM   40  H26 UNL     1      -3.762  51.857 -19.467  1.00  0.00     0.210 HD
ENDBRANCH  14  39
BRANCH  21  41
HETATM   41  O6  UNL     1      -1.724  51.468 -15.493  1.00  0.00    -0.381 OA
HETATM   42  H37 UNL     1      -1.967  50.934 -14.711  1.00  0.00     0.211 HD
ENDBRANCH  21  41
BRANCH  21  43
HETATM   43  C30 UNL     1       0.461  50.343 -15.502  1.00  0.00     0.184 C 
HETATM   44  O7  UNL     1       0.698  49.200 -15.093  1.00  0.00    -0.292 OA
BRANCH  43  45
HETATM   45  C31 UNL     1       1.418  51.481 -15.120  1.00  0.00     0.245 C 
BRANCH  45  46
HETATM   46  O8  UNL     1       0.847  52.646 -14.556  1.00  0.00    -0.393 OA
HETATM   47  H40 UNL     1       0.357  53.093 -15.274  1.00  0.00     0.209 HD
ENDBRANCH  45  46
ENDBRANCH  43  45
ENDBRANCH  21  43
TORSDOF 12
ENDMDL
MODEL 8
REMARK minimizedAffinity -8.35375309
REMARK CNNscore 0.463415354
REMARK CNNaffinity 6.28432322
REMARK  12 active torsions:
REMARK  status: ('A' for Active; 'I' for Inactive)
REMARK    1  A    between atoms: N1_6  and  O1_8 
REMARK    2  A    between atoms: O1_8  and  C6_9 
REMARK    3  A    between atoms: C6_9  and  C7_10 
REMARK       I    between atoms: C7_10  and  N2_12 
REMARK    4  A    between atoms: N2_12  and  C8_13 
REMARK    5  A    between atoms: C8_13  and  C9_14 
REMARK    6  A    between atoms: C12_17  and  C13_18 
REMARK    7  A    between atoms: C13_18  and  O4_20 
REMARK    8  A    between atoms: C22_29  and  O5_30 
REMARK    9  A    between atoms: C29_37  and  O6_38 
REMARK   10  A    between atoms: C29_37  and  C30_39 
REMARK   11  A    between atoms: C30_39  and  C31_41 
REMARK   12  A    between atoms: C31_41  and  O8_42 
ROOT
HETATM    1  C1  UNL     1     -12.940  47.550 -30.007  1.00  0.00     0.020 C 
HETATM    2  C2  UNL     1     -12.375  46.586 -28.939  1.00  0.00    -0.014 C 
HETATM    3  C3  UNL     1     -12.949  45.157 -29.169  1.00  0.00     0.020 C 
HETATM    4  C4  UNL     1     -14.428  45.032 -28.838  1.00  0.00     0.060 C 
HETATM    5  C5  UNL     1     -14.721  45.496 -27.426  1.00  0.00     0.032 C 
HETATM    6  N1  UNL     1     -15.750  44.963 -26.840  1.00  0.00    -0.271 N 
ATOM      7  H1  UNL     1     -16.335  44.241 -27.260  1.00  0.00     0.194 HD
HETATM    8  C16 UNL     1     -13.852  46.569 -26.865  1.00  0.00     0.030 C 
HETATM    9  C17 UNL     1     -12.820  47.090 -27.556  1.00  0.00    -0.069 C 
HETATM   10  C18 UNL     1     -12.065  48.265 -26.972  1.00  0.00     0.035 C 
HETATM   11  C19 UNL     1     -10.552  48.098 -27.065  1.00  0.00     0.010 C 
HETATM   12  C20 UNL     1     -10.132  47.812 -28.512  1.00  0.00    -0.002 C 
HETATM   13  C21 UNL     1     -10.797  46.499 -28.993  1.00  0.00     0.031 C 
HETATM   14  C22 UNL     1     -10.218  46.016 -30.347  1.00  0.00     0.124 C 
HETATM   15  C23 UNL     1      -9.278  47.006 -31.046  1.00  0.00     0.045 C 
HETATM   16  C24 UNL     1      -8.191  47.729 -30.182  1.00  0.00     0.001 C 
HETATM   17  C25 UNL     1      -8.086  49.160 -30.768  1.00  0.00     0.019 C 
HETATM   18  C26 UNL     1      -8.602  47.804 -28.686  1.00  0.00     0.002 C 
HETATM   19  C27 UNL     1      -7.861  46.662 -27.964  1.00  0.00     0.009 C 
HETATM   20  C28 UNL     1      -6.915  46.027 -28.977  1.00  0.00     0.047 C 
HETATM   21  C29 UNL     1      -6.789  47.028 -30.133  1.00  0.00     0.128 C 
ENDROOT
BRANCH   6  22
HETATM   22  O1  UNL     1     -15.962  45.495 -25.558  1.00  0.00    -0.271 OA
BRANCH  22  23
HETATM   23  C6  UNL     1     -17.346  45.792 -25.418  1.00  0.00     0.303 C 
BRANCH  23  24
HETATM   24  C7  UNL     1     -17.836  45.274 -24.074  1.00  0.00     0.244 C 
HETATM   25  O2  UNL     1     -17.833  44.079 -23.784  1.00  0.00    -0.271 OA
HETATM   26  N2  UNL     1     -18.255  46.263 -23.207  1.00  0.00    -0.355 N 
HETATM   27  H10 UNL     1     -18.117  47.229 -23.476  1.00  0.00     0.162 HD
BRANCH  26  28
HETATM   28  C8  UNL     1     -18.625  45.973 -21.842  1.00  0.00     0.161 C 
BRANCH  28  29
HETATM   29  C9  UNL     1     -17.627  46.558 -20.874  1.00  0.00    -0.040 A 
HETATM   30  C10 UNL     1     -18.037  47.055 -19.630  1.00  0.00     0.010 A 
HETATM   31  C11 UNL     1     -17.105  47.619 -18.753  1.00  0.00     0.019 A 
HETATM   32  C12 UNL     1     -15.754  47.703 -19.115  1.00  0.00     0.037 A 
HETATM   33  C14 UNL     1     -15.340  47.214 -20.359  1.00  0.00     0.019 A 
HETATM   34  C15 UNL     1     -16.272  46.648 -21.232  1.00  0.00     0.010 A 
BRANCH  32  35
HETATM   35  C13 UNL     1     -14.807  48.317 -18.154  1.00  0.00     0.176 C 
HETATM   36  O3  UNL     1     -15.099  49.086 -17.257  1.00  0.00    -0.646 OA
BRANCH  35  37
HETATM   37  O4  UNL     1     -13.532  47.945 -18.365  1.00  0.00    -0.773 OA
HETATM   38  H15 UNL     1     -13.031  48.425 -17.674  1.00  0.00     0.167 HD
ENDBRANCH  35  37
ENDBRANCH  32  35
ENDBRANCH  28  29
ENDBRANCH  26  28
ENDBRANCH  23  24
ENDBRANCH  22  23
ENDBRANCH   6  22
BRANCH  14  39
HETATM   39  O5  UNL     1      -9.522  44.788 -30.153  1.00  0.00    -0.395 OA
HETATM   40  H26 UNL     1     -10.163  44.116 -29.864  1.00  0.00     0.210 HD
ENDBRANCH  14  39
BRANCH  21  41
HETATM   41  O6  UNL     1      -6.508  46.274 -31.305  1.00  0.00    -0.381 OA
HETATM   42  H37 UNL     1      -6.400  46.901 -32.048  1.00  0.00     0.211 HD
ENDBRANCH  21  41
BRANCH  21  43
HETATM   43  C30 UNL     1      -5.603  47.994 -29.802  1.00  0.00     0.184 C 
HETATM   44  O7  UNL     1      -4.968  48.586 -30.684  1.00  0.00    -0.292 OA
BRANCH  43  45
HETATM   45  C31 UNL     1      -5.140  48.119 -28.343  1.00  0.00     0.245 C 
BRANCH  45  46
HETATM   46  O8  UNL     1      -4.405  49.277 -27.994  1.00  0.00    -0.393 OA
HETATM   47  H40 UNL     1      -3.532  49.193 -28.424  1.00  0.00     0.209 HD
ENDBRANCH  45  46
ENDBRANCH  43  45
ENDBRANCH  21  43
TORSDOF 12
ENDMDL
MODEL 9
REMARK minimizedAffinity -8.70242691
REMARK CNNscore 0.430515498
REMARK CNNaffinity 6.96546507
REMARK  12 active torsions:
REMARK  status: ('A' for Active; 'I' for Inactive)
REMARK    1  A    between atoms: N1_6  and  O1_8 
REMARK    2  A    between atoms: O1_8  and  C6_9 
REMARK    3  A    between atoms: C6_9  and  C7_10 
REMARK       I    between atoms: C7_10  and  N2_12 
REMARK    4  A    between atoms: N2_12  and  C8_13 
REMARK    5  A    between atoms: C8_13  and  C9_14 
REMARK    6  A    between atoms: C12_17  and  C13_18 
REMARK    7  A    between atoms: C13_18  and  O4_20 
REMARK    8  A    between atoms: C22_29  and  O5_30 
REMARK    9  A    between atoms: C29_37  and  O6_38 
REMARK   10  A    between atoms: C29_37  and  C30_39 
REMARK   11  A    between atoms: C30_39  and  C31_41 
REMARK   12  A    between atoms: C31_41  and  O8_42 
ROOT
HETATM    1  C1  UNL     1       0.649  50.496 -21.270  1.00  0.00     0.020 C 
HETATM    2  C2  UNL     1      -0.464  51.259 -20.515  1.00  0.00    -0.014 C 
HETATM    3  C3  UNL     1      -0.086  52.765 -20.408  1.00  0.00     0.020 C 
HETATM    4  C4  UNL     1       1.071  53.038 -19.459  1.00  0.00     0.060 C 
HETATM    5  C5  UNL     1       0.806  52.463 -18.083  1.00  0.00     0.032 C 
HETATM    6  N1  UNL     1       1.387  53.054 -17.083  1.00  0.00    -0.271 N 
ATOM      7  H1  UNL     1       1.971  53.886 -17.173  1.00  0.00     0.194 HD
HETATM    8  C16 UNL     1      -0.034  51.234 -18.006  1.00  0.00     0.030 C 
HETATM    9  C17 UNL     1      -0.574  50.666 -19.101  1.00  0.00    -0.069 C 
HETATM   10  C18 UNL     1      -1.306  49.349 -18.958  1.00  0.00     0.035 C 
HETATM   11  C19 UNL     1      -2.641  49.333 -19.695  1.00  0.00     0.010 C 
HETATM   12  C20 UNL     1      -2.446  49.720 -21.166  1.00  0.00    -0.002 C 
HETATM   13  C21 UNL     1      -1.860  51.151 -21.249  1.00  0.00     0.031 C 
HETATM   14  C22 UNL     1      -1.878  51.703 -22.698  1.00  0.00     0.124 C 
HETATM   15  C23 UNL     1      -2.258  50.685 -23.780  1.00  0.00     0.045 C 
HETATM   16  C24 UNL     1      -3.477  49.740 -23.511  1.00  0.00     0.001 C 
HETATM   17  C25 UNL     1      -3.091  48.381 -24.146  1.00  0.00     0.019 C 
HETATM   18  C26 UNL     1      -3.735  49.554 -21.991  1.00  0.00     0.002 C 
HETATM   19  C27 UNL     1      -4.886  50.507 -21.616  1.00  0.00     0.009 C 
HETATM   20  C28 UNL     1      -5.401  51.126 -22.911  1.00  0.00     0.047 C 
HETATM   21  C29 UNL     1      -4.860  50.250 -24.049  1.00  0.00     0.128 C 
ENDROOT
BRANCH   6  22
HETATM   22  O1  UNL     1       1.117  52.415 -15.862  1.00  0.00    -0.271 OA
BRANCH  22  23
HETATM   23  C6  UNL     1       2.342  51.927 -15.329  1.00  0.00     0.303 C 
BRANCH  23  24
HETATM   24  C7  UNL     1       2.232  51.847 -13.814  1.00  0.00     0.244 C 
HETATM   25  O2  UNL     1       3.035  51.223 -13.123  1.00  0.00    -0.271 OA
HETATM   26  N2  UNL     1       1.172  52.559 -13.288  1.00  0.00    -0.355 N 
HETATM   27  H10 UNL     1       0.626  53.141 -13.910  1.00  0.00     0.162 HD
BRANCH  26  28
HETATM   28  C8  UNL     1       0.988  52.710 -11.864  1.00  0.00     0.161 C 
BRANCH  28  29
HETATM   29  C9  UNL     1      -0.349  52.163 -11.430  1.00  0.00    -0.040 A 
HETATM   30  C10 UNL     1      -1.379  53.021 -11.019  1.00  0.00     0.010 A 
HETATM   31  C11 UNL     1      -2.604  52.500 -10.593  1.00  0.00     0.019 A 
HETATM   32  C12 UNL     1      -2.812  51.114 -10.562  1.00  0.00     0.037 A 
HETATM   33  C14 UNL     1      -1.785  50.252 -10.964  1.00  0.00     0.019 A 
HETATM   34  C15 UNL     1      -0.562  50.776 -11.393  1.00  0.00     0.010 A 
BRANCH  32  35
HETATM   35  C13 UNL     1      -4.126  50.611 -10.095  1.00  0.00     0.176 C 
HETATM   36  O3  UNL     1      -4.303  49.664  -9.351  1.00  0.00    -0.646 OA
BRANCH  35  37
HETATM   37  O4  UNL     1      -5.160  51.313 -10.590  1.00  0.00    -0.773 OA
HETATM   38  H15 UNL     1      -5.947  50.870 -10.208  1.00  0.00     0.167 HD
ENDBRANCH  35  37
ENDBRANCH  32  35
ENDBRANCH  28  29
ENDBRANCH  26  28
ENDBRANCH  23  24
ENDBRANCH  22  23
ENDBRANCH   6  22
BRANCH  14  39
HETATM   39  O5  UNL     1      -2.778  52.805 -22.774  1.00  0.00    -0.395 OA
HETATM   40  H26 UNL     1      -2.438  53.516 -22.204  1.00  0.00     0.210 HD
ENDBRANCH  14  39
BRANCH  21  41
HETATM   41  O6  UNL     1      -4.732  51.086 -25.191  1.00  0.00    -0.381 OA
HETATM   42  H37 UNL     1      -4.412  50.535 -25.933  1.00  0.00     0.211 HD
ENDBRANCH  21  41
BRANCH  21  43
HETATM   43  C30 UNL     1      -5.900  49.111 -24.312  1.00  0.00     0.184 C 
HETATM   44  O7  UNL     1      -5.640  48.129 -25.019  1.00  0.00    -0.292 OA
BRANCH  43  45
HETATM   45  C31 UNL     1      -7.328  49.278 -23.771  1.00  0.00     0.245 C 
BRANCH  45  46
HETATM   46  O8  UNL     1      -8.327  49.673 -24.692  1.00  0.00    -0.393 OA
HETATM   47  H40 UNL     1      -8.142  50.604 -24.923  1.00  0.00     0.209 HD
ENDBRANCH  45  46
ENDBRANCH  43  45
ENDBRANCH  21  43
TORSDOF 12
ENDMDL
