MODEL 1
REMARK minimizedAffinity -8.59103775
REMARK CNNscore 0.666491985
REMARK CNNaffinity 5.69310141
REMARK  11 active torsions:
REMARK  status: ('A' for Active; 'I' for Inactive)
REMARK    1  A    between atoms: C2_2  and  O1_3 
REMARK    2  A    between atoms: C2_2  and  C3_4 
REMARK    3  A    between atoms: C4_5  and  C5_6 
REMARK    4  A    between atoms: C5_6  and  O2_7 
REMARK    5  A    between atoms: C9_11  and  O3_12 
REMARK    6  A    between atoms: O3_12  and  C10_13 
REMARK    7  A    between atoms: C11_15  and  C12_16 
REMARK    8  A    between atoms: C12_16  and  O5_17 
REMARK    9  A    between atoms: C13_18  and  O6_19 
REMARK   10  A    between atoms: C14_20  and  O7_21 
REMARK   11  A    between atoms: C15_22  and  O8_23 
ROOT
HETATM    1  C5  UNL     1      -7.812   5.657  14.050  1.00  0.00     0.086 C 
HETATM    2  C6  UNL     1      -7.280   4.783  12.852  1.00  0.00     0.023 C 
HETATM    3  C7  UNL     1      -8.104   3.510  12.597  1.00  0.00     0.013 C 
HETATM    4  C8  UNL     1      -5.813   4.389  13.062  1.00  0.00     0.039 C 
HETATM    5  C9  UNL     1      -4.892   5.611  13.051  1.00  0.00     0.126 C 
HETATM    6  C16 UNL     1      -5.612   6.893  13.497  1.00  0.00     0.044 C 
HETATM    7  C17 UNL     1      -6.695   6.675  14.586  1.00  0.00    -0.010 C 
HETATM    8  C18 UNL     1      -6.021   6.171  15.889  1.00  0.00     0.018 C 
HETATM    9  C19 UNL     1      -7.262   8.076  14.938  1.00  0.00     0.018 C 
ENDROOT
BRANCH   5  10
HETATM   10  O3  UNL     1      -3.752   5.422  13.897  1.00  0.00    -0.353 OA
BRANCH  10  11
HETATM   11  C10 UNL     1      -2.889   6.561  13.986  1.00  0.00     0.292 C 
HETATM   12  O4  UNL     1      -2.168   6.829  12.785  1.00  0.00    -0.348 OA
HETATM   13  C11 UNL     1      -0.856   6.243  12.668  1.00  0.00     0.179 C 
HETATM   14  C13 UNL     1       0.061   6.645  13.848  1.00  0.00     0.180 C 
HETATM   15  C14 UNL     1      -0.729   7.195  15.039  1.00  0.00     0.183 C 
HETATM   16  C15 UNL     1      -1.989   6.364  15.222  1.00  0.00     0.204 C 
BRANCH  13  17
HETATM   17  C12 UNL     1      -0.918   4.731  12.383  1.00  0.00     0.198 C 
BRANCH  17  18
HETATM   18  O5  UNL     1      -0.362   4.460  11.093  1.00  0.00    -0.398 OA
HETATM   19  H20 UNL     1      -0.671   3.576  10.831  1.00  0.00     0.209 HD
ENDBRANCH  17  18
ENDBRANCH  13  17
BRANCH  14  20
HETATM   20  O6  UNL     1       0.867   5.546  14.297  1.00  0.00    -0.390 OA
HETATM   21  H22 UNL     1       1.183   5.820  15.186  1.00  0.00     0.210 HD
ENDBRANCH  14  20
BRANCH  15  22
HETATM   22  O7  UNL     1       0.088   7.124  16.223  1.00  0.00    -0.390 OA
HETATM   23  H24 UNL     1      -0.542   7.244  16.964  1.00  0.00     0.210 HD
ENDBRANCH  15  22
BRANCH  16  24
HETATM   24  O8  UNL     1      -2.658   6.768  16.431  1.00  0.00    -0.388 OA
HETATM   25  H26 UNL     1      -3.448   6.199  16.497  1.00  0.00     0.210 HD
ENDBRANCH  16  24
ENDBRANCH  10  11
ENDBRANCH   5  10
BRANCH   1  26
HETATM   26  C4  UNL     1      -9.138   6.347  13.742  1.00  0.00     0.010 C 
HETATM   27  C3  UNL     1     -10.086   6.793  14.589  1.00  0.00     0.003 C 
BRANCH  27  28
HETATM   28  C2  UNL     1     -11.376   7.478  14.212  1.00  0.00     0.136 C 
HETATM   29  C1  UNL     1     -12.568   6.541  14.361  1.00  0.00     0.043 C 
BRANCH  28  30
HETATM   30  O1  UNL     1     -11.331   7.955  12.873  1.00  0.00    -0.392 OA
HETATM   31  H5  UNL     1     -11.275   7.176  12.294  1.00  0.00     0.210 HD
ENDBRANCH  28  30
ENDBRANCH  27  28
ENDBRANCH   1  26
BRANCH   1  32
HETATM   32  O2  UNL     1      -8.134   4.765  15.131  1.00  0.00    -0.385 OA
HETATM   33  H8  UNL     1      -8.949   4.289  14.892  1.00  0.00     0.211 HD
ENDBRANCH   1  32
TORSDOF 11
ENDMDL
MODEL 2
REMARK minimizedAffinity -7.10806894
REMARK CNNscore 0.457513124
REMARK CNNaffinity 5.21126413
REMARK  11 active torsions:
REMARK  status: ('A' for Active; 'I' for Inactive)
REMARK    1  A    between atoms: C2_2  and  O1_3 
REMARK    2  A    between atoms: C2_2  and  C3_4 
REMARK    3  A    between atoms: C4_5  and  C5_6 
REMARK    4  A    between atoms: C5_6  and  O2_7 
REMARK    5  A    between atoms: C9_11  and  O3_12 
REMARK    6  A    between atoms: O3_12  and  C10_13 
REMARK    7  A    between atoms: C11_15  and  C12_16 
REMARK    8  A    between atoms: C12_16  and  O5_17 
REMARK    9  A    between atoms: C13_18  and  O6_19 
REMARK   10  A    between atoms: C14_20  and  O7_21 
REMARK   11  A    between atoms: C15_22  and  O8_23 
ROOT
HETATM    1  C5  UNL     1      -3.386   5.746  13.653  1.00  0.00     0.086 C 
HETATM    2  C6  UNL     1      -2.172   6.400  12.891  1.00  0.00     0.023 C 
HETATM    3  C7  UNL     1      -0.897   5.541  12.899  1.00  0.00     0.013 C 
HETATM    4  C8  UNL     1      -1.841   7.784  13.462  1.00  0.00     0.039 C 
HETATM    5  C9  UNL     1      -2.982   8.777  13.236  1.00  0.00     0.126 C 
HETATM    6  C16 UNL     1      -4.352   8.085  13.136  1.00  0.00     0.044 C 
HETATM    7  C17 UNL     1      -4.503   6.831  14.036  1.00  0.00    -0.010 C 
HETATM    8  C18 UNL     1      -4.422   7.253  15.526  1.00  0.00     0.018 C 
HETATM    9  C19 UNL     1      -5.953   6.313  13.839  1.00  0.00     0.018 C 
ENDROOT
BRANCH   5  10
HETATM   10  O3  UNL     1      -3.051   9.752  14.283  1.00  0.00    -0.353 OA
BRANCH  10  11
HETATM   11  C10 UNL     1      -1.783  10.099  14.849  1.00  0.00     0.292 C 
HETATM   12  O4  UNL     1      -1.516   9.455  16.094  1.00  0.00    -0.348 OA
HETATM   13  C11 UNL     1      -1.887  10.168  17.290  1.00  0.00     0.179 C 
HETATM   14  C13 UNL     1      -1.230  11.568  17.352  1.00  0.00     0.180 C 
HETATM   15  C14 UNL     1      -0.706  12.028  15.988  1.00  0.00     0.183 C 
HETATM   16  C15 UNL     1      -1.711  11.637  14.916  1.00  0.00     0.204 C 
BRANCH  13  17
HETATM   17  C12 UNL     1      -3.408  10.157  17.525  1.00  0.00     0.198 C 
BRANCH  17  18
HETATM   18  O5  UNL     1      -3.680  10.122  18.928  1.00  0.00    -0.398 OA
HETATM   19  H20 UNL     1      -4.602   9.830  19.031  1.00  0.00     0.209 HD
ENDBRANCH  17  18
ENDBRANCH  13  17
BRANCH  14  20
HETATM   20  O6  UNL     1      -2.133  12.561  17.857  1.00  0.00    -0.390 OA
HETATM   21  H22 UNL     1      -1.728  13.418  17.598  1.00  0.00     0.210 HD
ENDBRANCH  14  20
BRANCH  15  22
HETATM   22  O7  UNL     1      -0.529  13.456  16.005  1.00  0.00    -0.390 OA
HETATM   23  H24 UNL     1      -0.443  13.705  15.062  1.00  0.00     0.210 HD
ENDBRANCH  15  22
BRANCH  16  24
HETATM   24  O8  UNL     1      -1.309  12.201  13.655  1.00  0.00    -0.388 OA
HETATM   25  H26 UNL     1      -1.991  11.924  13.014  1.00  0.00     0.210 HD
ENDBRANCH  16  24
ENDBRANCH  10  11
ENDBRANCH   5  10
BRANCH   1  26
HETATM   26  C4  UNL     1      -3.966   4.536  12.925  1.00  0.00     0.010 C 
HETATM   27  C3  UNL     1      -3.765   4.122  11.659  1.00  0.00     0.003 C 
BRANCH  27  28
HETATM   28  C2  UNL     1      -4.369   2.904  11.006  1.00  0.00     0.136 C 
HETATM   29  C1  UNL     1      -5.745   2.588  11.580  1.00  0.00     0.043 C 
BRANCH  28  30
HETATM   30  O1  UNL     1      -3.531   1.766  11.169  1.00  0.00    -0.392 OA
HETATM   31  H5  UNL     1      -3.507   1.562  12.119  1.00  0.00     0.210 HD
ENDBRANCH  28  30
ENDBRANCH  27  28
ENDBRANCH   1  26
BRANCH   1  32
HETATM   32  O2  UNL     1      -2.883   5.195  14.882  1.00  0.00    -0.385 OA
HETATM   33  H8  UNL     1      -2.370   4.398  14.664  1.00  0.00     0.211 HD
ENDBRANCH   1  32
TORSDOF 11
ENDMDL
MODEL 3
REMARK minimizedAffinity -6.7707262
REMARK CNNscore 0.425244868
REMARK CNNaffinity 4.99684334
REMARK  11 active torsions:
REMARK  status: ('A' for Active; 'I' for Inactive)
REMARK    1  A    between atoms: C2_2  and  O1_3 
REMARK    2  A    between atoms: C2_2  and  C3_4 
REMARK    3  A    between atoms: C4_5  and  C5_6 
REMARK    4  A    between atoms: C5_6  and  O2_7 
REMARK    5  A    between atoms: C9_11  and  O3_12 
REMARK    6  A    between atoms: O3_12  and  C10_13 
REMARK    7  A    between atoms: C11_15  and  C12_16 
REMARK    8  A    between atoms: C12_16  and  O5_17 
REMARK    9  A    between atoms: C13_18  and  O6_19 
REMARK   10  A    between atoms: C14_20  and  O7_21 
REMARK   11  A    between atoms: C15_22  and  O8_23 
ROOT
HETATM    1  C5  UNL     1      -3.581   6.114  13.818  1.00  0.00     0.086 C 
HETATM    2  C6  UNL     1      -2.161   6.430  13.215  1.00  0.00     0.023 C 
HETATM    3  C7  UNL     1      -1.089   5.385  13.565  1.00  0.00     0.013 C 
HETATM    4  C8  UNL     1      -1.666   7.813  13.654  1.00  0.00     0.039 C 
HETATM    5  C9  UNL     1      -2.549   8.933  13.098  1.00  0.00     0.126 C 
HETATM    6  C16 UNL     1      -3.992   8.470  12.840  1.00  0.00     0.044 C 
HETATM    7  C17 UNL     1      -4.517   7.416  13.849  1.00  0.00    -0.010 C 
HETATM    8  C18 UNL     1      -4.593   8.050  15.263  1.00  0.00     0.018 C 
HETATM    9  C19 UNL     1      -5.990   7.120  13.458  1.00  0.00     0.018 C 
ENDROOT
BRANCH   5  10
HETATM   10  O3  UNL     1      -2.594  10.059  13.982  1.00  0.00    -0.353 OA
BRANCH  10  11
HETATM   11  C10 UNL     1      -3.053   9.754  15.303  1.00  0.00     0.292 C 
HETATM   12  O4  UNL     1      -4.270  10.409  15.654  1.00  0.00    -0.348 OA
HETATM   13  C11 UNL     1      -4.156  11.677  16.330  1.00  0.00     0.179 C 
HETATM   14  C13 UNL     1      -3.312  11.566  17.622  1.00  0.00     0.180 C 
HETATM   15  C14 UNL     1      -2.466  10.290  17.659  1.00  0.00     0.183 C 
HETATM   16  C15 UNL     1      -1.890  10.040  16.274  1.00  0.00     0.204 C 
BRANCH  13  17
HETATM   17  C12 UNL     1      -3.734  12.809  15.376  1.00  0.00     0.198 C 
BRANCH  17  18
HETATM   18  O5  UNL     1      -4.884  13.557  14.975  1.00  0.00    -0.398 OA
HETATM   19  H20 UNL     1      -4.635  14.056  14.178  1.00  0.00     0.209 HD
ENDBRANCH  17  18
ENDBRANCH  13  17
BRANCH  14  20
HETATM   20  O6  UNL     1      -2.446  12.697  17.793  1.00  0.00    -0.390 OA
HETATM   21  H22 UNL     1      -1.784  12.402  18.457  1.00  0.00     0.210 HD
ENDBRANCH  14  20
BRANCH  15  22
HETATM   22  O7  UNL     1      -1.404  10.452  18.616  1.00  0.00    -0.390 OA
HETATM   23  H24 UNL     1      -0.774   9.730  18.411  1.00  0.00     0.210 HD
ENDBRANCH  15  22
BRANCH  16  24
HETATM   24  O8  UNL     1      -0.968   8.936  16.332  1.00  0.00    -0.388 OA
HETATM   25  H26 UNL     1      -0.628   8.830  15.422  1.00  0.00     0.210 HD
ENDBRANCH  16  24
ENDBRANCH  10  11
ENDBRANCH   5  10
BRANCH   1  26
HETATM   26  C4  UNL     1      -4.259   4.917  13.158  1.00  0.00     0.010 C 
HETATM   27  C3  UNL     1      -4.073   4.401  11.927  1.00  0.00     0.003 C 
BRANCH  27  28
HETATM   28  C2  UNL     1      -4.777   3.203  11.341  1.00  0.00     0.136 C 
HETATM   29  C1  UNL     1      -6.023   2.842  12.141  1.00  0.00     0.043 C 
BRANCH  28  30
HETATM   30  O1  UNL     1      -3.916   2.072  11.298  1.00  0.00    -0.392 OA
HETATM   31  H5  UNL     1      -3.718   1.828  12.218  1.00  0.00     0.210 HD
ENDBRANCH  28  30
ENDBRANCH  27  28
ENDBRANCH   1  26
BRANCH   1  32
HETATM   32  O2  UNL     1      -3.391   5.690  15.179  1.00  0.00    -0.385 OA
HETATM   33  H8  UNL     1      -3.010   4.795  15.162  1.00  0.00     0.211 HD
ENDBRANCH   1  32
TORSDOF 11
ENDMDL
MODEL 4
REMARK minimizedAffinity -6.32881784
REMARK CNNscore 0.391961306
REMARK CNNaffinity 5.09282732
REMARK  11 active torsions:
REMARK  status: ('A' for Active; 'I' for Inactive)
REMARK    1  A    between atoms: C2_2  and  O1_3 
REMARK    2  A    between atoms: C2_2  and  C3_4 
REMARK    3  A    between atoms: C4_5  and  C5_6 
REMARK    4  A    between atoms: C5_6  and  O2_7 
REMARK    5  A    between atoms: C9_11  and  O3_12 
REMARK    6  A    between atoms: O3_12  and  C10_13 
REMARK    7  A    between atoms: C11_15  and  C12_16 
REMARK    8  A    between atoms: C12_16  and  O5_17 
REMARK    9  A    between atoms: C13_18  and  O6_19 
REMARK   10  A    between atoms: C14_20  and  O7_21 
REMARK   11  A    between atoms: C15_22  and  O8_23 
ROOT
HETATM    1  C5  UNL     1      -3.153 -11.969   4.320  1.00  0.00     0.086 C 
HETATM    2  C6  UNL     1      -2.561 -12.458   5.695  1.00  0.00     0.023 C 
HETATM    3  C7  UNL     1      -2.490 -13.988   5.832  1.00  0.00     0.013 C 
HETATM    4  C8  UNL     1      -3.357 -11.891   6.876  1.00  0.00     0.039 C 
HETATM    5  C9  UNL     1      -3.241 -10.368   6.957  1.00  0.00     0.126 C 
HETATM    6  C16 UNL     1      -2.971  -9.725   5.587  1.00  0.00     0.044 C 
HETATM    7  C17 UNL     1      -3.653 -10.447   4.395  1.00  0.00    -0.010 C 
HETATM    8  C18 UNL     1      -5.193 -10.343   4.542  1.00  0.00     0.018 C 
HETATM    9  C19 UNL     1      -3.311  -9.626   3.123  1.00  0.00     0.018 C 
ENDROOT
BRANCH   5  10
HETATM   10  O3  UNL     1      -4.425  -9.774   7.502  1.00  0.00    -0.353 OA
BRANCH  10  11
HETATM   11  C10 UNL     1      -4.907 -10.408   8.692  1.00  0.00     0.292 C 
HETATM   12  O4  UNL     1      -6.256 -10.860   8.593  1.00  0.00    -0.348 OA
HETATM   13  C11 UNL     1      -7.283  -9.953   9.042  1.00  0.00     0.179 C 
HETATM   14  C13 UNL     1      -7.058  -9.509  10.507  1.00  0.00     0.180 C 
HETATM   15  C14 UNL     1      -5.628  -9.780  10.986  1.00  0.00     0.183 C 
HETATM   16  C15 UNL     1      -4.660  -9.439   9.865  1.00  0.00     0.204 C 
BRANCH  13  17
HETATM   17  C12 UNL     1      -7.517  -8.802   8.046  1.00  0.00     0.198 C 
BRANCH  17  18
HETATM   18  O5  UNL     1      -8.892  -8.412   8.074  1.00  0.00    -0.398 OA
HETATM   19  H20 UNL     1      -9.061  -7.908   7.260  1.00  0.00     0.209 HD
ENDBRANCH  17  18
ENDBRANCH  13  17
BRANCH  14  20
HETATM   20  O6  UNL     1      -7.351  -8.118  10.696  1.00  0.00    -0.390 OA
HETATM   21  H22 UNL     1      -6.922  -7.889  11.550  1.00  0.00     0.210 HD
ENDBRANCH  14  20
BRANCH  15  22
HETATM   22  O7  UNL     1      -5.354  -8.968  12.142  1.00  0.00    -0.390 OA
HETATM   23  H24 UNL     1      -4.379  -8.995  12.237  1.00  0.00     0.210 HD
ENDBRANCH  15  22
BRANCH  16  24
HETATM   24  O8  UNL     1      -3.309  -9.536  10.353  1.00  0.00    -0.388 OA
HETATM   25  H26 UNL     1      -2.739  -9.300   9.596  1.00  0.00     0.210 HD
ENDBRANCH  16  24
ENDBRANCH  10  11
ENDBRANCH   5  10
BRANCH   1  26
HETATM   26  C4  UNL     1      -2.217 -12.224   3.141  1.00  0.00     0.010 C 
HETATM   27  C3  UNL     1      -2.382 -13.034   2.078  1.00  0.00     0.003 C 
BRANCH  27  28
HETATM   28  C2  UNL     1      -1.412 -13.230   0.940  1.00  0.00     0.136 C 
HETATM   29  C1  UNL     1      -2.131 -13.287  -0.402  1.00  0.00     0.043 C 
BRANCH  28  30
HETATM   30  O1  UNL     1      -0.658 -14.424   1.109  1.00  0.00    -0.392 OA
HETATM   31  H5  UNL     1      -1.281 -15.167   1.045  1.00  0.00     0.210 HD
ENDBRANCH  28  30
ENDBRANCH  27  28
ENDBRANCH   1  26
BRANCH   1  32
HETATM   32  O2  UNL     1      -4.301 -12.783   4.025  1.00  0.00    -0.385 OA
HETATM   33  H8  UNL     1      -3.983 -13.666   3.769  1.00  0.00     0.211 HD
ENDBRANCH   1  32
TORSDOF 11
ENDMDL
MODEL 5
REMARK minimizedAffinity -6.50909758
REMARK CNNscore 0.338087499
REMARK CNNaffinity 4.69031954
REMARK  11 active torsions:
REMARK  status: ('A' for Active; 'I' for Inactive)
REMARK    1  A    between atoms: C2_2  and  O1_3 
REMARK    2  A    between atoms: C2_2  and  C3_4 
REMARK    3  A    between atoms: C4_5  and  C5_6 
REMARK    4  A    between atoms: C5_6  and  O2_7 
REMARK    5  A    between atoms: C9_11  and  O3_12 
REMARK    6  A    between atoms: O3_12  and  C10_13 
REMARK    7  A    between atoms: C11_15  and  C12_16 
REMARK    8  A    between atoms: C12_16  and  O5_17 
REMARK    9  A    between atoms: C13_18  and  O6_19 
REMARK   10  A    between atoms: C14_20  and  O7_21 
REMARK   11  A    between atoms: C15_22  and  O8_23 
ROOT
HETATM    1  C5  UNL     1       1.738   6.936  11.695  1.00  0.00     0.086 C 
HETATM    2  C6  UNL     1       1.957   8.488  11.850  1.00  0.00     0.023 C 
HETATM    3  C7  UNL     1       3.427   8.892  12.053  1.00  0.00     0.013 C 
HETATM    4  C8  UNL     1       1.124   9.053  13.007  1.00  0.00     0.039 C 
HETATM    5  C9  UNL     1      -0.377   8.928  12.736  1.00  0.00     0.126 C 
HETATM    6  C16 UNL     1      -0.710   7.755  11.800  1.00  0.00     0.044 C 
HETATM    7  C17 UNL     1       0.214   6.520  11.968  1.00  0.00    -0.010 C 
HETATM    8  C18 UNL     1       0.015   5.916  13.383  1.00  0.00     0.018 C 
HETATM    9  C19 UNL     1      -0.310   5.436  10.988  1.00  0.00     0.018 C 
ENDROOT
BRANCH   5  10
HETATM   10  O3  UNL     1      -1.120   8.756  13.948  1.00  0.00    -0.353 OA
BRANCH  10  11
HETATM   11  C10 UNL     1      -2.254   9.621  14.072  1.00  0.00     0.292 C 
HETATM   12  O4  UNL     1      -2.277  10.366  15.289  1.00  0.00    -0.348 OA
HETATM   13  C11 UNL     1      -2.998   9.787  16.394  1.00  0.00     0.179 C 
HETATM   14  C13 UNL     1      -4.468   9.478  16.023  1.00  0.00     0.180 C 
HETATM   15  C14 UNL     1      -4.696   9.457  14.509  1.00  0.00     0.183 C 
HETATM   16  C15 UNL     1      -3.516   8.766  13.843  1.00  0.00     0.204 C 
BRANCH  13  17
HETATM   17  C12 UNL     1      -2.233   8.616  17.038  1.00  0.00     0.198 C 
BRANCH  17  18
HETATM   18  O5  UNL     1      -2.363   7.449  16.222  1.00  0.00    -0.398 OA
HETATM   19  H20 UNL     1      -2.128   6.686  16.778  1.00  0.00     0.209 HD
ENDBRANCH  17  18
ENDBRANCH  13  17
BRANCH  14  20
HETATM   20  O6  UNL     1      -4.907   8.228  16.573  1.00  0.00    -0.390 OA
HETATM   21  H22 UNL     1      -5.718   8.006  16.064  1.00  0.00     0.210 HD
ENDBRANCH  14  20
BRANCH  15  22
HETATM   22  O7  UNL     1      -5.913   8.744  14.222  1.00  0.00    -0.390 OA
HETATM   23  H24 UNL     1      -5.866   8.551  13.263  1.00  0.00     0.210 HD
ENDBRANCH  15  22
BRANCH  16  24
HETATM   24  O8  UNL     1      -3.790   8.598  12.440  1.00  0.00    -0.388 OA
HETATM   25  H26 UNL     1      -3.006   8.146  12.072  1.00  0.00     0.210 HD
ENDBRANCH  16  24
ENDBRANCH  10  11
ENDBRANCH   5  10
BRANCH   1  26
HETATM   26  C4  UNL     1       2.271   6.386  10.375  1.00  0.00     0.010 C 
HETATM   27  C3  UNL     1       2.275   6.951   9.152  1.00  0.00     0.003 C 
BRANCH  27  28
HETATM   28  C2  UNL     1       2.830   6.348   7.886  1.00  0.00     0.136 C 
HETATM   29  C1  UNL     1       1.973   6.702   6.677  1.00  0.00     0.043 C 
BRANCH  28  30
HETATM   30  O1  UNL     1       2.918   4.933   7.988  1.00  0.00    -0.392 OA
HETATM   31  H5  UNL     1       2.010   4.594   8.056  1.00  0.00     0.210 HD
ENDBRANCH  28  30
ENDBRANCH  27  28
ENDBRANCH   1  26
BRANCH   1  32
HETATM   32  O2  UNL     1       2.546   6.281  12.688  1.00  0.00    -0.385 OA
HETATM   33  H8  UNL     1       3.476   6.350  12.410  1.00  0.00     0.211 HD
ENDBRANCH   1  32
TORSDOF 11
ENDMDL
MODEL 6
REMARK minimizedAffinity -6.78005838
REMARK CNNscore 0.326592058
REMARK CNNaffinity 4.97854853
REMARK  11 active torsions:
REMARK  status: ('A' for Active; 'I' for Inactive)
REMARK    1  A    between atoms: C2_2  and  O1_3 
REMARK    2  A    between atoms: C2_2  and  C3_4 
REMARK    3  A    between atoms: C4_5  and  C5_6 
REMARK    4  A    between atoms: C5_6  and  O2_7 
REMARK    5  A    between atoms: C9_11  and  O3_12 
REMARK    6  A    between atoms: O3_12  and  C10_13 
REMARK    7  A    between atoms: C11_15  and  C12_16 
REMARK    8  A    between atoms: C12_16  and  O5_17 
REMARK    9  A    between atoms: C13_18  and  O6_19 
REMARK   10  A    between atoms: C14_20  and  O7_21 
REMARK   11  A    between atoms: C15_22  and  O8_23 
ROOT
HETATM    1  C5  UNL     1      -5.128 -11.057   5.690  1.00  0.00     0.086 C 
HETATM    2  C6  UNL     1      -4.143 -10.825   6.896  1.00  0.00     0.023 C 
HETATM    3  C7  UNL     1      -3.152 -11.979   7.121  1.00  0.00     0.013 C 
HETATM    4  C8  UNL     1      -4.910 -10.570   8.199  1.00  0.00     0.039 C 
HETATM    5  C9  UNL     1      -5.714  -9.269   8.136  1.00  0.00     0.126 C 
HETATM    6  C16 UNL     1      -6.113  -8.893   6.700  1.00  0.00     0.044 C 
HETATM    7  C17 UNL     1      -6.416 -10.106   5.781  1.00  0.00    -0.010 C 
HETATM    8  C18 UNL     1      -7.663 -10.858   6.315  1.00  0.00     0.018 C 
HETATM    9  C19 UNL     1      -6.848  -9.527   4.408  1.00  0.00     0.018 C 
ENDROOT
BRANCH   5  10
HETATM   10  O3  UNL     1      -6.907  -9.345   8.925  1.00  0.00    -0.353 OA
BRANCH  10  11
HETATM   11  C10 UNL     1      -6.742 -10.015  10.180  1.00  0.00     0.292 C 
HETATM   12  O4  UNL     1      -7.834 -10.866  10.522  1.00  0.00    -0.348 OA
HETATM   13  C11 UNL     1      -8.881 -10.291  11.329  1.00  0.00     0.179 C 
HETATM   14  C13 UNL     1      -8.331  -9.702  12.650  1.00  0.00     0.180 C 
HETATM   15  C14 UNL     1      -6.816  -9.486  12.607  1.00  0.00     0.183 C 
HETATM   16  C15 UNL     1      -6.434  -8.940  11.241  1.00  0.00     0.204 C 
BRANCH  13  17
HETATM   17  C12 UNL     1      -9.780  -9.338  10.520  1.00  0.00     0.198 C 
BRANCH  17  18
HETATM   18  O5  UNL     1      -9.921  -9.825   9.183  1.00  0.00    -0.398 OA
HETATM   19  H20 UNL     1     -10.236  -9.082   8.642  1.00  0.00     0.209 HD
ENDBRANCH  17  18
ENDBRANCH  13  17
BRANCH  14  20
HETATM   20  O6  UNL     1      -8.964  -8.459  12.986  1.00  0.00    -0.390 OA
HETATM   21  H22 UNL     1      -8.370  -8.052  13.654  1.00  0.00     0.210 HD
ENDBRANCH  14  20
BRANCH  15  22
HETATM   22  O7  UNL     1      -6.440  -8.553  13.637  1.00  0.00    -0.390 OA
HETATM   23  H24 UNL     1      -5.533  -8.273  13.397  1.00  0.00     0.210 HD
ENDBRANCH  15  22
BRANCH  16  24
HETATM   24  O8  UNL     1      -5.039  -8.584  11.240  1.00  0.00    -0.388 OA
HETATM   25  H26 UNL     1      -4.857  -8.235  10.346  1.00  0.00     0.210 HD
ENDBRANCH  16  24
ENDBRANCH  10  11
ENDBRANCH   5  10
BRANCH   1  26
HETATM   26  C4  UNL     1      -4.437 -10.984   4.331  1.00  0.00     0.010 C 
HETATM   27  C3  UNL     1      -3.328 -10.311   3.971  1.00  0.00     0.003 C 
BRANCH  27  28
HETATM   28  C2  UNL     1      -2.694 -10.292   2.603  1.00  0.00     0.136 C 
HETATM   29  C1  UNL     1      -3.474 -11.151   1.615  1.00  0.00     0.043 C 
BRANCH  28  30
HETATM   30  O1  UNL     1      -1.351 -10.755   2.653  1.00  0.00    -0.392 OA
HETATM   31  H5  UNL     1      -1.380 -11.692   2.908  1.00  0.00     0.210 HD
ENDBRANCH  28  30
ENDBRANCH  27  28
ENDBRANCH   1  26
BRANCH   1  32
HETATM   32  O2  UNL     1      -5.593 -12.416   5.763  1.00  0.00    -0.385 OA
HETATM   33  H8  UNL     1      -4.859 -12.998   5.497  1.00  0.00     0.211 HD
ENDBRANCH   1  32
TORSDOF 11
ENDMDL
MODEL 7
REMARK minimizedAffinity -7.83843231
REMARK CNNscore 0.262049079
REMARK CNNaffinity 4.73626518
REMARK  11 active torsions:
REMARK  status: ('A' for Active; 'I' for Inactive)
REMARK    1  A    between atoms: C2_2  and  O1_3 
REMARK    2  A    between atoms: C2_2  and  C3_4 
REMARK    3  A    between atoms: C4_5  and  C5_6 
REMARK    4  A    between atoms: C5_6  and  O2_7 
REMARK    5  A    between atoms: C9_11  and  O3_12 
REMARK    6  A    between atoms: O3_12  and  C10_13 
REMARK    7  A    between atoms: C11_15  and  C12_16 
REMARK    8  A    between atoms: C12_16  and  O5_17 
REMARK    9  A    between atoms: C13_18  and  O6_19 
REMARK   10  A    between atoms: C14_20  and  O7_21 
REMARK   11  A    between atoms: C15_22  and  O8_23 
ROOT
HETATM    1  C5  UNL     1      -4.345   6.030  13.622  1.00  0.00     0.086 C 
HETATM    2  C6  UNL     1      -3.217   5.286  12.814  1.00  0.00     0.023 C 
HETATM    3  C7  UNL     1      -3.251   3.756  12.962  1.00  0.00     0.013 C 
HETATM    4  C8  UNL     1      -1.824   5.791  13.212  1.00  0.00     0.039 C 
HETATM    5  C9  UNL     1      -1.626   7.260  12.834  1.00  0.00     0.126 C 
HETATM    6  C16 UNL     1      -2.950   8.040  12.790  1.00  0.00     0.044 C 
HETATM    7  C17 UNL     1      -3.999   7.581  13.837  1.00  0.00    -0.010 C 
HETATM    8  C18 UNL     1      -3.462   7.869  15.264  1.00  0.00     0.018 C 
HETATM    9  C19 UNL     1      -5.230   8.512  13.672  1.00  0.00     0.018 C 
ENDROOT
BRANCH   5  10
HETATM   10  O3  UNL     1      -0.747   7.927  13.747  1.00  0.00    -0.353 OA
BRANCH  10  11
HETATM   11  C10 UNL     1       0.634   7.887  13.372  1.00  0.00     0.292 C 
HETATM   12  O4  UNL     1       1.016   8.934  12.481  1.00  0.00    -0.348 OA
HETATM   13  C11 UNL     1       0.953   8.646  11.070  1.00  0.00     0.179 C 
HETATM   14  C13 UNL     1       1.797   7.402  10.699  1.00  0.00     0.180 C 
HETATM   15  C14 UNL     1       2.141   6.545  11.921  1.00  0.00     0.183 C 
HETATM   16  C15 UNL     1       0.926   6.473  12.832  1.00  0.00     0.204 C 
BRANCH  13  17
HETATM   17  C12 UNL     1      -0.494   8.626  10.546  1.00  0.00     0.198 C 
BRANCH  17  18
HETATM   18  O5  UNL     1      -0.514   9.015   9.170  1.00  0.00    -0.398 OA
HETATM   19  H20 UNL     1      -1.429   9.267   8.959  1.00  0.00     0.209 HD
ENDBRANCH  17  18
ENDBRANCH  13  17
BRANCH  14  20
HETATM   20  O6  UNL     1       1.135   6.578   9.729  1.00  0.00    -0.390 OA
HETATM   21  H22 UNL     1       1.605   5.716   9.778  1.00  0.00     0.210 HD
ENDBRANCH  14  20
BRANCH  15  22
HETATM   22  O7  UNL     1       2.512   5.225  11.484  1.00  0.00    -0.390 OA
HETATM   23  H24 UNL     1       2.470   4.676  12.294  1.00  0.00     0.210 HD
ENDBRANCH  15  22
BRANCH  16  24
HETATM   24  O8  UNL     1       1.183   5.544  13.900  1.00  0.00    -0.388 OA
HETATM   25  H26 UNL     1       0.370   5.535  14.442  1.00  0.00     0.210 HD
ENDBRANCH  16  24
ENDBRANCH  10  11
ENDBRANCH   5  10
BRANCH   1  26
HETATM   26  C4  UNL     1      -5.739   5.814  13.039  1.00  0.00     0.010 C 
HETATM   27  C3  UNL     1      -6.636   4.845  13.306  1.00  0.00     0.003 C 
BRANCH  27  28
HETATM   28  C2  UNL     1      -8.007   4.698  12.694  1.00  0.00     0.136 C 
HETATM   29  C1  UNL     1      -8.868   5.929  12.953  1.00  0.00     0.043 C 
BRANCH  28  30
HETATM   30  O1  UNL     1      -8.677   3.553  13.205  1.00  0.00    -0.392 OA
HETATM   31  H5  UNL     1      -8.834   3.713  14.151  1.00  0.00     0.210 HD
ENDBRANCH  28  30
ENDBRANCH  27  28
ENDBRANCH   1  26
BRANCH   1  32
HETATM   32  O2  UNL     1      -4.422   5.423  14.923  1.00  0.00    -0.385 OA
HETATM   33  H8  UNL     1      -4.835   4.548  14.821  1.00  0.00     0.211 HD
ENDBRANCH   1  32
TORSDOF 11
ENDMDL
MODEL 8
REMARK minimizedAffinity -6.40753889
REMARK CNNscore 0.238892525
REMARK CNNaffinity 4.25337362
REMARK  11 active torsions:
REMARK  status: ('A' for Active; 'I' for Inactive)
REMARK    1  A    between atoms: C2_2  and  O1_3 
REMARK    2  A    between atoms: C2_2  and  C3_4 
REMARK    3  A    between atoms: C4_5  and  C5_6 
REMARK    4  A    between atoms: C5_6  and  O2_7 
REMARK    5  A    between atoms: C9_11  and  O3_12 
REMARK    6  A    between atoms: O3_12  and  C10_13 
REMARK    7  A    between atoms: C11_15  and  C12_16 
REMARK    8  A    between atoms: C12_16  and  O5_17 
REMARK    9  A    between atoms: C13_18  and  O6_19 
REMARK   10  A    between atoms: C14_20  and  O7_21 
REMARK   11  A    between atoms: C15_22  and  O8_23 
ROOT
HETATM    1  C5  UNL     1      -1.012   8.975  13.862  1.00  0.00     0.086 C 
HETATM    2  C6  UNL     1       0.250   9.248  14.764  1.00  0.00     0.023 C 
HETATM    3  C7  UNL     1       0.439  10.727  15.138  1.00  0.00     0.013 C 
HETATM    4  C8  UNL     1       1.532   8.739  14.094  1.00  0.00     0.039 C 
HETATM    5  C9  UNL     1       1.523   7.216  13.940  1.00  0.00     0.126 C 
HETATM    6  C16 UNL     1       0.100   6.643  13.844  1.00  0.00     0.044 C 
HETATM    7  C17 UNL     1      -0.912   7.562  13.111  1.00  0.00    -0.010 C 
HETATM    8  C18 UNL     1      -0.487   7.715  11.627  1.00  0.00     0.018 C 
HETATM    9  C19 UNL     1      -2.261   6.795  13.069  1.00  0.00     0.018 C 
ENDROOT
BRANCH   5  10
HETATM   10  O3  UNL     1       2.252   6.797  12.780  1.00  0.00    -0.353 OA
BRANCH  10  11
HETATM   11  C10 UNL     1       3.226   7.741  12.323  1.00  0.00     0.292 C 
HETATM   12  O4  UNL     1       3.173   7.985  10.919  1.00  0.00    -0.348 OA
HETATM   13  C11 UNL     1       4.030   7.178  10.085  1.00  0.00     0.179 C 
HETATM   14  C13 UNL     1       5.514   7.286  10.510  1.00  0.00     0.180 C 
HETATM   15  C14 UNL     1       5.676   7.856  11.922  1.00  0.00     0.183 C 
HETATM   16  C15 UNL     1       4.604   7.261  12.821  1.00  0.00     0.204 C 
BRANCH  13  17
HETATM   17  C12 UNL     1       3.503   5.740   9.931  1.00  0.00     0.198 C 
BRANCH  17  18
HETATM   18  O5  UNL     1       2.192   5.764   9.363  1.00  0.00    -0.398 OA
HETATM   19  H20 UNL     1       1.788   4.898   9.544  1.00  0.00     0.209 HD
ENDBRANCH  17  18
ENDBRANCH  13  17
BRANCH  14  20
HETATM   20  O6  UNL     1       6.182   6.018  10.445  1.00  0.00    -0.390 OA
HETATM   21  H22 UNL     1       6.996   6.141  10.981  1.00  0.00     0.210 HD
ENDBRANCH  14  20
BRANCH  15  22
HETATM   22  O7  UNL     1       6.984   7.520  12.421  1.00  0.00    -0.390 OA
HETATM   23  H24 UNL     1       6.929   7.683  13.386  1.00  0.00     0.210 HD
ENDBRANCH  15  22
BRANCH  16  24
HETATM   24  O8  UNL     1       4.842   7.664  14.182  1.00  0.00    -0.388 OA
HETATM   25  H26 UNL     1       4.132   7.248  14.707  1.00  0.00     0.210 HD
ENDBRANCH  16  24
ENDBRANCH  10  11
ENDBRANCH   5  10
BRANCH   1  26
HETATM   26  C4  UNL     1      -2.331   9.154  14.609  1.00  0.00     0.010 C 
HETATM   27  C3  UNL     1      -3.021  10.281  14.868  1.00  0.00     0.003 C 
BRANCH  27  28
HETATM   28  C2  UNL     1      -4.330  10.381  15.609  1.00  0.00     0.136 C 
HETATM   29  C1  UNL     1      -4.481  11.733  16.296  1.00  0.00     0.043 C 
BRANCH  28  30
HETATM   30  O1  UNL     1      -4.447   9.354  16.586  1.00  0.00    -0.392 OA
HETATM   31  H5  UNL     1      -3.761   9.516  17.255  1.00  0.00     0.210 HD
ENDBRANCH  28  30
ENDBRANCH  27  28
ENDBRANCH   1  26
BRANCH   1  32
HETATM   32  O2  UNL     1      -1.052   9.997  12.850  1.00  0.00    -0.385 OA
HETATM   33  H8  UNL     1      -1.324  10.828  13.276  1.00  0.00     0.211 HD
ENDBRANCH   1  32
TORSDOF 11
ENDMDL
MODEL 9
REMARK minimizedAffinity -7.58666849
REMARK CNNscore 0.238020629
REMARK CNNaffinity 5.12570906
REMARK  11 active torsions:
REMARK  status: ('A' for Active; 'I' for Inactive)
REMARK    1  A    between atoms: C2_2  and  O1_3 
REMARK    2  A    between atoms: C2_2  and  C3_4 
REMARK    3  A    between atoms: C4_5  and  C5_6 
REMARK    4  A    between atoms: C5_6  and  O2_7 
REMARK    5  A    between atoms: C9_11  and  O3_12 
REMARK    6  A    between atoms: O3_12  and  C10_13 
REMARK    7  A    between atoms: C11_15  and  C12_16 
REMARK    8  A    between atoms: C12_16  and  O5_17 
REMARK    9  A    between atoms: C13_18  and  O6_19 
REMARK   10  A    between atoms: C14_20  and  O7_21 
REMARK   11  A    between atoms: C15_22  and  O8_23 
ROOT
HETATM    1  C5  UNL     1      -5.701   6.509  14.434  1.00  0.00     0.086 C 
HETATM    2  C6  UNL     1      -5.800   8.071  14.253  1.00  0.00     0.023 C 
HETATM    3  C7  UNL     1      -4.458   8.802  14.418  1.00  0.00     0.013 C 
HETATM    4  C8  UNL     1      -6.819   8.679  15.224  1.00  0.00     0.039 C 
HETATM    5  C9  UNL     1      -8.240   8.194  14.930  1.00  0.00     0.126 C 
HETATM    6  C16 UNL     1      -8.262   6.809  14.263  1.00  0.00     0.044 C 
HETATM    7  C17 UNL     1      -7.134   5.853  14.732  1.00  0.00    -0.010 C 
HETATM    8  C18 UNL     1      -7.327   5.528  16.237  1.00  0.00     0.018 C 
HETATM    9  C19 UNL     1      -7.356   4.506  13.994  1.00  0.00     0.018 C 
ENDROOT
BRANCH   5  10
HETATM   10  O3  UNL     1      -9.033   8.127  16.121  1.00  0.00    -0.353 OA
BRANCH  10  11
HETATM   11  C10 UNL     1     -10.011   9.165  16.237  1.00  0.00     0.292 C 
HETATM   12  O4  UNL     1     -11.356   8.691  16.210  1.00  0.00    -0.348 OA
HETATM   13  C11 UNL     1     -12.010   8.656  14.926  1.00  0.00     0.179 C 
HETATM   14  C13 UNL     1     -12.003  10.042  14.239  1.00  0.00     0.180 C 
HETATM   15  C14 UNL     1     -10.973  10.994  14.854  1.00  0.00     0.183 C 
HETATM   16  C15 UNL     1      -9.700  10.216  15.153  1.00  0.00     0.204 C 
BRANCH  13  17
HETATM   17  C12 UNL     1     -11.505   7.496  14.049  1.00  0.00     0.198 C 
BRANCH  17  18
HETATM   18  O5  UNL     1     -11.794   6.248  14.685  1.00  0.00    -0.398 OA
HETATM   19  H20 UNL     1     -11.225   5.579  14.267  1.00  0.00     0.209 HD
ENDBRANCH  17  18
ENDBRANCH  13  17
BRANCH  14  20
HETATM   20  O6  UNL     1     -11.752   9.940  12.830  1.00  0.00    -0.390 OA
HETATM   21  H22 UNL     1     -11.497  10.849  12.559  1.00  0.00     0.210 HD
ENDBRANCH  14  20
BRANCH  15  22
HETATM   22  O7  UNL     1     -10.697  12.059  13.926  1.00  0.00    -0.390 OA
HETATM   23  H24 UNL     1      -9.873  12.470  14.261  1.00  0.00     0.210 HD
ENDBRANCH  15  22
BRANCH  16  24
HETATM   24  O8  UNL     1      -8.673  11.128  15.583  1.00  0.00    -0.388 OA
HETATM   25  H26 UNL     1      -7.885  10.575  15.750  1.00  0.00     0.210 HD
ENDBRANCH  16  24
ENDBRANCH  10  11
ENDBRANCH   5  10
BRANCH   1  26
HETATM   26  C4  UNL     1      -4.965   5.820  13.288  1.00  0.00     0.010 C 
HETATM   27  C3  UNL     1      -3.799   5.147  13.303  1.00  0.00     0.003 C 
BRANCH  27  28
HETATM   28  C2  UNL     1      -3.132   4.480  12.126  1.00  0.00     0.136 C 
HETATM   29  C1  UNL     1      -3.789   3.146  11.795  1.00  0.00     0.043 C 
BRANCH  28  30
HETATM   30  O1  UNL     1      -1.750   4.262  12.376  1.00  0.00    -0.392 OA
HETATM   31  H5  UNL     1      -1.688   3.619  13.103  1.00  0.00     0.210 HD
ENDBRANCH  28  30
ENDBRANCH  27  28
ENDBRANCH   1  26
BRANCH   1  32
HETATM   32  O2  UNL     1      -4.867   6.255  15.577  1.00  0.00    -0.385 OA
HETATM   33  H8  UNL     1      -3.948   6.455  15.326  1.00  0.00     0.211 HD
ENDBRANCH   1  32
TORSDOF 11
ENDMDL
