MODEL 1
REMARK minimizedAffinity -9.14857197
REMARK  13 active torsions:
REMARK  status: ('A' for Active; 'I' for Inactive)
REMARK    1  A    between atoms: C2_2  and  C3_3 
REMARK    2  A    between atoms: C3_3  and  O1_5 
REMARK    3  A    between atoms: C3_3  and  C5_6 
REMARK    4  A    between atoms: C5_6  and  C6_7 
REMARK    5  A    between atoms: C6_7  and  C7_8 
REMARK    6  A    between atoms: C13_14  and  C15_16 
REMARK    7  A    between atoms: C15_16  and  O2_17 
REMARK    8  A    between atoms: O2_17  and  C16_18 
REMARK    9  A    between atoms: C17_20  and  C18_21 
REMARK   10  A    between atoms: C18_21  and  O4_22 
REMARK   11  A    between atoms: C19_23  and  O5_24 
REMARK   12  A    between atoms: C20_25  and  O6_26 
REMARK   13  A    between atoms: C21_27  and  O7_28 
ROOT
HETATM    1  C7  UNL     1      -4.075   5.736  12.985  1.00  0.00     0.022 C 
HETATM    2  C8  UNL     1      -3.487   4.437  12.446  1.00  0.00    -0.084 C 
HETATM    3  C9  UNL     1      -3.715   3.202  12.922  1.00  0.00     0.014 C 
HETATM    4  C10 UNL     1      -2.523   4.665  11.304  1.00  0.00     0.034 C 
HETATM    5  C11 UNL     1      -1.403   5.648  11.680  1.00  0.00     0.010 C 
HETATM    6  C12 UNL     1      -1.486   6.095  13.156  1.00  0.00     0.005 C 
HETATM    7  C13 UNL     1      -0.219   6.855  13.693  1.00  0.00    -0.018 C 
HETATM    8  C14 UNL     1       1.020   5.914  13.606  1.00  0.00     0.018 C 
HETATM    9  C22 UNL     1      -0.419   7.150  15.204  1.00  0.00     0.012 C 
HETATM   10  C23 UNL     1      -1.757   7.790  15.547  1.00  0.00     0.002 C 
HETATM   11  C24 UNL     1      -2.936   6.966  15.026  1.00  0.00     0.010 C 
HETATM   12  C25 UNL     1      -2.905   6.717  13.493  1.00  0.00    -0.032 C 
HETATM   13  C26 UNL     1      -3.183   8.068  12.784  1.00  0.00     0.016 C 
ENDROOT
BRANCH   7  14
HETATM   14  C15 UNL     1       0.139   8.133  12.896  1.00  0.00     0.180 C 
BRANCH  14  15
HETATM   15  O2  UNL     1      -0.319   8.002  11.542  1.00  0.00    -0.358 OA
BRANCH  15  16
HETATM   16  C16 UNL     1       0.675   8.376  10.584  1.00  0.00     0.291 C 
HETATM   17  O3  UNL     1       1.893   7.641  10.746  1.00  0.00    -0.348 OA
HETATM   18  C17 UNL     1       1.893   6.389  10.041  1.00  0.00     0.179 C 
HETATM   19  C19 UNL     1       1.868   6.619   8.507  1.00  0.00     0.180 C 
HETATM   20  C20 UNL     1       1.158   7.939   8.148  1.00  0.00     0.183 C 
HETATM   21  C21 UNL     1       0.055   8.216   9.175  1.00  0.00     0.204 C 
BRANCH  18  22
HETATM   22  C18 UNL     1       3.099   5.571  10.509  1.00  0.00     0.198 C 
BRANCH  22  23
HETATM   23  O4  UNL     1       3.055   4.238  10.015  1.00  0.00    -0.398 OA
HETATM   24  H29 UNL     1       3.261   4.311   9.060  1.00  0.00     0.209 HD
ENDBRANCH  22  23
ENDBRANCH  18  22
BRANCH  19  25
HETATM   25  O5  UNL     1       3.192   6.624   7.943  1.00  0.00    -0.390 OA
HETATM   26  H31 UNL     1       3.333   7.524   7.576  1.00  0.00     0.210 HD
ENDBRANCH  19  25
BRANCH  20  27
HETATM   27  O6  UNL     1       2.144   8.994   8.096  1.00  0.00    -0.390 OA
HETATM   28  H33 UNL     1       2.519   9.103   8.990  1.00  0.00     0.210 HD
ENDBRANCH  20  27
BRANCH  21  29
HETATM   29  O7  UNL     1      -0.717   9.371   8.820  1.00  0.00    -0.388 OA
HETATM   30  H35 UNL     1      -1.370   9.500   9.531  1.00  0.00     0.210 HD
ENDBRANCH  21  29
ENDBRANCH  15  16
ENDBRANCH  14  15
ENDBRANCH   7  14
BRANCH   1  31
HETATM   31  C6  UNL     1      -5.259   5.589  13.974  1.00  0.00     0.013 C 
BRANCH  31  32
HETATM   32  C5  UNL     1      -6.560   6.272  13.503  1.00  0.00     0.042 C 
BRANCH  32  33
HETATM   33  C3  UNL     1      -7.781   5.322  13.426  1.00  0.00     0.071 C 
HETATM   34  C4  UNL     1      -8.576   5.486  12.121  1.00  0.00     0.050 C 
BRANCH  33  35
HETATM   35  C2  UNL     1      -7.316   3.907  13.687  1.00  0.00    -0.000 C 
HETATM   36  C1  UNL     1      -7.614   2.797  12.999  1.00  0.00     0.010 C 
ENDBRANCH  33  35
BRANCH  33  37
HETATM   37  O1  UNL     1      -8.656   5.621  14.523  1.00  0.00    -0.386 OA
HETATM   38  H7  UNL     1      -9.167   6.417  14.295  1.00  0.00     0.211 HD
ENDBRANCH  33  37
ENDBRANCH  32  33
ENDBRANCH  31  32
ENDBRANCH   1  31
TORSDOF 13
ENDMDL
MODEL 2
REMARK minimizedAffinity -8.85523415
REMARK  13 active torsions:
REMARK  status: ('A' for Active; 'I' for Inactive)
REMARK    1  A    between atoms: C2_2  and  C3_3 
REMARK    2  A    between atoms: C3_3  and  O1_5 
REMARK    3  A    between atoms: C3_3  and  C5_6 
REMARK    4  A    between atoms: C5_6  and  C6_7 
REMARK    5  A    between atoms: C6_7  and  C7_8 
REMARK    6  A    between atoms: C13_14  and  C15_16 
REMARK    7  A    between atoms: C15_16  and  O2_17 
REMARK    8  A    between atoms: O2_17  and  C16_18 
REMARK    9  A    between atoms: C17_20  and  C18_21 
REMARK   10  A    between atoms: C18_21  and  O4_22 
REMARK   11  A    between atoms: C19_23  and  O5_24 
REMARK   12  A    between atoms: C20_25  and  O6_26 
REMARK   13  A    between atoms: C21_27  and  O7_28 
ROOT
HETATM    1  C7  UNL     1      -4.245   5.716  13.010  1.00  0.00     0.022 C 
HETATM    2  C8  UNL     1      -3.792   4.362  12.477  1.00  0.00    -0.084 C 
HETATM    3  C9  UNL     1      -4.107   3.160  12.988  1.00  0.00     0.014 C 
HETATM    4  C10 UNL     1      -2.856   4.485  11.297  1.00  0.00     0.034 C 
HETATM    5  C11 UNL     1      -1.642   5.374  11.610  1.00  0.00     0.010 C 
HETATM    6  C12 UNL     1      -1.630   5.853  13.078  1.00  0.00     0.005 C 
HETATM    7  C13 UNL     1      -0.283   6.509  13.552  1.00  0.00    -0.018 C 
HETATM    8  C14 UNL     1       0.866   5.463  13.439  1.00  0.00     0.018 C 
HETATM    9  C22 UNL     1      -0.398   6.847  15.063  1.00  0.00     0.012 C 
HETATM   10  C23 UNL     1      -1.661   7.607  15.441  1.00  0.00     0.002 C 
HETATM   11  C24 UNL     1      -2.927   6.879  14.981  1.00  0.00     0.010 C 
HETATM   12  C25 UNL     1      -2.976   6.601  13.454  1.00  0.00    -0.032 C 
HETATM   13  C26 UNL     1      -3.163   7.958  12.727  1.00  0.00     0.016 C 
ENDROOT
BRANCH   7  14
HETATM   14  C15 UNL     1       0.153   7.737  12.715  1.00  0.00     0.180 C 
BRANCH  14  15
HETATM   15  O2  UNL     1       1.536   7.609  12.355  1.00  0.00    -0.358 OA
BRANCH  15  16
HETATM   16  C16 UNL     1       1.733   6.781  11.205  1.00  0.00     0.291 C 
HETATM   17  O3  UNL     1       0.774   7.042  10.174  1.00  0.00    -0.348 OA
HETATM   18  C17 UNL     1       1.167   8.109   9.295  1.00  0.00     0.179 C 
HETATM   19  C19 UNL     1       2.416   7.708   8.465  1.00  0.00     0.180 C 
HETATM   20  C20 UNL     1       3.296   6.698   9.228  1.00  0.00     0.183 C 
HETATM   21  C21 UNL     1       3.194   6.972  10.732  1.00  0.00     0.204 C 
BRANCH  18  22
HETATM   22  C18 UNL     1      -0.036   8.490   8.428  1.00  0.00     0.198 C 
BRANCH  22  23
HETATM   23  O4  UNL     1      -0.994   9.245   9.159  1.00  0.00    -0.398 OA
HETATM   24  H29 UNL     1      -0.586  10.128   9.280  1.00  0.00     0.209 HD
ENDBRANCH  22  23
ENDBRANCH  18  22
BRANCH  19  25
HETATM   25  O5  UNL     1       2.055   7.153   7.188  1.00  0.00    -0.390 OA
HETATM   26  H31 UNL     1       2.373   6.223   7.190  1.00  0.00     0.210 HD
ENDBRANCH  19  25
BRANCH  20  27
HETATM   27  O6  UNL     1       2.872   5.361   8.878  1.00  0.00    -0.390 OA
HETATM   28  H33 UNL     1       1.958   5.241   9.194  1.00  0.00     0.210 HD
ENDBRANCH  20  27
BRANCH  21  29
HETATM   29  O7  UNL     1       4.089   6.137  11.481  1.00  0.00    -0.388 OA
HETATM   30  H35 UNL     1       3.942   6.345  12.421  1.00  0.00     0.210 HD
ENDBRANCH  21  29
ENDBRANCH  15  16
ENDBRANCH  14  15
ENDBRANCH   7  14
BRANCH   1  31
HETATM   31  C6  UNL     1      -5.398   5.691  14.045  1.00  0.00     0.013 C 
BRANCH  31  32
HETATM   32  C5  UNL     1      -6.703   6.348  13.549  1.00  0.00     0.042 C 
BRANCH  32  33
HETATM   33  C3  UNL     1      -7.928   5.401  13.547  1.00  0.00     0.071 C 
HETATM   34  C4  UNL     1      -9.239   6.132  13.214  1.00  0.00     0.050 C 
BRANCH  33  35
HETATM   35  C2  UNL     1      -7.635   4.226  12.641  1.00  0.00    -0.000 C 
HETATM   36  C1  UNL     1      -7.749   2.920  12.916  1.00  0.00     0.010 C 
ENDBRANCH  33  35
BRANCH  33  37
HETATM   37  O1  UNL     1      -8.057   4.825  14.855  1.00  0.00    -0.386 OA
HETATM   38  H7  UNL     1      -8.474   5.483  15.437  1.00  0.00     0.211 HD
ENDBRANCH  33  37
ENDBRANCH  32  33
ENDBRANCH  31  32
ENDBRANCH   1  31
TORSDOF 13
ENDMDL
MODEL 3
REMARK minimizedAffinity -8.47424221
REMARK  13 active torsions:
REMARK  status: ('A' for Active; 'I' for Inactive)
REMARK    1  A    between atoms: C2_2  and  C3_3 
REMARK    2  A    between atoms: C3_3  and  O1_5 
REMARK    3  A    between atoms: C3_3  and  C5_6 
REMARK    4  A    between atoms: C5_6  and  C6_7 
REMARK    5  A    between atoms: C6_7  and  C7_8 
REMARK    6  A    between atoms: C13_14  and  C15_16 
REMARK    7  A    between atoms: C15_16  and  O2_17 
REMARK    8  A    between atoms: O2_17  and  C16_18 
REMARK    9  A    between atoms: C17_20  and  C18_21 
REMARK   10  A    between atoms: C18_21  and  O4_22 
REMARK   11  A    between atoms: C19_23  and  O5_24 
REMARK   12  A    between atoms: C20_25  and  O6_26 
REMARK   13  A    between atoms: C21_27  and  O7_28 
ROOT
HETATM    1  C7  UNL     1      -3.256   5.009  13.687  1.00  0.00     0.022 C 
HETATM    2  C8  UNL     1      -4.267   6.149  13.731  1.00  0.00    -0.084 C 
HETATM    3  C9  UNL     1      -5.449   6.191  13.095  1.00  0.00     0.014 C 
HETATM    4  C10 UNL     1      -3.780   7.326  14.547  1.00  0.00     0.034 C 
HETATM    5  C11 UNL     1      -2.413   7.837  14.067  1.00  0.00     0.010 C 
HETATM    6  C12 UNL     1      -1.910   7.082  12.818  1.00  0.00     0.005 C 
HETATM    7  C13 UNL     1      -0.677   7.736  12.096  1.00  0.00    -0.018 C 
HETATM    8  C14 UNL     1      -1.069   9.160  11.600  1.00  0.00     0.018 C 
HETATM    9  C22 UNL     1      -0.356   6.918  10.816  1.00  0.00     0.012 C 
HETATM   10  C23 UNL     1      -0.257   5.416  11.042  1.00  0.00     0.002 C 
HETATM   11  C24 UNL     1      -1.514   4.852  11.708  1.00  0.00     0.010 C 
HETATM   12  C25 UNL     1      -1.860   5.516  13.069  1.00  0.00    -0.032 C 
HETATM   13  C26 UNL     1      -0.786   5.081  14.099  1.00  0.00     0.016 C 
ENDROOT
BRANCH   7  14
HETATM   14  C15 UNL     1       0.568   7.910  13.000  1.00  0.00     0.180 C 
BRANCH  14  15
HETATM   15  O2  UNL     1       1.702   8.266  12.196  1.00  0.00    -0.358 OA
BRANCH  15  16
HETATM   16  C16 UNL     1       2.882   7.539  12.551  1.00  0.00     0.291 C 
HETATM   17  O3  UNL     1       2.947   6.259  11.912  1.00  0.00    -0.348 OA
HETATM   18  C17 UNL     1       3.546   6.311  10.608  1.00  0.00     0.179 C 
HETATM   19  C19 UNL     1       5.049   6.688  10.705  1.00  0.00     0.180 C 
HETATM   20  C20 UNL     1       5.329   7.565  11.943  1.00  0.00     0.183 C 
HETATM   21  C21 UNL     1       4.102   8.436  12.233  1.00  0.00     0.204 C 
BRANCH  18  22
HETATM   22  C18 UNL     1       3.306   4.969   9.911  1.00  0.00     0.198 C 
BRANCH  22  23
HETATM   23  O4  UNL     1       4.508   4.434   9.372  1.00  0.00    -0.398 OA
HETATM   24  H29 UNL     1       5.025   4.131  10.147  1.00  0.00     0.209 HD
ENDBRANCH  22  23
ENDBRANCH  18  22
BRANCH  19  25
HETATM   25  O5  UNL     1       5.893   5.524  10.748  1.00  0.00    -0.390 OA
HETATM   26  H31 UNL     1       6.343   5.540  11.622  1.00  0.00     0.210 HD
ENDBRANCH  19  25
BRANCH  20  27
HETATM   27  O6  UNL     1       5.671   6.702  13.050  1.00  0.00    -0.390 OA
HETATM   28  H33 UNL     1       4.893   6.152  13.258  1.00  0.00     0.210 HD
ENDBRANCH  20  27
BRANCH  21  29
HETATM   29  O7  UNL     1       4.353   9.359  13.303  1.00  0.00    -0.388 OA
HETATM   30  H35 UNL     1       3.524   9.848  13.448  1.00  0.00     0.210 HD
ENDBRANCH  21  29
ENDBRANCH  15  16
ENDBRANCH  14  15
ENDBRANCH   7  14
BRANCH   1  31
HETATM   31  C6  UNL     1      -3.765   3.670  13.097  1.00  0.00     0.013 C 
BRANCH  31  32
HETATM   32  C5  UNL     1      -4.234   3.768  11.630  1.00  0.00     0.042 C 
BRANCH  32  33
HETATM   33  C3  UNL     1      -5.315   2.730  11.240  1.00  0.00     0.071 C 
HETATM   34  C4  UNL     1      -4.882   1.285  11.536  1.00  0.00     0.050 C 
BRANCH  33  35
HETATM   35  C2  UNL     1      -6.624   3.122  11.888  1.00  0.00    -0.000 C 
HETATM   36  C1  UNL     1      -7.372   2.410  12.741  1.00  0.00     0.010 C 
ENDBRANCH  33  35
BRANCH  33  37
HETATM   37  O1  UNL     1      -5.563   2.843   9.831  1.00  0.00    -0.386 OA
HETATM   38  H7  UNL     1      -4.847   2.384   9.359  1.00  0.00     0.211 HD
ENDBRANCH  33  37
ENDBRANCH  32  33
ENDBRANCH  31  32
ENDBRANCH   1  31
TORSDOF 13
ENDMDL
MODEL 4
REMARK minimizedAffinity -8.4001255
REMARK  13 active torsions:
REMARK  status: ('A' for Active; 'I' for Inactive)
REMARK    1  A    between atoms: C2_2  and  C3_3 
REMARK    2  A    between atoms: C3_3  and  O1_5 
REMARK    3  A    between atoms: C3_3  and  C5_6 
REMARK    4  A    between atoms: C5_6  and  C6_7 
REMARK    5  A    between atoms: C6_7  and  C7_8 
REMARK    6  A    between atoms: C13_14  and  C15_16 
REMARK    7  A    between atoms: C15_16  and  O2_17 
REMARK    8  A    between atoms: O2_17  and  C16_18 
REMARK    9  A    between atoms: C17_20  and  C18_21 
REMARK   10  A    between atoms: C18_21  and  O4_22 
REMARK   11  A    between atoms: C19_23  and  O5_24 
REMARK   12  A    between atoms: C20_25  and  O6_26 
REMARK   13  A    between atoms: C21_27  and  O7_28 
ROOT
HETATM    1  C7  UNL     1      -3.308   6.437  13.893  1.00  0.00     0.022 C 
HETATM    2  C8  UNL     1      -3.739   7.866  13.588  1.00  0.00    -0.084 C 
HETATM    3  C9  UNL     1      -4.822   8.240  12.887  1.00  0.00     0.014 C 
HETATM    4  C10 UNL     1      -2.762   8.892  14.117  1.00  0.00     0.034 C 
HETATM    5  C11 UNL     1      -1.332   8.643  13.615  1.00  0.00     0.010 C 
HETATM    6  C12 UNL     1      -1.255   7.459  12.627  1.00  0.00     0.005 C 
HETATM    7  C13 UNL     1       0.103   7.330  11.847  1.00  0.00    -0.018 C 
HETATM    8  C14 UNL     1       0.326   8.612  10.989  1.00  0.00     0.018 C 
HETATM    9  C22 UNL     1      -0.014   6.161  10.832  1.00  0.00     0.012 C 
HETATM   10  C23 UNL     1      -0.548   4.866  11.428  1.00  0.00     0.002 C 
HETATM   11  C24 UNL     1      -1.893   5.070  12.131  1.00  0.00     0.010 C 
HETATM   12  C25 UNL     1      -1.859   6.136  13.259  1.00  0.00    -0.032 C 
HETATM   13  C26 UNL     1      -1.023   5.564  14.433  1.00  0.00     0.016 C 
ENDROOT
BRANCH   7  14
HETATM   14  C15 UNL     1       1.347   7.185  12.758  1.00  0.00     0.180 C 
BRANCH  14  15
HETATM   15  O2  UNL     1       2.484   6.817  11.966  1.00  0.00    -0.358 OA
BRANCH  15  16
HETATM   16  C16 UNL     1       3.376   7.911  11.736  1.00  0.00     0.291 C 
HETATM   17  O3  UNL     1       4.283   8.113  12.825  1.00  0.00    -0.348 OA
HETATM   18  C17 UNL     1       5.472   7.312  12.725  1.00  0.00     0.179 C 
HETATM   19  C19 UNL     1       6.335   7.754  11.513  1.00  0.00     0.180 C 
HETATM   20  C20 UNL     1       5.463   8.349  10.390  1.00  0.00     0.183 C 
HETATM   21  C21 UNL     1       4.096   7.657  10.389  1.00  0.00     0.204 C 
BRANCH  18  22
HETATM   22  C18 UNL     1       6.221   7.388  14.058  1.00  0.00     0.198 C 
BRANCH  22  23
HETATM   23  O4  UNL     1       5.471   6.807  15.117  1.00  0.00    -0.398 OA
HETATM   24  H29 UNL     1       5.508   5.841  14.958  1.00  0.00     0.209 HD
ENDBRANCH  22  23
ENDBRANCH  18  22
BRANCH  19  25
HETATM   25  O5  UNL     1       7.340   8.711  11.891  1.00  0.00    -0.390 OA
HETATM   26  H31 UNL     1       7.128   9.541  11.409  1.00  0.00     0.210 HD
ENDBRANCH  19  25
BRANCH  20  27
HETATM   27  O6  UNL     1       5.362   9.776  10.593  1.00  0.00    -0.390 OA
HETATM   28  H33 UNL     1       4.892   9.931  11.433  1.00  0.00     0.210 HD
ENDBRANCH  20  27
BRANCH  21  29
HETATM   29  O7  UNL     1       3.288   8.090   9.286  1.00  0.00    -0.388 OA
HETATM   30  H35 UNL     1       2.431   7.634   9.374  1.00  0.00     0.210 HD
ENDBRANCH  21  29
ENDBRANCH  15  16
ENDBRANCH  14  15
ENDBRANCH   7  14
BRANCH   1  31
HETATM   31  C6  UNL     1      -4.363   5.334  13.620  1.00  0.00     0.013 C 
BRANCH  31  32
HETATM   32  C5  UNL     1      -5.659   5.488  14.444  1.00  0.00     0.042 C 
BRANCH  32  33
HETATM   33  C3  UNL     1      -6.887   4.769  13.832  1.00  0.00     0.071 C 
HETATM   34  C4  UNL     1      -7.751   5.704  12.971  1.00  0.00     0.050 C 
BRANCH  33  35
HETATM   35  C2  UNL     1      -6.414   3.529  13.106  1.00  0.00    -0.000 C 
HETATM   36  C1  UNL     1      -5.668   3.453  11.996  1.00  0.00     0.010 C 
ENDBRANCH  33  35
BRANCH  33  37
HETATM   37  O1  UNL     1      -7.699   4.270  14.904  1.00  0.00    -0.386 OA
HETATM   38  H7  UNL     1      -8.219   5.010  15.262  1.00  0.00     0.211 HD
ENDBRANCH  33  37
ENDBRANCH  32  33
ENDBRANCH  31  32
ENDBRANCH   1  31
TORSDOF 13
ENDMDL
MODEL 5
REMARK minimizedAffinity -8.36856937
REMARK  13 active torsions:
REMARK  status: ('A' for Active; 'I' for Inactive)
REMARK    1  A    between atoms: C2_2  and  C3_3 
REMARK    2  A    between atoms: C3_3  and  O1_5 
REMARK    3  A    between atoms: C3_3  and  C5_6 
REMARK    4  A    between atoms: C5_6  and  C6_7 
REMARK    5  A    between atoms: C6_7  and  C7_8 
REMARK    6  A    between atoms: C13_14  and  C15_16 
REMARK    7  A    between atoms: C15_16  and  O2_17 
REMARK    8  A    between atoms: O2_17  and  C16_18 
REMARK    9  A    between atoms: C17_20  and  C18_21 
REMARK   10  A    between atoms: C18_21  and  O4_22 
REMARK   11  A    between atoms: C19_23  and  O5_24 
REMARK   12  A    between atoms: C20_25  and  O6_26 
REMARK   13  A    between atoms: C21_27  and  O7_28 
ROOT
HETATM    1  C7  UNL     1      -2.411   4.851  12.836  1.00  0.00     0.022 C 
HETATM    2  C8  UNL     1      -3.219   5.863  13.640  1.00  0.00    -0.084 C 
HETATM    3  C9  UNL     1      -4.411   6.381  13.299  1.00  0.00     0.014 C 
HETATM    4  C10 UNL     1      -2.506   6.312  14.895  1.00  0.00     0.034 C 
HETATM    5  C11 UNL     1      -1.101   6.859  14.598  1.00  0.00     0.010 C 
HETATM    6  C12 UNL     1      -0.794   6.898  13.085  1.00  0.00     0.005 C 
HETATM    7  C13 UNL     1       0.489   7.713  12.687  1.00  0.00    -0.018 C 
HETATM    8  C14 UNL     1       0.307   9.199  13.119  1.00  0.00     0.018 C 
HETATM    9  C22 UNL     1       0.604   7.736  11.139  1.00  0.00     0.012 C 
HETATM   10  C23 UNL     1       0.471   6.370  10.480  1.00  0.00     0.002 C 
HETATM   11  C24 UNL     1      -0.825   5.663  10.887  1.00  0.00     0.010 C 
HETATM   12  C25 UNL     1      -0.985   5.471  12.419  1.00  0.00    -0.032 C 
HETATM   13  C26 UNL     1       0.057   4.419  12.881  1.00  0.00     0.016 C 
ENDROOT
BRANCH   7  14
HETATM   14  C15 UNL     1       1.792   7.213  13.358  1.00  0.00     0.180 C 
BRANCH  14  15
HETATM   15  O2  UNL     1       2.672   6.674  12.361  1.00  0.00    -0.358 OA
BRANCH  15  16
HETATM   16  C16 UNL     1       3.714   7.583  11.994  1.00  0.00     0.291 C 
HETATM   17  O3  UNL     1       4.199   8.336  13.111  1.00  0.00    -0.348 OA
HETATM   18  C17 UNL     1       5.240   7.661  13.836  1.00  0.00     0.179 C 
HETATM   19  C19 UNL     1       6.520   7.528  12.969  1.00  0.00     0.180 C 
HETATM   20  C20 UNL     1       6.177   7.462  11.467  1.00  0.00     0.183 C 
HETATM   21  C21 UNL     1       4.823   6.767  11.288  1.00  0.00     0.204 C 
BRANCH  18  22
HETATM   22  C18 UNL     1       5.478   8.410  15.150  1.00  0.00     0.198 C 
BRANCH  22  23
HETATM   23  O4  UNL     1       6.482   7.783  15.939  1.00  0.00    -0.398 OA
HETATM   24  H29 UNL     1       7.326   7.977  15.480  1.00  0.00     0.209 HD
ENDBRANCH  22  23
ENDBRANCH  18  22
BRANCH  19  25
HETATM   25  O5  UNL     1       7.438   8.613  13.197  1.00  0.00    -0.390 OA
HETATM   26  H31 UNL     1       7.512   9.098  12.346  1.00  0.00     0.210 HD
ENDBRANCH  19  25
BRANCH  20  27
HETATM   27  O6  UNL     1       6.186   8.804  10.932  1.00  0.00    -0.390 OA
HETATM   28  H33 UNL     1       5.474   9.308  11.367  1.00  0.00     0.210 HD
ENDBRANCH  20  27
BRANCH  21  29
HETATM   29  O7  UNL     1       4.512   6.570   9.902  1.00  0.00    -0.388 OA
HETATM   30  H35 UNL     1       3.630   6.157   9.870  1.00  0.00     0.210 HD
ENDBRANCH  21  29
ENDBRANCH  15  16
ENDBRANCH  14  15
ENDBRANCH   7  14
BRANCH   1  31
HETATM   31  C6  UNL     1      -3.161   4.144  11.679  1.00  0.00     0.013 C 
BRANCH  31  32
HETATM   32  C5  UNL     1      -3.938   2.883  12.112  1.00  0.00     0.042 C 
BRANCH  32  33
HETATM   33  C3  UNL     1      -5.271   2.669  11.354  1.00  0.00     0.071 C 
HETATM   34  C4  UNL     1      -5.685   1.190  11.293  1.00  0.00     0.050 C 
BRANCH  33  35
HETATM   35  C2  UNL     1      -6.323   3.576  11.952  1.00  0.00    -0.000 C 
HETATM   36  C1  UNL     1      -7.095   3.356  13.024  1.00  0.00     0.010 C 
ENDBRANCH  33  35
BRANCH  33  37
HETATM   37  O1  UNL     1      -5.108   3.144  10.010  1.00  0.00    -0.386 OA
HETATM   38  H7  UNL     1      -4.627   2.466   9.505  1.00  0.00     0.211 HD
ENDBRANCH  33  37
ENDBRANCH  32  33
ENDBRANCH  31  32
ENDBRANCH   1  31
TORSDOF 13
ENDMDL
MODEL 6
REMARK minimizedAffinity -8.36271095
REMARK  13 active torsions:
REMARK  status: ('A' for Active; 'I' for Inactive)
REMARK    1  A    between atoms: C2_2  and  C3_3 
REMARK    2  A    between atoms: C3_3  and  O1_5 
REMARK    3  A    between atoms: C3_3  and  C5_6 
REMARK    4  A    between atoms: C5_6  and  C6_7 
REMARK    5  A    between atoms: C6_7  and  C7_8 
REMARK    6  A    between atoms: C13_14  and  C15_16 
REMARK    7  A    between atoms: C15_16  and  O2_17 
REMARK    8  A    between atoms: O2_17  and  C16_18 
REMARK    9  A    between atoms: C17_20  and  C18_21 
REMARK   10  A    between atoms: C18_21  and  O4_22 
REMARK   11  A    between atoms: C19_23  and  O5_24 
REMARK   12  A    between atoms: C20_25  and  O6_26 
REMARK   13  A    between atoms: C21_27  and  O7_28 
ROOT
HETATM    1  C7  UNL     1      -6.832   6.573  14.015  1.00  0.00     0.022 C 
HETATM    2  C8  UNL     1      -6.808   5.050  14.045  1.00  0.00    -0.084 C 
HETATM    3  C9  UNL     1      -7.373   4.263  14.976  1.00  0.00     0.014 C 
HETATM    4  C10 UNL     1      -6.000   4.459  12.912  1.00  0.00     0.034 C 
HETATM    5  C11 UNL     1      -4.570   5.018  12.867  1.00  0.00     0.010 C 
HETATM    6  C12 UNL     1      -4.280   5.981  14.039  1.00  0.00     0.005 C 
HETATM    7  C13 UNL     1      -2.766   6.357  14.233  1.00  0.00    -0.018 C 
HETATM    8  C14 UNL     1      -1.951   5.064  14.536  1.00  0.00     0.018 C 
HETATM    9  C22 UNL     1      -2.631   7.246  15.498  1.00  0.00     0.012 C 
HETATM   10  C23 UNL     1      -3.604   8.415  15.550  1.00  0.00     0.002 C 
HETATM   11  C24 UNL     1      -5.057   7.958  15.398  1.00  0.00     0.010 C 
HETATM   12  C25 UNL     1      -5.336   7.163  14.093  1.00  0.00    -0.032 C 
HETATM   13  C26 UNL     1      -5.234   8.149  12.901  1.00  0.00     0.016 C 
ENDROOT
BRANCH   7  14
HETATM   14  C15 UNL     1      -2.112   7.012  12.992  1.00  0.00     0.180 C 
BRANCH  14  15
HETATM   15  O2  UNL     1      -0.773   7.416  13.309  1.00  0.00    -0.358 OA
BRANCH  15  16
HETATM   16  C16 UNL     1       0.214   6.677  12.584  1.00  0.00     0.291 C 
HETATM   17  O3  UNL     1       0.019   6.751  11.168  1.00  0.00    -0.348 OA
HETATM   18  C17 UNL     1       0.648   7.897  10.571  1.00  0.00     0.179 C 
HETATM   19  C19 UNL     1       2.193   7.792  10.669  1.00  0.00     0.180 C 
HETATM   20  C20 UNL     1       2.624   6.976  11.904  1.00  0.00     0.183 C 
HETATM   21  C21 UNL     1       1.606   7.187  13.030  1.00  0.00     0.204 C 
BRANCH  18  22
HETATM   22  C18 UNL     1       0.143   8.032   9.132  1.00  0.00     0.198 C 
BRANCH  22  23
HETATM   23  O4  UNL     1      -0.478   9.291   8.908  1.00  0.00    -0.398 OA
HETATM   24  H29 UNL     1       0.256   9.940   8.891  1.00  0.00     0.209 HD
ENDBRANCH  22  23
ENDBRANCH  18  22
BRANCH  19  25
HETATM   25  O5  UNL     1       2.767   7.203   9.488  1.00  0.00    -0.390 OA
HETATM   26  H31 UNL     1       3.189   6.363   9.774  1.00  0.00     0.210 HD
ENDBRANCH  19  25
BRANCH  20  27
HETATM   27  O6  UNL     1       2.746   5.589  11.520  1.00  0.00    -0.390 OA
HETATM   28  H33 UNL     1       1.864   5.268  11.258  1.00  0.00     0.210 HD
ENDBRANCH  20  27
BRANCH  21  29
HETATM   29  O7  UNL     1       2.023   6.546  14.244  1.00  0.00    -0.388 OA
HETATM   30  H35 UNL     1       1.315   6.696  14.895  1.00  0.00     0.210 HD
ENDBRANCH  21  29
ENDBRANCH  15  16
ENDBRANCH  14  15
ENDBRANCH   7  14
BRANCH   1  31
HETATM   31  C6  UNL     1      -7.837   7.259  14.976  1.00  0.00     0.013 C 
BRANCH  31  32
HETATM   32  C5  UNL     1      -9.292   7.262  14.463  1.00  0.00     0.042 C 
BRANCH  32  33
HETATM   33  C3  UNL     1     -10.111   8.506  14.890  1.00  0.00     0.071 C 
HETATM   34  C4  UNL     1      -9.219   9.709  15.238  1.00  0.00     0.050 C 
BRANCH  33  35
HETATM   35  C2  UNL     1     -11.146   8.798  13.827  1.00  0.00    -0.000 C 
HETATM   36  C1  UNL     1     -11.587   7.988  12.855  1.00  0.00     0.010 C 
ENDBRANCH  33  35
BRANCH  33  37
HETATM   37  O1  UNL     1     -10.877   8.165  16.054  1.00  0.00    -0.386 OA
HETATM   38  H7  UNL     1     -10.286   8.198  16.826  1.00  0.00     0.211 HD
ENDBRANCH  33  37
ENDBRANCH  32  33
ENDBRANCH  31  32
ENDBRANCH   1  31
TORSDOF 13
ENDMDL
MODEL 7
REMARK minimizedAffinity -8.28371334
REMARK  13 active torsions:
REMARK  status: ('A' for Active; 'I' for Inactive)
REMARK    1  A    between atoms: C2_2  and  C3_3 
REMARK    2  A    between atoms: C3_3  and  O1_5 
REMARK    3  A    between atoms: C3_3  and  C5_6 
REMARK    4  A    between atoms: C5_6  and  C6_7 
REMARK    5  A    between atoms: C6_7  and  C7_8 
REMARK    6  A    between atoms: C13_14  and  C15_16 
REMARK    7  A    between atoms: C15_16  and  O2_17 
REMARK    8  A    between atoms: O2_17  and  C16_18 
REMARK    9  A    between atoms: C17_20  and  C18_21 
REMARK   10  A    between atoms: C18_21  and  O4_22 
REMARK   11  A    between atoms: C19_23  and  O5_24 
REMARK   12  A    between atoms: C20_25  and  O6_26 
REMARK   13  A    between atoms: C21_27  and  O7_28 
ROOT
HETATM    1  C7  UNL     1      -5.432   4.651  12.771  1.00  0.00     0.022 C 
HETATM    2  C8  UNL     1      -5.175   3.408  11.927  1.00  0.00    -0.084 C 
HETATM    3  C9  UNL     1      -5.522   2.148  12.240  1.00  0.00     0.014 C 
HETATM    4  C10 UNL     1      -4.400   3.712  10.666  1.00  0.00     0.034 C 
HETATM    5  C11 UNL     1      -3.082   4.445  10.958  1.00  0.00     0.010 C 
HETATM    6  C12 UNL     1      -2.829   4.616  12.471  1.00  0.00     0.005 C 
HETATM    7  C13 UNL     1      -1.378   5.082  12.855  1.00  0.00    -0.018 C 
HETATM    8  C14 UNL     1      -0.351   4.014  12.374  1.00  0.00     0.018 C 
HETATM    9  C22 UNL     1      -1.258   5.114  14.403  1.00  0.00     0.012 C 
HETATM   10  C23 UNL     1      -2.387   5.856  15.104  1.00  0.00     0.002 C 
HETATM   11  C24 UNL     1      -3.762   5.312  14.708  1.00  0.00     0.010 C 
HETATM   12  C25 UNL     1      -4.042   5.351  13.181  1.00  0.00    -0.032 C 
HETATM   13  C26 UNL     1      -4.205   6.836  12.764  1.00  0.00     0.016 C 
ENDROOT
BRANCH   7  14
HETATM   14  C15 UNL     1      -0.953   6.426  12.213  1.00  0.00     0.180 C 
BRANCH  14  15
HETATM   15  O2  UNL     1       0.016   6.183  11.184  1.00  0.00    -0.358 OA
BRANCH  15  16
HETATM   16  C16 UNL     1       1.333   6.602  11.554  1.00  0.00     0.291 C 
HETATM   17  O3  UNL     1       2.331   5.638  11.202  1.00  0.00    -0.348 OA
HETATM   18  C17 UNL     1       2.816   5.794   9.859  1.00  0.00     0.179 C 
HETATM   19  C19 UNL     1       3.599   7.125   9.705  1.00  0.00     0.180 C 
HETATM   20  C20 UNL     1       3.083   8.197  10.686  1.00  0.00     0.183 C 
HETATM   21  C21 UNL     1       1.582   7.991  10.917  1.00  0.00     0.204 C 
BRANCH  18  22
HETATM   22  C18 UNL     1       3.648   4.560   9.499  1.00  0.00     0.198 C 
BRANCH  22  23
HETATM   23  O4  UNL     1       3.037   3.361   9.957  1.00  0.00    -0.398 OA
HETATM   24  H29 UNL     1       2.267   3.223   9.367  1.00  0.00     0.209 HD
ENDBRANCH  22  23
ENDBRANCH  18  22
BRANCH  19  25
HETATM   25  O5  UNL     1       5.013   6.942   9.904  1.00  0.00    -0.390 OA
HETATM   26  H31 UNL     1       5.252   7.470  10.698  1.00  0.00     0.210 HD
ENDBRANCH  19  25
BRANCH  20  27
HETATM   27  O6  UNL     1       3.849   8.110  11.908  1.00  0.00    -0.390 OA
HETATM   28  H33 UNL     1       3.674   7.241  12.315  1.00  0.00     0.210 HD
ENDBRANCH  20  27
BRANCH  21  29
HETATM   29  O7  UNL     1       1.026   9.035  11.728  1.00  0.00    -0.388 OA
HETATM   30  H35 UNL     1       0.085   8.817  11.856  1.00  0.00     0.210 HD
ENDBRANCH  21  29
ENDBRANCH  15  16
ENDBRANCH  14  15
ENDBRANCH   7  14
BRANCH   1  31
HETATM   31  C6  UNL     1      -6.432   4.485  13.943  1.00  0.00     0.013 C 
BRANCH  31  32
HETATM   32  C5  UNL     1      -7.575   5.521  13.944  1.00  0.00     0.042 C 
BRANCH  32  33
HETATM   33  C3  UNL     1      -7.803   6.211  15.312  1.00  0.00     0.071 C 
HETATM   34  C4  UNL     1      -6.760   5.798  16.363  1.00  0.00     0.050 C 
BRANCH  33  35
HETATM   35  C2  UNL     1      -7.897   7.705  15.095  1.00  0.00    -0.000 C 
HETATM   36  C1  UNL     1      -6.901   8.600  15.052  1.00  0.00     0.010 C 
ENDBRANCH  33  35
BRANCH  33  37
HETATM   37  O1  UNL     1      -9.100   5.836  15.798  1.00  0.00    -0.386 OA
HETATM   38  H7  UNL     1      -9.035   4.942  16.176  1.00  0.00     0.211 HD
ENDBRANCH  33  37
ENDBRANCH  32  33
ENDBRANCH  31  32
ENDBRANCH   1  31
TORSDOF 13
ENDMDL
MODEL 8
REMARK minimizedAffinity -8.1942625
REMARK  13 active torsions:
REMARK  status: ('A' for Active; 'I' for Inactive)
REMARK    1  A    between atoms: C2_2  and  C3_3 
REMARK    2  A    between atoms: C3_3  and  O1_5 
REMARK    3  A    between atoms: C3_3  and  C5_6 
REMARK    4  A    between atoms: C5_6  and  C6_7 
REMARK    5  A    between atoms: C6_7  and  C7_8 
REMARK    6  A    between atoms: C13_14  and  C15_16 
REMARK    7  A    between atoms: C15_16  and  O2_17 
REMARK    8  A    between atoms: O2_17  and  C16_18 
REMARK    9  A    between atoms: C17_20  and  C18_21 
REMARK   10  A    between atoms: C18_21  and  O4_22 
REMARK   11  A    between atoms: C19_23  and  O5_24 
REMARK   12  A    between atoms: C20_25  and  O6_26 
REMARK   13  A    between atoms: C21_27  and  O7_28 
ROOT
HETATM    1  C7  UNL     1      -3.596   6.423  14.026  1.00  0.00     0.022 C 
HETATM    2  C8  UNL     1      -3.899   7.884  13.713  1.00  0.00    -0.084 C 
HETATM    3  C9  UNL     1      -4.939   8.346  12.999  1.00  0.00     0.014 C 
HETATM    4  C10 UNL     1      -2.844   8.824  14.250  1.00  0.00     0.034 C 
HETATM    5  C11 UNL     1      -1.434   8.451  13.764  1.00  0.00     0.010 C 
HETATM    6  C12 UNL     1      -1.449   7.263  12.779  1.00  0.00     0.005 C 
HETATM    7  C13 UNL     1      -0.099   7.016  12.014  1.00  0.00    -0.018 C 
HETATM    8  C14 UNL     1       0.242   8.271  11.156  1.00  0.00     0.018 C 
HETATM    9  C22 UNL     1      -0.305   5.857  11.001  1.00  0.00     0.012 C 
HETATM   10  C23 UNL     1      -0.954   4.615  11.593  1.00  0.00     0.002 C 
HETATM   11  C24 UNL     1      -2.284   4.935  12.281  1.00  0.00     0.010 C 
HETATM   12  C25 UNL     1      -2.171   5.998  13.408  1.00  0.00    -0.032 C 
HETATM   13  C26 UNL     1      -1.399   5.360  14.592  1.00  0.00     0.016 C 
ENDROOT
BRANCH   7  14
HETATM   14  C15 UNL     1       1.118   6.768  12.938  1.00  0.00     0.180 C 
BRANCH  14  15
HETATM   15  O2  UNL     1       2.037   7.864  12.830  1.00  0.00    -0.358 OA
BRANCH  15  16
HETATM   16  C16 UNL     1       3.370   7.507  13.206  1.00  0.00     0.291 C 
HETATM   17  O3  UNL     1       4.354   8.090  12.344  1.00  0.00    -0.348 OA
HETATM   18  C17 UNL     1       4.748   9.410  12.751  1.00  0.00     0.179 C 
HETATM   19  C19 UNL     1       5.504   9.368  14.106  1.00  0.00     0.180 C 
HETATM   20  C20 UNL     1       5.041   8.178  14.971  1.00  0.00     0.183 C 
HETATM   21  C21 UNL     1       3.562   7.895  14.691  1.00  0.00     0.204 C 
BRANCH  18  22
HETATM   22  C18 UNL     1       5.568  10.040  11.622  1.00  0.00     0.198 C 
BRANCH  22  23
HETATM   23  O4  UNL     1       5.538  11.460  11.679  1.00  0.00    -0.398 OA
HETATM   24  H29 UNL     1       6.098  11.698  12.447  1.00  0.00     0.209 HD
ENDBRANCH  22  23
ENDBRANCH  18  22
BRANCH  19  25
HETATM   25  O5  UNL     1       6.930   9.294  13.922  1.00  0.00    -0.390 OA
HETATM   26  H31 UNL     1       7.214   8.434  14.303  1.00  0.00     0.210 HD
ENDBRANCH  19  25
BRANCH  20  27
HETATM   27  O6  UNL     1       5.887   7.042  14.682  1.00  0.00    -0.390 OA
HETATM   28  H33 UNL     1       5.749   6.791  13.750  1.00  0.00     0.210 HD
ENDBRANCH  20  27
BRANCH  21  29
HETATM   29  O7  UNL     1       3.048   6.875  15.559  1.00  0.00    -0.388 OA
HETATM   30  H35 UNL     1       2.120   6.730  15.300  1.00  0.00     0.210 HD
ENDBRANCH  21  29
ENDBRANCH  15  16
ENDBRANCH  14  15
ENDBRANCH   7  14
BRANCH   1  31
HETATM   31  C6  UNL     1      -4.738   5.415  13.744  1.00  0.00     0.013 C 
BRANCH  31  32
HETATM   32  C5  UNL     1      -6.108   6.075  13.481  1.00  0.00     0.042 C 
BRANCH  32  33
HETATM   33  C3  UNL     1      -7.274   5.069  13.317  1.00  0.00     0.071 C 
HETATM   34  C4  UNL     1      -8.368   5.583  12.367  1.00  0.00     0.050 C 
BRANCH  33  35
HETATM   35  C2  UNL     1      -6.707   3.722  12.927  1.00  0.00    -0.000 C 
HETATM   36  C1  UNL     1      -6.426   3.266  11.700  1.00  0.00     0.010 C 
ENDBRANCH  33  35
BRANCH  33  37
HETATM   37  O1  UNL     1      -7.867   4.850  14.606  1.00  0.00    -0.386 OA
HETATM   38  H7  UNL     1      -8.447   5.605  14.804  1.00  0.00     0.211 HD
ENDBRANCH  33  37
ENDBRANCH  32  33
ENDBRANCH  31  32
ENDBRANCH   1  31
TORSDOF 13
ENDMDL
MODEL 9
REMARK minimizedAffinity -8.18749332
REMARK  13 active torsions:
REMARK  status: ('A' for Active; 'I' for Inactive)
REMARK    1  A    between atoms: C2_2  and  C3_3 
REMARK    2  A    between atoms: C3_3  and  O1_5 
REMARK    3  A    between atoms: C3_3  and  C5_6 
REMARK    4  A    between atoms: C5_6  and  C6_7 
REMARK    5  A    between atoms: C6_7  and  C7_8 
REMARK    6  A    between atoms: C13_14  and  C15_16 
REMARK    7  A    between atoms: C15_16  and  O2_17 
REMARK    8  A    between atoms: O2_17  and  C16_18 
REMARK    9  A    between atoms: C17_20  and  C18_21 
REMARK   10  A    between atoms: C18_21  and  O4_22 
REMARK   11  A    between atoms: C19_23  and  O5_24 
REMARK   12  A    between atoms: C20_25  and  O6_26 
REMARK   13  A    between atoms: C21_27  and  O7_28 
ROOT
HETATM    1  C7  UNL     1      -4.176   5.825  13.035  1.00  0.00     0.022 C 
HETATM    2  C8  UNL     1      -3.629   4.520  12.470  1.00  0.00    -0.084 C 
HETATM    3  C9  UNL     1      -3.945   3.280  12.880  1.00  0.00     0.014 C 
HETATM    4  C10 UNL     1      -2.597   4.743  11.388  1.00  0.00     0.034 C 
HETATM    5  C11 UNL     1      -1.449   5.647  11.860  1.00  0.00     0.010 C 
HETATM    6  C12 UNL     1      -1.583   6.038  13.348  1.00  0.00     0.005 C 
HETATM    7  C13 UNL     1      -0.309   6.706  13.979  1.00  0.00    -0.018 C 
HETATM    8  C14 UNL     1       0.883   5.704  13.912  1.00  0.00     0.018 C 
HETATM    9  C22 UNL     1      -0.570   6.949  15.490  1.00  0.00     0.012 C 
HETATM   10  C23 UNL     1      -1.888   7.645  15.794  1.00  0.00     0.002 C 
HETATM   11  C24 UNL     1      -3.081   6.908  15.181  1.00  0.00     0.010 C 
HETATM   12  C25 UNL     1      -2.984   6.721  13.642  1.00  0.00    -0.032 C 
HETATM   13  C26 UNL     1      -3.155   8.112  12.980  1.00  0.00     0.016 C 
ENDROOT
BRANCH   7  14
HETATM   14  C15 UNL     1       0.156   7.994  13.257  1.00  0.00     0.180 C 
BRANCH  14  15
HETATM   15  O2  UNL     1       0.938   7.647  12.106  1.00  0.00    -0.358 OA
BRANCH  15  16
HETATM   16  C16 UNL     1       2.345   7.729  12.349  1.00  0.00     0.291 C 
HETATM   17  O3  UNL     1       3.070   6.667  11.719  1.00  0.00    -0.348 OA
HETATM   18  C17 UNL     1       3.434   6.961  10.361  1.00  0.00     0.179 C 
HETATM   19  C19 UNL     1       4.466   8.120  10.304  1.00  0.00     0.180 C 
HETATM   20  C20 UNL     1       4.298   9.080  11.499  1.00  0.00     0.183 C 
HETATM   21  C21 UNL     1       2.820   9.132  11.902  1.00  0.00     0.204 C 
BRANCH  18  22
HETATM   22  C18 UNL     1       3.938   5.673   9.705  1.00  0.00     0.198 C 
BRANCH  22  23
HETATM   23  O4  UNL     1       5.003   5.088  10.443  1.00  0.00    -0.398 OA
HETATM   24  H29 UNL     1       4.584   4.715  11.246  1.00  0.00     0.209 HD
ENDBRANCH  22  23
ENDBRANCH  18  22
BRANCH  19  25
HETATM   25  O5  UNL     1       5.819   7.632  10.274  1.00  0.00    -0.390 OA
HETATM   26  H31 UNL     1       6.248   7.953  11.098  1.00  0.00     0.210 HD
ENDBRANCH  19  25
BRANCH  20  27
HETATM   27  O6  UNL     1       5.150   8.629  12.575  1.00  0.00    -0.390 OA
HETATM   28  H33 UNL     1       4.836   7.753  12.865  1.00  0.00     0.210 HD
ENDBRANCH  20  27
BRANCH  21  29
HETATM   29  O7  UNL     1       2.590  10.104  12.932  1.00  0.00    -0.388 OA
HETATM   30  H35 UNL     1       1.643  10.054  13.155  1.00  0.00     0.210 HD
ENDBRANCH  21  29
ENDBRANCH  15  16
ENDBRANCH  14  15
ENDBRANCH   7  14
BRANCH   1  31
HETATM   31  C6  UNL     1      -5.415   5.702  13.958  1.00  0.00     0.013 C 
BRANCH  31  32
HETATM   32  C5  UNL     1      -6.679   6.395  13.408  1.00  0.00     0.042 C 
BRANCH  32  33
HETATM   33  C3  UNL     1      -7.913   5.464  13.297  1.00  0.00     0.071 C 
HETATM   34  C4  UNL     1      -8.599   5.555  11.924  1.00  0.00     0.050 C 
BRANCH  33  35
HETATM   35  C2  UNL     1      -7.503   4.061  13.686  1.00  0.00    -0.000 C 
HETATM   36  C1  UNL     1      -7.613   2.937  12.967  1.00  0.00     0.010 C 
ENDBRANCH  33  35
BRANCH  33  37
HETATM   37  O1  UNL     1      -8.864   5.852  14.299  1.00  0.00    -0.386 OA
HETATM   38  H7  UNL     1      -9.336   6.640  13.980  1.00  0.00     0.211 HD
ENDBRANCH  33  37
ENDBRANCH  32  33
ENDBRANCH  31  32
ENDBRANCH   1  31
TORSDOF 13
ENDMDL
