MODEL 1
REMARK minimizedAffinity -9.00798416
REMARK CNNscore 0.413073629
REMARK CNNaffinity 6.75506258
REMARK  11 active torsions:
REMARK  status: ('A' for Active; 'I' for Inactive)
REMARK    1  A    between atoms: C2_2  and  O2_4 
REMARK    2  A    between atoms: O2_4  and  C3_5 
REMARK    3  A    between atoms: C4_6  and  O3_7 
REMARK    4  A    between atoms: O3_7  and  C5_8 
REMARK    5  A    between atoms: C15_18  and  C16_19 
REMARK    6  A    between atoms: C20_23  and  C21_24 
REMARK    7  A    between atoms: C21_24  and  O4_27 
REMARK    8  A    between atoms: C24_29  and  O6_30 
REMARK    9  A    between atoms: C30_36  and  O7_37 
REMARK   10  A    between atoms: C36_44  and  O9_45 
REMARK   11  A    between atoms: C37_46  and  O10_47 
ROOT
HETATM    1  C5  UNL     1     -10.863  46.535 -19.525  1.00  0.00     0.133 C 
HETATM    2  C6  UNL     1     -10.404  45.668 -20.711  1.00  0.00     0.034 C 
HETATM    3  C7  UNL     1      -8.920  45.819 -21.066  1.00  0.00     0.013 C 
HETATM    4  C8  UNL     1      -8.365  47.145 -20.582  1.00  0.00    -0.025 A 
HETATM    5  C9  UNL     1      -8.709  48.334 -21.432  1.00  0.00     0.021 A 
HETATM    6  C10 UNL     1      -7.247  47.900 -21.359  1.00  0.00    -0.027 A 
HETATM    7  C11 UNL     1      -6.712  47.251 -22.646  1.00  0.00     0.011 C 
HETATM    8  C12 UNL     1      -5.360  47.689 -23.211  1.00  0.00     0.011 C 
HETATM    9  C13 UNL     1      -4.958  49.105 -22.810  1.00  0.00    -0.028 C 
HETATM   10  C14 UNL     1      -5.965  50.093 -23.450  1.00  0.00     0.016 C 
HETATM   11  C15 UNL     1      -3.469  49.539 -23.125  1.00  0.00     0.057 C 
HETATM   12  C24 UNL     1      -3.212  50.623 -22.022  1.00  0.00     0.126 C 
HETATM   13  C25 UNL     1      -4.310  50.475 -20.963  1.00  0.00     0.042 C 
HETATM   14  C26 UNL     1      -4.950  49.105 -21.232  1.00  0.00    -0.029 C 
HETATM   15  C27 UNL     1      -4.033  48.008 -20.598  1.00  0.00     0.016 C 
HETATM   16  C28 UNL     1      -6.388  48.968 -20.645  1.00  0.00     0.006 C 
HETATM   17  C29 UNL     1      -6.399  48.776 -19.116  1.00  0.00     0.038 C 
HETATM   18  C30 UNL     1      -7.785  48.544 -18.513  1.00  0.00     0.124 C 
HETATM   19  C31 UNL     1      -8.381  47.219 -19.040  1.00  0.00     0.034 C 
HETATM   20  C32 UNL     1      -9.772  46.742 -18.427  1.00  0.00    -0.015 C 
HETATM   21  C33 UNL     1     -10.339  47.691 -17.353  1.00  0.00     0.018 C 
HETATM   22  C34 UNL     1      -9.557  45.381 -17.706  1.00  0.00     0.018 C 
ENDROOT
BRANCH   1  23
HETATM   23  O3  UNL     1     -11.268  47.815 -20.047  1.00  0.00    -0.352 OA
BRANCH  23  24
HETATM   24  C4  UNL     1     -12.677  48.050 -19.959  1.00  0.00     0.292 C 
HETATM   25  C3  UNL     1     -13.399  47.073 -20.914  1.00  0.00     0.218 C 
HETATM   26  C37 UNL     1     -14.901  47.084 -20.612  1.00  0.00     0.183 C 
HETATM   27  C36 UNL     1     -15.184  46.836 -19.115  1.00  0.00     0.173 C 
HETATM   28  C35 UNL     1     -13.893  46.826 -18.290  1.00  0.00     0.205 C 
HETATM   29  O8  UNL     1     -13.102  47.971 -18.596  1.00  0.00    -0.356 OA
BRANCH  25  30
HETATM   30  O2  UNL     1     -13.205  47.529 -22.277  1.00  0.00    -0.309 OA
BRANCH  30  31
HETATM   31  C2  UNL     1     -13.094  46.571 -23.234  1.00  0.00     0.255 C 
HETATM   32  C1  UNL     1     -13.960  46.918 -24.404  1.00  0.00     0.126 C 
HETATM   33  O1  UNL     1     -12.390  45.572 -23.179  1.00  0.00    -0.266 OA
ENDBRANCH  30  31
ENDBRANCH  25  30
BRANCH  26  34
HETATM   34  O10 UNL     1     -15.554  46.061 -21.387  1.00  0.00    -0.390 OA
HETATM   35  H60 UNL     1     -16.505  46.208 -21.290  1.00  0.00     0.210 HD
ENDBRANCH  26  34
BRANCH  27  36
HETATM   36  O9  UNL     1     -16.074  47.880 -18.674  1.00  0.00    -0.391 OA
HETATM   37  H58 UNL     1     -15.935  48.005 -17.711  1.00  0.00     0.210 HD
ENDBRANCH  27  36
ENDBRANCH  23  24
ENDBRANCH   1  23
BRANCH  18  38
HETATM   38  O7  UNL     1      -7.600  48.492 -17.094  1.00  0.00    -0.395 OA
HETATM   39  H47 UNL     1      -6.976  47.777 -16.893  1.00  0.00     0.210 HD
ENDBRANCH  18  38
BRANCH  11  40
HETATM   40  C16 UNL     1      -2.965  49.899 -24.555  1.00  0.00     0.065 C 
HETATM   41  C17 UNL     1      -3.120  48.678 -25.506  1.00  0.00     0.046 C 
HETATM   42  C18 UNL     1      -3.728  51.074 -25.176  1.00  0.00     0.041 C 
HETATM   43  C19 UNL     1      -2.764  51.624 -26.204  1.00  0.00     0.038 C 
HETATM   44  C20 UNL     1      -1.381  51.175 -25.719  1.00  0.00     0.156 C 
HETATM   45  O5  UNL     1      -1.597  50.328 -24.564  1.00  0.00    -0.372 OA
BRANCH  44  46
HETATM   46  C21 UNL     1      -0.372  52.319 -25.401  1.00  0.00     0.076 C 
HETATM   47  C22 UNL     1       0.942  52.137 -26.168  1.00  0.00     0.048 C 
HETATM   48  C23 UNL     1      -0.083  52.367 -23.890  1.00  0.00     0.048 C 
BRANCH  46  49
HETATM   49  O4  UNL     1      -0.882  53.617 -25.749  1.00  0.00    -0.388 OA
HETATM   50  H35 UNL     1      -1.416  53.533 -26.554  1.00  0.00     0.210 HD
ENDBRANCH  46  49
ENDBRANCH  44  46
ENDBRANCH  11  40
BRANCH  12  51
HETATM   51  O6  UNL     1      -3.206  51.964 -22.482  1.00  0.00    -0.395 OA
HETATM   52  H37 UNL     1      -3.815  52.034 -23.243  1.00  0.00     0.210 HD
ENDBRANCH  12  51
TORSDOF 11
ENDMDL
MODEL 2
REMARK minimizedAffinity -8.42170811
REMARK CNNscore 0.372965962
REMARK CNNaffinity 6.00296783
REMARK  11 active torsions:
REMARK  status: ('A' for Active; 'I' for Inactive)
REMARK    1  A    between atoms: C2_2  and  O2_4 
REMARK    2  A    between atoms: O2_4  and  C3_5 
REMARK    3  A    between atoms: C4_6  and  O3_7 
REMARK    4  A    between atoms: O3_7  and  C5_8 
REMARK    5  A    between atoms: C15_18  and  C16_19 
REMARK    6  A    between atoms: C20_23  and  C21_24 
REMARK    7  A    between atoms: C21_24  and  O4_27 
REMARK    8  A    between atoms: C24_29  and  O6_30 
REMARK    9  A    between atoms: C30_36  and  O7_37 
REMARK   10  A    between atoms: C36_44  and  O9_45 
REMARK   11  A    between atoms: C37_46  and  O10_47 
ROOT
HETATM    1  C5  UNL     1     -16.788  43.369 -26.653  1.00  0.00     0.133 C 
HETATM    2  C6  UNL     1     -16.874  44.513 -27.678  1.00  0.00     0.034 C 
HETATM    3  C7  UNL     1     -15.693  44.578 -28.653  1.00  0.00     0.013 C 
HETATM    4  C8  UNL     1     -14.463  43.901 -28.081  1.00  0.00    -0.025 A 
HETATM    5  C9  UNL     1     -13.697  44.706 -27.070  1.00  0.00     0.021 A 
HETATM    6  C10 UNL     1     -13.024  44.400 -28.407  1.00  0.00    -0.027 A 
HETATM    7  C11 UNL     1     -12.886  45.613 -29.341  1.00  0.00     0.011 C 
HETATM    8  C12 UNL     1     -11.553  45.886 -30.038  1.00  0.00     0.011 C 
HETATM    9  C13 UNL     1     -10.348  45.310 -29.301  1.00  0.00    -0.028 C 
HETATM   10  C14 UNL     1     -10.214  46.046 -27.944  1.00  0.00     0.016 C 
HETATM   11  C15 UNL     1      -8.968  45.313 -30.079  1.00  0.00     0.057 C 
HETATM   12  C24 UNL     1      -8.226  44.102 -29.416  1.00  0.00     0.126 C 
HETATM   13  C25 UNL     1      -9.271  43.277 -28.659  1.00  0.00     0.042 C 
HETATM   14  C26 UNL     1     -10.630  43.763 -29.184  1.00  0.00    -0.029 C 
HETATM   15  C27 UNL     1     -10.900  43.058 -30.555  1.00  0.00     0.016 C 
HETATM   16  C28 UNL     1     -11.812  43.461 -28.214  1.00  0.00     0.006 C 
HETATM   17  C29 UNL     1     -12.235  41.979 -28.221  1.00  0.00     0.038 C 
HETATM   18  C30 UNL     1     -13.452  41.659 -27.353  1.00  0.00     0.124 C 
HETATM   19  C31 UNL     1     -14.702  42.386 -27.898  1.00  0.00     0.034 C 
HETATM   20  C32 UNL     1     -16.099  42.077 -27.197  1.00  0.00    -0.015 C 
HETATM   21  C33 UNL     1     -16.007  41.055 -26.047  1.00  0.00     0.018 C 
HETATM   22  C34 UNL     1     -17.051  41.435 -28.246  1.00  0.00     0.018 C 
ENDROOT
BRANCH   1  23
HETATM   23  O3  UNL     1     -16.059  43.856 -25.509  1.00  0.00    -0.352 OA
BRANCH  23  24
HETATM   24  C4  UNL     1     -16.894  44.430 -24.499  1.00  0.00     0.292 C 
HETATM   25  C3  UNL     1     -17.396  45.803 -24.997  1.00  0.00     0.218 C 
HETATM   26  C37 UNL     1     -18.526  46.292 -24.087  1.00  0.00     0.183 C 
HETATM   27  C36 UNL     1     -19.634  45.229 -23.932  1.00  0.00     0.173 C 
HETATM   28  C35 UNL     1     -19.234  43.898 -24.576  1.00  0.00     0.205 C 
HETATM   29  O8  UNL     1     -17.932  43.512 -24.144  1.00  0.00    -0.356 OA
BRANCH  25  30
HETATM   30  O2  UNL     1     -16.302  46.753 -24.915  1.00  0.00    -0.309 OA
BRANCH  30  31
HETATM   31  C2  UNL     1     -15.589  46.767 -23.759  1.00  0.00     0.255 C 
HETATM   32  C1  UNL     1     -14.132  46.592 -24.058  1.00  0.00     0.126 C 
HETATM   33  O1  UNL     1     -16.041  46.913 -22.632  1.00  0.00    -0.266 OA
ENDBRANCH  30  31
ENDBRANCH  25  30
BRANCH  26  34
HETATM   34  O10 UNL     1     -19.103  47.491 -24.639  1.00  0.00    -0.390 OA
HETATM   35  H60 UNL     1     -19.693  47.849 -23.961  1.00  0.00     0.210 HD
ENDBRANCH  26  34
BRANCH  27  36
HETATM   36  O9  UNL     1     -19.876  45.071 -22.520  1.00  0.00    -0.391 OA
HETATM   37  H58 UNL     1     -20.224  44.166 -22.375  1.00  0.00     0.210 HD
ENDBRANCH  27  36
ENDBRANCH  23  24
ENDBRANCH   1  23
BRANCH  18  38
HETATM   38  O7  UNL     1     -13.622  40.239 -27.410  1.00  0.00    -0.395 OA
HETATM   39  H47 UNL     1     -13.742  39.982 -28.338  1.00  0.00     0.210 HD
ENDBRANCH  18  38
BRANCH  11  40
HETATM   40  C16 UNL     1      -8.109  46.596 -30.296  1.00  0.00     0.065 C 
HETATM   41  C17 UNL     1      -8.825  47.835 -29.687  1.00  0.00     0.046 C 
HETATM   42  C18 UNL     1      -6.721  46.496 -29.654  1.00  0.00     0.041 C 
HETATM   43  C19 UNL     1      -5.891  47.487 -30.440  1.00  0.00     0.038 C 
HETATM   44  C20 UNL     1      -6.619  47.624 -31.783  1.00  0.00     0.156 C 
HETATM   45  O5  UNL     1      -7.836  46.846 -31.681  1.00  0.00    -0.372 OA
BRANCH  44  46
HETATM   46  C21 UNL     1      -5.795  47.222 -33.043  1.00  0.00     0.076 C 
HETATM   47  C22 UNL     1      -4.411  47.881 -33.043  1.00  0.00     0.048 C 
HETATM   48  C23 UNL     1      -6.554  47.620 -34.321  1.00  0.00     0.048 C 
BRANCH  46  49
HETATM   49  O4  UNL     1      -5.581  45.804 -33.132  1.00  0.00    -0.388 OA
HETATM   50  H35 UNL     1      -5.463  45.451 -32.237  1.00  0.00     0.210 HD
ENDBRANCH  46  49
ENDBRANCH  44  46
ENDBRANCH  11  40
BRANCH  12  51
HETATM   51  O6  UNL     1      -7.185  44.450 -28.518  1.00  0.00    -0.395 OA
HETATM   52  H37 UNL     1      -7.411  45.301 -28.096  1.00  0.00     0.210 HD
ENDBRANCH  12  51
TORSDOF 11
ENDMDL
MODEL 3
REMARK minimizedAffinity -9.15579128
REMARK CNNscore 0.359624624
REMARK CNNaffinity 6.87364435
REMARK  11 active torsions:
REMARK  status: ('A' for Active; 'I' for Inactive)
REMARK    1  A    between atoms: C2_2  and  O2_4 
REMARK    2  A    between atoms: O2_4  and  C3_5 
REMARK    3  A    between atoms: C4_6  and  O3_7 
REMARK    4  A    between atoms: O3_7  and  C5_8 
REMARK    5  A    between atoms: C15_18  and  C16_19 
REMARK    6  A    between atoms: C20_23  and  C21_24 
REMARK    7  A    between atoms: C21_24  and  O4_27 
REMARK    8  A    between atoms: C24_29  and  O6_30 
REMARK    9  A    between atoms: C30_36  and  O7_37 
REMARK   10  A    between atoms: C36_44  and  O9_45 
REMARK   11  A    between atoms: C37_46  and  O10_47 
ROOT
HETATM    1  C5  UNL     1      -2.265  50.990 -22.867  1.00  0.00     0.133 C 
HETATM    2  C6  UNL     1      -1.565  49.638 -23.095  1.00  0.00     0.034 C 
HETATM    3  C7  UNL     1      -2.474  48.418 -22.904  1.00  0.00     0.013 C 
HETATM    4  C8  UNL     1      -3.660  48.741 -22.017  1.00  0.00    -0.025 A 
HETATM    5  C9  UNL     1      -3.369  48.778 -20.544  1.00  0.00     0.021 A 
HETATM    6  C10 UNL     1      -4.290  47.678 -21.069  1.00  0.00    -0.027 A 
HETATM    7  C11 UNL     1      -3.668  46.272 -21.062  1.00  0.00     0.011 C 
HETATM    8  C12 UNL     1      -4.469  45.092 -20.512  1.00  0.00     0.011 C 
HETATM    9  C13 UNL     1      -5.532  45.494 -19.494  1.00  0.00    -0.028 C 
HETATM   10  C14 UNL     1      -4.814  46.070 -18.248  1.00  0.00     0.016 C 
HETATM   11  C15 UNL     1      -6.576  44.379 -19.076  1.00  0.00     0.057 C 
HETATM   12  C24 UNL     1      -7.820  45.243 -18.673  1.00  0.00     0.126 C 
HETATM   13  C25 UNL     1      -7.602  46.655 -19.226  1.00  0.00     0.042 C 
HETATM   14  C26 UNL     1      -6.464  46.519 -20.248  1.00  0.00    -0.029 C 
HETATM   15  C27 UNL     1      -7.072  45.969 -21.581  1.00  0.00     0.016 C 
HETATM   16  C28 UNL     1      -5.730  47.863 -20.540  1.00  0.00     0.006 C 
HETATM   17  C29 UNL     1      -6.547  48.813 -21.437  1.00  0.00     0.038 C 
HETATM   18  C30 UNL     1      -5.823  50.104 -21.824  1.00  0.00     0.124 C 
HETATM   19  C31 UNL     1      -4.583  49.782 -22.687  1.00  0.00     0.034 C 
HETATM   20  C32 UNL     1      -3.767  51.009 -23.293  1.00  0.00    -0.015 C 
HETATM   21  C33 UNL     1      -4.356  52.387 -22.932  1.00  0.00     0.018 C 
HETATM   22  C34 UNL     1      -3.825  50.927 -24.844  1.00  0.00     0.018 C 
ENDROOT
BRANCH   1  23
HETATM   23  O3  UNL     1      -2.158  51.311 -21.467  1.00  0.00    -0.352 OA
BRANCH  23  24
HETATM   24  C4  UNL     1      -1.311  52.433 -21.199  1.00  0.00     0.292 C 
HETATM   25  C3  UNL     1      -0.588  52.193 -19.855  1.00  0.00     0.218 C 
HETATM   26  C37 UNL     1       0.545  53.212 -19.699  1.00  0.00     0.183 C 
HETATM   27  C36 UNL     1       1.477  53.222 -20.929  1.00  0.00     0.173 C 
HETATM   28  C35 UNL     1       0.928  52.349 -22.061  1.00  0.00     0.205 C 
HETATM   29  O8  UNL     1      -0.440  52.663 -22.309  1.00  0.00    -0.356 OA
BRANCH  25  30
HETATM   30  O2  UNL     1      -1.536  52.397 -18.776  1.00  0.00    -0.309 OA
BRANCH  30  31
HETATM   31  C2  UNL     1      -1.913  51.295 -18.076  1.00  0.00     0.255 C 
HETATM   32  C1  UNL     1      -0.895  50.211 -18.245  1.00  0.00     0.126 C 
HETATM   33  O1  UNL     1      -2.921  51.183 -17.391  1.00  0.00    -0.266 OA
ENDBRANCH  30  31
ENDBRANCH  25  30
BRANCH  26  34
HETATM   34  O10 UNL     1       1.320  52.892 -18.528  1.00  0.00    -0.390 OA
HETATM   35  H60 UNL     1       1.915  53.640 -18.379  1.00  0.00     0.210 HD
ENDBRANCH  26  34
BRANCH  27  36
HETATM   36  O9  UNL     1       1.608  54.594 -21.349  1.00  0.00    -0.391 OA
HETATM   37  H58 UNL     1       1.813  54.596 -22.308  1.00  0.00     0.210 HD
ENDBRANCH  27  36
ENDBRANCH  23  24
ENDBRANCH   1  23
BRANCH  18  38
HETATM   38  O7  UNL     1      -6.768  50.887 -22.561  1.00  0.00    -0.395 OA
HETATM   39  H47 UNL     1      -7.059  50.372 -23.330  1.00  0.00     0.210 HD
ENDBRANCH  18  38
BRANCH  11  40
HETATM   40  C16 UNL     1      -6.233  43.201 -18.115  1.00  0.00     0.065 C 
HETATM   41  C17 UNL     1      -6.310  43.670 -16.635  1.00  0.00     0.046 C 
HETATM   42  C18 UNL     1      -7.180  42.008 -18.277  1.00  0.00     0.041 C 
HETATM   43  C19 UNL     1      -6.374  40.837 -17.759  1.00  0.00     0.038 C 
HETATM   44  C20 UNL     1      -4.913  41.276 -17.907  1.00  0.00     0.156 C 
HETATM   45  O5  UNL     1      -4.932  42.650 -18.364  1.00  0.00    -0.372 OA
BRANCH  44  46
HETATM   46  C21 UNL     1      -4.029  40.385 -18.831  1.00  0.00     0.076 C 
HETATM   47  C22 UNL     1      -4.828  39.844 -20.021  1.00  0.00     0.048 C 
HETATM   48  C23 UNL     1      -3.442  39.210 -18.029  1.00  0.00     0.048 C 
BRANCH  46  49
HETATM   49  O4  UNL     1      -2.904  41.098 -19.372  1.00  0.00    -0.388 OA
HETATM   50  H35 UNL     1      -3.174  42.013 -19.549  1.00  0.00     0.210 HD
ENDBRANCH  46  49
ENDBRANCH  44  46
ENDBRANCH  11  40
BRANCH  12  51
HETATM   51  O6  UNL     1      -8.067  45.336 -17.280  1.00  0.00    -0.395 OA
HETATM   52  H37 UNL     1      -7.212  45.284 -16.810  1.00  0.00     0.210 HD
ENDBRANCH  12  51
TORSDOF 11
ENDMDL
MODEL 4
REMARK minimizedAffinity -8.38420773
REMARK CNNscore 0.338321298
REMARK CNNaffinity 5.92481422
REMARK  11 active torsions:
REMARK  status: ('A' for Active; 'I' for Inactive)
REMARK    1  A    between atoms: C2_2  and  O2_4 
REMARK    2  A    between atoms: O2_4  and  C3_5 
REMARK    3  A    between atoms: C4_6  and  O3_7 
REMARK    4  A    between atoms: O3_7  and  C5_8 
REMARK    5  A    between atoms: C15_18  and  C16_19 
REMARK    6  A    between atoms: C20_23  and  C21_24 
REMARK    7  A    between atoms: C21_24  and  O4_27 
REMARK    8  A    between atoms: C24_29  and  O6_30 
REMARK    9  A    between atoms: C30_36  and  O7_37 
REMARK   10  A    between atoms: C36_44  and  O9_45 
REMARK   11  A    between atoms: C37_46  and  O10_47 
ROOT
HETATM    1  C5  UNL     1      -8.206  46.971 -31.564  1.00  0.00     0.133 C 
HETATM    2  C6  UNL     1      -9.570  46.750 -32.243  1.00  0.00     0.034 C 
HETATM    3  C7  UNL     1     -10.774  46.916 -31.309  1.00  0.00     0.013 C 
HETATM    4  C8  UNL     1     -10.386  46.707 -29.858  1.00  0.00    -0.025 A 
HETATM    5  C9  UNL     1     -10.231  45.275 -29.435  1.00  0.00     0.021 A 
HETATM    6  C10 UNL     1     -11.372  46.087 -28.825  1.00  0.00    -0.027 A 
HETATM    7  C11 UNL     1     -12.771  45.692 -29.325  1.00  0.00     0.011 C 
HETATM    8  C12 UNL     1     -13.907  45.493 -28.321  1.00  0.00     0.011 C 
HETATM    9  C13 UNL     1     -13.429  45.118 -26.922  1.00  0.00    -0.028 C 
HETATM   10  C14 UNL     1     -12.753  43.725 -26.999  1.00  0.00     0.016 C 
HETATM   11  C15 UNL     1     -14.510  45.153 -25.765  1.00  0.00     0.057 C 
HETATM   12  C24 UNL     1     -13.620  45.438 -24.506  1.00  0.00     0.126 C 
HETATM   13  C25 UNL     1     -12.256  45.925 -25.004  1.00  0.00     0.042 C 
HETATM   14  C26 UNL     1     -12.469  46.289 -26.480  1.00  0.00    -0.029 C 
HETATM   15  C27 UNL     1     -13.125  47.708 -26.540  1.00  0.00     0.016 C 
HETATM   16  C28 UNL     1     -11.150  46.302 -27.311  1.00  0.00     0.006 C 
HETATM   17  C29 UNL     1     -10.277  47.542 -27.036  1.00  0.00     0.038 C 
HETATM   18  C30 UNL     1      -9.018  47.640 -27.900  1.00  0.00     0.124 C 
HETATM   19  C31 UNL     1      -9.404  47.802 -29.387  1.00  0.00     0.034 C 
HETATM   20  C32 UNL     1      -8.226  48.046 -30.432  1.00  0.00    -0.015 C 
HETATM   21  C33 UNL     1      -6.825  48.099 -29.790  1.00  0.00     0.018 C 
HETATM   22  C34 UNL     1      -8.430  49.436 -31.097  1.00  0.00     0.018 C 
ENDROOT
BRANCH   1  23
HETATM   23  O3  UNL     1      -7.775  45.709 -31.021  1.00  0.00    -0.352 OA
BRANCH  23  24
HETATM   24  C4  UNL     1      -7.464  44.731 -32.019  1.00  0.00     0.292 C 
HETATM   25  C3  UNL     1      -5.929  44.673 -32.188  1.00  0.00     0.218 C 
HETATM   26  C37 UNL     1      -5.556  43.433 -33.007  1.00  0.00     0.183 C 
HETATM   27  C36 UNL     1      -6.179  42.150 -32.417  1.00  0.00     0.173 C 
HETATM   28  C35 UNL     1      -7.155  42.468 -31.280  1.00  0.00     0.205 C 
HETATM   29  O8  UNL     1      -8.072  43.481 -31.684  1.00  0.00    -0.356 OA
BRANCH  25  30
HETATM   30  O2  UNL     1      -5.500  45.849 -32.921  1.00  0.00    -0.309 OA
BRANCH  30  31
HETATM   31  C2  UNL     1      -4.445  46.536 -32.411  1.00  0.00     0.255 C 
HETATM   32  C1  UNL     1      -3.826  47.385 -33.478  1.00  0.00     0.126 C 
HETATM   33  O1  UNL     1      -4.047  46.498 -31.254  1.00  0.00    -0.266 OA
ENDBRANCH  30  31
ENDBRANCH  25  30
BRANCH  26  34
HETATM   34  O10 UNL     1      -4.123  43.288 -33.032  1.00  0.00    -0.390 OA
HETATM   35  H60 UNL     1      -3.928  42.599 -33.682  1.00  0.00     0.210 HD
ENDBRANCH  26  34
BRANCH  27  36
HETATM   36  O9  UNL     1      -6.845  41.468 -33.497  1.00  0.00    -0.391 OA
HETATM   37  H58 UNL     1      -7.567  40.927 -33.111  1.00  0.00     0.210 HD
ENDBRANCH  27  36
ENDBRANCH  23  24
ENDBRANCH   1  23
BRANCH  18  38
HETATM   38  O7  UNL     1      -8.299  48.785 -27.431  1.00  0.00    -0.395 OA
HETATM   39  H47 UNL     1      -8.875  49.562 -27.512  1.00  0.00     0.210 HD
ENDBRANCH  18  38
BRANCH  11  40
HETATM   40  C16 UNL     1     -15.608  44.061 -25.584  1.00  0.00     0.065 C 
HETATM   41  C17 UNL     1     -14.959  42.650 -25.515  1.00  0.00     0.046 C 
HETATM   42  C18 UNL     1     -16.436  44.258 -24.310  1.00  0.00     0.041 C 
HETATM   43  C19 UNL     1     -17.732  43.538 -24.612  1.00  0.00     0.038 C 
HETATM   44  C20 UNL     1     -17.816  43.514 -26.142  1.00  0.00     0.156 C 
HETATM   45  O5  UNL     1     -16.579  44.079 -26.639  1.00  0.00    -0.372 OA
BRANCH  44  46
HETATM   46  C21 UNL     1     -19.054  44.229 -26.762  1.00  0.00     0.076 C 
HETATM   47  C22 UNL     1     -19.861  44.980 -25.698  1.00  0.00     0.048 C 
HETATM   48  C23 UNL     1     -19.960  43.203 -27.467  1.00  0.00     0.048 C 
BRANCH  46  49
HETATM   49  O4  UNL     1     -18.689  45.192 -27.765  1.00  0.00    -0.388 OA
HETATM   50  H35 UNL     1     -17.858  45.616 -27.499  1.00  0.00     0.210 HD
ENDBRANCH  46  49
ENDBRANCH  44  46
ENDBRANCH  11  40
BRANCH  12  51
HETATM   51  O6  UNL     1     -13.419  44.329 -23.646  1.00  0.00    -0.395 OA
HETATM   52  H37 UNL     1     -13.431  43.513 -24.183  1.00  0.00     0.210 HD
ENDBRANCH  12  51
TORSDOF 11
ENDMDL
MODEL 5
REMARK minimizedAffinity -8.63990879
REMARK CNNscore 0.327404469
REMARK CNNaffinity 6.7976737
REMARK  11 active torsions:
REMARK  status: ('A' for Active; 'I' for Inactive)
REMARK    1  A    between atoms: C2_2  and  O2_4 
REMARK    2  A    between atoms: O2_4  and  C3_5 
REMARK    3  A    between atoms: C4_6  and  O3_7 
REMARK    4  A    between atoms: O3_7  and  C5_8 
REMARK    5  A    between atoms: C15_18  and  C16_19 
REMARK    6  A    between atoms: C20_23  and  C21_24 
REMARK    7  A    between atoms: C21_24  and  O4_27 
REMARK    8  A    between atoms: C24_29  and  O6_30 
REMARK    9  A    between atoms: C30_36  and  O7_37 
REMARK   10  A    between atoms: C36_44  and  O9_45 
REMARK   11  A    between atoms: C37_46  and  O10_47 
ROOT
HETATM    1  C5  UNL     1      -6.532  45.331 -18.191  1.00  0.00     0.133 C 
HETATM    2  C6  UNL     1      -6.232  46.732 -17.630  1.00  0.00     0.034 C 
HETATM    3  C7  UNL     1      -6.183  47.840 -18.689  1.00  0.00     0.013 C 
HETATM    4  C8  UNL     1      -5.883  47.279 -20.065  1.00  0.00    -0.025 A 
HETATM    5  C9  UNL     1      -4.442  46.943 -20.323  1.00  0.00     0.021 A 
HETATM    6  C10 UNL     1      -5.069  48.085 -21.120  1.00  0.00    -0.027 A 
HETATM    7  C11 UNL     1      -4.576  49.485 -20.722  1.00  0.00     0.011 C 
HETATM    8  C12 UNL     1      -4.167  50.482 -21.806  1.00  0.00     0.011 C 
HETATM    9  C13 UNL     1      -3.716  49.822 -23.106  1.00  0.00    -0.028 C 
HETATM   10  C14 UNL     1      -2.416  49.029 -22.820  1.00  0.00     0.016 C 
HETATM   11  C15 UNL     1      -3.530  50.771 -24.360  1.00  0.00     0.057 C 
HETATM   12  C24 UNL     1      -3.789  49.783 -25.549  1.00  0.00     0.126 C 
HETATM   13  C25 UNL     1      -4.463  48.533 -24.973  1.00  0.00     0.042 C 
HETATM   14  C26 UNL     1      -4.937  48.938 -23.570  1.00  0.00    -0.029 C 
HETATM   15  C27 UNL     1      -6.278  49.729 -23.720  1.00  0.00     0.016 C 
HETATM   16  C28 UNL     1      -5.166  47.723 -22.620  1.00  0.00     0.006 C 
HETATM   17  C29 UNL     1      -6.460  46.947 -22.935  1.00  0.00     0.038 C 
HETATM   18  C30 UNL     1      -6.770  45.804 -21.967  1.00  0.00     0.124 C 
HETATM   19  C31 UNL     1      -7.028  46.362 -20.549  1.00  0.00     0.034 C 
HETATM   20  C32 UNL     1      -7.490  45.331 -19.425  1.00  0.00    -0.015 C 
HETATM   21  C33 UNL     1      -7.632  43.881 -19.929  1.00  0.00     0.018 C 
HETATM   22  C34 UNL     1      -8.906  45.738 -18.929  1.00  0.00     0.018 C 
ENDROOT
BRANCH   1  23
HETATM   23  O3  UNL     1      -5.278  44.725 -18.557  1.00  0.00    -0.352 OA
BRANCH  23  24
HETATM   24  C4  UNL     1      -4.750  43.850 -17.555  1.00  0.00     0.292 C 
HETATM   25  C3  UNL     1      -3.227  43.715 -17.773  1.00  0.00     0.218 C 
HETATM   26  C37 UNL     1      -2.595  43.049 -16.547  1.00  0.00     0.183 C 
HETATM   27  C36 UNL     1      -2.989  43.769 -15.240  1.00  0.00     0.173 C 
HETATM   28  C35 UNL     1      -4.050  44.845 -15.486  1.00  0.00     0.205 C 
HETATM   29  O8  UNL     1      -5.125  44.313 -16.256  1.00  0.00    -0.356 OA
BRANCH  25  30
HETATM   30  O2  UNL     1      -2.997  42.862 -18.924  1.00  0.00    -0.309 OA
BRANCH  30  31
HETATM   31  C2  UNL     1      -2.971  41.523 -18.698  1.00  0.00     0.255 C 
HETATM   32  C1  UNL     1      -4.354  40.961 -18.809  1.00  0.00     0.126 C 
HETATM   33  O1  UNL     1      -1.979  40.850 -18.453  1.00  0.00    -0.266 OA
ENDBRANCH  30  31
ENDBRANCH  25  30
BRANCH  26  34
HETATM   34  O10 UNL     1      -1.161  43.067 -16.677  1.00  0.00    -0.390 OA
HETATM   35  H60 UNL     1      -0.814  42.502 -15.972  1.00  0.00     0.210 HD
ENDBRANCH  26  34
BRANCH  27  36
HETATM   36  O9  UNL     1      -3.472  42.761 -14.331  1.00  0.00    -0.391 OA
HETATM   37  H58 UNL     1      -4.094  43.193 -13.707  1.00  0.00     0.210 HD
ENDBRANCH  27  36
ENDBRANCH  23  24
ENDBRANCH   1  23
BRANCH  18  38
HETATM   38  O7  UNL     1      -7.937  45.152 -22.479  1.00  0.00    -0.395 OA
HETATM   39  H47 UNL     1      -8.653  45.805 -22.534  1.00  0.00     0.210 HD
ENDBRANCH  18  38
BRANCH  11  40
HETATM   40  C16 UNL     1      -2.316  51.734 -24.534  1.00  0.00     0.065 C 
HETATM   41  C17 UNL     1      -2.448  52.949 -23.572  1.00  0.00     0.046 C 
HETATM   42  C18 UNL     1      -0.973  51.054 -24.247  1.00  0.00     0.041 C 
HETATM   43  C19 UNL     1       0.024  51.896 -25.012  1.00  0.00     0.038 C 
HETATM   44  C20 UNL     1      -0.801  52.573 -26.112  1.00  0.00     0.156 C 
HETATM   45  O5  UNL     1      -2.185  52.214 -25.879  1.00  0.00    -0.372 OA
BRANCH  44  46
HETATM   46  C21 UNL     1      -0.372  52.251 -27.575  1.00  0.00     0.076 C 
HETATM   47  C22 UNL     1       0.972  51.517 -27.617  1.00  0.00     0.048 C 
HETATM   48  C23 UNL     1      -0.276  53.549 -28.396  1.00  0.00     0.048 C 
BRANCH  46  49
HETATM   49  O4  UNL     1      -1.324  51.419 -28.258  1.00  0.00    -0.388 OA
HETATM   50  H35 UNL     1      -1.698  50.790 -27.621  1.00  0.00     0.210 HD
ENDBRANCH  46  49
ENDBRANCH  44  46
ENDBRANCH  11  40
BRANCH  12  51
HETATM   51  O6  UNL     1      -2.633  49.385 -26.267  1.00  0.00    -0.395 OA
HETATM   52  H37 UNL     1      -1.874  49.377 -25.652  1.00  0.00     0.210 HD
ENDBRANCH  12  51
TORSDOF 11
ENDMDL
MODEL 6
REMARK minimizedAffinity -9.79538727
REMARK CNNscore 0.31801787
REMARK CNNaffinity 7.45506048
REMARK  11 active torsions:
REMARK  status: ('A' for Active; 'I' for Inactive)
REMARK    1  A    between atoms: C2_2  and  O2_4 
REMARK    2  A    between atoms: O2_4  and  C3_5 
REMARK    3  A    between atoms: C4_6  and  O3_7 
REMARK    4  A    between atoms: O3_7  and  C5_8 
REMARK    5  A    between atoms: C15_18  and  C16_19 
REMARK    6  A    between atoms: C20_23  and  C21_24 
REMARK    7  A    between atoms: C21_24  and  O4_27 
REMARK    8  A    between atoms: C24_29  and  O6_30 
REMARK    9  A    between atoms: C30_36  and  O7_37 
REMARK   10  A    between atoms: C36_44  and  O9_45 
REMARK   11  A    between atoms: C37_46  and  O10_47 
ROOT
HETATM    1  C5  UNL     1      -3.169  49.630 -24.170  1.00  0.00     0.133 C 
HETATM    2  C6  UNL     1      -2.266  48.444 -23.789  1.00  0.00     0.034 C 
HETATM    3  C7  UNL     1      -2.358  48.028 -22.315  1.00  0.00     0.013 C 
HETATM    4  C8  UNL     1      -2.854  49.168 -21.447  1.00  0.00    -0.025 A 
HETATM    5  C9  UNL     1      -1.828  50.211 -21.108  1.00  0.00     0.021 A 
HETATM    6  C10 UNL     1      -2.377  49.346 -19.975  1.00  0.00    -0.027 A 
HETATM    7  C11 UNL     1      -1.379  48.317 -19.421  1.00  0.00     0.011 C 
HETATM    8  C12 UNL     1      -1.205  48.167 -17.909  1.00  0.00     0.011 C 
HETATM    9  C13 UNL     1      -1.568  49.424 -17.123  1.00  0.00    -0.028 C 
HETATM   10  C14 UNL     1      -0.563  50.539 -17.505  1.00  0.00     0.016 C 
HETATM   11  C15 UNL     1      -1.672  49.276 -15.550  1.00  0.00     0.057 C 
HETATM   12  C24 UNL     1      -2.690  50.413 -15.190  1.00  0.00     0.126 C 
HETATM   13  C25 UNL     1      -3.381  50.844 -16.488  1.00  0.00     0.042 C 
HETATM   14  C26 UNL     1      -3.068  49.734 -17.502  1.00  0.00    -0.029 C 
HETATM   15  C27 UNL     1      -4.051  48.546 -17.240  1.00  0.00     0.016 C 
HETATM   16  C28 UNL     1      -3.207  50.194 -18.985  1.00  0.00     0.006 C 
HETATM   17  C29 UNL     1      -4.674  50.323 -19.440  1.00  0.00     0.038 C 
HETATM   18  C30 UNL     1      -4.855  50.681 -20.916  1.00  0.00     0.124 C 
HETATM   19  C31 UNL     1      -4.306  49.547 -21.811  1.00  0.00     0.034 C 
HETATM   20  C32 UNL     1      -4.517  49.682 -23.384  1.00  0.00    -0.015 C 
HETATM   21  C33 UNL     1      -5.274  50.958 -23.804  1.00  0.00     0.018 C 
HETATM   22  C34 UNL     1      -5.399  48.498 -23.871  1.00  0.00     0.018 C 
ENDROOT
BRANCH   1  23
HETATM   23  O3  UNL     1      -2.428  50.842 -23.933  1.00  0.00    -0.352 OA
BRANCH  23  24
HETATM   24  C4  UNL     1      -1.192  50.909 -24.651  1.00  0.00     0.292 C 
HETATM   25  C3  UNL     1      -1.503  51.177 -26.141  1.00  0.00     0.218 C 
HETATM   26  C37 UNL     1      -0.212  51.562 -26.869  1.00  0.00     0.183 C 
HETATM   27  C36 UNL     1       0.522  52.717 -26.155  1.00  0.00     0.173 C 
HETATM   28  C35 UNL     1      -0.129  53.056 -24.811  1.00  0.00     0.205 C 
HETATM   29  O8  UNL     1      -0.325  51.870 -24.044  1.00  0.00    -0.356 OA
BRANCH  25  30
HETATM   30  O2  UNL     1      -2.013  49.955 -26.734  1.00  0.00    -0.309 OA
BRANCH  30  31
HETATM   31  C2  UNL     1      -3.072  50.078 -27.576  1.00  0.00     0.255 C 
HETATM   32  C1  UNL     1      -3.886  48.822 -27.558  1.00  0.00     0.126 C 
HETATM   33  O1  UNL     1      -3.351  51.062 -28.249  1.00  0.00    -0.266 OA
ENDBRANCH  30  31
ENDBRANCH  25  30
BRANCH  26  34
HETATM   34  O10 UNL     1      -0.522  51.966 -28.215  1.00  0.00    -0.390 OA
HETATM   35  H60 UNL     1       0.323  52.044 -28.681  1.00  0.00     0.210 HD
ENDBRANCH  26  34
BRANCH  27  36
HETATM   36  O9  UNL     1       1.891  52.304 -25.979  1.00  0.00    -0.391 OA
HETATM   37  H58 UNL     1       2.252  52.782 -25.203  1.00  0.00     0.210 HD
ENDBRANCH  27  36
ENDBRANCH  23  24
ENDBRANCH   1  23
BRANCH  18  38
HETATM   38  O7  UNL     1      -6.262  50.854 -21.116  1.00  0.00    -0.395 OA
HETATM   39  H47 UNL     1      -6.710  50.029 -20.870  1.00  0.00     0.210 HD
ENDBRANCH  18  38
BRANCH  11  40
HETATM   40  C16 UNL     1      -0.430  49.161 -14.616  1.00  0.00     0.065 C 
HETATM   41  C17 UNL     1      -0.807  48.411 -13.307  1.00  0.00     0.046 C 
HETATM   42  C18 UNL     1       0.735  48.408 -15.267  1.00  0.00     0.041 C 
HETATM   43  C19 UNL     1       1.948  48.906 -14.513  1.00  0.00     0.038 C 
HETATM   44  C20 UNL     1       1.525  50.268 -13.952  1.00  0.00     0.156 C 
HETATM   45  O5  UNL     1       0.125  50.439 -14.279  1.00  0.00    -0.372 OA
BRANCH  44  46
HETATM   46  C21 UNL     1       2.371  51.487 -14.426  1.00  0.00     0.076 C 
HETATM   47  C22 UNL     1       1.791  52.112 -15.699  1.00  0.00     0.048 C 
HETATM   48  C23 UNL     1       3.826  51.056 -14.681  1.00  0.00     0.048 C 
BRANCH  46  49
HETATM   49  O4  UNL     1       2.434  52.531 -13.440  1.00  0.00    -0.388 OA
HETATM   50  H35 UNL     1       1.582  52.572 -12.978  1.00  0.00     0.210 HD
ENDBRANCH  46  49
ENDBRANCH  44  46
ENDBRANCH  11  40
BRANCH  12  51
HETATM   51  O6  UNL     1      -2.124  51.558 -14.576  1.00  0.00    -0.395 OA
HETATM   52  H37 UNL     1      -1.213  51.671 -14.910  1.00  0.00     0.210 HD
ENDBRANCH  12  51
TORSDOF 11
ENDMDL
MODEL 7
REMARK minimizedAffinity -9.15752888
REMARK CNNscore 0.315917999
REMARK CNNaffinity 7.34393167
REMARK  11 active torsions:
REMARK  status: ('A' for Active; 'I' for Inactive)
REMARK    1  A    between atoms: C2_2  and  O2_4 
REMARK    2  A    between atoms: O2_4  and  C3_5 
REMARK    3  A    between atoms: C4_6  and  O3_7 
REMARK    4  A    between atoms: O3_7  and  C5_8 
REMARK    5  A    between atoms: C15_18  and  C16_19 
REMARK    6  A    between atoms: C20_23  and  C21_24 
REMARK    7  A    between atoms: C21_24  and  O4_27 
REMARK    8  A    between atoms: C24_29  and  O6_30 
REMARK    9  A    between atoms: C30_36  and  O7_37 
REMARK   10  A    between atoms: C36_44  and  O9_45 
REMARK   11  A    between atoms: C37_46  and  O10_47 
ROOT
HETATM    1  C5  UNL     1      -2.422  51.180 -22.518  1.00  0.00     0.133 C 
HETATM    2  C6  UNL     1      -3.799  51.867 -22.527  1.00  0.00     0.034 C 
HETATM    3  C7  UNL     1      -4.933  51.018 -21.939  1.00  0.00     0.013 C 
HETATM    4  C8  UNL     1      -4.604  49.539 -21.994  1.00  0.00    -0.025 A 
HETATM    5  C9  UNL     1      -4.787  48.889 -23.335  1.00  0.00     0.021 A 
HETATM    6  C10 UNL     1      -5.708  48.459 -22.195  1.00  0.00    -0.027 A 
HETATM    7  C11 UNL     1      -7.160  48.943 -22.335  1.00  0.00     0.011 C 
HETATM    8  C12 UNL     1      -8.311  47.965 -22.101  1.00  0.00     0.011 C 
HETATM    9  C13 UNL     1      -7.934  46.506 -22.344  1.00  0.00    -0.028 C 
HETATM   10  C14 UNL     1      -7.601  46.337 -23.848  1.00  0.00     0.016 C 
HETATM   11  C15 UNL     1      -8.978  45.412 -21.874  1.00  0.00     0.057 C 
HETATM   12  C24 UNL     1      -8.047  44.181 -21.601  1.00  0.00     0.126 C 
HETATM   13  C25 UNL     1      -6.607  44.696 -21.527  1.00  0.00     0.042 C 
HETATM   14  C26 UNL     1      -6.729  46.219 -21.368  1.00  0.00    -0.029 C 
HETATM   15  C27 UNL     1      -7.037  46.527 -19.866  1.00  0.00     0.016 C 
HETATM   16  C28 UNL     1      -5.443  46.990 -21.794  1.00  0.00     0.006 C 
HETATM   17  C29 UNL     1      -4.305  46.881 -20.759  1.00  0.00     0.038 C 
HETATM   18  C30 UNL     1      -3.058  47.701 -21.095  1.00  0.00     0.124 C 
HETATM   19  C31 UNL     1      -3.395  49.209 -21.092  1.00  0.00     0.034 C 
HETATM   20  C32 UNL     1      -2.192  50.233 -21.298  1.00  0.00    -0.015 C 
HETATM   21  C33 UNL     1      -0.817  49.555 -21.463  1.00  0.00     0.018 C 
HETATM   22  C34 UNL     1      -2.067  51.117 -20.025  1.00  0.00     0.018 C 
ENDROOT
BRANCH   1  23
HETATM   23  O3  UNL     1      -2.297  50.428 -23.740  1.00  0.00    -0.352 OA
BRANCH  23  24
HETATM   24  C4  UNL     1      -1.180  50.823 -24.544  1.00  0.00     0.292 C 
HETATM   25  C3  UNL     1      -1.665  51.015 -25.998  1.00  0.00     0.218 C 
HETATM   26  C37 UNL     1      -0.578  51.732 -26.806  1.00  0.00     0.183 C 
HETATM   27  C36 UNL     1      -0.117  53.031 -26.113  1.00  0.00     0.173 C 
HETATM   28  C35 UNL     1      -0.728  53.175 -24.716  1.00  0.00     0.205 C 
HETATM   29  O8  UNL     1      -0.549  51.972 -23.972  1.00  0.00    -0.356 OA
BRANCH  25  30
HETATM   30  O2  UNL     1      -1.884  49.708 -26.589  1.00  0.00    -0.309 OA
BRANCH  30  31
HETATM   31  C2  UNL     1      -3.017  49.549 -27.321  1.00  0.00     0.255 C 
HETATM   32  C1  UNL     1      -3.842  48.439 -26.748  1.00  0.00     0.126 C 
HETATM   33  O1  UNL     1      -3.346  50.208 -28.298  1.00  0.00    -0.266 OA
ENDBRANCH  30  31
ENDBRANCH  25  30
BRANCH  26  34
HETATM   34  O10 UNL     1      -1.086  52.054 -28.114  1.00  0.00    -0.390 OA
HETATM   35  H60 UNL     1      -0.330  52.354 -28.636  1.00  0.00     0.210 HD
ENDBRANCH  26  34
BRANCH  27  36
HETATM   36  O9  UNL     1       1.322  52.989 -26.049  1.00  0.00    -0.391 OA
HETATM   37  H58 UNL     1       1.604  53.537 -25.286  1.00  0.00     0.210 HD
ENDBRANCH  27  36
ENDBRANCH  23  24
ENDBRANCH   1  23
BRANCH  18  38
HETATM   38  O7  UNL     1      -2.093  47.391 -20.084  1.00  0.00    -0.395 OA
HETATM   39  H47 UNL     1      -2.471  47.616 -19.219  1.00  0.00     0.210 HD
ENDBRANCH  18  38
BRANCH  11  40
HETATM   40  C16 UNL     1     -10.300  45.103 -22.641  1.00  0.00     0.065 C 
HETATM   41  C17 UNL     1     -10.029  45.012 -24.169  1.00  0.00     0.046 C 
HETATM   42  C18 UNL     1     -10.946  43.785 -22.202  1.00  0.00     0.041 C 
HETATM   43  C19 UNL     1     -12.403  43.961 -22.571  1.00  0.00     0.038 C 
HETATM   44  C20 UNL     1     -12.612  45.478 -22.615  1.00  0.00     0.156 C 
HETATM   45  O5  UNL     1     -11.315  46.087 -22.403  1.00  0.00    -0.372 OA
BRANCH  44  46
HETATM   46  C21 UNL     1     -13.672  46.044 -21.624  1.00  0.00     0.076 C 
HETATM   47  C22 UNL     1     -15.094  45.898 -22.177  1.00  0.00     0.048 C 
HETATM   48  C23 UNL     1     -13.384  47.527 -21.329  1.00  0.00     0.048 C 
BRANCH  46  49
HETATM   49  O4  UNL     1     -13.649  45.375 -20.351  1.00  0.00    -0.388 OA
HETATM   50  H35 UNL     1     -13.447  44.438 -20.498  1.00  0.00     0.210 HD
ENDBRANCH  46  49
ENDBRANCH  44  46
ENDBRANCH  11  40
BRANCH  12  51
HETATM   51  O6  UNL     1      -8.110  43.149 -22.571  1.00  0.00    -0.395 OA
HETATM   52  H37 UNL     1      -8.311  43.551 -23.439  1.00  0.00     0.210 HD
ENDBRANCH  12  51
TORSDOF 11
ENDMDL
MODEL 8
REMARK minimizedAffinity -9.04899788
REMARK CNNscore 0.305009335
REMARK CNNaffinity 7.14775801
REMARK  11 active torsions:
REMARK  status: ('A' for Active; 'I' for Inactive)
REMARK    1  A    between atoms: C2_2  and  O2_4 
REMARK    2  A    between atoms: O2_4  and  C3_5 
REMARK    3  A    between atoms: C4_6  and  O3_7 
REMARK    4  A    between atoms: O3_7  and  C5_8 
REMARK    5  A    between atoms: C15_18  and  C16_19 
REMARK    6  A    between atoms: C20_23  and  C21_24 
REMARK    7  A    between atoms: C21_24  and  O4_27 
REMARK    8  A    between atoms: C24_29  and  O6_30 
REMARK    9  A    between atoms: C30_36  and  O7_37 
REMARK   10  A    between atoms: C36_44  and  O9_45 
REMARK   11  A    between atoms: C37_46  and  O10_47 
ROOT
HETATM    1  C5  UNL     1      -2.388  51.059 -22.662  1.00  0.00     0.133 C 
HETATM    2  C6  UNL     1      -3.719  51.819 -22.803  1.00  0.00     0.034 C 
HETATM    3  C7  UNL     1      -4.949  51.030 -22.338  1.00  0.00     0.013 C 
HETATM    4  C8  UNL     1      -4.696  49.536 -22.372  1.00  0.00    -0.025 A 
HETATM    5  C9  UNL     1      -4.779  48.901 -23.730  1.00  0.00     0.021 A 
HETATM    6  C10 UNL     1      -5.831  48.518 -22.691  1.00  0.00    -0.027 A 
HETATM    7  C11 UNL     1      -7.233  49.080 -22.970  1.00  0.00     0.011 C 
HETATM    8  C12 UNL     1      -8.453  48.165 -22.862  1.00  0.00     0.011 C 
HETATM    9  C13 UNL     1      -8.132  46.689 -23.078  1.00  0.00    -0.028 C 
HETATM   10  C14 UNL     1      -7.660  46.507 -24.542  1.00  0.00     0.016 C 
HETATM   11  C15 UNL     1      -9.274  45.651 -22.724  1.00  0.00     0.057 C 
HETATM   12  C24 UNL     1      -8.443  44.370 -22.369  1.00  0.00     0.126 C 
HETATM   13  C25 UNL     1      -6.991  44.807 -22.148  1.00  0.00     0.042 C 
HETATM   14  C26 UNL     1      -7.047  46.334 -21.989  1.00  0.00    -0.029 C 
HETATM   15  C27 UNL     1      -7.487  46.654 -20.522  1.00  0.00     0.016 C 
HETATM   16  C28 UNL     1      -5.685  47.036 -22.278  1.00  0.00     0.006 C 
HETATM   17  C29 UNL     1      -4.664  46.862 -21.136  1.00  0.00     0.038 C 
HETATM   18  C30 UNL     1      -3.348  47.614 -21.339  1.00  0.00     0.124 C 
HETATM   19  C31 UNL     1      -3.602  49.139 -21.357  1.00  0.00     0.034 C 
HETATM   20  C32 UNL     1      -2.332  50.097 -21.433  1.00  0.00    -0.015 C 
HETATM   21  C33 UNL     1      -0.986  49.346 -21.467  1.00  0.00     0.018 C 
HETATM   22  C34 UNL     1      -2.288  50.969 -20.146  1.00  0.00     0.018 C 
ENDROOT
BRANCH   1  23
HETATM   23  O3  UNL     1      -2.182  50.305 -23.872  1.00  0.00    -0.352 OA
BRANCH  23  24
HETATM   24  C4  UNL     1      -1.099  50.791 -24.672  1.00  0.00     0.292 C 
HETATM   25  C3  UNL     1      -1.626  51.066 -26.098  1.00  0.00     0.218 C 
HETATM   26  C37 UNL     1      -0.583  51.872 -26.878  1.00  0.00     0.183 C 
HETATM   27  C36 UNL     1      -0.145  53.135 -26.108  1.00  0.00     0.173 C 
HETATM   28  C35 UNL     1      -0.724  53.162 -24.690  1.00  0.00     0.205 C 
HETATM   29  O8  UNL     1      -0.489  51.917 -24.036  1.00  0.00    -0.356 OA
BRANCH  25  30
HETATM   30  O2  UNL     1      -1.819  49.796 -26.773  1.00  0.00    -0.309 OA
BRANCH  30  31
HETATM   31  C2  UNL     1      -2.968  49.649 -27.483  1.00  0.00     0.255 C 
HETATM   32  C1  UNL     1      -3.735  48.470 -26.970  1.00  0.00     0.126 C 
HETATM   33  O1  UNL     1      -3.350  50.365 -28.399  1.00  0.00    -0.266 OA
ENDBRANCH  30  31
ENDBRANCH  25  30
BRANCH  26  34
HETATM   34  O10 UNL     1      -1.133  52.266 -28.149  1.00  0.00    -0.390 OA
HETATM   35  H60 UNL     1      -0.400  52.627 -28.666  1.00  0.00     0.210 HD
ENDBRANCH  26  34
BRANCH  27  36
HETATM   36  O9  UNL     1       1.296  53.136 -26.080  1.00  0.00    -0.391 OA
HETATM   37  H58 UNL     1       1.580  53.639 -25.288  1.00  0.00     0.210 HD
ENDBRANCH  27  36
ENDBRANCH  23  24
ENDBRANCH   1  23
BRANCH  18  38
HETATM   38  O7  UNL     1      -2.506  47.250 -20.240  1.00  0.00    -0.395 OA
HETATM   39  H47 UNL     1      -2.957  47.493 -19.415  1.00  0.00     0.210 HD
ENDBRANCH  18  38
BRANCH  11  40
HETATM   40  C16 UNL     1     -10.527  45.416 -23.620  1.00  0.00     0.065 C 
HETATM   41  C17 UNL     1     -11.641  46.444 -23.272  1.00  0.00     0.046 C 
HETATM   42  C18 UNL     1     -10.221  45.548 -25.116  1.00  0.00     0.041 C 
HETATM   43  C19 UNL     1     -11.314  44.739 -25.778  1.00  0.00     0.038 C 
HETATM   44  C20 UNL     1     -11.774  43.752 -24.700  1.00  0.00     0.156 C 
HETATM   45  O5  UNL     1     -11.056  44.090 -23.488  1.00  0.00    -0.372 OA
BRANCH  44  46
HETATM   46  C21 UNL     1     -11.612  42.243 -25.051  1.00  0.00     0.076 C 
HETATM   47  C22 UNL     1     -12.599  41.810 -26.140  1.00  0.00     0.048 C 
HETATM   48  C23 UNL     1     -11.823  41.380 -23.793  1.00  0.00     0.048 C 
BRANCH  46  49
HETATM   49  O4  UNL     1     -10.295  41.927 -25.532  1.00  0.00    -0.388 OA
HETATM   50  H35 UNL     1      -9.971  42.674 -26.059  1.00  0.00     0.210 HD
ENDBRANCH  46  49
ENDBRANCH  44  46
ENDBRANCH  11  40
BRANCH  12  51
HETATM   51  O6  UNL     1      -8.463  43.346 -23.350  1.00  0.00    -0.395 OA
HETATM   52  H37 UNL     1      -8.554  43.761 -24.230  1.00  0.00     0.210 HD
ENDBRANCH  12  51
TORSDOF 11
ENDMDL
MODEL 9
REMARK minimizedAffinity -8.23055935
REMARK CNNscore 0.301771373
REMARK CNNaffinity 6.46930552
REMARK  11 active torsions:
REMARK  status: ('A' for Active; 'I' for Inactive)
REMARK    1  A    between atoms: C2_2  and  O2_4 
REMARK    2  A    between atoms: O2_4  and  C3_5 
REMARK    3  A    between atoms: C4_6  and  O3_7 
REMARK    4  A    between atoms: O3_7  and  C5_8 
REMARK    5  A    between atoms: C15_18  and  C16_19 
REMARK    6  A    between atoms: C20_23  and  C21_24 
REMARK    7  A    between atoms: C21_24  and  O4_27 
REMARK    8  A    between atoms: C24_29  and  O6_30 
REMARK    9  A    between atoms: C30_36  and  O7_37 
REMARK   10  A    between atoms: C36_44  and  O9_45 
REMARK   11  A    between atoms: C37_46  and  O10_47 
ROOT
HETATM    1  C5  UNL     1     -10.548  45.811 -19.730  1.00  0.00     0.133 C 
HETATM    2  C6  UNL     1      -9.712  44.863 -20.608  1.00  0.00     0.034 C 
HETATM    3  C7  UNL     1      -8.270  45.330 -20.845  1.00  0.00     0.013 C 
HETATM    4  C8  UNL     1      -8.134  46.828 -20.661  1.00  0.00    -0.025 A 
HETATM    5  C9  UNL     1      -8.614  47.663 -21.813  1.00  0.00     0.021 A 
HETATM    6  C10 UNL     1      -7.121  47.668 -21.492  1.00  0.00    -0.027 A 
HETATM    7  C11 UNL     1      -6.249  46.923 -22.515  1.00  0.00     0.011 C 
HETATM    8  C12 UNL     1      -4.969  47.576 -23.039  1.00  0.00     0.011 C 
HETATM    9  C13 UNL     1      -4.987  49.100 -22.972  1.00  0.00    -0.028 C 
HETATM   10  C14 UNL     1      -6.087  49.613 -23.936  1.00  0.00     0.016 C 
HETATM   11  C15 UNL     1      -3.614  49.842 -23.242  1.00  0.00     0.057 C 
HETATM   12  C24 UNL     1      -3.804  51.169 -22.430  1.00  0.00     0.126 C 
HETATM   13  C25 UNL     1      -4.988  50.965 -21.479  1.00  0.00     0.042 C 
HETATM   14  C26 UNL     1      -5.230  49.448 -21.453  1.00  0.00    -0.029 C 
HETATM   15  C27 UNL     1      -4.189  48.807 -20.477  1.00  0.00     0.016 C 
HETATM   16  C28 UNL     1      -6.667  49.059 -20.993  1.00  0.00     0.006 C 
HETATM   17  C29 UNL     1      -6.875  49.211 -19.473  1.00  0.00     0.038 C 
HETATM   18  C30 UNL     1      -8.243  48.750 -18.967  1.00  0.00     0.124 C 
HETATM   19  C31 UNL     1      -8.412  47.232 -19.196  1.00  0.00     0.034 C 
HETATM   20  C32 UNL     1      -9.727  46.541 -18.620  1.00  0.00    -0.015 C 
HETATM   21  C33 UNL     1     -10.669  47.513 -17.881  1.00  0.00     0.018 C 
HETATM   22  C34 UNL     1      -9.310  45.482 -17.561  1.00  0.00     0.018 C 
ENDROOT
BRANCH   1  23
HETATM   23  O3  UNL     1     -11.160  46.787 -20.595  1.00  0.00    -0.352 OA
BRANCH  23  24
HETATM   24  C4  UNL     1     -12.143  46.235 -21.477  1.00  0.00     0.292 C 
HETATM   25  C3  UNL     1     -13.416  47.108 -21.403  1.00  0.00     0.218 C 
HETATM   26  C37 UNL     1     -14.356  46.733 -22.552  1.00  0.00     0.183 C 
HETATM   27  C36 UNL     1     -13.635  46.775 -23.916  1.00  0.00     0.173 C 
HETATM   28  C35 UNL     1     -12.129  47.001 -23.752  1.00  0.00     0.205 C 
HETATM   29  O8  UNL     1     -11.596  46.094 -22.790  1.00  0.00    -0.356 OA
BRANCH  25  30
HETATM   30  O2  UNL     1     -14.094  46.831 -20.151  1.00  0.00    -0.309 OA
BRANCH  30  31
HETATM   31  C2  UNL     1     -14.920  47.799 -19.675  1.00  0.00     0.255 C 
HETATM   32  C1  UNL     1     -14.166  49.083 -19.523  1.00  0.00     0.126 C 
HETATM   33  O1  UNL     1     -16.110  47.672 -19.415  1.00  0.00    -0.266 OA
ENDBRANCH  30  31
ENDBRANCH  25  30
BRANCH  26  34
HETATM   34  O10 UNL     1     -15.467  47.649 -22.582  1.00  0.00    -0.390 OA
HETATM   35  H60 UNL     1     -16.107  47.285 -23.209  1.00  0.00     0.210 HD
ENDBRANCH  26  34
BRANCH  27  36
HETATM   36  O9  UNL     1     -13.904  45.523 -24.576  1.00  0.00    -0.391 OA
HETATM   37  H58 UNL     1     -13.165  45.346 -25.196  1.00  0.00     0.210 HD
ENDBRANCH  27  36
ENDBRANCH  23  24
ENDBRANCH   1  23
BRANCH  18  38
HETATM   38  O7  UNL     1      -8.279  49.063 -17.570  1.00  0.00    -0.395 OA
HETATM   39  H47 UNL     1      -7.541  48.606 -17.135  1.00  0.00     0.210 HD
ENDBRANCH  18  38
BRANCH  11  40
HETATM   40  C16 UNL     1      -2.991  50.003 -24.662  1.00  0.00     0.065 C 
HETATM   41  C17 UNL     1      -2.994  48.640 -25.410  1.00  0.00     0.046 C 
HETATM   42  C18 UNL     1      -3.745  51.015 -25.531  1.00  0.00     0.041 C 
HETATM   43  C19 UNL     1      -2.712  51.455 -26.545  1.00  0.00     0.038 C 
HETATM   44  C20 UNL     1      -1.363  51.176 -25.872  1.00  0.00     0.156 C 
HETATM   45  O5  UNL     1      -1.650  50.510 -24.619  1.00  0.00    -0.372 OA
BRANCH  44  46
HETATM   46  C21 UNL     1      -0.445  52.416 -25.657  1.00  0.00     0.076 C 
HETATM   47  C22 UNL     1       0.984  52.000 -25.295  1.00  0.00     0.048 C 
HETATM   48  C23 UNL     1      -1.018  53.313 -24.545  1.00  0.00     0.048 C 
BRANCH  46  49
HETATM   49  O4  UNL     1      -0.355  53.244 -26.828  1.00  0.00    -0.388 OA
HETATM   50  H35 UNL     1      -0.370  52.674 -27.613  1.00  0.00     0.210 HD
ENDBRANCH  46  49
ENDBRANCH  44  46
ENDBRANCH  11  40
BRANCH  12  51
HETATM   51  O6  UNL     1      -4.046  52.327 -23.212  1.00  0.00    -0.395 OA
HETATM   52  H37 UNL     1      -4.525  52.061 -24.020  1.00  0.00     0.210 HD
ENDBRANCH  12  51
TORSDOF 11
ENDMDL
