MODEL 1
REMARK minimizedAffinity -11.2609901
REMARK  4 active torsions:
REMARK  status: ('A' for Active; 'I' for Inactive)
REMARK    1  A    between atoms: C3_3  and  C4_4 
REMARK    2  A    between atoms: C4_4  and  O1_5 
REMARK    3  A    between atoms: C6_9  and  C7_10 
REMARK    4  A    between atoms: C7_10  and  C9_12 
ROOT
HETATM    1  C9  UNL     1      -0.426  51.111 -25.152  1.00  0.00     0.000 C 
HETATM    2  C10 UNL     1       0.219  52.492 -25.416  1.00  0.00     0.006 C 
HETATM    3  C11 UNL     1       0.547  53.071 -24.021  1.00  0.00     0.006 C 
HETATM    4  C12 UNL     1       0.182  51.947 -23.045  1.00  0.00    -0.001 C 
HETATM    5  C13 UNL     1      -0.043  52.292 -21.566  1.00  0.00    -0.002 C 
HETATM    6  C14 UNL     1       1.231  52.908 -20.975  1.00  0.00     0.040 C 
HETATM    7  C15 UNL     1       1.104  53.192 -19.526  1.00  0.00     0.159 A 
HETATM    8  O4  UNL     1      -0.145  53.734 -19.118  1.00  0.00    -0.368 OA
HETATM    9  C16 UNL     1       0.162  52.398 -18.639  1.00  0.00     0.102 A 
HETATM   10  C17 UNL     1       0.454  52.413 -17.152  1.00  0.00     0.042 C 
HETATM   11  C18 UNL     1       0.036  51.147 -16.425  1.00  0.00     0.010 C 
HETATM   12  C19 UNL     1       0.332  49.942 -17.286  1.00  0.00     0.079 C 
HETATM   13  C20 UNL     1      -0.617  49.977 -18.458  1.00  0.00     0.138 C 
HETATM   14  O5  UNL     1      -1.239  48.954 -18.757  1.00  0.00    -0.297 OA
HETATM   15  C21 UNL     1      -0.770  51.312 -19.237  1.00  0.00     0.054 C 
HETATM   16  C22 UNL     1      -2.234  51.773 -19.043  1.00  0.00     0.027 C 
HETATM   17  C23 UNL     1      -0.433  51.008 -20.761  1.00  0.00     0.009 C 
HETATM   18  C24 UNL     1      -1.537  50.181 -21.496  1.00  0.00     0.007 C 
HETATM   19  C25 UNL     1      -1.272  49.945 -22.991  1.00  0.00     0.010 C 
HETATM   20  C26 UNL     1      -1.028  51.264 -23.726  1.00  0.00    -0.036 C 
HETATM   21  C27 UNL     1      -2.296  52.150 -23.672  1.00  0.00     0.016 C 
ENDROOT
BRANCH   1  22
HETATM   22  C7  UNL     1      -1.198  50.424 -26.310  1.00  0.00     0.016 C 
HETATM   23  C8  UNL     1      -1.111  51.293 -27.581  1.00  0.00     0.013 C 
BRANCH  22  24
HETATM   24  C6  UNL     1      -2.637  49.903 -26.084  1.00  0.00     0.140 C 
HETATM   25  O3  UNL     1      -2.631  49.144 -24.851  1.00  0.00    -0.311 OA
HETATM   26  C5  UNL     1      -3.778  48.556 -24.431  1.00  0.00     0.292 C 
HETATM   27  C3  UNL     1      -4.862  48.373 -25.441  1.00  0.00     0.042 C 
HETATM   28  O2  UNL     1      -3.908  48.164 -23.276  1.00  0.00    -0.260 OA
HETATM   29  C2  UNL     1      -4.579  48.525 -26.754  1.00  0.00    -0.067 C 
HETATM   30  C1  UNL     1      -5.533  48.218 -27.876  1.00  0.00     0.044 C 
HETATM   31  C28 UNL     1      -3.223  49.026 -27.185  1.00  0.00     0.067 C 
BRANCH  27  32
HETATM   32  C4  UNL     1      -6.168  47.978 -24.800  1.00  0.00     0.209 C 
BRANCH  32  33
HETATM   33  O1  UNL     1      -7.064  49.078 -24.677  1.00  0.00    -0.396 OA
HETATM   34  H6  UNL     1      -7.798  48.778 -24.115  1.00  0.00     0.209 HD
ENDBRANCH  32  33
ENDBRANCH  27  32
ENDBRANCH  22  24
ENDBRANCH   1  22
TORSDOF 4
ENDMDL
MODEL 2
REMARK minimizedAffinity -10.5422029
REMARK  4 active torsions:
REMARK  status: ('A' for Active; 'I' for Inactive)
REMARK    1  A    between atoms: C3_3  and  C4_4 
REMARK    2  A    between atoms: C4_4  and  O1_5 
REMARK    3  A    between atoms: C6_9  and  C7_10 
REMARK    4  A    between atoms: C7_10  and  C9_12 
ROOT
HETATM    1  C9  UNL     1      -0.392  51.484 -21.018  1.00  0.00     0.000 C 
HETATM    2  C10 UNL     1       0.029  52.972 -20.999  1.00  0.00     0.006 C 
HETATM    3  C11 UNL     1       0.560  53.236 -19.572  1.00  0.00     0.006 C 
HETATM    4  C12 UNL     1       0.524  51.864 -18.890  1.00  0.00    -0.001 C 
HETATM    5  C13 UNL     1       0.560  51.796 -17.357  1.00  0.00    -0.002 C 
HETATM    6  C14 UNL     1       1.849  52.443 -16.836  1.00  0.00     0.040 C 
HETATM    7  C15 UNL     1       1.980  52.339 -15.363  1.00  0.00     0.159 A 
HETATM    8  O4  UNL     1       0.785  52.558 -14.628  1.00  0.00    -0.368 OA
HETATM    9  C16 UNL     1       1.327  51.212 -14.584  1.00  0.00     0.102 A 
HETATM   10  C17 UNL     1       1.905  50.908 -13.216  1.00  0.00     0.042 C 
HETATM   11  C18 UNL     1       1.783  49.453 -12.800  1.00  0.00     0.010 C 
HETATM   12  C19 UNL     1       2.036  48.559 -13.991  1.00  0.00     0.079 C 
HETATM   13  C20 UNL     1       0.875  48.728 -14.941  1.00  0.00     0.138 C 
HETATM   14  O5  UNL     1       0.324  47.724 -15.399  1.00  0.00    -0.297 OA
HETATM   15  C21 UNL     1       0.422  50.171 -15.294  1.00  0.00     0.054 C 
HETATM   16  C22 UNL     1      -1.016  50.331 -14.748  1.00  0.00     0.027 C 
HETATM   17  C23 UNL     1       0.483  50.308 -16.877  1.00  0.00     0.009 C 
HETATM   18  C24 UNL     1      -0.646  49.522 -17.619  1.00  0.00     0.007 C 
HETATM   19  C25 UNL     1      -0.658  49.704 -19.144  1.00  0.00     0.010 C 
HETATM   20  C26 UNL     1      -0.713  51.185 -19.525  1.00  0.00    -0.036 C 
HETATM   21  C27 UNL     1      -2.036  51.816 -19.029  1.00  0.00     0.016 C 
ENDROOT
BRANCH   1  22
HETATM   22  C7  UNL     1      -1.297  50.988 -22.176  1.00  0.00     0.016 C 
HETATM   23  C8  UNL     1      -1.458  49.456 -22.092  1.00  0.00     0.013 C 
BRANCH  22  24
HETATM   24  C6  UNL     1      -1.020  51.442 -23.629  1.00  0.00     0.140 C 
HETATM   25  O3  UNL     1      -0.296  52.695 -23.557  1.00  0.00    -0.311 OA
HETATM   26  C5  UNL     1       0.055  53.322 -24.707  1.00  0.00     0.292 C 
HETATM   27  C3  UNL     1      -0.662  52.920 -25.952  1.00  0.00     0.042 C 
HETATM   28  O2  UNL     1       0.906  54.205 -24.716  1.00  0.00    -0.260 OA
HETATM   29  C2  UNL     1      -1.793  52.183 -25.859  1.00  0.00    -0.067 C 
HETATM   30  C1  UNL     1      -2.692  51.847 -27.017  1.00  0.00     0.044 C 
HETATM   31  C28 UNL     1      -2.238  51.643 -24.524  1.00  0.00     0.067 C 
BRANCH  27  32
HETATM   32  C4  UNL     1       0.002  53.471 -27.188  1.00  0.00     0.209 C 
BRANCH  32  33
HETATM   33  O1  UNL     1      -0.222  54.868 -27.345  1.00  0.00    -0.396 OA
HETATM   34  H6  UNL     1       0.093  55.103 -28.234  1.00  0.00     0.209 HD
ENDBRANCH  32  33
ENDBRANCH  27  32
ENDBRANCH  22  24
ENDBRANCH   1  22
TORSDOF 4
ENDMDL
MODEL 3
REMARK minimizedAffinity -10.3997736
REMARK  4 active torsions:
REMARK  status: ('A' for Active; 'I' for Inactive)
REMARK    1  A    between atoms: C3_3  and  C4_4 
REMARK    2  A    between atoms: C4_4  and  O1_5 
REMARK    3  A    between atoms: C6_9  and  C7_10 
REMARK    4  A    between atoms: C7_10  and  C9_12 
ROOT
HETATM    1  C9  UNL     1      -1.257  50.585 -21.377  1.00  0.00     0.000 C 
HETATM    2  C10 UNL     1      -0.829  52.031 -21.721  1.00  0.00     0.006 C 
HETATM    3  C11 UNL     1      -0.097  52.558 -20.467  1.00  0.00     0.006 C 
HETATM    4  C12 UNL     1      -0.042  51.354 -19.521  1.00  0.00    -0.001 C 
HETATM    5  C13 UNL     1       0.213  51.595 -18.026  1.00  0.00    -0.002 C 
HETATM    6  C14 UNL     1       1.567  52.289 -17.834  1.00  0.00     0.040 C 
HETATM    7  C15 UNL     1       1.908  52.480 -16.404  1.00  0.00     0.159 A 
HETATM    8  O4  UNL     1       0.832  52.885 -15.569  1.00  0.00    -0.368 OA
HETATM    9  C16 UNL     1       1.367  51.557 -15.327  1.00  0.00     0.102 A 
HETATM   10  C17 UNL     1       2.133  51.516 -14.021  1.00  0.00     0.042 C 
HETATM   11  C18 UNL     1       2.065  50.179 -13.303  1.00  0.00     0.010 C 
HETATM   12  C19 UNL     1       2.139  49.055 -14.309  1.00  0.00     0.079 C 
HETATM   13  C20 UNL     1       0.855  49.069 -15.102  1.00  0.00     0.138 C 
HETATM   14  O5  UNL     1       0.239  48.013 -15.264  1.00  0.00    -0.297 OA
HETATM   15  C21 UNL     1       0.364  50.426 -15.676  1.00  0.00     0.054 C 
HETATM   16  C22 UNL     1      -0.980  50.742 -14.979  1.00  0.00     0.027 C 
HETATM   17  C23 UNL     1       0.198  50.238 -17.246  1.00  0.00     0.009 C 
HETATM   18  C24 UNL     1      -1.030  49.358 -17.647  1.00  0.00     0.007 C 
HETATM   19  C25 UNL     1      -1.260  49.230 -19.161  1.00  0.00     0.010 C 
HETATM   20  C26 UNL     1      -1.361  50.604 -19.825  1.00  0.00    -0.036 C 
HETATM   21  C27 UNL     1      -2.596  51.368 -19.289  1.00  0.00     0.016 C 
ENDROOT
BRANCH   1  22
HETATM   22  C7  UNL     1      -2.320  49.897 -22.272  1.00  0.00     0.016 C 
HETATM   23  C8  UNL     1      -2.443  48.409 -21.885  1.00  0.00     0.013 C 
BRANCH  22  24
HETATM   24  C6  UNL     1      -2.278  50.074 -23.808  1.00  0.00     0.140 C 
HETATM   25  O3  UNL     1      -2.898  51.348 -24.112  1.00  0.00    -0.311 OA
HETATM   26  C5  UNL     1      -3.007  51.738 -25.405  1.00  0.00     0.292 C 
HETATM   27  C3  UNL     1      -2.865  50.685 -26.452  1.00  0.00     0.042 C 
HETATM   28  O2  UNL     1      -3.243  52.905 -25.700  1.00  0.00    -0.260 OA
HETATM   29  C2  UNL     1      -2.918  49.382 -26.095  1.00  0.00    -0.067 C 
HETATM   30  C1  UNL     1      -2.946  48.229 -27.062  1.00  0.00     0.044 C 
HETATM   31  C28 UNL     1      -2.966  48.996 -24.638  1.00  0.00     0.067 C 
BRANCH  27  32
HETATM   32  C4  UNL     1      -2.721  51.276 -27.831  1.00  0.00     0.209 C 
BRANCH  32  33
HETATM   33  O1  UNL     1      -3.560  50.634 -28.785  1.00  0.00    -0.396 OA
HETATM   34  H6  UNL     1      -3.287  50.959 -29.660  1.00  0.00     0.209 HD
ENDBRANCH  32  33
ENDBRANCH  27  32
ENDBRANCH  22  24
ENDBRANCH   1  22
TORSDOF 4
ENDMDL
MODEL 4
REMARK minimizedAffinity -10.3182631
REMARK  4 active torsions:
REMARK  status: ('A' for Active; 'I' for Inactive)
REMARK    1  A    between atoms: C3_3  and  C4_4 
REMARK    2  A    between atoms: C4_4  and  O1_5 
REMARK    3  A    between atoms: C6_9  and  C7_10 
REMARK    4  A    between atoms: C7_10  and  C9_12 
ROOT
HETATM    1  C9  UNL     1      -0.029  51.954 -21.295  1.00  0.00     0.000 C 
HETATM    2  C10 UNL     1       0.599  53.363 -21.188  1.00  0.00     0.006 C 
HETATM    3  C11 UNL     1       1.071  53.498 -19.723  1.00  0.00     0.006 C 
HETATM    4  C12 UNL     1       0.796  52.124 -19.104  1.00  0.00    -0.001 C 
HETATM    5  C13 UNL     1       0.724  51.999 -17.575  1.00  0.00    -0.002 C 
HETATM    6  C14 UNL     1       2.057  52.433 -16.954  1.00  0.00     0.040 C 
HETATM    7  C15 UNL     1       2.078  52.262 -15.481  1.00  0.00     0.159 A 
HETATM    8  O4  UNL     1       0.883  52.628 -14.807  1.00  0.00    -0.368 OA
HETATM    9  C16 UNL     1       1.223  51.216 -14.790  1.00  0.00     0.102 A 
HETATM   10  C17 UNL     1       1.663  50.786 -13.405  1.00  0.00     0.042 C 
HETATM   11  C18 UNL     1       1.308  49.351 -13.060  1.00  0.00     0.010 C 
HETATM   12  C19 UNL     1       1.504  48.469 -14.271  1.00  0.00     0.079 C 
HETATM   13  C20 UNL     1       0.442  48.838 -15.278  1.00  0.00     0.138 C 
HETATM   14  O5  UNL     1      -0.216  47.941 -15.810  1.00  0.00    -0.297 OA
HETATM   15  C21 UNL     1       0.225  50.343 -15.594  1.00  0.00     0.054 C 
HETATM   16  C22 UNL     1      -1.207  50.692 -15.126  1.00  0.00     0.027 C 
HETATM   17  C23 UNL     1       0.404  50.523 -17.164  1.00  0.00     0.009 C 
HETATM   18  C24 UNL     1      -0.777  49.935 -18.003  1.00  0.00     0.007 C 
HETATM   19  C25 UNL     1      -0.665  50.169 -19.518  1.00  0.00     0.010 C 
HETATM   20  C26 UNL     1      -0.483  51.654 -19.837  1.00  0.00    -0.036 C 
HETATM   21  C27 UNL     1      -1.730  52.454 -19.392  1.00  0.00     0.016 C 
ENDROOT
BRANCH   1  22
HETATM   22  C7  UNL     1      -0.920  51.634 -22.524  1.00  0.00     0.016 C 
HETATM   23  C8  UNL     1      -1.235  50.125 -22.561  1.00  0.00     0.013 C 
BRANCH  22  24
HETATM   24  C6  UNL     1      -0.529  52.159 -23.926  1.00  0.00     0.140 C 
HETATM   25  O3  UNL     1      -1.736  52.186 -24.727  1.00  0.00    -0.311 OA
HETATM   26  C5  UNL     1      -1.663  52.593 -26.018  1.00  0.00     0.292 C 
HETATM   27  C3  UNL     1      -0.315  52.598 -26.658  1.00  0.00     0.042 C 
HETATM   28  O2  UNL     1      -2.668  52.915 -26.642  1.00  0.00    -0.260 OA
HETATM   29  C2  UNL     1       0.709  51.952 -26.057  1.00  0.00    -0.067 C 
HETATM   30  C1  UNL     1       2.069  51.747 -26.668  1.00  0.00     0.044 C 
HETATM   31  C28 UNL     1       0.531  51.364 -24.680  1.00  0.00     0.067 C 
BRANCH  27  32
HETATM   32  C4  UNL     1      -0.321  53.329 -27.977  1.00  0.00     0.209 C 
BRANCH  32  33
HETATM   33  O1  UNL     1      -0.924  54.615 -27.880  1.00  0.00    -0.396 OA
HETATM   34  H6  UNL     1      -1.033  54.941 -28.790  1.00  0.00     0.209 HD
ENDBRANCH  32  33
ENDBRANCH  27  32
ENDBRANCH  22  24
ENDBRANCH   1  22
TORSDOF 4
ENDMDL
MODEL 5
REMARK minimizedAffinity -10.0819149
REMARK  4 active torsions:
REMARK  status: ('A' for Active; 'I' for Inactive)
REMARK    1  A    between atoms: C3_3  and  C4_4 
REMARK    2  A    between atoms: C4_4  and  O1_5 
REMARK    3  A    between atoms: C6_9  and  C7_10 
REMARK    4  A    between atoms: C7_10  and  C9_12 
ROOT
HETATM    1  C9  UNL     1      -0.580  50.890 -19.543  1.00  0.00     0.000 C 
HETATM    2  C10 UNL     1      -1.107  49.518 -19.059  1.00  0.00     0.006 C 
HETATM    3  C11 UNL     1      -1.802  48.884 -20.285  1.00  0.00     0.006 C 
HETATM    4  C12 UNL     1      -1.536  49.869 -21.428  1.00  0.00    -0.001 C 
HETATM    5  C13 UNL     1      -2.422  49.809 -22.680  1.00  0.00    -0.002 C 
HETATM    6  C14 UNL     1      -2.305  48.428 -23.336  1.00  0.00     0.040 C 
HETATM    7  C15 UNL     1      -3.078  48.332 -24.597  1.00  0.00     0.159 A 
HETATM    8  O4  UNL     1      -4.358  48.949 -24.576  1.00  0.00    -0.368 OA
HETATM    9  C16 UNL     1      -3.368  49.556 -25.448  1.00  0.00     0.102 A 
HETATM   10  C17 UNL     1      -3.707  49.306 -26.904  1.00  0.00     0.042 C 
HETATM   11  C18 UNL     1      -3.286  50.424 -27.840  1.00  0.00     0.010 C 
HETATM   12  C19 UNL     1      -1.942  50.969 -27.414  1.00  0.00     0.079 C 
HETATM   13  C20 UNL     1      -2.140  51.692 -26.104  1.00  0.00     0.138 C 
HETATM   14  O5  UNL     1      -1.670  52.824 -25.968  1.00  0.00    -0.297 OA
HETATM   15  C21 UNL     1      -2.936  50.971 -24.983  1.00  0.00     0.054 C 
HETATM   16  C22 UNL     1      -4.213  51.808 -24.738  1.00  0.00     0.027 C 
HETATM   17  C23 UNL     1      -1.997  50.918 -23.700  1.00  0.00     0.009 C 
HETATM   18  C24 UNL     1      -1.811  52.303 -23.000  1.00  0.00     0.007 C 
HETATM   19  C25 UNL     1      -0.974  52.263 -21.712  1.00  0.00     0.010 C 
HETATM   20  C26 UNL     1      -1.535  51.244 -20.719  1.00  0.00    -0.036 C 
HETATM   21  C27 UNL     1      -2.956  51.662 -20.268  1.00  0.00     0.016 C 
ENDROOT
BRANCH   1  22
HETATM   22  C7  UNL     1      -0.153  51.933 -18.477  1.00  0.00     0.016 C 
HETATM   23  C8  UNL     1       0.253  53.250 -19.171  1.00  0.00     0.013 C 
BRANCH  22  24
HETATM   24  C6  UNL     1       0.858  51.547 -17.371  1.00  0.00     0.140 C 
HETATM   25  O3  UNL     1       0.115  51.420 -16.134  1.00  0.00    -0.311 OA
HETATM   26  C5  UNL     1       0.778  51.104 -14.995  1.00  0.00     0.292 C 
HETATM   27  C3  UNL     1       2.256  51.306 -14.986  1.00  0.00     0.042 C 
HETATM   28  O2  UNL     1       0.182  50.698 -14.003  1.00  0.00    -0.260 OA
HETATM   29  C2  UNL     1       2.834  52.038 -15.966  1.00  0.00    -0.067 C 
HETATM   30  C1  UNL     1       4.281  52.447 -15.989  1.00  0.00     0.044 C 
HETATM   31  C28 UNL     1       2.015  52.513 -17.139  1.00  0.00     0.067 C 
BRANCH  27  32
HETATM   32  C4  UNL     1       2.906  50.663 -13.787  1.00  0.00     0.209 C 
BRANCH  32  33
HETATM   33  O1  UNL     1       2.756  49.247 -13.786  1.00  0.00    -0.396 OA
HETATM   34  H6  UNL     1       3.051  48.936 -12.914  1.00  0.00     0.209 HD
ENDBRANCH  32  33
ENDBRANCH  27  32
ENDBRANCH  22  24
ENDBRANCH   1  22
TORSDOF 4
ENDMDL
MODEL 6
REMARK minimizedAffinity -9.97557354
REMARK  4 active torsions:
REMARK  status: ('A' for Active; 'I' for Inactive)
REMARK    1  A    between atoms: C3_3  and  C4_4 
REMARK    2  A    between atoms: C4_4  and  O1_5 
REMARK    3  A    between atoms: C6_9  and  C7_10 
REMARK    4  A    between atoms: C7_10  and  C9_12 
ROOT
HETATM    1  C9  UNL     1      -2.195  48.447 -19.972  1.00  0.00     0.000 C 
HETATM    2  C10 UNL     1      -3.484  47.668 -20.321  1.00  0.00     0.006 C 
HETATM    3  C11 UNL     1      -3.742  47.940 -21.820  1.00  0.00     0.006 C 
HETATM    4  C12 UNL     1      -2.530  48.760 -22.274  1.00  0.00    -0.001 C 
HETATM    5  C13 UNL     1      -2.631  49.581 -23.568  1.00  0.00    -0.002 C 
HETATM    6  C14 UNL     1      -2.924  48.652 -24.752  1.00  0.00     0.040 C 
HETATM    7  C15 UNL     1      -2.956  49.376 -26.046  1.00  0.00     0.159 A 
HETATM    8  O4  UNL     1      -3.602  50.642 -26.020  1.00  0.00    -0.368 OA
HETATM    9  C16 UNL     1      -2.170  50.656 -26.261  1.00  0.00     0.102 A 
HETATM   10  C17 UNL     1      -1.869  51.036 -27.696  1.00  0.00     0.042 C 
HETATM   11  C18 UNL     1      -0.572  51.805 -27.876  1.00  0.00     0.010 C 
HETATM   12  C19 UNL     1       0.488  51.241 -26.959  1.00  0.00     0.079 C 
HETATM   13  C20 UNL     1       0.094  51.586 -25.544  1.00  0.00     0.138 C 
HETATM   14  O5  UNL     1       0.937  52.079 -24.791  1.00  0.00    -0.297 OA
HETATM   15  C21 UNL     1      -1.368  51.304 -25.101  1.00  0.00     0.054 C 
HETATM   16  C22 UNL     1      -2.006  52.675 -24.780  1.00  0.00     0.027 C 
HETATM   17  C23 UNL     1      -1.297  50.360 -23.823  1.00  0.00     0.009 C 
HETATM   18  C24 UNL     1      -0.799  51.086 -22.532  1.00  0.00     0.007 C 
HETATM   19  C25 UNL     1      -0.800  50.216 -21.266  1.00  0.00     0.010 C 
HETATM   20  C26 UNL     1      -2.177  49.596 -21.021  1.00  0.00    -0.036 C 
HETATM   21  C27 UNL     1      -3.223  50.705 -20.754  1.00  0.00     0.016 C 
ENDROOT
BRANCH   1  22
HETATM   22  C7  UNL     1      -1.857  48.683 -18.476  1.00  0.00     0.016 C 
HETATM   23  C8  UNL     1      -3.140  49.058 -17.706  1.00  0.00     0.013 C 
BRANCH  22  24
HETATM   24  C6  UNL     1      -0.677  49.602 -18.080  1.00  0.00     0.140 C 
HETATM   25  O3  UNL     1      -0.378  49.341 -16.687  1.00  0.00    -0.311 OA
HETATM   26  C5  UNL     1       0.614  50.039 -16.083  1.00  0.00     0.292 C 
HETATM   27  C3  UNL     1       1.064  51.300 -16.741  1.00  0.00     0.042 C 
HETATM   28  O2  UNL     1       1.102  49.663 -15.022  1.00  0.00    -0.260 OA
HETATM   29  C2  UNL     1       0.308  51.842 -17.723  1.00  0.00    -0.067 C 
HETATM   30  C1  UNL     1       0.562  53.183 -18.357  1.00  0.00     0.044 C 
HETATM   31  C28 UNL     1      -0.894  51.101 -18.252  1.00  0.00     0.067 C 
BRANCH  27  32
HETATM   32  C4  UNL     1       2.342  51.825 -16.141  1.00  0.00     0.209 C 
BRANCH  32  33
HETATM   33  O1  UNL     1       2.491  53.229 -16.328  1.00  0.00    -0.396 OA
HETATM   34  H6  UNL     1       3.400  53.451 -16.063  1.00  0.00     0.209 HD
ENDBRANCH  32  33
ENDBRANCH  27  32
ENDBRANCH  22  24
ENDBRANCH   1  22
TORSDOF 4
ENDMDL
MODEL 7
REMARK minimizedAffinity -9.89402294
REMARK  4 active torsions:
REMARK  status: ('A' for Active; 'I' for Inactive)
REMARK    1  A    between atoms: C3_3  and  C4_4 
REMARK    2  A    between atoms: C4_4  and  O1_5 
REMARK    3  A    between atoms: C6_9  and  C7_10 
REMARK    4  A    between atoms: C7_10  and  C9_12 
ROOT
HETATM    1  C9  UNL     1      -0.519  52.668 -21.576  1.00  0.00     0.000 C 
HETATM    2  C10 UNL     1       0.427  52.560 -22.795  1.00  0.00     0.006 C 
HETATM    3  C11 UNL     1      -0.329  51.702 -23.834  1.00  0.00     0.006 C 
HETATM    4  C12 UNL     1      -1.706  51.464 -23.205  1.00  0.00    -0.001 C 
HETATM    5  C13 UNL     1      -2.572  50.309 -23.727  1.00  0.00    -0.002 C 
HETATM    6  C14 UNL     1      -2.867  50.512 -25.218  1.00  0.00     0.040 C 
HETATM    7  C15 UNL     1      -3.766  49.467 -25.764  1.00  0.00     0.159 A 
HETATM    8  O4  UNL     1      -3.509  48.145 -25.314  1.00  0.00    -0.368 OA
HETATM    9  C16 UNL     1      -4.764  48.736 -24.885  1.00  0.00     0.102 A 
HETATM   10  C17 UNL     1      -5.936  48.081 -25.587  1.00  0.00     0.042 C 
HETATM   11  C18 UNL     1      -7.203  48.019 -24.753  1.00  0.00     0.010 C 
HETATM   12  C19 UNL     1      -7.358  49.298 -23.962  1.00  0.00     0.079 C 
HETATM   13  C20 UNL     1      -6.273  49.317 -22.913  1.00  0.00     0.138 C 
HETATM   14  O5  UNL     1      -6.573  49.580 -21.746  1.00  0.00    -0.297 OA
HETATM   15  C21 UNL     1      -4.820  48.996 -23.357  1.00  0.00     0.054 C 
HETATM   16  C22 UNL     1      -4.413  47.692 -22.631  1.00  0.00     0.027 C 
HETATM   17  C23 UNL     1      -3.915  50.231 -22.927  1.00  0.00     0.009 C 
HETATM   18  C24 UNL     1      -3.672  50.326 -21.385  1.00  0.00     0.007 C 
HETATM   19  C25 UNL     1      -2.734  51.463 -20.953  1.00  0.00     0.010 C 
HETATM   20  C26 UNL     1      -1.396  51.388 -21.691  1.00  0.00    -0.036 C 
HETATM   21  C27 UNL     1      -0.652  50.083 -21.319  1.00  0.00     0.016 C 
ENDROOT
BRANCH   1  22
HETATM   22  C7  UNL     1       0.070  53.152 -20.225  1.00  0.00     0.016 C 
HETATM   23  C8  UNL     1       1.368  53.946 -20.478  1.00  0.00     0.013 C 
BRANCH  22  24
HETATM   24  C6  UNL     1       0.240  52.161 -19.049  1.00  0.00     0.140 C 
HETATM   25  O3  UNL     1      -1.083  51.873 -18.535  1.00  0.00    -0.311 OA
HETATM   26  C5  UNL     1      -1.213  51.036 -17.477  1.00  0.00     0.292 C 
HETATM   27  C3  UNL     1       0.004  50.784 -16.651  1.00  0.00     0.042 C 
HETATM   28  O2  UNL     1      -2.294  50.530 -17.194  1.00  0.00    -0.260 OA
HETATM   29  C2  UNL     1       1.083  51.586 -16.797  1.00  0.00    -0.067 C 
HETATM   30  C1  UNL     1       2.307  51.541 -15.922  1.00  0.00     0.044 C 
HETATM   31  C28 UNL     1       1.115  52.623 -17.890  1.00  0.00     0.067 C 
BRANCH  27  32
HETATM   32  C4  UNL     1      -0.192  49.636 -15.694  1.00  0.00     0.209 C 
BRANCH  32  33
HETATM   33  O1  UNL     1       0.256  48.398 -16.235  1.00  0.00    -0.396 OA
HETATM   34  H6  UNL     1      -0.054  47.701 -15.632  1.00  0.00     0.209 HD
ENDBRANCH  32  33
ENDBRANCH  27  32
ENDBRANCH  22  24
ENDBRANCH   1  22
TORSDOF 4
ENDMDL
MODEL 8
REMARK minimizedAffinity -9.87720013
REMARK  4 active torsions:
REMARK  status: ('A' for Active; 'I' for Inactive)
REMARK    1  A    between atoms: C3_3  and  C4_4 
REMARK    2  A    between atoms: C4_4  and  O1_5 
REMARK    3  A    between atoms: C6_9  and  C7_10 
REMARK    4  A    between atoms: C7_10  and  C9_12 
ROOT
HETATM    1  C9  UNL     1      -6.209  49.156 -22.527  1.00  0.00     0.000 C 
HETATM    2  C10 UNL     1      -6.868  49.040 -21.133  1.00  0.00     0.006 C 
HETATM    3  C11 UNL     1      -5.843  49.630 -20.138  1.00  0.00     0.006 C 
HETATM    4  C12 UNL     1      -4.709  50.156 -21.024  1.00  0.00    -0.001 C 
HETATM    5  C13 UNL     1      -3.332  50.412 -20.394  1.00  0.00    -0.002 C 
HETATM    6  C14 UNL     1      -3.456  51.457 -19.279  1.00  0.00     0.040 C 
HETATM    7  C15 UNL     1      -2.145  51.807 -18.682  1.00  0.00     0.159 A 
HETATM    8  O4  UNL     1      -1.260  50.715 -18.471  1.00  0.00    -0.368 OA
HETATM    9  C16 UNL     1      -0.854  51.687 -19.471  1.00  0.00     0.102 A 
HETATM   10  C17 UNL     1       0.322  52.507 -18.978  1.00  0.00     0.042 C 
HETATM   11  C18 UNL     1       1.274  52.947 -20.075  1.00  0.00     0.010 C 
HETATM   12  C19 UNL     1       0.491  53.333 -21.308  1.00  0.00     0.079 C 
HETATM   13  C20 UNL     1      -0.109  52.071 -21.879  1.00  0.00     0.138 C 
HETATM   14  O5  UNL     1       0.010  51.844 -23.085  1.00  0.00    -0.297 OA
HETATM   15  C21 UNL     1      -0.850  51.110 -20.910  1.00  0.00     0.054 C 
HETATM   16  C22 UNL     1      -0.047  49.788 -20.897  1.00  0.00     0.027 C 
HETATM   17  C23 UNL     1      -2.322  50.913 -21.480  1.00  0.00     0.009 C 
HETATM   18  C24 UNL     1      -2.384  50.035 -22.772  1.00  0.00     0.007 C 
HETATM   19  C25 UNL     1      -3.803  49.763 -23.294  1.00  0.00     0.010 C 
HETATM   20  C26 UNL     1      -4.687  49.155 -22.204  1.00  0.00    -0.036 C 
HETATM   21  C27 UNL     1      -4.138  47.772 -21.779  1.00  0.00     0.016 C 
ENDROOT
BRANCH   1  22
HETATM   22  C7  UNL     1      -6.810  48.334 -23.698  1.00  0.00     0.016 C 
HETATM   23  C8  UNL     1      -6.896  46.847 -23.299  1.00  0.00     0.013 C 
BRANCH  22  24
HETATM   24  C6  UNL     1      -6.252  48.499 -25.132  1.00  0.00     0.140 C 
HETATM   25  O3  UNL     1      -7.017  47.621 -25.994  1.00  0.00    -0.311 OA
HETATM   26  C5  UNL     1      -6.712  47.561 -27.313  1.00  0.00     0.292 C 
HETATM   27  C3  UNL     1      -5.372  48.071 -27.729  1.00  0.00     0.042 C 
HETATM   28  O2  UNL     1      -7.493  47.080 -28.126  1.00  0.00    -0.260 OA
HETATM   29  C2  UNL     1      -4.428  48.301 -26.789  1.00  0.00    -0.067 C 
HETATM   30  C1  UNL     1      -2.997  48.663 -27.085  1.00  0.00     0.044 C 
HETATM   31  C28 UNL     1      -4.772  48.192 -25.326  1.00  0.00     0.067 C 
BRANCH  27  32
HETATM   32  C4  UNL     1      -5.264  48.214 -29.226  1.00  0.00     0.209 C 
BRANCH  32  33
HETATM   33  O1  UNL     1      -4.561  49.392 -29.607  1.00  0.00    -0.396 OA
HETATM   34  H6  UNL     1      -4.680  49.490 -30.567  1.00  0.00     0.209 HD
ENDBRANCH  32  33
ENDBRANCH  27  32
ENDBRANCH  22  24
ENDBRANCH   1  22
TORSDOF 4
ENDMDL
MODEL 9
REMARK minimizedAffinity -9.8586731
REMARK  4 active torsions:
REMARK  status: ('A' for Active; 'I' for Inactive)
REMARK    1  A    between atoms: C3_3  and  C4_4 
REMARK    2  A    between atoms: C4_4  and  O1_5 
REMARK    3  A    between atoms: C6_9  and  C7_10 
REMARK    4  A    between atoms: C7_10  and  C9_12 
ROOT
HETATM    1  C9  UNL     1       0.319  50.831 -17.829  1.00  0.00     0.000 C 
HETATM    2  C10 UNL     1      -0.369  49.551 -17.298  1.00  0.00     0.006 C 
HETATM    3  C11 UNL     1      -1.110  48.944 -18.511  1.00  0.00     0.006 C 
HETATM    4  C12 UNL     1      -0.713  49.839 -19.689  1.00  0.00    -0.001 C 
HETATM    5  C13 UNL     1      -1.577  49.823 -20.958  1.00  0.00    -0.002 C 
HETATM    6  C14 UNL     1      -1.606  48.409 -21.550  1.00  0.00     0.040 C 
HETATM    7  C15 UNL     1      -2.363  48.343 -22.824  1.00  0.00     0.159 A 
HETATM    8  O4  UNL     1      -3.564  49.101 -22.859  1.00  0.00    -0.368 OA
HETATM    9  C16 UNL     1      -2.495  49.551 -23.734  1.00  0.00     0.102 A 
HETATM   10  C17 UNL     1      -2.835  49.275 -25.184  1.00  0.00     0.042 C 
HETATM   11  C18 UNL     1      -2.272  50.295 -26.158  1.00  0.00     0.010 C 
HETATM   12  C19 UNL     1      -0.883  50.702 -25.725  1.00  0.00     0.079 C 
HETATM   13  C20 UNL     1      -1.020  51.502 -24.453  1.00  0.00     0.138 C 
HETATM   14  O5  UNL     1      -0.427  52.579 -24.356  1.00  0.00    -0.297 OA
HETATM   15  C21 UNL     1      -1.914  50.928 -23.320  1.00  0.00     0.054 C 
HETATM   16  C22 UNL     1      -3.091  51.915 -23.141  1.00  0.00     0.027 C 
HETATM   17  C23 UNL     1      -1.010  50.828 -22.015  1.00  0.00     0.009 C 
HETATM   18  C24 UNL     1      -0.680  52.214 -21.372  1.00  0.00     0.007 C 
HETATM   19  C25 UNL     1       0.123  52.138 -20.064  1.00  0.00     0.010 C 
HETATM   20  C26 UNL     1      -0.568  51.236 -19.041  1.00  0.00    -0.036 C 
HETATM   21  C27 UNL     1      -1.940  51.832 -18.642  1.00  0.00     0.016 C 
ENDROOT
BRANCH   1  22
HETATM   22  C7  UNL     1       0.843  51.867 -16.800  1.00  0.00     0.016 C 
HETATM   23  C8  UNL     1       2.089  52.579 -17.367  1.00  0.00     0.013 C 
BRANCH  22  24
HETATM   24  C6  UNL     1       1.055  51.459 -15.322  1.00  0.00     0.140 C 
HETATM   25  O3  UNL     1       0.411  52.464 -14.502  1.00  0.00    -0.311 OA
HETATM   26  C5  UNL     1       0.467  52.350 -13.153  1.00  0.00     0.292 C 
HETATM   27  C3  UNL     1       1.513  51.450 -12.585  1.00  0.00     0.042 C 
HETATM   28  O2  UNL     1      -0.292  52.985 -12.428  1.00  0.00    -0.260 OA
HETATM   29  C2  UNL     1       2.518  51.017 -13.378  1.00  0.00    -0.067 C 
HETATM   30  C1  UNL     1       3.714  50.240 -12.897  1.00  0.00     0.044 C 
HETATM   31  C28 UNL     1       2.499  51.312 -14.857  1.00  0.00     0.067 C 
BRANCH  27  32
HETATM   32  C4  UNL     1       1.294  51.189 -11.116  1.00  0.00     0.209 C 
BRANCH  32  33
HETATM   33  O1  UNL     1       1.798  52.240 -10.299  1.00  0.00    -0.396 OA
HETATM   34  H6  UNL     1       1.767  51.920  -9.382  1.00  0.00     0.209 HD
ENDBRANCH  32  33
ENDBRANCH  27  32
ENDBRANCH  22  24
ENDBRANCH   1  22
TORSDOF 4
ENDMDL
