MODEL 1
REMARK minimizedAffinity -9.75053692
REMARK  9 active torsions:
REMARK  status: ('A' for Active; 'I' for Inactive)
REMARK    1  A    between atoms: C2_2  and  C30_33 
REMARK    2  A    between atoms: C3_3  and  C4_4 
REMARK    3  A    between atoms: C4_4  and  C5_5 
REMARK    4  A    between atoms: C5_5  and  C6_6 
REMARK    5  A    between atoms: C6_6  and  C8_8 
REMARK    6  A    between atoms: C10_10  and  O1_11 
REMARK    7  A    between atoms: C23_24  and  O2_25 
REMARK    8  A    between atoms: C29_31  and  O3_32 
REMARK    9  A    between atoms: C30_33  and  O4_34 
ROOT
HETATM    1  C8  UNL     1      -3.408  50.497 -25.268  1.00  0.00     0.001 C 
HETATM    2  C9  UNL     1      -4.934  50.541 -24.983  1.00  0.00     0.038 C 
HETATM    3  C10 UNL     1      -5.098  50.389 -23.453  1.00  0.00     0.132 C 
HETATM    4  C11 UNL     1      -3.702  50.732 -22.874  1.00  0.00     0.016 C 
HETATM    5  C12 UNL     1      -3.535  52.291 -22.845  1.00  0.00     0.023 C 
HETATM    6  C13 UNL     1      -3.340  50.265 -21.466  1.00  0.00    -0.037 C 
HETATM    7  C14 UNL     1      -2.031  50.075 -21.143  1.00  0.00    -0.065 C 
HETATM    8  C15 UNL     1      -0.920  50.171 -22.209  1.00  0.00     0.036 C 
HETATM    9  C16 UNL     1      -1.340  50.416 -23.676  1.00  0.00     0.015 C 
HETATM   10  C17 UNL     1      -2.792  49.992 -23.928  1.00  0.00    -0.026 C 
HETATM   11  C18 UNL     1      -2.868  48.444 -23.820  1.00  0.00     0.016 C 
HETATM   12  C19 UNL     1      -1.590  49.684 -19.700  1.00  0.00    -0.016 C 
HETATM   13  C20 UNL     1      -1.266  48.172 -19.769  1.00  0.00     0.020 C 
HETATM   14  C21 UNL     1      -0.322  50.487 -19.276  1.00  0.00     0.016 C 
HETATM   15  C22 UNL     1      -0.260  50.930 -17.808  1.00  0.00     0.033 C 
HETATM   16  C23 UNL     1      -0.902  49.943 -16.841  1.00  0.00     0.126 C 
HETATM   17  C24 UNL     1      -2.412  49.715 -17.158  1.00  0.00    -0.017 C 
HETATM   18  C25 UNL     1      -3.217  50.741 -16.306  1.00  0.00     0.018 C 
HETATM   19  C26 UNL     1      -2.872  48.318 -16.689  1.00  0.00     0.018 C 
HETATM   20  C27 UNL     1      -2.734  50.014 -18.677  1.00  0.00     0.011 C 
HETATM   21  C28 UNL     1      -4.076  49.437 -19.154  1.00  0.00     0.043 C 
HETATM   22  C29 UNL     1      -4.484  50.031 -20.502  1.00  0.00     0.148 C 
ENDROOT
BRANCH   1  23
HETATM   23  C6  UNL     1      -2.978  49.883 -26.635  1.00  0.00    -0.013 C 
HETATM   24  C7  UNL     1      -3.961  48.889 -27.268  1.00  0.00     0.010 C 
BRANCH  23  25
HETATM   25  C5  UNL     1      -2.703  51.036 -27.649  1.00  0.00     0.008 C 
BRANCH  25  26
HETATM   26  C4  UNL     1      -1.662  52.066 -27.176  1.00  0.00     0.028 C 
BRANCH  26  27
HETATM   27  C3  UNL     1      -0.311  51.920 -27.815  1.00  0.00    -0.022 C 
HETATM   28  C2  UNL     1       0.897  51.856 -27.218  1.00  0.00    -0.064 C 
HETATM   29  C1  UNL     1       1.137  51.911 -25.732  1.00  0.00     0.045 C 
BRANCH  28  30
HETATM   30  C30 UNL     1       2.154  51.732 -28.044  1.00  0.00     0.197 C 
BRANCH  30  31
HETATM   31  O4  UNL     1       3.250  51.446 -27.191  1.00  0.00    -0.397 OA
HETATM   32  H50 UNL     1       2.966  50.723 -26.606  1.00  0.00     0.209 HD
ENDBRANCH  30  31
ENDBRANCH  28  30
ENDBRANCH  26  27
ENDBRANCH  25  26
ENDBRANCH  23  25
ENDBRANCH   1  23
BRANCH   3  33
HETATM   33  O1  UNL     1      -6.128  51.228 -22.945  1.00  0.00    -0.394 OA
HETATM   34  H17 UNL     1      -6.926  51.060 -23.479  1.00  0.00     0.210 HD
ENDBRANCH   3  33
BRANCH  22  35
HETATM   35  O3  UNL     1      -5.153  51.264 -20.259  1.00  0.00    -0.391 OA
HETATM   36  H47 UNL     1      -5.634  51.474 -21.087  1.00  0.00     0.210 HD
ENDBRANCH  22  35
BRANCH  16  37
HETATM   37  O2  UNL     1      -0.159  48.727 -16.867  1.00  0.00    -0.395 OA
HETATM   38  H36 UNL     1       0.754  48.935 -16.601  1.00  0.00     0.210 HD
ENDBRANCH  16  37
TORSDOF 9
ENDMDL
MODEL 2
REMARK minimizedAffinity -9.41536522
REMARK  9 active torsions:
REMARK  status: ('A' for Active; 'I' for Inactive)
REMARK    1  A    between atoms: C2_2  and  C30_33 
REMARK    2  A    between atoms: C3_3  and  C4_4 
REMARK    3  A    between atoms: C4_4  and  C5_5 
REMARK    4  A    between atoms: C5_5  and  C6_6 
REMARK    5  A    between atoms: C6_6  and  C8_8 
REMARK    6  A    between atoms: C10_10  and  O1_11 
REMARK    7  A    between atoms: C23_24  and  O2_25 
REMARK    8  A    between atoms: C29_31  and  O3_32 
REMARK    9  A    between atoms: C30_33  and  O4_34 
ROOT
HETATM    1  C8  UNL     1      -2.984  50.465 -24.697  1.00  0.00     0.001 C 
HETATM    2  C9  UNL     1      -4.155  51.479 -24.814  1.00  0.00     0.038 C 
HETATM    3  C10 UNL     1      -5.205  51.058 -23.761  1.00  0.00     0.132 C 
HETATM    4  C11 UNL     1      -4.430  50.143 -22.779  1.00  0.00     0.016 C 
HETATM    5  C12 UNL     1      -3.598  51.041 -21.799  1.00  0.00     0.023 C 
HETATM    6  C13 UNL     1      -5.205  49.182 -21.879  1.00  0.00    -0.037 C 
HETATM    7  C14 UNL     1      -4.595  48.051 -21.431  1.00  0.00    -0.065 C 
HETATM    8  C15 UNL     1      -3.196  47.642 -21.933  1.00  0.00     0.036 C 
HETATM    9  C16 UNL     1      -2.531  48.513 -23.022  1.00  0.00     0.015 C 
HETATM   10  C17 UNL     1      -3.567  49.321 -23.811  1.00  0.00    -0.026 C 
HETATM   11  C18 UNL     1      -4.411  48.328 -24.658  1.00  0.00     0.016 C 
HETATM   12  C19 UNL     1      -5.301  47.075 -20.441  1.00  0.00    -0.016 C 
HETATM   13  C20 UNL     1      -5.757  45.876 -21.307  1.00  0.00     0.020 C 
HETATM   14  C21 UNL     1      -4.307  46.595 -19.338  1.00  0.00     0.016 C 
HETATM   15  C22 UNL     1      -4.890  46.425 -17.929  1.00  0.00     0.033 C 
HETATM   16  C23 UNL     1      -6.337  45.951 -17.916  1.00  0.00     0.126 C 
HETATM   17  C24 UNL     1      -7.283  46.946 -18.655  1.00  0.00    -0.017 C 
HETATM   18  C25 UNL     1      -7.825  47.939 -17.584  1.00  0.00     0.018 C 
HETATM   19  C26 UNL     1      -8.519  46.217 -19.224  1.00  0.00     0.018 C 
HETATM   20  C27 UNL     1      -6.498  47.799 -19.728  1.00  0.00     0.011 C 
HETATM   21  C28 UNL     1      -7.405  48.494 -20.756  1.00  0.00     0.043 C 
HETATM   22  C29 UNL     1      -6.635  49.553 -21.545  1.00  0.00     0.148 C 
ENDROOT
BRANCH   1  23
HETATM   23  C6  UNL     1      -2.207  50.151 -26.011  1.00  0.00    -0.013 C 
HETATM   24  C7  UNL     1      -2.655  48.896 -26.775  1.00  0.00     0.010 C 
BRANCH  23  25
HETATM   25  C5  UNL     1      -2.297  51.382 -26.965  1.00  0.00     0.008 C 
BRANCH  25  26
HETATM   26  C4  UNL     1      -1.360  52.544 -26.594  1.00  0.00     0.028 C 
BRANCH  26  27
HETATM   27  C3  UNL     1       0.022  52.121 -26.186  1.00  0.00    -0.022 C 
HETATM   28  C2  UNL     1       1.066  51.795 -26.974  1.00  0.00    -0.064 C 
HETATM   29  C1  UNL     1       1.056  51.800 -28.480  1.00  0.00     0.045 C 
BRANCH  28  30
HETATM   30  C30 UNL     1       2.380  51.368 -26.365  1.00  0.00     0.197 C 
BRANCH  30  31
HETATM   31  O4  UNL     1       3.399  51.442 -27.348  1.00  0.00    -0.397 OA
HETATM   32  H50 UNL     1       3.309  52.309 -27.779  1.00  0.00     0.209 HD
ENDBRANCH  30  31
ENDBRANCH  28  30
ENDBRANCH  26  27
ENDBRANCH  25  26
ENDBRANCH  23  25
ENDBRANCH   1  23
BRANCH   3  33
HETATM   33  O1  UNL     1      -5.792  52.184 -23.119  1.00  0.00    -0.394 OA
HETATM   34  H17 UNL     1      -6.107  52.783 -23.820  1.00  0.00     0.210 HD
ENDBRANCH   3  33
BRANCH  22  35
HETATM   35  O3  UNL     1      -6.642  50.761 -20.791  1.00  0.00    -0.391 OA
HETATM   36  H47 UNL     1      -6.397  51.470 -21.421  1.00  0.00     0.210 HD
ENDBRANCH  22  35
BRANCH  16  37
HETATM   37  O2  UNL     1      -6.395  44.640 -18.475  1.00  0.00    -0.395 OA
HETATM   38  H36 UNL     1      -5.832  44.064 -17.930  1.00  0.00     0.210 HD
ENDBRANCH  16  37
TORSDOF 9
ENDMDL
MODEL 3
REMARK minimizedAffinity -9.38116264
REMARK  9 active torsions:
REMARK  status: ('A' for Active; 'I' for Inactive)
REMARK    1  A    between atoms: C2_2  and  C30_33 
REMARK    2  A    between atoms: C3_3  and  C4_4 
REMARK    3  A    between atoms: C4_4  and  C5_5 
REMARK    4  A    between atoms: C5_5  and  C6_6 
REMARK    5  A    between atoms: C6_6  and  C8_8 
REMARK    6  A    between atoms: C10_10  and  O1_11 
REMARK    7  A    between atoms: C23_24  and  O2_25 
REMARK    8  A    between atoms: C29_31  and  O3_32 
REMARK    9  A    between atoms: C30_33  and  O4_34 
ROOT
HETATM    1  C8  UNL     1      -0.751  52.019 -21.923  1.00  0.00     0.001 C 
HETATM    2  C9  UNL     1      -0.586  51.900 -23.462  1.00  0.00     0.038 C 
HETATM    3  C10 UNL     1      -1.759  51.024 -23.962  1.00  0.00     0.132 C 
HETATM    4  C11 UNL     1      -2.794  51.062 -22.809  1.00  0.00     0.016 C 
HETATM    5  C12 UNL     1      -3.585  52.414 -22.882  1.00  0.00     0.023 C 
HETATM    6  C13 UNL     1      -3.865  49.976 -22.728  1.00  0.00    -0.037 C 
HETATM    7  C14 UNL     1      -4.414  49.670 -21.520  1.00  0.00    -0.065 C 
HETATM    8  C15 UNL     1      -3.871  50.284 -20.215  1.00  0.00     0.036 C 
HETATM    9  C16 UNL     1      -2.631  51.203 -20.304  1.00  0.00     0.015 C 
HETATM   10  C17 UNL     1      -1.819  50.936 -21.576  1.00  0.00    -0.026 C 
HETATM   11  C18 UNL     1      -1.174  49.528 -21.450  1.00  0.00     0.016 C 
HETATM   12  C19 UNL     1      -5.572  48.636 -21.384  1.00  0.00    -0.016 C 
HETATM   13  C20 UNL     1      -4.906  47.350 -20.836  1.00  0.00     0.020 C 
HETATM   14  C21 UNL     1      -6.653  49.149 -20.384  1.00  0.00     0.016 C 
HETATM   15  C22 UNL     1      -8.111  48.827 -20.739  1.00  0.00     0.033 C 
HETATM   16  C23 UNL     1      -8.290  47.488 -21.442  1.00  0.00     0.126 C 
HETATM   17  C24 UNL     1      -7.497  47.423 -22.783  1.00  0.00    -0.017 C 
HETATM   18  C25 UNL     1      -8.464  47.898 -23.908  1.00  0.00     0.018 C 
HETATM   19  C26 UNL     1      -7.119  45.967 -23.133  1.00  0.00     0.018 C 
HETATM   20  C27 UNL     1      -6.267  48.414 -22.774  1.00  0.00     0.011 C 
HETATM   21  C28 UNL     1      -5.225  48.123 -23.865  1.00  0.00     0.043 C 
HETATM   22  C29 UNL     1      -4.250  49.290 -24.022  1.00  0.00     0.148 C 
ENDROOT
BRANCH   1  23
HETATM   23  C6  UNL     1       0.563  52.149 -21.095  1.00  0.00    -0.013 C 
HETATM   24  C7  UNL     1       1.360  53.446 -21.292  1.00  0.00     0.010 C 
BRANCH  23  25
HETATM   25  C5  UNL     1       0.230  51.986 -19.579  1.00  0.00     0.008 C 
BRANCH  25  26
HETATM   26  C4  UNL     1       1.189  52.730 -18.634  1.00  0.00     0.028 C 
BRANCH  26  27
HETATM   27  C3  UNL     1       1.049  52.353 -17.186  1.00  0.00    -0.022 C 
HETATM   28  C2  UNL     1       1.999  52.334 -16.230  1.00  0.00    -0.064 C 
HETATM   29  C1  UNL     1       3.443  52.710 -16.429  1.00  0.00     0.045 C 
BRANCH  28  30
HETATM   30  C30 UNL     1       1.660  51.898 -14.824  1.00  0.00     0.197 C 
BRANCH  30  31
HETATM   31  O4  UNL     1       0.661  52.755 -14.295  1.00  0.00    -0.397 OA
HETATM   32  H50 UNL     1      -0.031  52.828 -14.974  1.00  0.00     0.209 HD
ENDBRANCH  30  31
ENDBRANCH  28  30
ENDBRANCH  26  27
ENDBRANCH  25  26
ENDBRANCH  23  25
ENDBRANCH   1  23
BRANCH   3  33
HETATM   33  O1  UNL     1      -2.287  51.499 -25.194  1.00  0.00    -0.394 OA
HETATM   34  H17 UNL     1      -1.538  51.601 -25.808  1.00  0.00     0.210 HD
ENDBRANCH   3  33
BRANCH  22  35
HETATM   35  O3  UNL     1      -4.837  50.243 -24.902  1.00  0.00    -0.391 OA
HETATM   36  H47 UNL     1      -4.103  50.822 -25.197  1.00  0.00     0.210 HD
ENDBRANCH  22  35
BRANCH  16  37
HETATM   37  O2  UNL     1      -7.915  46.445 -20.544  1.00  0.00    -0.395 OA
HETATM   38  H36 UNL     1      -8.489  46.510 -19.762  1.00  0.00     0.210 HD
ENDBRANCH  16  37
TORSDOF 9
ENDMDL
MODEL 4
REMARK minimizedAffinity -9.36896896
REMARK  9 active torsions:
REMARK  status: ('A' for Active; 'I' for Inactive)
REMARK    1  A    between atoms: C2_2  and  C30_33 
REMARK    2  A    between atoms: C3_3  and  C4_4 
REMARK    3  A    between atoms: C4_4  and  C5_5 
REMARK    4  A    between atoms: C5_5  and  C6_6 
REMARK    5  A    between atoms: C6_6  and  C8_8 
REMARK    6  A    between atoms: C10_10  and  O1_11 
REMARK    7  A    between atoms: C23_24  and  O2_25 
REMARK    8  A    between atoms: C29_31  and  O3_32 
REMARK    9  A    between atoms: C30_33  and  O4_34 
ROOT
HETATM    1  C8  UNL     1      -1.852  51.223 -24.719  1.00  0.00     0.001 C 
HETATM    2  C9  UNL     1      -3.052  51.853 -25.476  1.00  0.00     0.038 C 
HETATM    3  C10 UNL     1      -4.332  51.299 -24.808  1.00  0.00     0.132 C 
HETATM    4  C11 UNL     1      -3.855  50.765 -23.433  1.00  0.00     0.016 C 
HETATM    5  C12 UNL     1      -3.692  51.975 -22.448  1.00  0.00     0.023 C 
HETATM    6  C13 UNL     1      -4.718  49.753 -22.683  1.00  0.00    -0.037 C 
HETATM    7  C14 UNL     1      -4.129  48.899 -21.801  1.00  0.00    -0.065 C 
HETATM    8  C15 UNL     1      -2.596  48.828 -21.658  1.00  0.00     0.036 C 
HETATM    9  C16 UNL     1      -1.736  49.701 -22.600  1.00  0.00     0.015 C 
HETATM   10  C17 UNL     1      -2.502  50.086 -23.870  1.00  0.00    -0.026 C 
HETATM   11  C18 UNL     1      -2.710  48.799 -24.717  1.00  0.00     0.016 C 
HETATM   12  C19 UNL     1      -4.964  47.903 -20.941  1.00  0.00    -0.016 C 
HETATM   13  C20 UNL     1      -4.777  46.524 -21.619  1.00  0.00     0.020 C 
HETATM   14  C21 UNL     1      -4.430  47.859 -19.476  1.00  0.00     0.016 C 
HETATM   15  C22 UNL     1      -5.487  47.718 -18.373  1.00  0.00     0.033 C 
HETATM   16  C23 UNL     1      -6.687  46.871 -18.777  1.00  0.00     0.126 C 
HETATM   17  C24 UNL     1      -7.431  47.467 -20.012  1.00  0.00    -0.017 C 
HETATM   18  C25 UNL     1      -8.549  48.403 -19.463  1.00  0.00     0.018 C 
HETATM   19  C26 UNL     1      -8.155  46.361 -20.809  1.00  0.00     0.018 C 
HETATM   20  C27 UNL     1      -6.466  48.357 -20.892  1.00  0.00     0.011 C 
HETATM   21  C28 UNL     1      -6.997  48.639 -22.306  1.00  0.00     0.043 C 
HETATM   22  C29 UNL     1      -6.203  49.758 -22.981  1.00  0.00     0.148 C 
ENDROOT
BRANCH   1  23
HETATM   23  C6  UNL     1      -0.563  50.967 -25.557  1.00  0.00    -0.013 C 
HETATM   24  C7  UNL     1      -0.680  51.216 -27.067  1.00  0.00     0.010 C 
BRANCH  23  25
HETATM   25  C5  UNL     1       0.598  51.840 -24.988  1.00  0.00     0.008 C 
BRANCH  25  26
HETATM   26  C4  UNL     1       0.144  52.968 -24.046  1.00  0.00     0.028 C 
BRANCH  26  27
HETATM   27  C3  UNL     1       0.213  52.623 -22.586  1.00  0.00    -0.022 C 
HETATM   28  C2  UNL     1       0.865  53.274 -21.601  1.00  0.00    -0.064 C 
HETATM   29  C1  UNL     1       1.676  54.531 -21.776  1.00  0.00     0.045 C 
BRANCH  28  30
HETATM   30  C30 UNL     1       0.832  52.750 -20.186  1.00  0.00     0.197 C 
BRANCH  30  31
HETATM   31  O4  UNL     1       1.436  53.698 -19.320  1.00  0.00    -0.397 OA
HETATM   32  H50 UNL     1       1.048  54.562 -19.540  1.00  0.00     0.209 HD
ENDBRANCH  30  31
ENDBRANCH  28  30
ENDBRANCH  26  27
ENDBRANCH  25  26
ENDBRANCH  23  25
ENDBRANCH   1  23
BRANCH   3  33
HETATM   33  O1  UNL     1      -5.342  52.294 -24.694  1.00  0.00    -0.394 OA
HETATM   34  H17 UNL     1      -5.459  52.689 -25.576  1.00  0.00     0.210 HD
ENDBRANCH   3  33
BRANCH  22  35
HETATM   35  O3  UNL     1      -6.759  51.004 -22.573  1.00  0.00    -0.391 OA
HETATM   36  H47 UNL     1      -6.428  51.667 -23.215  1.00  0.00     0.210 HD
ENDBRANCH  22  35
BRANCH  16  37
HETATM   37  O2  UNL     1      -6.248  45.535 -19.008  1.00  0.00    -0.395 OA
HETATM   38  H36 UNL     1      -5.851  45.209 -18.182  1.00  0.00     0.210 HD
ENDBRANCH  16  37
TORSDOF 9
ENDMDL
MODEL 5
REMARK minimizedAffinity -9.23061943
REMARK  9 active torsions:
REMARK  status: ('A' for Active; 'I' for Inactive)
REMARK    1  A    between atoms: C2_2  and  C30_33 
REMARK    2  A    between atoms: C3_3  and  C4_4 
REMARK    3  A    between atoms: C4_4  and  C5_5 
REMARK    4  A    between atoms: C5_5  and  C6_6 
REMARK    5  A    between atoms: C6_6  and  C8_8 
REMARK    6  A    between atoms: C10_10  and  O1_11 
REMARK    7  A    between atoms: C23_24  and  O2_25 
REMARK    8  A    between atoms: C29_31  and  O3_32 
REMARK    9  A    between atoms: C30_33  and  O4_34 
ROOT
HETATM    1  C8  UNL     1      -1.135  50.684 -21.870  1.00  0.00     0.001 C 
HETATM    2  C9  UNL     1      -0.964  49.918 -20.530  1.00  0.00     0.038 C 
HETATM    3  C10 UNL     1      -2.212  49.017 -20.378  1.00  0.00     0.132 C 
HETATM    4  C11 UNL     1      -2.808  48.932 -21.806  1.00  0.00     0.016 C 
HETATM    5  C12 UNL     1      -1.981  47.892 -22.639  1.00  0.00     0.023 C 
HETATM    6  C13 UNL     1      -4.267  48.517 -21.984  1.00  0.00    -0.037 C 
HETATM    7  C14 UNL     1      -4.946  48.929 -23.090  1.00  0.00    -0.065 C 
HETATM    8  C15 UNL     1      -4.325  49.928 -24.086  1.00  0.00     0.036 C 
HETATM    9  C16 UNL     1      -2.933  50.513 -23.756  1.00  0.00     0.015 C 
HETATM   10  C17 UNL     1      -2.625  50.431 -22.257  1.00  0.00    -0.026 C 
HETATM   11  C18 UNL     1      -3.575  51.412 -21.515  1.00  0.00     0.016 C 
HETATM   12  C19 UNL     1      -6.409  48.469 -23.374  1.00  0.00    -0.016 C 
HETATM   13  C20 UNL     1      -7.296  49.681 -23.001  1.00  0.00     0.020 C 
HETATM   14  C21 UNL     1      -6.591  48.113 -24.881  1.00  0.00     0.016 C 
HETATM   15  C22 UNL     1      -7.504  46.919 -25.190  1.00  0.00     0.033 C 
HETATM   16  C23 UNL     1      -8.670  46.771 -24.221  1.00  0.00     0.126 C 
HETATM   17  C24 UNL     1      -8.185  46.573 -22.752  1.00  0.00    -0.017 C 
HETATM   18  C25 UNL     1      -8.072  45.038 -22.513  1.00  0.00     0.018 C 
HETATM   19  C26 UNL     1      -9.239  47.085 -21.747  1.00  0.00     0.018 C 
HETATM   20  C27 UNL     1      -6.745  47.187 -22.532  1.00  0.00     0.011 C 
HETATM   21  C28 UNL     1      -6.375  47.392 -21.055  1.00  0.00     0.043 C 
HETATM   22  C29 UNL     1      -4.880  47.664 -20.893  1.00  0.00     0.148 C 
ENDROOT
BRANCH   1  23
HETATM   23  C6  UNL     1      -0.518  52.114 -21.933  1.00  0.00    -0.013 C 
HETATM   24  C7  UNL     1       0.087  52.645 -20.626  1.00  0.00     0.010 C 
BRANCH  23  25
HETATM   25  C5  UNL     1       0.573  52.151 -23.047  1.00  0.00     0.008 C 
BRANCH  25  26
HETATM   26  C4  UNL     1       0.019  52.140 -24.482  1.00  0.00     0.028 C 
BRANCH  26  27
HETATM   27  C3  UNL     1       1.070  52.092 -25.553  1.00  0.00    -0.022 C 
HETATM   28  C2  UNL     1       0.920  51.814 -26.863  1.00  0.00    -0.064 C 
HETATM   29  C1  UNL     1      -0.386  51.491 -27.541  1.00  0.00     0.045 C 
BRANCH  28  30
HETATM   30  C30 UNL     1       2.116  51.793 -27.783  1.00  0.00     0.197 C 
BRANCH  30  31
HETATM   31  O4  UNL     1       3.257  51.362 -27.059  1.00  0.00    -0.397 OA
HETATM   32  H50 UNL     1       2.992  50.564 -26.570  1.00  0.00     0.209 HD
ENDBRANCH  30  31
ENDBRANCH  28  30
ENDBRANCH  26  27
ENDBRANCH  25  26
ENDBRANCH  23  25
ENDBRANCH   1  23
BRANCH   3  33
HETATM   33  O1  UNL     1      -1.881  47.742 -19.840  1.00  0.00    -0.394 OA
HETATM   34  H17 UNL     1      -1.365  47.896 -19.029  1.00  0.00     0.210 HD
ENDBRANCH   3  33
BRANCH  22  35
HETATM   35  O3  UNL     1      -4.204  46.412 -20.841  1.00  0.00    -0.391 OA
HETATM   36  H47 UNL     1      -3.318  46.602 -20.468  1.00  0.00     0.210 HD
ENDBRANCH  22  35
BRANCH  16  37
HETATM   37  O2  UNL     1      -9.524  47.905 -24.356  1.00  0.00    -0.395 OA
HETATM   38  H36 UNL     1      -9.835  47.930 -25.277  1.00  0.00     0.210 HD
ENDBRANCH  16  37
TORSDOF 9
ENDMDL
MODEL 6
REMARK minimizedAffinity -9.17436218
REMARK  9 active torsions:
REMARK  status: ('A' for Active; 'I' for Inactive)
REMARK    1  A    between atoms: C2_2  and  C30_33 
REMARK    2  A    between atoms: C3_3  and  C4_4 
REMARK    3  A    between atoms: C4_4  and  C5_5 
REMARK    4  A    between atoms: C5_5  and  C6_6 
REMARK    5  A    between atoms: C6_6  and  C8_8 
REMARK    6  A    between atoms: C10_10  and  O1_11 
REMARK    7  A    between atoms: C23_24  and  O2_25 
REMARK    8  A    between atoms: C29_31  and  O3_32 
REMARK    9  A    between atoms: C30_33  and  O4_34 
ROOT
HETATM    1  C8  UNL     1      -0.546  49.972 -20.386  1.00  0.00     0.001 C 
HETATM    2  C9  UNL     1      -0.901  49.084 -19.162  1.00  0.00     0.038 C 
HETATM    3  C10 UNL     1      -2.253  48.409 -19.488  1.00  0.00     0.132 C 
HETATM    4  C11 UNL     1      -2.397  48.544 -21.025  1.00  0.00     0.016 C 
HETATM    5  C12 UNL     1      -1.517  47.443 -21.715  1.00  0.00     0.023 C 
HETATM    6  C13 UNL     1      -3.778  48.409 -21.663  1.00  0.00    -0.037 C 
HETATM    7  C14 UNL     1      -4.024  49.021 -22.854  1.00  0.00    -0.065 C 
HETATM    8  C15 UNL     1      -2.993  49.970 -23.496  1.00  0.00     0.036 C 
HETATM    9  C16 UNL     1      -1.695  50.271 -22.712  1.00  0.00     0.015 C 
HETATM   10  C17 UNL     1      -1.870  50.018 -21.210  1.00  0.00    -0.026 C 
HETATM   11  C18 UNL     1      -2.846  51.089 -20.650  1.00  0.00     0.016 C 
HETATM   12  C19 UNL     1      -5.383  48.850 -23.598  1.00  0.00    -0.016 C 
HETATM   13  C20 UNL     1      -6.156  50.166 -23.342  1.00  0.00     0.020 C 
HETATM   14  C21 UNL     1      -5.152  48.652 -25.128  1.00  0.00     0.016 C 
HETATM   15  C22 UNL     1      -6.093  47.667 -25.834  1.00  0.00     0.033 C 
HETATM   16  C23 UNL     1      -7.505  47.651 -25.264  1.00  0.00     0.126 C 
HETATM   17  C24 UNL     1      -7.520  47.255 -23.756  1.00  0.00    -0.017 C 
HETATM   18  C25 UNL     1      -7.710  45.710 -23.693  1.00  0.00     0.018 C 
HETATM   19  C26 UNL     1      -8.742  47.864 -23.035  1.00  0.00     0.018 C 
HETATM   20  C27 UNL     1      -6.141  47.586 -23.059  1.00  0.00     0.011 C 
HETATM   21  C28 UNL     1      -6.208  47.604 -21.524  1.00  0.00     0.043 C 
HETATM   22  C29 UNL     1      -4.808  47.594 -20.910  1.00  0.00     0.148 C 
ENDROOT
BRANCH   1  23
HETATM   23  C6  UNL     1       0.262  51.271 -20.087  1.00  0.00    -0.013 C 
HETATM   24  C7  UNL     1       0.096  52.416 -21.096  1.00  0.00     0.010 C 
BRANCH  23  25
HETATM   25  C5  UNL     1      -0.115  51.792 -18.666  1.00  0.00     0.008 C 
BRANCH  25  26
HETATM   26  C4  UNL     1       1.032  52.497 -17.921  1.00  0.00     0.028 C 
BRANCH  26  27
HETATM   27  C3  UNL     1       1.292  51.968 -16.540  1.00  0.00    -0.022 C 
HETATM   28  C2  UNL     1       2.423  52.052 -15.809  1.00  0.00    -0.064 C 
HETATM   29  C1  UNL     1       3.695  52.727 -16.249  1.00  0.00     0.045 C 
BRANCH  28  30
HETATM   30  C30 UNL     1       2.494  51.430 -14.436  1.00  0.00     0.197 C 
BRANCH  30  31
HETATM   31  O4  UNL     1       1.992  52.348 -13.478  1.00  0.00    -0.397 OA
HETATM   32  H50 UNL     1       1.151  52.685 -13.829  1.00  0.00     0.209 HD
ENDBRANCH  30  31
ENDBRANCH  28  30
ENDBRANCH  26  27
ENDBRANCH  25  26
ENDBRANCH  23  25
ENDBRANCH   1  23
BRANCH   3  33
HETATM   33  O1  UNL     1      -2.289  47.057 -19.046  1.00  0.00    -0.394 OA
HETATM   34  H17 UNL     1      -2.025  47.053 -18.109  1.00  0.00     0.210 HD
ENDBRANCH   3  33
BRANCH  22  35
HETATM   35  O3  UNL     1      -4.369  46.242 -20.828  1.00  0.00    -0.391 OA
HETATM   36  H47 UNL     1      -3.620  46.243 -20.197  1.00  0.00     0.210 HD
ENDBRANCH  22  35
BRANCH  16  37
HETATM   37  O2  UNL     1      -8.104  48.925 -25.491  1.00  0.00    -0.395 OA
HETATM   38  H36 UNL     1      -8.116  49.078 -26.451  1.00  0.00     0.210 HD
ENDBRANCH  16  37
TORSDOF 9
ENDMDL
MODEL 7
REMARK minimizedAffinity -9.1398983
REMARK  9 active torsions:
REMARK  status: ('A' for Active; 'I' for Inactive)
REMARK    1  A    between atoms: C2_2  and  C30_33 
REMARK    2  A    between atoms: C3_3  and  C4_4 
REMARK    3  A    between atoms: C4_4  and  C5_5 
REMARK    4  A    between atoms: C5_5  and  C6_6 
REMARK    5  A    between atoms: C6_6  and  C8_8 
REMARK    6  A    between atoms: C10_10  and  O1_11 
REMARK    7  A    between atoms: C23_24  and  O2_25 
REMARK    8  A    between atoms: C29_31  and  O3_32 
REMARK    9  A    between atoms: C30_33  and  O4_34 
ROOT
HETATM    1  C8  UNL     1      -0.338  51.740 -23.092  1.00  0.00     0.001 C 
HETATM    2  C9  UNL     1      -0.077  52.328 -21.678  1.00  0.00     0.038 C 
HETATM    3  C10 UNL     1      -1.200  51.786 -20.764  1.00  0.00     0.132 C 
HETATM    4  C11 UNL     1      -1.775  50.568 -21.531  1.00  0.00     0.016 C 
HETATM    5  C12 UNL     1      -0.819  49.342 -21.324  1.00  0.00     0.023 C 
HETATM    6  C13 UNL     1      -3.169  50.052 -21.180  1.00  0.00    -0.037 C 
HETATM    7  C14 UNL     1      -3.890  49.387 -22.123  1.00  0.00    -0.065 C 
HETATM    8  C15 UNL     1      -3.396  49.277 -23.580  1.00  0.00     0.036 C 
HETATM    9  C16 UNL     1      -2.091  50.011 -23.962  1.00  0.00     0.015 C 
HETATM   10  C17 UNL     1      -1.781  51.158 -22.993  1.00  0.00    -0.026 C 
HETATM   11  C18 UNL     1      -2.852  52.266 -23.199  1.00  0.00     0.016 C 
HETATM   12  C19 UNL     1      -5.281  48.760 -21.802  1.00  0.00    -0.016 C 
HETATM   13  C20 UNL     1      -6.317  49.727 -22.424  1.00  0.00     0.020 C 
HETATM   14  C21 UNL     1      -5.410  47.346 -22.449  1.00  0.00     0.016 C 
HETATM   15  C22 UNL     1      -6.163  46.291 -21.627  1.00  0.00     0.033 C 
HETATM   16  C23 UNL     1      -7.305  46.862 -20.795  1.00  0.00     0.126 C 
HETATM   17  C24 UNL     1      -6.805  47.927 -19.772  1.00  0.00    -0.017 C 
HETATM   18  C25 UNL     1      -6.499  47.174 -18.443  1.00  0.00     0.018 C 
HETATM   19  C26 UNL     1      -7.919  48.942 -19.440  1.00  0.00     0.018 C 
HETATM   20  C27 UNL     1      -5.456  48.597 -20.250  1.00  0.00     0.011 C 
HETATM   21  C28 UNL     1      -5.121  49.909 -19.523  1.00  0.00     0.043 C 
HETATM   22  C29 UNL     1      -3.673  50.327 -19.778  1.00  0.00     0.148 C 
ENDROOT
BRANCH   1  23
HETATM   23  C6  UNL     1       0.093  52.626 -24.300  1.00  0.00    -0.013 C 
HETATM   24  C7  UNL     1       0.840  53.921 -23.953  1.00  0.00     0.010 C 
BRANCH  23  25
HETATM   25  C5  UNL     1       0.974  51.777 -25.268  1.00  0.00     0.008 C 
BRANCH  25  26
HETATM   26  C4  UNL     1       0.574  51.881 -26.749  1.00  0.00     0.028 C 
BRANCH  26  27
HETATM   27  C3  UNL     1      -0.550  50.971 -27.154  1.00  0.00    -0.022 C 
HETATM   28  C2  UNL     1      -1.867  51.247 -27.225  1.00  0.00    -0.064 C 
HETATM   29  C1  UNL     1      -2.497  52.578 -26.909  1.00  0.00     0.045 C 
BRANCH  28  30
HETATM   30  C30 UNL     1      -2.852  50.179 -27.636  1.00  0.00     0.197 C 
BRANCH  30  31
HETATM   31  O4  UNL     1      -3.455  50.545 -28.867  1.00  0.00    -0.397 OA
HETATM   32  H50 UNL     1      -2.734  50.813 -29.462  1.00  0.00     0.209 HD
ENDBRANCH  30  31
ENDBRANCH  28  30
ENDBRANCH  26  27
ENDBRANCH  25  26
ENDBRANCH  23  25
ENDBRANCH   1  23
BRANCH   3  33
HETATM   33  O1  UNL     1      -0.712  51.445 -19.472  1.00  0.00    -0.394 OA
HETATM   34  H17 UNL     1      -0.224  52.217 -19.136  1.00  0.00     0.210 HD
ENDBRANCH   3  33
BRANCH  22  35
HETATM   35  O3  UNL     1      -2.844  49.649 -18.840  1.00  0.00    -0.391 OA
HETATM   36  H47 UNL     1      -1.990  50.132 -18.840  1.00  0.00     0.210 HD
ENDBRANCH  22  35
BRANCH  16  37
HETATM   37  O2  UNL     1      -8.295  47.386 -21.676  1.00  0.00    -0.395 OA
HETATM   38  H36 UNL     1      -8.603  46.656 -22.240  1.00  0.00     0.210 HD
ENDBRANCH  16  37
TORSDOF 9
ENDMDL
MODEL 8
REMARK minimizedAffinity -9.02972889
REMARK  9 active torsions:
REMARK  status: ('A' for Active; 'I' for Inactive)
REMARK    1  A    between atoms: C2_2  and  C30_33 
REMARK    2  A    between atoms: C3_3  and  C4_4 
REMARK    3  A    between atoms: C4_4  and  C5_5 
REMARK    4  A    between atoms: C5_5  and  C6_6 
REMARK    5  A    between atoms: C6_6  and  C8_8 
REMARK    6  A    between atoms: C10_10  and  O1_11 
REMARK    7  A    between atoms: C23_24  and  O2_25 
REMARK    8  A    between atoms: C29_31  and  O3_32 
REMARK    9  A    between atoms: C30_33  and  O4_34 
ROOT
HETATM    1  C8  UNL     1      -1.352  49.606 -18.019  1.00  0.00     0.001 C 
HETATM    2  C9  UNL     1      -2.542  48.621 -18.178  1.00  0.00     0.038 C 
HETATM    3  C10 UNL     1      -2.958  48.674 -19.666  1.00  0.00     0.132 C 
HETATM    4  C11 UNL     1      -1.738  49.298 -20.391  1.00  0.00     0.016 C 
HETATM    5  C12 UNL     1      -0.645  48.191 -20.588  1.00  0.00     0.023 C 
HETATM    6  C13 UNL     1      -1.927  49.924 -21.772  1.00  0.00    -0.037 C 
HETATM    7  C14 UNL     1      -1.074  50.902 -22.182  1.00  0.00    -0.065 C 
HETATM    8  C15 UNL     1      -0.019  51.498 -21.228  1.00  0.00     0.036 C 
HETATM    9  C16 UNL     1      -0.006  51.007 -19.763  1.00  0.00     0.015 C 
HETATM   10  C17 UNL     1      -1.359  50.419 -19.349  1.00  0.00    -0.026 C 
HETATM   11  C18 UNL     1      -2.393  51.578 -19.297  1.00  0.00     0.016 C 
HETATM   12  C19 UNL     1      -1.159  51.518 -23.612  1.00  0.00    -0.016 C 
HETATM   13  C20 UNL     1      -1.838  52.896 -23.420  1.00  0.00     0.020 C 
HETATM   14  C21 UNL     1       0.266  51.701 -24.218  1.00  0.00     0.016 C 
HETATM   15  C22 UNL     1       0.402  51.431 -25.723  1.00  0.00     0.033 C 
HETATM   16  C23 UNL     1      -0.831  51.819 -26.529  1.00  0.00     0.126 C 
HETATM   17  C24 UNL     1      -2.100  51.041 -26.066  1.00  0.00    -0.017 C 
HETATM   18  C25 UNL     1      -2.194  49.758 -26.945  1.00  0.00     0.018 C 
HETATM   19  C26 UNL     1      -3.383  51.850 -26.354  1.00  0.00     0.018 C 
HETATM   20  C27 UNL     1      -1.970  50.569 -24.563  1.00  0.00     0.011 C 
HETATM   21  C28 UNL     1      -3.305  50.163 -23.921  1.00  0.00     0.043 C 
HETATM   22  C29 UNL     1      -3.081  49.411 -22.609  1.00  0.00     0.148 C 
ENDROOT
BRANCH   1  23
HETATM   23  C6  UNL     1      -1.226  50.320 -16.639  1.00  0.00    -0.013 C 
HETATM   24  C7  UNL     1      -2.514  50.419 -15.810  1.00  0.00     0.010 C 
BRANCH  23  25
HETATM   25  C5  UNL     1      -0.132  49.601 -15.789  1.00  0.00     0.008 C 
BRANCH  25  26
HETATM   26  C4  UNL     1       0.614  50.517 -14.805  1.00  0.00     0.028 C 
BRANCH  26  27
HETATM   27  C3  UNL     1       1.604  51.444 -15.449  1.00  0.00    -0.022 C 
HETATM   28  C2  UNL     1       2.920  51.578 -15.188  1.00  0.00    -0.064 C 
HETATM   29  C1  UNL     1       3.690  50.784 -14.165  1.00  0.00     0.045 C 
BRANCH  28  30
HETATM   30  C30 UNL     1       3.749  52.594 -15.936  1.00  0.00     0.197 C 
BRANCH  30  31
HETATM   31  O4  UNL     1       2.889  53.468 -16.649  1.00  0.00    -0.397 OA
HETATM   32  H50 UNL     1       2.199  53.751 -16.024  1.00  0.00     0.209 HD
ENDBRANCH  30  31
ENDBRANCH  28  30
ENDBRANCH  26  27
ENDBRANCH  25  26
ENDBRANCH  23  25
ENDBRANCH   1  23
BRANCH   3  33
HETATM   33  O1  UNL     1      -3.299  47.387 -20.167  1.00  0.00    -0.394 OA
HETATM   34  H17 UNL     1      -3.952  47.003 -19.555  1.00  0.00     0.210 HD
ENDBRANCH   3  33
BRANCH  22  35
HETATM   35  O3  UNL     1      -2.864  48.038 -22.915  1.00  0.00    -0.391 OA
HETATM   36  H47 UNL     1      -3.000  47.552 -22.075  1.00  0.00     0.210 HD
ENDBRANCH  22  35
BRANCH  16  37
HETATM   37  O2  UNL     1      -1.007  53.232 -26.446  1.00  0.00    -0.395 OA
HETATM   38  H36 UNL     1      -0.206  53.649 -26.806  1.00  0.00     0.210 HD
ENDBRANCH  16  37
TORSDOF 9
ENDMDL
MODEL 9
REMARK minimizedAffinity -9.01082516
REMARK  9 active torsions:
REMARK  status: ('A' for Active; 'I' for Inactive)
REMARK    1  A    between atoms: C2_2  and  C30_33 
REMARK    2  A    between atoms: C3_3  and  C4_4 
REMARK    3  A    between atoms: C4_4  and  C5_5 
REMARK    4  A    between atoms: C5_5  and  C6_6 
REMARK    5  A    between atoms: C6_6  and  C8_8 
REMARK    6  A    between atoms: C10_10  and  O1_11 
REMARK    7  A    between atoms: C23_24  and  O2_25 
REMARK    8  A    between atoms: C29_31  and  O3_32 
REMARK    9  A    between atoms: C30_33  and  O4_34 
ROOT
HETATM    1  C8  UNL     1      -1.842  52.305 -22.661  1.00  0.00     0.001 C 
HETATM    2  C9  UNL     1      -2.360  52.520 -24.109  1.00  0.00     0.038 C 
HETATM    3  C10 UNL     1      -3.527  51.526 -24.310  1.00  0.00     0.132 C 
HETATM    4  C11 UNL     1      -3.946  51.120 -22.874  1.00  0.00     0.016 C 
HETATM    5  C12 UNL     1      -4.833  52.260 -22.263  1.00  0.00     0.023 C 
HETATM    6  C13 UNL     1      -4.744  49.836 -22.661  1.00  0.00    -0.037 C 
HETATM    7  C14 UNL     1      -4.667  49.194 -21.463  1.00  0.00    -0.065 C 
HETATM    8  C15 UNL     1      -3.677  49.648 -20.373  1.00  0.00     0.036 C 
HETATM    9  C16 UNL     1      -2.713  50.811 -20.704  1.00  0.00     0.015 C 
HETATM   10  C17 UNL     1      -2.520  50.973 -22.216  1.00  0.00    -0.026 C 
HETATM   11  C18 UNL     1      -1.734  49.737 -22.737  1.00  0.00     0.016 C 
HETATM   12  C19 UNL     1      -5.524  47.929 -21.153  1.00  0.00    -0.016 C 
HETATM   13  C20 UNL     1      -4.547  46.735 -21.280  1.00  0.00     0.020 C 
HETATM   14  C21 UNL     1      -6.104  47.998 -19.707  1.00  0.00     0.016 C 
HETATM   15  C22 UNL     1      -7.524  47.445 -19.520  1.00  0.00     0.033 C 
HETATM   16  C23 UNL     1      -7.844  46.259 -20.419  1.00  0.00     0.126 C 
HETATM   17  C24 UNL     1      -7.721  46.623 -21.931  1.00  0.00    -0.017 C 
HETATM   18  C25 UNL     1      -9.130  47.086 -22.404  1.00  0.00     0.018 C 
HETATM   19  C26 UNL     1      -7.376  45.377 -22.774  1.00  0.00     0.018 C 
HETATM   20  C27 UNL     1      -6.731  47.834 -22.153  1.00  0.00     0.011 C 
HETATM   21  C28 UNL     1      -6.250  47.987 -23.604  1.00  0.00     0.043 C 
HETATM   22  C29 UNL     1      -5.580  49.344 -23.824  1.00  0.00     0.148 C 
ENDROOT
BRANCH   1  23
HETATM   23  C6  UNL     1      -0.321  52.552 -22.427  1.00  0.00    -0.013 C 
HETATM   24  C7  UNL     1       0.420  51.476 -21.619  1.00  0.00     0.010 C 
BRANCH  23  25
HETATM   25  C5  UNL     1       0.387  52.726 -23.806  1.00  0.00     0.008 C 
BRANCH  25  26
HETATM   26  C4  UNL     1       0.449  51.445 -24.656  1.00  0.00     0.028 C 
BRANCH  26  27
HETATM   27  C3  UNL     1       1.405  51.513 -25.812  1.00  0.00    -0.022 C 
HETATM   28  C2  UNL     1       1.130  51.701 -27.118  1.00  0.00    -0.064 C 
HETATM   29  C1  UNL     1      -0.246  51.897 -27.698  1.00  0.00     0.045 C 
BRANCH  28  30
HETATM   30  C30 UNL     1       2.241  51.715 -28.140  1.00  0.00     0.197 C 
BRANCH  30  31
HETATM   31  O4  UNL     1       3.447  52.125 -27.516  1.00  0.00    -0.397 OA
HETATM   32  H50 UNL     1       3.529  51.605 -26.699  1.00  0.00     0.209 HD
ENDBRANCH  30  31
ENDBRANCH  28  30
ENDBRANCH  26  27
ENDBRANCH  25  26
ENDBRANCH  23  25
ENDBRANCH   1  23
BRANCH   3  33
HETATM   33  O1  UNL     1      -4.593  52.104 -25.053  1.00  0.00    -0.394 OA
HETATM   34  H17 UNL     1      -4.207  52.479 -25.865  1.00  0.00     0.210 HD
ENDBRANCH   3  33
BRANCH  22  35
HETATM   35  O3  UNL     1      -6.597  50.299 -24.108  1.00  0.00    -0.391 OA
HETATM   36  H47 UNL     1      -6.137  51.067 -24.508  1.00  0.00     0.210 HD
ENDBRANCH  22  35
BRANCH  16  37
HETATM   37  O2  UNL     1      -6.998  45.169 -20.058  1.00  0.00    -0.395 OA
HETATM   38  H36 UNL     1      -7.172  44.959 -19.125  1.00  0.00     0.210 HD
ENDBRANCH  16  37
TORSDOF 9
ENDMDL
