MODEL 1
REMARK minimizedAffinity -7.81511307
REMARK CNNscore 0.762071073
REMARK CNNaffinity 6.96981955
REMARK  6 active torsions:
REMARK  status: ('A' for Active; 'I' for Inactive)
REMARK    1  A    between atoms: O1_2  and  C2_3 
REMARK    2  A    between atoms: C17_20  and  C18_21 
REMARK    3  A    between atoms: C22_27  and  O6_28 
REMARK    4  A    between atoms: O6_28  and  C23_29 
REMARK    5  A    between atoms: C26_33  and  O8_34 
REMARK    6  A    between atoms: C31_40  and  O10_41 
ROOT
HETATM    1  C2  UNL     1       7.741  55.317  -3.725  1.00  0.00     0.190 C 
HETATM    2  C3  UNL     1       9.164  55.731  -3.325  1.00  0.00     0.064 C 
HETATM    3  C4  UNL     1       9.863  56.549  -4.399  1.00  0.00     0.174 C 
HETATM    4  O2  UNL     1       9.491  56.072  -5.680  1.00  0.00    -0.356 OA
HETATM    5  C5  UNL     1       8.130  56.390  -6.019  1.00  0.00     0.325 C 
HETATM    6  O3  UNL     1       7.818  55.603  -7.178  1.00  0.00    -0.344 OA
HETATM    7  C6  UNL     1       6.477  55.131  -7.241  1.00  0.00     0.177 C 
HETATM    8  C7  UNL     1       6.086  54.991  -8.679  1.00  0.00     0.011 C 
HETATM    9  C8  UNL     1       4.863  55.292  -9.160  1.00  0.00    -0.072 C 
HETATM   10  C9  UNL     1       4.562  55.156 -10.629  1.00  0.00     0.035 C 
HETATM   11  C10 UNL     1       3.345  54.268 -10.859  1.00  0.00     0.012 C 
HETATM   12  C11 UNL     1       2.105  54.764 -10.083  1.00  0.00     0.026 C 
HETATM   13  C12 UNL     1       2.436  54.884  -8.566  1.00  0.00     0.005 C 
HETATM   14  C13 UNL     1       1.194  55.334  -7.781  1.00  0.00     0.007 C 
HETATM   15  C14 UNL     1       0.013  54.398  -8.016  1.00  0.00     0.013 C 
HETATM   16  C15 UNL     1      -0.396  54.275  -9.512  1.00  0.00    -0.003 C 
HETATM   17  C16 UNL     1      -1.074  55.593  -9.938  1.00  0.00     0.019 C 
HETATM   18  C17 UNL     1      -1.339  53.031  -9.666  1.00  0.00     0.058 C 
HETATM   19  C22 UNL     1      -0.348  51.833  -9.712  1.00  0.00     0.143 C 
HETATM   20  C25 UNL     1       1.016  52.386 -10.163  1.00  0.00     0.072 C 
HETATM   21  C26 UNL     1       0.841  53.901 -10.377  1.00  0.00     0.072 C 
HETATM   22  C27 UNL     1       3.706  55.774  -8.273  1.00  0.00    -0.014 C 
HETATM   23  C28 UNL     1       3.453  57.271  -8.578  1.00  0.00     0.020 C 
HETATM   24  C29 UNL     1       4.076  55.644  -6.762  1.00  0.00     0.049 C 
HETATM   25  C30 UNL     1       5.520  56.048  -6.480  1.00  0.00     0.159 C 
HETATM   26  O9  UNL     1       5.797  55.883  -5.091  1.00  0.00    -0.341 OA
HETATM   27  C31 UNL     1       7.140  56.281  -4.778  1.00  0.00     0.240 C 
ENDROOT
BRANCH  18  28
HETATM   28  C18 UNL     1      -2.401  53.026 -10.744  1.00  0.00    -0.043 A 
HETATM   29  C19 UNL     1      -2.207  52.597 -11.993  1.00  0.00     0.087 A 
HETATM   30  C20 UNL     1      -3.435  52.856 -12.741  1.00  0.00     0.283 A 
HETATM   31  O4  UNL     1      -3.599  52.593 -13.919  1.00  0.00    -0.260 OA
HETATM   32  O5  UNL     1      -4.337  53.451 -11.922  1.00  0.00    -0.314 OA
HETATM   33  C21 UNL     1      -3.780  53.557 -10.607  1.00  0.00     0.214 A 
ENDBRANCH  18  28
BRANCH  19  34
HETATM   34  O6  UNL     1      -0.811  50.774 -10.562  1.00  0.00    -0.316 OA
BRANCH  34  35
HETATM   35  C23 UNL     1       0.051  49.737 -10.739  1.00  0.00     0.255 C 
HETATM   36  C24 UNL     1       0.344  49.554 -12.197  1.00  0.00     0.126 C 
HETATM   37  O7  UNL     1       0.548  49.069  -9.844  1.00  0.00    -0.266 OA
ENDBRANCH  34  35
ENDBRANCH  19  34
BRANCH  21  38
HETATM   38  O8  UNL     1       0.505  54.092 -11.758  1.00  0.00    -0.389 OA
HETATM   39  H35 UNL     1       1.218  53.729 -12.311  1.00  0.00     0.210 HD
ENDBRANCH  21  38
BRANCH  27  40
HETATM   40  O10 UNL     1       7.014  57.573  -4.159  1.00  0.00    -0.360 OA
HETATM   41  H42 UNL     1       6.595  57.360  -3.301  1.00  0.00     0.213 HD
ENDBRANCH  27  40
BRANCH   1  42
HETATM   42  O1  UNL     1       6.902  55.346  -2.546  1.00  0.00    -0.385 OA
HETATM   43  C1  UNL     1       6.514  54.048  -2.113  1.00  0.00     0.202 C 
ENDBRANCH   1  42
TORSDOF 6
ENDMDL
MODEL 2
REMARK minimizedAffinity -7.20476198
REMARK CNNscore 0.685211539
REMARK CNNaffinity 6.30584669
REMARK  6 active torsions:
REMARK  status: ('A' for Active; 'I' for Inactive)
REMARK    1  A    between atoms: O1_2  and  C2_3 
REMARK    2  A    between atoms: C17_20  and  C18_21 
REMARK    3  A    between atoms: C22_27  and  O6_28 
REMARK    4  A    between atoms: O6_28  and  C23_29 
REMARK    5  A    between atoms: C26_33  and  O8_34 
REMARK    6  A    between atoms: C31_40  and  O10_41 
ROOT
HETATM    1  C2  UNL     1      -2.382  51.853 -10.346  1.00  0.00     0.190 C 
HETATM    2  C3  UNL     1      -3.789  51.957 -10.948  1.00  0.00     0.064 C 
HETATM    3  C4  UNL     1      -4.154  53.376 -11.353  1.00  0.00     0.174 C 
HETATM    4  O2  UNL     1      -3.605  54.293 -10.424  1.00  0.00    -0.356 OA
HETATM    5  C5  UNL     1      -2.174  54.401 -10.528  1.00  0.00     0.325 C 
HETATM    6  O3  UNL     1      -1.746  55.114  -9.358  1.00  0.00    -0.344 OA
HETATM    7  C6  UNL     1      -0.492  54.703  -8.828  1.00  0.00     0.177 C 
HETATM    8  C7  UNL     1       0.151  55.876  -8.155  1.00  0.00     0.011 C 
HETATM    9  C8  UNL     1       1.473  56.137  -8.198  1.00  0.00    -0.072 C 
HETATM   10  C9  UNL     1       2.035  57.360  -7.521  1.00  0.00     0.035 C 
HETATM   11  C10 UNL     1       3.148  56.986  -6.550  1.00  0.00     0.012 C 
HETATM   12  C11 UNL     1       4.266  56.166  -7.231  1.00  0.00     0.026 C 
HETATM   13  C12 UNL     1       3.664  54.902  -7.912  1.00  0.00     0.005 C 
HETATM   14  C13 UNL     1       4.777  54.058  -8.554  1.00  0.00     0.007 C 
HETATM   15  C14 UNL     1       5.850  53.680  -7.539  1.00  0.00     0.013 C 
HETATM   16  C15 UNL     1       6.524  54.907  -6.859  1.00  0.00    -0.003 C 
HETATM   17  C16 UNL     1       7.436  55.593  -7.894  1.00  0.00     0.019 C 
HETATM   18  C17 UNL     1       7.309  54.403  -5.598  1.00  0.00     0.058 C 
HETATM   19  C22 UNL     1       6.200  54.260  -4.517  1.00  0.00     0.143 C 
HETATM   20  C25 UNL     1       5.033  55.172  -4.936  1.00  0.00     0.072 C 
HETATM   21  C26 UNL     1       5.441  55.848  -6.258  1.00  0.00     0.072 C 
HETATM   22  C27 UNL     1       2.487  55.231  -8.910  1.00  0.00    -0.014 C 
HETATM   23  C28 UNL     1       2.986  55.967 -10.179  1.00  0.00     0.020 C 
HETATM   24  C29 UNL     1       1.816  53.894  -9.358  1.00  0.00     0.049 C 
HETATM   25  C30 UNL     1       0.410  54.107  -9.910  1.00  0.00     0.159 C 
HETATM   26  O9  UNL     1      -0.153  52.848 -10.277  1.00  0.00    -0.341 OA
HETATM   27  C31 UNL     1      -1.467  53.007 -10.829  1.00  0.00     0.240 C 
ENDROOT
BRANCH  18  28
HETATM   28  C18 UNL     1       8.552  55.141  -5.147  1.00  0.00    -0.043 A 
HETATM   29  C19 UNL     1       8.758  56.448  -5.319  1.00  0.00     0.087 A 
HETATM   30  C20 UNL     1      10.107  56.746  -4.846  1.00  0.00     0.283 A 
HETATM   31  O4  UNL     1      10.622  57.849  -4.864  1.00  0.00    -0.260 OA
HETATM   32  O5  UNL     1      10.688  55.600  -4.412  1.00  0.00    -0.314 OA
HETATM   33  C21 UNL     1       9.748  54.525  -4.521  1.00  0.00     0.214 A 
ENDBRANCH  18  28
BRANCH  19  34
HETATM   34  O6  UNL     1       6.680  54.563  -3.199  1.00  0.00    -0.316 OA
BRANCH  34  35
HETATM   35  C23 UNL     1       6.716  53.519  -2.327  1.00  0.00     0.255 C 
HETATM   36  C24 UNL     1       7.866  53.680  -1.380  1.00  0.00     0.126 C 
HETATM   37  O7  UNL     1       5.912  52.599  -2.291  1.00  0.00    -0.266 OA
ENDBRANCH  34  35
ENDBRANCH  19  34
BRANCH  21  38
HETATM   38  O8  UNL     1       6.062  57.095  -5.915  1.00  0.00    -0.389 OA
HETATM   39  H35 UNL     1       5.429  57.636  -5.413  1.00  0.00     0.210 HD
ENDBRANCH  21  38
BRANCH  27  40
HETATM   40  O10 UNL     1      -1.299  52.860 -12.249  1.00  0.00    -0.360 OA
HETATM   41  H42 UNL     1      -1.087  51.909 -12.343  1.00  0.00     0.213 HD
ENDBRANCH  27  40
BRANCH   1  42
HETATM   42  O1  UNL     1      -1.792  50.598 -10.759  1.00  0.00    -0.385 OA
HETATM   43  C1  UNL     1      -2.674  49.806 -11.545  1.00  0.00     0.202 C 
ENDBRANCH   1  42
TORSDOF 6
ENDMDL
MODEL 3
REMARK minimizedAffinity -7.80628014
REMARK CNNscore 0.654192507
REMARK CNNaffinity 6.6658864
REMARK  6 active torsions:
REMARK  status: ('A' for Active; 'I' for Inactive)
REMARK    1  A    between atoms: O1_2  and  C2_3 
REMARK    2  A    between atoms: C17_20  and  C18_21 
REMARK    3  A    between atoms: C22_27  and  O6_28 
REMARK    4  A    between atoms: O6_28  and  C23_29 
REMARK    5  A    between atoms: C26_33  and  O8_34 
REMARK    6  A    between atoms: C31_40  and  O10_41 
ROOT
HETATM    1  C2  UNL     1      -3.533  42.033 -15.032  1.00  0.00     0.190 C 
HETATM    2  C3  UNL     1      -4.251  41.113 -14.035  1.00  0.00     0.064 C 
HETATM    3  C4  UNL     1      -5.765  41.182 -14.155  1.00  0.00     0.174 C 
HETATM    4  O2  UNL     1      -6.160  42.508 -14.457  1.00  0.00    -0.356 OA
HETATM    5  C5  UNL     1      -5.820  42.898 -15.799  1.00  0.00     0.325 C 
HETATM    6  O3  UNL     1      -6.003  44.320 -15.855  1.00  0.00    -0.344 OA
HETATM    7  C6  UNL     1      -5.077  45.014 -16.683  1.00  0.00     0.177 C 
HETATM    8  C7  UNL     1      -5.743  46.242 -17.222  1.00  0.00     0.011 C 
HETATM    9  C8  UNL     1      -5.561  46.709 -18.473  1.00  0.00    -0.072 C 
HETATM   10  C9  UNL     1      -6.297  47.934 -18.948  1.00  0.00     0.035 C 
HETATM   11  C10 UNL     1      -5.329  48.984 -19.480  1.00  0.00     0.012 C 
HETATM   12  C11 UNL     1      -4.411  48.424 -20.589  1.00  0.00     0.026 C 
HETATM   13  C12 UNL     1      -3.652  47.167 -20.071  1.00  0.00     0.005 C 
HETATM   14  C13 UNL     1      -2.703  46.631 -21.155  1.00  0.00     0.007 C 
HETATM   15  C14 UNL     1      -1.731  47.706 -21.632  1.00  0.00     0.013 C 
HETATM   16  C15 UNL     1      -2.434  48.969 -22.206  1.00  0.00    -0.003 C 
HETATM   17  C16 UNL     1      -3.044  48.603 -23.574  1.00  0.00     0.019 C 
HETATM   18  C17 UNL     1      -1.376  50.123 -22.303  1.00  0.00     0.058 C 
HETATM   19  C22 UNL     1      -1.309  50.672 -20.849  1.00  0.00     0.143 C 
HETATM   20  C25 UNL     1      -2.629  50.291 -20.156  1.00  0.00     0.072 C 
HETATM   21  C26 UNL     1      -3.473  49.516 -21.186  1.00  0.00     0.072 C 
HETATM   22  C27 UNL     1      -4.607  46.058 -19.485  1.00  0.00    -0.014 C 
HETATM   23  C28 UNL     1      -5.459  45.380 -20.586  1.00  0.00     0.020 C 
HETATM   24  C29 UNL     1      -3.740  44.956 -18.797  1.00  0.00     0.049 C 
HETATM   25  C30 UNL     1      -4.542  44.121 -17.803  1.00  0.00     0.159 C 
HETATM   26  O9  UNL     1      -3.688  43.154 -17.196  1.00  0.00    -0.341 OA
HETATM   27  C31 UNL     1      -4.412  42.327 -16.273  1.00  0.00     0.240 C 
ENDROOT
BRANCH  18  28
HETATM   28  C18 UNL     1      -1.514  51.176 -23.380  1.00  0.00    -0.043 A 
HETATM   29  C19 UNL     1      -2.630  51.403 -24.077  1.00  0.00     0.087 A 
HETATM   30  C20 UNL     1      -2.323  52.417 -25.082  1.00  0.00     0.283 A 
HETATM   31  O4  UNL     1      -3.118  52.853 -25.894  1.00  0.00    -0.260 OA
HETATM   32  O5  UNL     1      -1.017  52.768 -24.973  1.00  0.00    -0.314 OA
HETATM   33  C21 UNL     1      -0.429  52.059 -23.876  1.00  0.00     0.214 A 
ENDBRANCH  18  28
BRANCH  19  34
HETATM   34  O6  UNL     1      -1.065  52.085 -20.810  1.00  0.00    -0.316 OA
BRANCH  34  35
HETATM   35  C23 UNL     1      -0.008  52.482 -20.051  1.00  0.00     0.255 C 
HETATM   36  C24 UNL     1       0.571  53.751 -20.598  1.00  0.00     0.126 C 
HETATM   37  O7  UNL     1       0.395  51.914 -19.046  1.00  0.00    -0.266 OA
ENDBRANCH  34  35
ENDBRANCH  19  34
BRANCH  21  38
HETATM   38  O8  UNL     1      -4.304  50.476 -21.852  1.00  0.00    -0.389 OA
HETATM   39  H35 UNL     1      -4.861  50.925 -21.193  1.00  0.00     0.210 HD
ENDBRANCH  21  38
BRANCH  27  40
HETATM   40  O10 UNL     1      -4.615  41.082 -16.964  1.00  0.00    -0.360 OA
HETATM   41  H42 UNL     1      -3.712  40.707 -17.001  1.00  0.00     0.213 HD
ENDBRANCH  27  40
BRANCH   1  42
HETATM   42  O1  UNL     1      -2.320  41.380 -15.474  1.00  0.00    -0.385 OA
HETATM   43  C1  UNL     1      -1.142  42.034 -15.018  1.00  0.00     0.202 C 
ENDBRANCH   1  42
TORSDOF 6
ENDMDL
MODEL 4
REMARK minimizedAffinity -7.79791451
REMARK CNNscore 0.565485418
REMARK CNNaffinity 7.0411315
REMARK  6 active torsions:
REMARK  status: ('A' for Active; 'I' for Inactive)
REMARK    1  A    between atoms: O1_2  and  C2_3 
REMARK    2  A    between atoms: C17_20  and  C18_21 
REMARK    3  A    between atoms: C22_27  and  O6_28 
REMARK    4  A    between atoms: O6_28  and  C23_29 
REMARK    5  A    between atoms: C26_33  and  O8_34 
REMARK    6  A    between atoms: C31_40  and  O10_41 
ROOT
HETATM    1  C2  UNL     1      -0.110  51.063 -26.201  1.00  0.00     0.190 C 
HETATM    2  C3  UNL     1      -0.029  51.955 -27.447  1.00  0.00     0.064 C 
HETATM    3  C4  UNL     1      -1.351  52.633 -27.772  1.00  0.00     0.174 C 
HETATM    4  O2  UNL     1      -2.422  51.756 -27.476  1.00  0.00    -0.356 OA
HETATM    5  C5  UNL     1      -2.618  51.573 -26.063  1.00  0.00     0.325 C 
HETATM    6  O3  UNL     1      -3.511  50.457 -25.929  1.00  0.00    -0.344 OA
HETATM    7  C6  UNL     1      -3.266  49.622 -24.804  1.00  0.00     0.177 C 
HETATM    8  C7  UNL     1      -4.563  49.010 -24.372  1.00  0.00     0.011 C 
HETATM    9  C8  UNL     1      -4.910  48.814 -23.084  1.00  0.00    -0.072 C 
HETATM   10  C9  UNL     1      -6.250  48.222 -22.733  1.00  0.00     0.035 C 
HETATM   11  C10 UNL     1      -6.092  46.995 -21.843  1.00  0.00     0.012 C 
HETATM   12  C11 UNL     1      -5.270  47.299 -20.571  1.00  0.00     0.026 C 
HETATM   13  C12 UNL     1      -3.886  47.896 -20.958  1.00  0.00     0.005 C 
HETATM   14  C13 UNL     1      -3.044  48.159 -19.699  1.00  0.00     0.007 C 
HETATM   15  C14 UNL     1      -2.885  46.897 -18.858  1.00  0.00     0.013 C 
HETATM   16  C15 UNL     1      -4.238  46.280 -18.399  1.00  0.00    -0.003 C 
HETATM   17  C16 UNL     1      -4.841  47.192 -17.312  1.00  0.00     0.019 C 
HETATM   18  C17 UNL     1      -3.967  44.822 -17.886  1.00  0.00     0.058 C 
HETATM   19  C22 UNL     1      -3.893  43.988 -19.197  1.00  0.00     0.143 C 
HETATM   20  C25 UNL     1      -4.653  44.772 -20.281  1.00  0.00     0.072 C 
HETATM   21  C26 UNL     1      -5.172  46.065 -19.624  1.00  0.00     0.072 C 
HETATM   22  C27 UNL     1      -3.991  49.156 -21.902  1.00  0.00    -0.014 C 
HETATM   23  C28 UNL     1      -4.582  50.386 -21.170  1.00  0.00     0.020 C 
HETATM   24  C29 UNL     1      -2.561  49.532 -22.405  1.00  0.00     0.049 C 
HETATM   25  C30 UNL     1      -2.596  50.391 -23.666  1.00  0.00     0.159 C 
HETATM   26  O9  UNL     1      -1.262  50.677 -24.083  1.00  0.00    -0.341 OA
HETATM   27  C31 UNL     1      -1.250  51.509 -25.251  1.00  0.00     0.240 C 
ENDROOT
BRANCH  18  28
HETATM   28  C18 UNL     1      -4.846  44.236 -16.803  1.00  0.00    -0.043 A 
HETATM   29  C19 UNL     1      -6.136  43.929 -16.960  1.00  0.00     0.087 A 
HETATM   30  C20 UNL     1      -6.645  43.493 -15.662  1.00  0.00     0.283 A 
HETATM   31  O4  UNL     1      -7.792  43.146 -15.448  1.00  0.00    -0.260 OA
HETATM   32  O5  UNL     1      -5.646  43.563 -14.748  1.00  0.00    -0.314 OA
HETATM   33  C21 UNL     1      -4.441  43.983 -15.398  1.00  0.00     0.214 A 
ENDBRANCH  18  28
BRANCH  19  34
HETATM   34  O6  UNL     1      -4.405  42.660 -19.028  1.00  0.00    -0.316 OA
BRANCH  34  35
HETATM   35  C23 UNL     1      -3.500  41.720 -18.643  1.00  0.00     0.255 C 
HETATM   36  C24 UNL     1      -4.156  40.705 -17.758  1.00  0.00     0.126 C 
HETATM   37  O7  UNL     1      -2.329  41.680 -18.992  1.00  0.00    -0.266 OA
ENDBRANCH  34  35
ENDBRANCH  19  34
BRANCH  21  38
HETATM   38  O8  UNL     1      -6.495  45.788 -19.144  1.00  0.00    -0.389 OA
HETATM   39  H35 UNL     1      -7.053  45.515 -19.892  1.00  0.00     0.210 HD
ENDBRANCH  21  38
BRANCH  27  40
HETATM   40  O10 UNL     1      -0.924  52.825 -24.772  1.00  0.00    -0.360 OA
HETATM   41  H42 UNL     1       0.013  52.731 -24.506  1.00  0.00     0.213 HD
ENDBRANCH  27  40
BRANCH   1  42
HETATM   42  O1  UNL     1       1.144  51.154 -25.484  1.00  0.00    -0.385 OA
HETATM   43  C1  UNL     1       2.253  51.399 -26.341  1.00  0.00     0.202 C 
ENDBRANCH   1  42
TORSDOF 6
ENDMDL
MODEL 5
REMARK minimizedAffinity -6.98960781
REMARK CNNscore 0.519519508
REMARK CNNaffinity 5.72196436
REMARK  6 active torsions:
REMARK  status: ('A' for Active; 'I' for Inactive)
REMARK    1  A    between atoms: O1_2  and  C2_3 
REMARK    2  A    between atoms: C17_20  and  C18_21 
REMARK    3  A    between atoms: C22_27  and  O6_28 
REMARK    4  A    between atoms: O6_28  and  C23_29 
REMARK    5  A    between atoms: C26_33  and  O8_34 
REMARK    6  A    between atoms: C31_40  and  O10_41 
ROOT
HETATM    1  C2  UNL     1     -11.212  41.530 -34.191  1.00  0.00     0.190 C 
HETATM    2  C3  UNL     1     -10.510  41.440 -35.553  1.00  0.00     0.064 C 
HETATM    3  C4  UNL     1      -9.365  42.430 -35.692  1.00  0.00     0.174 C 
HETATM    4  O2  UNL     1      -9.698  43.639 -35.035  1.00  0.00    -0.356 OA
HETATM    5  C5  UNL     1      -9.698  43.513 -33.602  1.00  0.00     0.325 C 
HETATM    6  O3  UNL     1     -10.330  44.700 -33.101  1.00  0.00    -0.344 OA
HETATM    7  C6  UNL     1     -11.123  44.513 -31.935  1.00  0.00     0.177 C 
HETATM    8  C7  UNL     1     -11.113  45.782 -31.141  1.00  0.00     0.011 C 
HETATM    9  C8  UNL     1     -11.070  45.828 -29.794  1.00  0.00    -0.072 C 
HETATM   10  C9  UNL     1     -11.028  47.150 -29.073  1.00  0.00     0.035 C 
HETATM   11  C10 UNL     1     -12.154  47.252 -28.052  1.00  0.00     0.012 C 
HETATM   12  C11 UNL     1     -12.145  46.075 -27.052  1.00  0.00     0.026 C 
HETATM   13  C12 UNL     1     -12.202  44.721 -27.819  1.00  0.00     0.005 C 
HETATM   14  C13 UNL     1     -12.239  43.546 -26.829  1.00  0.00     0.007 C 
HETATM   15  C14 UNL     1     -13.400  43.675 -25.848  1.00  0.00     0.013 C 
HETATM   16  C15 UNL     1     -13.370  44.989 -25.017  1.00  0.00    -0.003 C 
HETATM   17  C16 UNL     1     -12.227  44.884 -23.988  1.00  0.00     0.019 C 
HETATM   18  C17 UNL     1     -14.774  45.181 -24.345  1.00  0.00     0.058 C 
HETATM   19  C22 UNL     1     -15.640  45.782 -25.489  1.00  0.00     0.143 C 
HETATM   20  C25 UNL     1     -14.677  46.435 -26.497  1.00  0.00     0.072 C 
HETATM   21  C26 UNL     1     -13.249  46.219 -25.961  1.00  0.00     0.072 C 
HETATM   22  C27 UNL     1     -11.072  44.573 -28.909  1.00  0.00    -0.014 C 
HETATM   23  C28 UNL     1      -9.666  44.426 -28.276  1.00  0.00     0.020 C 
HETATM   24  C29 UNL     1     -11.355  43.296 -29.761  1.00  0.00     0.049 C 
HETATM   25  C30 UNL     1     -10.637  43.323 -31.107  1.00  0.00     0.159 C 
HETATM   26  O9  UNL     1     -10.957  42.143 -31.841  1.00  0.00    -0.341 OA
HETATM   27  C31 UNL     1     -10.277  42.116 -33.104  1.00  0.00     0.240 C 
ENDROOT
BRANCH  18  28
HETATM   28  C18 UNL     1     -14.876  45.902 -23.018  1.00  0.00    -0.043 A 
HETATM   29  C19 UNL     1     -14.436  47.142 -22.796  1.00  0.00     0.087 A 
HETATM   30  C20 UNL     1     -14.623  47.427 -21.376  1.00  0.00     0.283 A 
HETATM   31  O4  UNL     1     -14.319  48.473 -20.831  1.00  0.00    -0.260 OA
HETATM   32  O5  UNL     1     -15.162  46.339 -20.772  1.00  0.00    -0.314 OA
HETATM   33  C21 UNL     1     -15.405  45.327 -21.757  1.00  0.00     0.214 A 
ENDBRANCH  18  28
BRANCH  19  34
HETATM   34  O6  UNL     1     -16.623  46.707 -25.001  1.00  0.00    -0.316 OA
BRANCH  34  35
HETATM   35  C23 UNL     1     -17.916  46.290 -25.074  1.00  0.00     0.255 C 
HETATM   36  C24 UNL     1     -18.617  46.561 -23.778  1.00  0.00     0.126 C 
HETATM   37  O7  UNL     1     -18.447  45.798 -26.059  1.00  0.00    -0.266 OA
ENDBRANCH  34  35
ENDBRANCH  19  34
BRANCH  21  38
HETATM   38  O8  UNL     1     -12.922  47.369 -25.170  1.00  0.00    -0.389 OA
HETATM   39  H35 UNL     1     -12.982  48.165 -25.727  1.00  0.00     0.210 HD
ENDBRANCH  21  38
BRANCH  27  40
HETATM   40  O10 UNL     1      -9.190  41.192 -32.925  1.00  0.00    -0.360 OA
HETATM   41  H42 UNL     1      -9.649  40.330 -32.855  1.00  0.00     0.213 HD
ENDBRANCH  27  40
BRANCH   1  42
HETATM   42  O1  UNL     1     -11.609  40.199 -33.785  1.00  0.00    -0.385 OA
HETATM   43  C1  UNL     1     -11.431  39.232 -34.812  1.00  0.00     0.202 C 
ENDBRANCH   1  42
TORSDOF 6
ENDMDL
MODEL 6
REMARK minimizedAffinity -8.60193825
REMARK CNNscore 0.470273316
REMARK CNNaffinity 6.46948671
REMARK  6 active torsions:
REMARK  status: ('A' for Active; 'I' for Inactive)
REMARK    1  A    between atoms: O1_2  and  C2_3 
REMARK    2  A    between atoms: C17_20  and  C18_21 
REMARK    3  A    between atoms: C22_27  and  O6_28 
REMARK    4  A    between atoms: O6_28  and  C23_29 
REMARK    5  A    between atoms: C26_33  and  O8_34 
REMARK    6  A    between atoms: C31_40  and  O10_41 
ROOT
HETATM    1  C2  UNL     1       0.163  51.472 -27.138  1.00  0.00     0.190 C 
HETATM    2  C3  UNL     1       0.575  52.658 -28.020  1.00  0.00     0.064 C 
HETATM    3  C4  UNL     1      -0.169  53.937 -27.673  1.00  0.00     0.174 C 
HETATM    4  O2  UNL     1      -1.502  53.630 -27.307  1.00  0.00    -0.356 OA
HETATM    5  C5  UNL     1      -1.591  52.976 -26.028  1.00  0.00     0.325 C 
HETATM    6  O3  UNL     1      -2.931  52.470 -25.936  1.00  0.00    -0.344 OA
HETATM    7  C6  UNL     1      -3.060  51.229 -25.253  1.00  0.00     0.177 C 
HETATM    8  C7  UNL     1      -4.411  51.173 -24.612  1.00  0.00     0.011 C 
HETATM    9  C8  UNL     1      -4.648  50.634 -23.400  1.00  0.00    -0.072 C 
HETATM   10  C9  UNL     1      -6.034  50.650 -22.811  1.00  0.00     0.035 C 
HETATM   11  C10 UNL     1      -6.481  49.245 -22.424  1.00  0.00     0.012 C 
HETATM   12  C11 UNL     1      -5.482  48.555 -21.470  1.00  0.00     0.026 C 
HETATM   13  C12 UNL     1      -4.060  48.539 -22.105  1.00  0.00     0.005 C 
HETATM   14  C13 UNL     1      -3.069  47.814 -21.180  1.00  0.00     0.007 C 
HETATM   15  C14 UNL     1      -3.542  46.403 -20.848  1.00  0.00     0.013 C 
HETATM   16  C15 UNL     1      -4.939  46.359 -20.166  1.00  0.00    -0.003 C 
HETATM   17  C16 UNL     1      -4.790  46.884 -18.724  1.00  0.00     0.019 C 
HETATM   18  C17 UNL     1      -5.470  44.884 -20.222  1.00  0.00     0.058 C 
HETATM   19  C22 UNL     1      -6.037  44.761 -21.666  1.00  0.00     0.143 C 
HETATM   20  C25 UNL     1      -6.355  46.185 -22.155  1.00  0.00     0.072 C 
HETATM   21  C26 UNL     1      -5.975  47.149 -21.014  1.00  0.00     0.072 C 
HETATM   22  C27 UNL     1      -3.558  49.968 -22.547  1.00  0.00    -0.014 C 
HETATM   23  C28 UNL     1      -3.264  50.885 -21.335  1.00  0.00     0.020 C 
HETATM   24  C29 UNL     1      -2.237  49.808 -23.365  1.00  0.00     0.049 C 
HETATM   25  C30 UNL     1      -1.939  51.027 -24.232  1.00  0.00     0.159 C 
HETATM   26  O9  UNL     1      -0.737  50.806 -24.968  1.00  0.00    -0.341 OA
HETATM   27  C31 UNL     1      -0.405  51.944 -25.776  1.00  0.00     0.240 C 
ENDROOT
BRANCH  18  28
HETATM   28  C18 UNL     1      -6.386  44.376 -19.130  1.00  0.00    -0.043 A 
HETATM   29  C19 UNL     1      -7.600  44.867 -18.873  1.00  0.00     0.087 A 
HETATM   30  C20 UNL     1      -8.109  44.184 -17.687  1.00  0.00     0.283 A 
HETATM   31  O4  UNL     1      -9.192  44.397 -17.173  1.00  0.00    -0.260 OA
HETATM   32  O5  UNL     1      -7.176  43.303 -17.248  1.00  0.00    -0.314 OA
HETATM   33  C21 UNL     1      -6.056  43.321 -18.140  1.00  0.00     0.214 A 
ENDBRANCH  18  28
BRANCH  19  34
HETATM   34  O6  UNL     1      -7.180  43.897 -21.732  1.00  0.00    -0.316 OA
BRANCH  34  35
HETATM   35  C23 UNL     1      -6.985  42.703 -22.354  1.00  0.00     0.255 C 
HETATM   36  C24 UNL     1      -7.360  42.808 -23.800  1.00  0.00     0.126 C 
HETATM   37  O7  UNL     1      -6.535  41.695 -21.826  1.00  0.00    -0.266 OA
ENDBRANCH  34  35
ENDBRANCH  19  34
BRANCH  21  38
HETATM   38  O8  UNL     1      -7.156  47.345 -20.224  1.00  0.00    -0.389 OA
HETATM   39  H35 UNL     1      -7.858  47.713 -20.788  1.00  0.00     0.210 HD
ENDBRANCH  21  38
BRANCH  27  40
HETATM   40  O10 UNL     1       0.657  52.609 -25.071  1.00  0.00    -0.360 OA
HETATM   41  H42 UNL     1       1.405  51.986 -25.173  1.00  0.00     0.213 HD
ENDBRANCH  27  40
BRANCH   1  42
HETATM   42  O1  UNL     1       1.330  50.653 -26.887  1.00  0.00    -0.385 OA
HETATM   43  C1  UNL     1       2.541  51.399 -26.901  1.00  0.00     0.202 C 
ENDBRANCH   1  42
TORSDOF 6
ENDMDL
MODEL 7
REMARK minimizedAffinity -6.882761
REMARK CNNscore 0.466247439
REMARK CNNaffinity 6.21900558
REMARK  6 active torsions:
REMARK  status: ('A' for Active; 'I' for Inactive)
REMARK    1  A    between atoms: O1_2  and  C2_3 
REMARK    2  A    between atoms: C17_20  and  C18_21 
REMARK    3  A    between atoms: C22_27  and  O6_28 
REMARK    4  A    between atoms: O6_28  and  C23_29 
REMARK    5  A    between atoms: C26_33  and  O8_34 
REMARK    6  A    between atoms: C31_40  and  O10_41 
ROOT
HETATM    1  C2  UNL     1      -0.977  50.398 -13.309  1.00  0.00     0.190 C 
HETATM    2  C3  UNL     1      -2.134  49.557 -13.863  1.00  0.00     0.064 C 
HETATM    3  C4  UNL     1      -3.444  49.799 -13.130  1.00  0.00     0.174 C 
HETATM    4  O2  UNL     1      -3.187  50.010 -11.753  1.00  0.00    -0.356 OA
HETATM    5  C5  UNL     1      -2.557  51.276 -11.492  1.00  0.00     0.325 C 
HETATM    6  O3  UNL     1      -2.099  51.216 -10.133  1.00  0.00    -0.344 OA
HETATM    7  C6  UNL     1      -0.873  51.894  -9.881  1.00  0.00     0.177 C 
HETATM    8  C7  UNL     1      -0.874  52.372  -8.463  1.00  0.00     0.011 C 
HETATM    9  C8  UNL     1      -0.362  53.555  -8.067  1.00  0.00    -0.072 C 
HETATM   10  C9  UNL     1      -0.434  53.976  -6.623  1.00  0.00     0.035 C 
HETATM   11  C10 UNL     1       0.948  54.324  -6.083  1.00  0.00     0.012 C 
HETATM   12  C11 UNL     1       1.656  55.397  -6.939  1.00  0.00     0.026 C 
HETATM   13  C12 UNL     1       1.731  54.934  -8.424  1.00  0.00     0.005 C 
HETATM   14  C13 UNL     1       2.474  55.978  -9.274  1.00  0.00     0.007 C 
HETATM   15  C14 UNL     1       3.863  56.268  -8.715  1.00  0.00     0.013 C 
HETATM   16  C15 UNL     1       3.849  56.782  -7.247  1.00  0.00    -0.003 C 
HETATM   17  C16 UNL     1       3.307  58.225  -7.245  1.00  0.00     0.019 C 
HETATM   18  C17 UNL     1       5.306  56.680  -6.674  1.00  0.00     0.058 C 
HETATM   19  C22 UNL     1       5.432  55.182  -6.277  1.00  0.00     0.143 C 
HETATM   20  C25 UNL     1       4.006  54.642  -6.069  1.00  0.00     0.072 C 
HETATM   21  C26 UNL     1       3.038  55.808  -6.346  1.00  0.00     0.072 C 
HETATM   22  C27 UNL     1       0.327  54.537  -9.025  1.00  0.00    -0.014 C 
HETATM   23  C28 UNL     1      -0.598  55.765  -9.208  1.00  0.00     0.020 C 
HETATM   24  C29 UNL     1       0.545  53.882 -10.426  1.00  0.00     0.049 C 
HETATM   25  C30 UNL     1      -0.650  53.042 -10.866  1.00  0.00     0.159 C 
HETATM   26  O9  UNL     1      -0.377  52.455 -12.137  1.00  0.00    -0.341 OA
HETATM   27  C31 UNL     1      -1.490  51.678 -12.602  1.00  0.00     0.240 C 
ENDROOT
BRANCH  18  28
HETATM   28  C18 UNL     1       5.765  57.664  -5.619  1.00  0.00    -0.043 A 
HETATM   29  C19 UNL     1       6.932  58.311  -5.646  1.00  0.00     0.087 A 
HETATM   30  C20 UNL     1       7.039  59.076  -4.407  1.00  0.00     0.283 A 
HETATM   31  O4  UNL     1       7.987  59.778  -4.103  1.00  0.00    -0.260 OA
HETATM   32  O5  UNL     1       5.933  58.857  -3.653  1.00  0.00    -0.314 OA
HETATM   33  C21 UNL     1       5.036  58.002  -4.372  1.00  0.00     0.214 A 
ENDBRANCH  18  28
BRANCH  19  34
HETATM   34  O6  UNL     1       6.258  54.992  -5.119  1.00  0.00    -0.316 OA
BRANCH  34  35
HETATM   35  C23 UNL     1       7.393  54.268  -5.314  1.00  0.00     0.255 C 
HETATM   36  C24 UNL     1       8.589  55.063  -4.888  1.00  0.00     0.126 C 
HETATM   37  O7  UNL     1       7.438  53.123  -5.739  1.00  0.00    -0.266 OA
ENDBRANCH  34  35
ENDBRANCH  19  34
BRANCH  21  38
HETATM   38  O8  UNL     1       2.789  56.452  -5.089  1.00  0.00    -0.389 OA
HETATM   39  H35 UNL     1       2.407  55.805  -4.471  1.00  0.00     0.210 HD
ENDBRANCH  21  38
BRANCH  27  40
HETATM   40  O10 UNL     1      -2.129  52.496 -13.598  1.00  0.00    -0.360 OA
HETATM   41  H42 UNL     1      -1.479  52.490 -14.330  1.00  0.00     0.213 HD
ENDBRANCH  27  40
BRANCH   1  42
HETATM   42  O1  UNL     1      -0.123  50.794 -14.408  1.00  0.00    -0.385 OA
HETATM   43  C1  UNL     1       0.723  49.742 -14.856  1.00  0.00     0.202 C 
ENDBRANCH   1  42
TORSDOF 6
ENDMDL
MODEL 8
REMARK minimizedAffinity -8.27346611
REMARK CNNscore 0.455512285
REMARK CNNaffinity 6.34513283
REMARK  6 active torsions:
REMARK  status: ('A' for Active; 'I' for Inactive)
REMARK    1  A    between atoms: O1_2  and  C2_3 
REMARK    2  A    between atoms: C17_20  and  C18_21 
REMARK    3  A    between atoms: C22_27  and  O6_28 
REMARK    4  A    between atoms: O6_28  and  C23_29 
REMARK    5  A    between atoms: C26_33  and  O8_34 
REMARK    6  A    between atoms: C31_40  and  O10_41 
ROOT
HETATM    1  C2  UNL     1      -8.880  43.977 -26.258  1.00  0.00     0.190 C 
HETATM    2  C3  UNL     1     -10.184  43.212 -26.520  1.00  0.00     0.064 C 
HETATM    3  C4  UNL     1     -11.391  43.863 -25.864  1.00  0.00     0.174 C 
HETATM    4  O2  UNL     1     -11.015  44.413 -24.614  1.00  0.00    -0.356 OA
HETATM    5  C5  UNL     1     -10.187  45.581 -24.746  1.00  0.00     0.325 C 
HETATM    6  O3  UNL     1      -9.654  45.837 -23.438  1.00  0.00    -0.344 OA
HETATM    7  C6  UNL     1      -8.326  46.349 -23.418  1.00  0.00     0.177 C 
HETATM    8  C7  UNL     1      -8.162  47.205 -22.201  1.00  0.00     0.011 C 
HETATM    9  C8  UNL     1      -7.453  48.352 -22.178  1.00  0.00    -0.072 C 
HETATM   10  C9  UNL     1      -7.366  49.173 -20.918  1.00  0.00     0.035 C 
HETATM   11  C10 UNL     1      -5.915  49.430 -20.531  1.00  0.00     0.012 C 
HETATM   12  C11 UNL     1      -5.112  50.085 -21.676  1.00  0.00     0.026 C 
HETATM   13  C12 UNL     1      -5.206  49.213 -22.962  1.00  0.00     0.005 C 
HETATM   14  C13 UNL     1      -4.372  49.835 -24.094  1.00  0.00     0.007 C 
HETATM   15  C14 UNL     1      -2.921  50.043 -23.672  1.00  0.00     0.013 C 
HETATM   16  C15 UNL     1      -2.761  50.949 -22.417  1.00  0.00    -0.003 C 
HETATM   17  C16 UNL     1      -3.079  52.401 -22.825  1.00  0.00     0.019 C 
HETATM   18  C17 UNL     1      -1.301  50.779 -21.868  1.00  0.00     0.058 C 
HETATM   19  C22 UNL     1      -1.375  49.456 -21.053  1.00  0.00     0.143 C 
HETATM   20  C25 UNL     1      -2.850  49.238 -20.669  1.00  0.00     0.072 C 
HETATM   21  C26 UNL     1      -3.648  50.417 -21.256  1.00  0.00     0.072 C 
HETATM   22  C27 UNL     1      -6.689  48.894 -23.394  1.00  0.00    -0.014 C 
HETATM   23  C28 UNL     1      -7.430  50.153 -23.909  1.00  0.00     0.020 C 
HETATM   24  C29 UNL     1      -6.666  47.841 -24.547  1.00  0.00     0.049 C 
HETATM   25  C30 UNL     1      -7.999  47.117 -24.699  1.00  0.00     0.159 C 
HETATM   26  O9  UNL     1      -7.901  46.156 -25.749  1.00  0.00    -0.341 OA
HETATM   27  C31 UNL     1      -9.146  45.471 -25.945  1.00  0.00     0.240 C 
ENDROOT
BRANCH  18  28
HETATM   28  C18 UNL     1      -0.632  51.934 -21.155  1.00  0.00    -0.043 A 
HETATM   29  C19 UNL     1       0.362  52.664 -21.667  1.00  0.00     0.087 A 
HETATM   30  C20 UNL     1       0.796  53.600 -20.634  1.00  0.00     0.283 A 
HETATM   31  O4  UNL     1       1.694  54.412 -20.766  1.00  0.00    -0.260 OA
HETATM   32  O5  UNL     1       0.059  53.399 -19.514  1.00  0.00    -0.314 OA
HETATM   33  C21 UNL     1      -0.917  52.382 -19.770  1.00  0.00     0.214 A 
ENDBRANCH  18  28
BRANCH  19  34
HETATM   34  O6  UNL     1      -0.513  49.472 -19.907  1.00  0.00    -0.316 OA
BRANCH  34  35
HETATM   35  C23 UNL     1      -0.986  48.834 -18.802  1.00  0.00     0.255 C 
HETATM   36  C24 UNL     1      -0.580  49.578 -17.566  1.00  0.00     0.126 C 
HETATM   37  O7  UNL     1      -1.672  47.823 -18.808  1.00  0.00    -0.266 OA
ENDBRANCH  34  35
ENDBRANCH  19  34
BRANCH  21  38
HETATM   38  O8  UNL     1      -3.714  51.424 -20.236  1.00  0.00    -0.389 OA
HETATM   39  H35 UNL     1      -4.147  51.051 -19.449  1.00  0.00     0.210 HD
ENDBRANCH  21  38
BRANCH  27  40
HETATM   40  O10 UNL     1      -9.720  46.063 -27.123  1.00  0.00    -0.360 OA
HETATM   41  H42 UNL     1      -9.128  45.744 -27.834  1.00  0.00     0.213 HD
ENDBRANCH  27  40
BRANCH   1  42
HETATM   42  O1  UNL     1      -8.050  43.898 -27.441  1.00  0.00    -0.385 OA
HETATM   43  C1  UNL     1      -7.898  45.153 -28.093  1.00  0.00     0.202 C 
ENDBRANCH   1  42
TORSDOF 6
ENDMDL
MODEL 9
REMARK minimizedAffinity -7.67155981
REMARK CNNscore 0.451133907
REMARK CNNaffinity 5.72164011
REMARK  6 active torsions:
REMARK  status: ('A' for Active; 'I' for Inactive)
REMARK    1  A    between atoms: O1_2  and  C2_3 
REMARK    2  A    between atoms: C17_20  and  C18_21 
REMARK    3  A    between atoms: C22_27  and  O6_28 
REMARK    4  A    between atoms: O6_28  and  C23_29 
REMARK    5  A    between atoms: C26_33  and  O8_34 
REMARK    6  A    between atoms: C31_40  and  O10_41 
ROOT
HETATM    1  C2  UNL     1      -8.147  47.432 -20.738  1.00  0.00     0.190 C 
HETATM    2  C3  UNL     1      -6.916  48.181 -20.211  1.00  0.00     0.064 C 
HETATM    3  C4  UNL     1      -7.130  48.764 -18.823  1.00  0.00     0.174 C 
HETATM    4  O2  UNL     1      -8.466  49.218 -18.698  1.00  0.00    -0.356 OA
HETATM    5  C5  UNL     1      -9.416  48.141 -18.628  1.00  0.00     0.325 C 
HETATM    6  O3  UNL     1     -10.708  48.741 -18.805  1.00  0.00    -0.344 OA
HETATM    7  C6  UNL     1     -11.647  47.949 -19.523  1.00  0.00     0.177 C 
HETATM    8  C7  UNL     1     -13.024  48.289 -19.045  1.00  0.00     0.011 C 
HETATM    9  C8  UNL     1     -14.010  47.384 -18.884  1.00  0.00    -0.072 C 
HETATM   10  C9  UNL     1     -15.360  47.805 -18.365  1.00  0.00     0.035 C 
HETATM   11  C10 UNL     1     -16.471  47.376 -19.315  1.00  0.00     0.012 C 
HETATM   12  C11 UNL     1     -16.437  45.859 -19.606  1.00  0.00     0.026 C 
HETATM   13  C12 UNL     1     -15.039  45.450 -20.153  1.00  0.00     0.005 C 
HETATM   14  C13 UNL     1     -15.012  43.950 -20.487  1.00  0.00     0.007 C 
HETATM   15  C14 UNL     1     -16.120  43.574 -21.466  1.00  0.00     0.013 C 
HETATM   16  C15 UNL     1     -17.547  43.915 -20.951  1.00  0.00    -0.003 C 
HETATM   17  C16 UNL     1     -17.905  42.924 -19.826  1.00  0.00     0.019 C 
HETATM   18  C17 UNL     1     -18.540  43.840 -22.163  1.00  0.00     0.058 C 
HETATM   19  C22 UNL     1     -18.339  45.208 -22.878  1.00  0.00     0.143 C 
HETATM   20  C25 UNL     1     -17.764  46.186 -21.838  1.00  0.00     0.072 C 
HETATM   21  C26 UNL     1     -17.618  45.407 -20.517  1.00  0.00     0.072 C 
HETATM   22  C27 UNL     1     -13.848  45.894 -19.219  1.00  0.00    -0.014 C 
HETATM   23  C28 UNL     1     -13.822  45.100 -17.889  1.00  0.00     0.020 C 
HETATM   24  C29 UNL     1     -12.499  45.638 -19.962  1.00  0.00     0.049 C 
HETATM   25  C30 UNL     1     -11.350  46.456 -19.380  1.00  0.00     0.159 C 
HETATM   26  O9  UNL     1     -10.158  46.193 -20.118  1.00  0.00    -0.341 OA
HETATM   27  C31 UNL     1      -9.044  46.923 -19.583  1.00  0.00     0.240 C 
ENDROOT
BRANCH  18  28
HETATM   28  C18 UNL     1     -19.982  43.448 -21.925  1.00  0.00    -0.043 A 
HETATM   29  C19 UNL     1     -20.457  42.978 -20.770  1.00  0.00     0.087 A 
HETATM   30  C20 UNL     1     -21.857  42.622 -20.981  1.00  0.00     0.283 A 
HETATM   31  O4  UNL     1     -22.591  42.154 -20.130  1.00  0.00    -0.260 OA
HETATM   32  O5  UNL     1     -22.189  42.874 -22.272  1.00  0.00    -0.314 OA
HETATM   33  C21 UNL     1     -21.063  43.452 -22.942  1.00  0.00     0.214 A 
ENDBRANCH  18  28
BRANCH  19  34
HETATM   34  O6  UNL     1     -19.550  45.697 -23.471  1.00  0.00    -0.316 OA
BRANCH  34  35
HETATM   35  C23 UNL     1     -19.407  46.357 -24.652  1.00  0.00     0.255 C 
HETATM   36  C24 UNL     1     -19.599  45.410 -25.797  1.00  0.00     0.126 C 
HETATM   37  O7  UNL     1     -19.189  47.554 -24.771  1.00  0.00    -0.266 OA
ENDBRANCH  34  35
ENDBRANCH  19  34
BRANCH  21  38
HETATM   38  O8  UNL     1     -18.830  45.608 -19.777  1.00  0.00    -0.389 OA
HETATM   39  H35 UNL     1     -18.953  46.561 -19.623  1.00  0.00     0.210 HD
ENDBRANCH  21  38
BRANCH  27  40
HETATM   40  O10 UNL     1      -8.284  45.955 -18.838  1.00  0.00    -0.360 OA
HETATM   41  H42 UNL     1      -7.912  45.386 -19.543  1.00  0.00     0.213 HD
ENDBRANCH  27  40
BRANCH   1  42
HETATM   42  O1  UNL     1      -7.700  46.290 -21.507  1.00  0.00    -0.385 OA
HETATM   43  C1  UNL     1      -6.900  46.656 -22.625  1.00  0.00     0.202 C 
ENDBRANCH   1  42
TORSDOF 6
ENDMDL
