MODEL 1
REMARK minimizedAffinity -8.77627087
REMARK CNNscore 0.76803869
REMARK CNNaffinity 8.11514187
REMARK  13 active torsions:
REMARK  status: ('A' for Active; 'I' for Inactive)
REMARK    1  A    between atoms: C19_21  and  O3_22 
REMARK    2  A    between atoms: C19_21  and  C20_23 
REMARK    3  A    between atoms: C20_23  and  C21_25 
REMARK    4  A    between atoms: C21_25  and  O5_26 
REMARK    5  A    between atoms: O5_26  and  C22_27 
REMARK    6  A    between atoms: C22_27  and  C23_29 
REMARK    7  A    between atoms: C23_29  and  C24_30 
REMARK    8  A    between atoms: C24_30  and  C25_31 
REMARK       I    between atoms: C25_31  and  N1_33 
REMARK    9  A    between atoms: N1_33  and  C26_34 
REMARK   10  A    between atoms: C26_34  and  C27_35 
REMARK   11  A    between atoms: C27_35  and  C28_36 
REMARK   12  A    between atoms: C31_39  and  O8_40 
REMARK   13  A    between atoms: C32_41  and  O9_42 
ROOT
HETATM    1  C20 UNL     1      -3.804  49.478 -20.072  1.00  0.00     0.185 C 
HETATM    2  O4  UNL     1      -3.077  49.255 -21.051  1.00  0.00    -0.292 OA
ENDROOT
BRANCH   1   3
HETATM    3  C19 UNL     1      -3.212  49.328 -18.641  1.00  0.00     0.128 C 
HETATM    4  C14 UNL     1      -2.323  50.512 -18.125  1.00  0.00     0.005 C 
HETATM    5  C13 UNL     1      -2.415  50.711 -16.587  1.00  0.00     0.091 C 
HETATM    6  C15 UNL     1      -2.748  51.851 -18.762  1.00  0.00     0.019 C 
HETATM    7  C16 UNL     1      -0.881  50.105 -18.562  1.00  0.00     0.002 C 
HETATM    8  C12 UNL     1      -1.464  49.822 -15.821  1.00  0.00     0.133 C 
HETATM    9  C11 UNL     1       0.022  49.947 -16.139  1.00  0.00     0.072 C 
HETATM   10  O2  UNL     1      -1.856  49.067 -14.932  1.00  0.00    -0.297 OA
HETATM   11  C2  UNL     1       0.823  50.673 -14.996  1.00  0.00    -0.009 C 
HETATM   12  C10 UNL     1       0.255  50.486 -17.574  1.00  0.00     0.003 C 
HETATM   13  C1  UNL     1      -0.006  51.742 -14.246  1.00  0.00     0.021 C 
HETATM   14  C3  UNL     1       1.253  49.581 -13.968  1.00  0.00     0.022 C 
HETATM   15  C7  UNL     1       2.054  51.383 -15.567  1.00  0.00    -0.067 C 
HETATM   16  C4  UNL     1       2.334  50.040 -12.998  1.00  0.00     0.084 C 
HETATM   17  C5  UNL     1       3.530  50.536 -13.766  1.00  0.00     0.149 C 
HETATM   18  O1  UNL     1       4.683  50.401 -13.356  1.00  0.00    -0.293 OA
HETATM   19  C6  UNL     1       3.283  51.284 -15.023  1.00  0.00     0.053 C 
HETATM   20  C8  UNL     1       1.859  52.267 -16.778  1.00  0.00     0.035 C 
HETATM   21  C9  UNL     1       0.583  51.980 -17.573  1.00  0.00     0.010 C 
HETATM   22  C17 UNL     1      -0.918  48.574 -18.797  1.00  0.00     0.009 C 
HETATM   23  C18 UNL     1      -2.327  48.100 -18.475  1.00  0.00     0.047 C 
BRANCH   3  24
HETATM   24  O3  UNL     1      -4.357  49.150 -17.795  1.00  0.00    -0.381 OA
HETATM   25  H25 UNL     1      -5.055  49.743 -18.140  1.00  0.00     0.211 HD
ENDBRANCH   3  24
ENDBRANCH   1   3
BRANCH   1  26
HETATM   26  C21 UNL     1      -5.266  49.888 -20.247  1.00  0.00     0.260 C 
BRANCH  26  27
HETATM   27  O5  UNL     1      -6.064  48.866 -20.849  1.00  0.00    -0.314 OA
BRANCH  27  28
HETATM   28  C22 UNL     1      -6.560  49.195 -22.075  1.00  0.00     0.259 C 
HETATM   29  O6  UNL     1      -7.510  49.943 -22.261  1.00  0.00    -0.265 OA
BRANCH  28  30
HETATM   30  C23 UNL     1      -5.770  48.493 -23.151  1.00  0.00     0.120 C 
BRANCH  30  31
HETATM   31  C24 UNL     1      -5.398  49.457 -24.271  1.00  0.00     0.112 C 
BRANCH  31  32
HETATM   32  C25 UNL     1      -3.903  49.478 -24.518  1.00  0.00     0.218 C 
HETATM   33  O7  UNL     1      -3.230  48.464 -24.667  1.00  0.00    -0.274 OA
HETATM   34  N1  UNL     1      -3.390  50.754 -24.601  1.00  0.00    -0.361 N 
HETATM   35  H32 UNL     1      -3.975  51.522 -24.287  1.00  0.00     0.162 HD
BRANCH  34  36
HETATM   36  C26 UNL     1      -1.962  50.997 -24.666  1.00  0.00     0.127 C 
BRANCH  36  37
HETATM   37  C27 UNL     1      -1.245  50.696 -23.341  1.00  0.00     0.058 C 
BRANCH  37  38
HETATM   38  C28 UNL     1      -0.311  51.810 -22.923  1.00  0.00    -0.054 A 
HETATM   39  C29 UNL     1       0.139  51.889 -21.593  1.00  0.00     0.010 A 
HETATM   40  C30 UNL     1       0.962  52.937 -21.178  1.00  0.00     0.040 A 
HETATM   41  C31 UNL     1       1.340  53.901 -22.098  1.00  0.00     0.098 A 
HETATM   42  C32 UNL     1       0.911  53.832 -23.422  1.00  0.00     0.099 A 
HETATM   43  C33 UNL     1       0.085  52.795 -23.844  1.00  0.00     0.046 A 
BRANCH  41  44
HETATM   44  O8  UNL     1       2.139  54.934 -21.695  1.00  0.00    -0.358 OA
HETATM   45  H39 UNL     1       2.265  55.472 -22.501  1.00  0.00     0.217 HD
ENDBRANCH  41  44
BRANCH  42  46
HETATM   46  O9  UNL     1       1.322  54.819 -24.274  1.00  0.00    -0.358 OA
HETATM   47  H40 UNL     1       1.013  54.598 -25.169  1.00  0.00     0.217 HD
ENDBRANCH  42  46
ENDBRANCH  37  38
ENDBRANCH  36  37
ENDBRANCH  34  36
ENDBRANCH  31  32
ENDBRANCH  30  31
ENDBRANCH  28  30
ENDBRANCH  27  28
ENDBRANCH  26  27
ENDBRANCH   1  26
TORSDOF 13
ENDMDL
MODEL 2
REMARK minimizedAffinity -9.709342
REMARK CNNscore 0.652936995
REMARK CNNaffinity 7.3668685
REMARK  13 active torsions:
REMARK  status: ('A' for Active; 'I' for Inactive)
REMARK    1  A    between atoms: C19_21  and  O3_22 
REMARK    2  A    between atoms: C19_21  and  C20_23 
REMARK    3  A    between atoms: C20_23  and  C21_25 
REMARK    4  A    between atoms: C21_25  and  O5_26 
REMARK    5  A    between atoms: O5_26  and  C22_27 
REMARK    6  A    between atoms: C22_27  and  C23_29 
REMARK    7  A    between atoms: C23_29  and  C24_30 
REMARK    8  A    between atoms: C24_30  and  C25_31 
REMARK       I    between atoms: C25_31  and  N1_33 
REMARK    9  A    between atoms: N1_33  and  C26_34 
REMARK   10  A    between atoms: C26_34  and  C27_35 
REMARK   11  A    between atoms: C27_35  and  C28_36 
REMARK   12  A    between atoms: C31_39  and  O8_40 
REMARK   13  A    between atoms: C32_41  and  O9_42 
ROOT
HETATM    1  C20 UNL     1      -1.001  50.661 -18.221  1.00  0.00     0.185 C 
HETATM    2  O4  UNL     1      -2.066  50.323 -17.684  1.00  0.00    -0.292 OA
ENDROOT
BRANCH   1   3
HETATM    3  C19 UNL     1      -0.997  51.019 -19.735  1.00  0.00     0.128 C 
HETATM    4  C14 UNL     1      -2.341  50.794 -20.510  1.00  0.00     0.005 C 
HETATM    5  C13 UNL     1      -2.547  51.807 -21.670  1.00  0.00     0.091 C 
HETATM    6  C15 UNL     1      -3.559  50.949 -19.576  1.00  0.00     0.019 C 
HETATM    7  C16 UNL     1      -2.216  49.333 -21.046  1.00  0.00     0.002 C 
HETATM    8  C12 UNL     1      -1.875  51.377 -22.953  1.00  0.00     0.133 C 
HETATM    9  C11 UNL     1      -2.281  50.030 -23.539  1.00  0.00     0.072 C 
HETATM   10  O2  UNL     1      -1.075  52.104 -23.540  1.00  0.00    -0.297 OA
HETATM   11  C2  UNL     1      -3.172  50.179 -24.828  1.00  0.00    -0.009 C 
HETATM   12  C10 UNL     1      -2.829  49.074 -22.448  1.00  0.00     0.003 C 
HETATM   13  C1  UNL     1      -4.072  51.437 -24.814  1.00  0.00     0.021 C 
HETATM   14  C3  UNL     1      -2.204  50.288 -26.047  1.00  0.00     0.022 C 
HETATM   15  C7  UNL     1      -4.097  48.970 -24.988  1.00  0.00    -0.067 C 
HETATM   16  C4  UNL     1      -2.883  50.074 -27.393  1.00  0.00     0.084 C 
HETATM   17  C5  UNL     1      -3.589  48.744 -27.402  1.00  0.00     0.149 C 
HETATM   18  O1  UNL     1      -3.690  48.054 -28.416  1.00  0.00    -0.293 OA
HETATM   19  C6  UNL     1      -4.251  48.304 -26.149  1.00  0.00     0.053 C 
HETATM   20  C8  UNL     1      -4.904  48.537 -23.784  1.00  0.00     0.035 C 
HETATM   21  C9  UNL     1      -4.358  49.034 -22.444  1.00  0.00     0.010 C 
HETATM   22  C17 UNL     1      -0.703  48.998 -21.034  1.00  0.00     0.009 C 
HETATM   23  C18 UNL     1       0.032  50.237 -20.541  1.00  0.00     0.047 C 
BRANCH   3  24
HETATM   24  O3  UNL     1      -0.614  52.401 -19.777  1.00  0.00    -0.381 OA
HETATM   25  H25 UNL     1      -1.053  52.837 -19.018  1.00  0.00     0.211 HD
ENDBRANCH   3  24
ENDBRANCH   1   3
BRANCH   1  26
HETATM   26  C21 UNL     1       0.303  50.725 -17.425  1.00  0.00     0.260 C 
BRANCH  26  27
HETATM   27  O5  UNL     1       1.090  51.877 -17.735  1.00  0.00    -0.314 OA
BRANCH  27  28
HETATM   28  C22 UNL     1       1.667  52.467 -16.651  1.00  0.00     0.259 C 
HETATM   29  O6  UNL     1       1.050  53.026 -15.754  1.00  0.00    -0.265 OA
BRANCH  28  30
HETATM   30  C23 UNL     1       3.167  52.334 -16.735  1.00  0.00     0.120 C 
BRANCH  30  31
HETATM   31  C24 UNL     1       3.804  52.461 -15.357  1.00  0.00     0.112 C 
BRANCH  31  32
HETATM   32  C25 UNL     1       3.035  51.680 -14.310  1.00  0.00     0.218 C 
HETATM   33  O7  UNL     1       2.808  50.478 -14.397  1.00  0.00    -0.274 OA
HETATM   34  N1  UNL     1       2.659  52.452 -13.233  1.00  0.00    -0.361 N 
HETATM   35  H32 UNL     1       2.725  53.460 -13.325  1.00  0.00     0.162 HD
BRANCH  34  36
HETATM   36  C26 UNL     1       1.774  51.941 -12.203  1.00  0.00     0.127 C 
BRANCH  36  37
HETATM   37  C27 UNL     1       1.508  52.961 -11.087  1.00  0.00     0.058 C 
BRANCH  37  38
HETATM   38  C28 UNL     1       0.037  53.278 -10.932  1.00  0.00    -0.054 A 
HETATM   39  C29 UNL     1      -0.370  54.579 -10.587  1.00  0.00     0.010 A 
HETATM   40  C30 UNL     1      -1.719  54.878 -10.392  1.00  0.00     0.040 A 
HETATM   41  C31 UNL     1      -2.662  53.874 -10.551  1.00  0.00     0.098 A 
HETATM   42  C32 UNL     1      -2.276  52.582 -10.902  1.00  0.00     0.099 A 
HETATM   43  C33 UNL     1      -0.932  52.273 -11.092  1.00  0.00     0.046 A 
BRANCH  41  44
HETATM   44  O8  UNL     1      -3.983  54.160 -10.353  1.00  0.00    -0.358 OA
HETATM   45  H39 UNL     1      -4.441  53.312 -10.518  1.00  0.00     0.217 HD
ENDBRANCH  41  44
BRANCH  42  46
HETATM   46  O9  UNL     1      -3.258  51.642 -11.041  1.00  0.00    -0.358 OA
HETATM   47  H40 UNL     1      -2.852  50.820 -11.360  1.00  0.00     0.217 HD
ENDBRANCH  42  46
ENDBRANCH  37  38
ENDBRANCH  36  37
ENDBRANCH  34  36
ENDBRANCH  31  32
ENDBRANCH  30  31
ENDBRANCH  28  30
ENDBRANCH  27  28
ENDBRANCH  26  27
ENDBRANCH   1  26
TORSDOF 13
ENDMDL
MODEL 3
REMARK minimizedAffinity -9.10245419
REMARK CNNscore 0.616676331
REMARK CNNaffinity 6.92457056
REMARK  13 active torsions:
REMARK  status: ('A' for Active; 'I' for Inactive)
REMARK    1  A    between atoms: C19_21  and  O3_22 
REMARK    2  A    between atoms: C19_21  and  C20_23 
REMARK    3  A    between atoms: C20_23  and  C21_25 
REMARK    4  A    between atoms: C21_25  and  O5_26 
REMARK    5  A    between atoms: O5_26  and  C22_27 
REMARK    6  A    between atoms: C22_27  and  C23_29 
REMARK    7  A    between atoms: C23_29  and  C24_30 
REMARK    8  A    between atoms: C24_30  and  C25_31 
REMARK       I    between atoms: C25_31  and  N1_33 
REMARK    9  A    between atoms: N1_33  and  C26_34 
REMARK   10  A    between atoms: C26_34  and  C27_35 
REMARK   11  A    between atoms: C27_35  and  C28_36 
REMARK   12  A    between atoms: C31_39  and  O8_40 
REMARK   13  A    between atoms: C32_41  and  O9_42 
ROOT
HETATM    1  C20 UNL     1       4.121  67.780 -36.457  1.00  0.00     0.185 C 
HETATM    2  O4  UNL     1       3.582  68.569 -35.667  1.00  0.00    -0.292 OA
ENDROOT
BRANCH   1   3
HETATM    3  C19 UNL     1       3.434  67.488 -37.822  1.00  0.00     0.128 C 
HETATM    4  C14 UNL     1       2.672  68.684 -38.490  1.00  0.00     0.005 C 
HETATM    5  C13 UNL     1       2.699  68.626 -40.042  1.00  0.00     0.091 C 
HETATM    6  C15 UNL     1       3.297  70.038 -38.095  1.00  0.00     0.019 C 
HETATM    7  C16 UNL     1       1.217  68.545 -37.940  1.00  0.00     0.002 C 
HETATM    8  C12 UNL     1       1.602  67.762 -40.618  1.00  0.00     0.133 C 
HETATM    9  C11 UNL     1       0.164  68.130 -40.270  1.00  0.00     0.072 C 
HETATM   10  O2  UNL     1       1.845  66.832 -41.386  1.00  0.00    -0.297 OA
HETATM   11  C2  UNL     1      -0.605  68.769 -41.486  1.00  0.00    -0.009 C 
HETATM   12  C10 UNL     1       0.083  68.913 -38.934  1.00  0.00     0.003 C 
HETATM   13  C1  UNL     1       0.306  69.588 -42.430  1.00  0.00     0.021 C 
HETATM   14  C3  UNL     1      -1.226  67.596 -42.306  1.00  0.00     0.022 C 
HETATM   15  C7  UNL     1      -1.702  69.716 -40.993  1.00  0.00    -0.067 C 
HETATM   16  C4  UNL     1      -2.295  68.037 -43.297  1.00  0.00     0.084 C 
HETATM   17  C5  UNL     1      -3.373  68.801 -42.576  1.00  0.00     0.149 C 
HETATM   18  O1  UNL     1      -4.556  68.757 -42.916  1.00  0.00    -0.293 OA
HETATM   19  C6  UNL     1      -2.963  69.696 -41.467  1.00  0.00     0.053 C 
HETATM   20  C8  UNL     1      -1.329  70.745 -39.950  1.00  0.00     0.035 C 
HETATM   21  C9  UNL     1      -0.056  70.419 -39.166  1.00  0.00     0.010 C 
HETATM   22  C17 UNL     1       1.077  67.078 -37.460  1.00  0.00     0.009 C 
HETATM   23  C18 UNL     1       2.395  66.377 -37.754  1.00  0.00     0.047 C 
BRANCH   3  24
HETATM   24  O3  UNL     1       4.497  67.030 -38.669  1.00  0.00    -0.381 OA
HETATM   25  H25 UNL     1       5.283  67.572 -38.451  1.00  0.00     0.211 HD
ENDBRANCH   3  24
ENDBRANCH   1   3
BRANCH   1  26
HETATM   26  C21 UNL     1       5.439  67.086 -36.110  1.00  0.00     0.260 C 
BRANCH  26  27
HETATM   27  O5  UNL     1       5.296  65.675 -35.932  1.00  0.00    -0.314 OA
BRANCH  27  28
HETATM   28  C22 UNL     1       6.475  65.010 -35.779  1.00  0.00     0.259 C 
HETATM   29  O6  UNL     1       7.181  64.627 -36.702  1.00  0.00    -0.265 OA
BRANCH  28  30
HETATM   30  C23 UNL     1       6.765  64.814 -34.312  1.00  0.00     0.120 C 
BRANCH  30  31
HETATM   31  C24 UNL     1       5.513  64.377 -33.562  1.00  0.00     0.112 C 
BRANCH  31  32
HETATM   32  C25 UNL     1       5.094  62.971 -33.942  1.00  0.00     0.218 C 
HETATM   33  O7  UNL     1       3.969  62.526 -33.742  1.00  0.00    -0.274 OA
HETATM   34  N1  UNL     1       6.094  62.264 -34.573  1.00  0.00    -0.361 N 
HETATM   35  H32 UNL     1       7.037  62.637 -34.533  1.00  0.00     0.162 HD
BRANCH  34  36
HETATM   36  C26 UNL     1       5.957  60.851 -34.867  1.00  0.00     0.127 C 
BRANCH  36  37
HETATM   37  C27 UNL     1       7.286  60.089 -34.766  1.00  0.00     0.058 C 
BRANCH  37  38
HETATM   38  C28 UNL     1       8.462  61.009 -34.518  1.00  0.00    -0.054 A 
HETATM   39  C29 UNL     1       9.168  61.557 -35.604  1.00  0.00     0.010 A 
HETATM   40  C30 UNL     1      10.284  62.368 -35.395  1.00  0.00     0.040 A 
HETATM   41  C31 UNL     1      10.687  62.637 -34.097  1.00  0.00     0.098 A 
HETATM   42  C32 UNL     1       9.993  62.110 -33.010  1.00  0.00     0.099 A 
HETATM   43  C33 UNL     1       8.882  61.295 -33.209  1.00  0.00     0.046 A 
BRANCH  41  44
HETATM   44  O8  UNL     1      11.785  63.424 -33.887  1.00  0.00    -0.358 OA
HETATM   45  H39 UNL     1      11.870  63.466 -32.914  1.00  0.00     0.217 HD
ENDBRANCH  41  44
BRANCH  42  46
HETATM   46  O9  UNL     1      10.448  62.416 -31.758  1.00  0.00    -0.358 OA
HETATM   47  H40 UNL     1       9.826  62.048 -31.108  1.00  0.00     0.217 HD
ENDBRANCH  42  46
ENDBRANCH  37  38
ENDBRANCH  36  37
ENDBRANCH  34  36
ENDBRANCH  31  32
ENDBRANCH  30  31
ENDBRANCH  28  30
ENDBRANCH  27  28
ENDBRANCH  26  27
ENDBRANCH   1  26
TORSDOF 13
ENDMDL
MODEL 4
REMARK minimizedAffinity -8.07309723
REMARK CNNscore 0.559745193
REMARK CNNaffinity 6.56263971
REMARK  13 active torsions:
REMARK  status: ('A' for Active; 'I' for Inactive)
REMARK    1  A    between atoms: C19_21  and  O3_22 
REMARK    2  A    between atoms: C19_21  and  C20_23 
REMARK    3  A    between atoms: C20_23  and  C21_25 
REMARK    4  A    between atoms: C21_25  and  O5_26 
REMARK    5  A    between atoms: O5_26  and  C22_27 
REMARK    6  A    between atoms: C22_27  and  C23_29 
REMARK    7  A    between atoms: C23_29  and  C24_30 
REMARK    8  A    between atoms: C24_30  and  C25_31 
REMARK       I    between atoms: C25_31  and  N1_33 
REMARK    9  A    between atoms: N1_33  and  C26_34 
REMARK   10  A    between atoms: C26_34  and  C27_35 
REMARK   11  A    between atoms: C27_35  and  C28_36 
REMARK   12  A    between atoms: C31_39  and  O8_40 
REMARK   13  A    between atoms: C32_41  and  O9_42 
ROOT
HETATM    1  C20 UNL     1      -0.153  51.045 -11.380  1.00  0.00     0.185 C 
HETATM    2  O4  UNL     1       0.340  50.003 -10.924  1.00  0.00    -0.292 OA
ENDROOT
BRANCH   1   3
HETATM    3  C19 UNL     1       0.066  52.383 -10.618  1.00  0.00     0.128 C 
HETATM    4  C14 UNL     1       1.487  53.033 -10.741  1.00  0.00     0.005 C 
HETATM    5  C13 UNL     1       1.449  54.585 -10.677  1.00  0.00     0.091 C 
HETATM    6  C15 UNL     1       2.155  52.670 -12.083  1.00  0.00     0.019 C 
HETATM    7  C16 UNL     1       2.272  52.432  -9.533  1.00  0.00     0.002 C 
HETATM    8  C12 UNL     1       1.462  55.116  -9.263  1.00  0.00     0.133 C 
HETATM    9  C11 UNL     1       2.637  54.721  -8.376  1.00  0.00     0.072 C 
HETATM   10  O2  UNL     1       0.594  55.885  -8.852  1.00  0.00    -0.297 OA
HETATM   11  C2  UNL     1       3.634  55.914  -8.131  1.00  0.00    -0.009 C 
HETATM   12  C10 UNL     1       3.280  53.388  -8.841  1.00  0.00     0.003 C 
HETATM   13  C1  UNL     1       3.726  56.895  -9.324  1.00  0.00     0.021 C 
HETATM   14  C3  UNL     1       3.113  56.703  -6.891  1.00  0.00     0.022 C 
HETATM   15  C7  UNL     1       5.049  55.390  -7.875  1.00  0.00    -0.067 C 
HETATM   16  C4  UNL     1       4.137  57.660  -6.295  1.00  0.00     0.084 C 
HETATM   17  C5  UNL     1       5.394  56.908  -5.947  1.00  0.00     0.149 C 
HETATM   18  O1  UNL     1       6.099  57.206  -4.982  1.00  0.00    -0.293 OA
HETATM   19  C6  UNL     1       5.824  55.820  -6.860  1.00  0.00     0.053 C 
HETATM   20  C8  UNL     1       5.609  54.368  -8.839  1.00  0.00     0.035 C 
HETATM   21  C9  UNL     1       4.551  53.627  -9.659  1.00  0.00     0.010 C 
HETATM   22  C17 UNL     1       1.202  51.937  -8.527  1.00  0.00     0.009 C 
HETATM   23  C18 UNL     1      -0.161  52.271  -9.116  1.00  0.00     0.047 C 
BRANCH   3  24
HETATM   24  O3  UNL     1      -0.939  53.263 -11.139  1.00  0.00    -0.381 OA
HETATM   25  H25 UNL     1      -1.006  53.077 -12.098  1.00  0.00     0.211 HD
ENDBRANCH   3  24
ENDBRANCH   1   3
BRANCH   1  26
HETATM   26  C21 UNL     1      -0.975  51.035 -12.670  1.00  0.00     0.260 C 
BRANCH  26  27
HETATM   27  O5  UNL     1      -0.299  50.400 -13.757  1.00  0.00    -0.314 OA
BRANCH  27  28
HETATM   28  C22 UNL     1       0.088  51.251 -14.748  1.00  0.00     0.259 C 
HETATM   29  O6  UNL     1       0.036  52.471 -14.674  1.00  0.00    -0.265 OA
BRANCH  28  30
HETATM   30  C23 UNL     1       0.575  50.463 -15.938  1.00  0.00     0.120 C 
BRANCH  30  31
HETATM   31  C24 UNL     1      -0.250  50.781 -17.178  1.00  0.00     0.112 C 
BRANCH  31  32
HETATM   32  C25 UNL     1       0.432  51.811 -18.056  1.00  0.00     0.218 C 
HETATM   33  O7  UNL     1       1.340  52.536 -17.663  1.00  0.00    -0.274 OA
HETATM   34  N1  UNL     1      -0.044  51.817 -19.348  1.00  0.00    -0.361 N 
HETATM   35  H32 UNL     1      -0.909  51.321 -19.537  1.00  0.00     0.162 HD
BRANCH  34  36
HETATM   36  C26 UNL     1       0.354  52.835 -20.301  1.00  0.00     0.127 C 
BRANCH  36  37
HETATM   37  C27 UNL     1       1.042  52.252 -21.544  1.00  0.00     0.058 C 
BRANCH  37  38
HETATM   38  C28 UNL     1       0.230  52.455 -22.804  1.00  0.00    -0.054 A 
HETATM   39  C29 UNL     1      -0.908  51.663 -23.043  1.00  0.00     0.010 A 
HETATM   40  C30 UNL     1      -1.641  51.802 -24.222  1.00  0.00     0.040 A 
HETATM   41  C31 UNL     1      -1.239  52.742 -25.158  1.00  0.00     0.098 A 
HETATM   42  C32 UNL     1      -0.121  53.541 -24.932  1.00  0.00     0.099 A 
HETATM   43  C33 UNL     1       0.621  53.404 -23.762  1.00  0.00     0.046 A 
BRANCH  41  44
HETATM   44  O8  UNL     1      -1.949  52.876 -26.318  1.00  0.00    -0.358 OA
HETATM   45  H39 UNL     1      -1.483  53.583 -26.807  1.00  0.00     0.217 HD
ENDBRANCH  41  44
BRANCH  42  46
HETATM   46  O9  UNL     1       0.218  54.446 -25.899  1.00  0.00    -0.358 OA
HETATM   47  H40 UNL     1       0.962  54.978 -25.572  1.00  0.00     0.217 HD
ENDBRANCH  42  46
ENDBRANCH  37  38
ENDBRANCH  36  37
ENDBRANCH  34  36
ENDBRANCH  31  32
ENDBRANCH  30  31
ENDBRANCH  28  30
ENDBRANCH  27  28
ENDBRANCH  26  27
ENDBRANCH   1  26
TORSDOF 13
ENDMDL
MODEL 5
REMARK minimizedAffinity -8.83961773
REMARK CNNscore 0.532564342
REMARK CNNaffinity 6.44444036
REMARK  13 active torsions:
REMARK  status: ('A' for Active; 'I' for Inactive)
REMARK    1  A    between atoms: C19_21  and  O3_22 
REMARK    2  A    between atoms: C19_21  and  C20_23 
REMARK    3  A    between atoms: C20_23  and  C21_25 
REMARK    4  A    between atoms: C21_25  and  O5_26 
REMARK    5  A    between atoms: O5_26  and  C22_27 
REMARK    6  A    between atoms: C22_27  and  C23_29 
REMARK    7  A    between atoms: C23_29  and  C24_30 
REMARK    8  A    between atoms: C24_30  and  C25_31 
REMARK       I    between atoms: C25_31  and  N1_33 
REMARK    9  A    between atoms: N1_33  and  C26_34 
REMARK   10  A    between atoms: C26_34  and  C27_35 
REMARK   11  A    between atoms: C27_35  and  C28_36 
REMARK   12  A    between atoms: C31_39  and  O8_40 
REMARK   13  A    between atoms: C32_41  and  O9_42 
ROOT
HETATM    1  C20 UNL     1       4.765  67.222 -36.156  1.00  0.00     0.185 C 
HETATM    2  O4  UNL     1       5.770  67.938 -36.040  1.00  0.00    -0.292 OA
ENDROOT
BRANCH   1   3
HETATM    3  C19 UNL     1       4.040  67.151 -37.531  1.00  0.00     0.128 C 
HETATM    4  C14 UNL     1       3.255  68.434 -37.974  1.00  0.00     0.005 C 
HETATM    5  C13 UNL     1       3.238  68.629 -39.515  1.00  0.00     0.091 C 
HETATM    6  C15 UNL     1       3.888  69.710 -37.381  1.00  0.00     0.019 C 
HETATM    7  C16 UNL     1       1.818  68.196 -37.414  1.00  0.00     0.002 C 
HETATM    8  C12 UNL     1       2.128  67.862 -40.193  1.00  0.00     0.133 C 
HETATM    9  C11 UNL     1       0.699  68.158 -39.750  1.00  0.00     0.072 C 
HETATM   10  O2  UNL     1       2.351  67.071 -41.108  1.00  0.00    -0.297 OA
HETATM   11  C2  UNL     1      -0.105  68.980 -40.823  1.00  0.00    -0.009 C 
HETATM   12  C10 UNL     1       0.655  68.712 -38.302  1.00  0.00     0.003 C 
HETATM   13  C1  UNL     1       0.776  69.949 -41.646  1.00  0.00     0.021 C 
HETATM   14  C3  UNL     1      -0.746  67.952 -41.806  1.00  0.00     0.022 C 
HETATM   15  C7  UNL     1      -1.191  69.826 -40.153  1.00  0.00    -0.067 C 
HETATM   16  C4  UNL     1      -1.845  68.539 -42.682  1.00  0.00     0.084 C 
HETATM   17  C5  UNL     1      -2.904  69.168 -41.817  1.00  0.00     0.149 C 
HETATM   18  O1  UNL     1      -4.096  69.171 -42.126  1.00  0.00    -0.293 OA
HETATM   19  C6  UNL     1      -2.465  69.875 -40.589  1.00  0.00     0.053 C 
HETATM   20  C8  UNL     1      -0.791  70.674 -38.967  1.00  0.00     0.035 C 
HETATM   21  C9  UNL     1       0.505  70.235 -38.282  1.00  0.00     0.010 C 
HETATM   22  C17 UNL     1       1.695  66.670 -37.175  1.00  0.00     0.009 C 
HETATM   23  C18 UNL     1       3.006  66.035 -37.615  1.00  0.00     0.047 C 
BRANCH   3  24
HETATM   24  O3  UNL     1       5.080  66.844 -38.470  1.00  0.00    -0.381 OA
HETATM   25  H25 UNL     1       5.870  67.349 -38.189  1.00  0.00     0.211 HD
ENDBRANCH   3  24
ENDBRANCH   1   3
BRANCH   1  26
HETATM   26  C21 UNL     1       4.224  66.417 -34.973  1.00  0.00     0.260 C 
BRANCH  26  27
HETATM   27  O5  UNL     1       5.216  66.149 -33.980  1.00  0.00    -0.314 OA
BRANCH  27  28
HETATM   28  C22 UNL     1       4.869  65.176 -33.092  1.00  0.00     0.259 C 
HETATM   29  O6  UNL     1       5.220  65.148 -31.920  1.00  0.00    -0.265 OA
BRANCH  28  30
HETATM   30  C23 UNL     1       4.004  64.146 -33.775  1.00  0.00     0.120 C 
BRANCH  30  31
HETATM   31  C24 UNL     1       4.664  62.773 -33.746  1.00  0.00     0.112 C 
BRANCH  31  32
HETATM   32  C25 UNL     1       5.937  62.745 -34.568  1.00  0.00     0.218 C 
HETATM   33  O7  UNL     1       6.005  63.163 -35.719  1.00  0.00    -0.274 OA
HETATM   34  N1  UNL     1       7.015  62.244 -33.873  1.00  0.00    -0.361 N 
HETATM   35  H32 UNL     1       6.832  61.757 -33.001  1.00  0.00     0.162 HD
BRANCH  34  36
HETATM   36  C26 UNL     1       8.282  61.976 -34.525  1.00  0.00     0.127 C 
BRANCH  36  37
HETATM   37  C27 UNL     1       9.316  63.087 -34.297  1.00  0.00     0.058 C 
BRANCH  37  38
HETATM   38  C28 UNL     1      10.551  62.913 -35.154  1.00  0.00    -0.054 A 
HETATM   39  C29 UNL     1      10.452  62.292 -36.413  1.00  0.00     0.010 A 
HETATM   40  C30 UNL     1      11.587  62.079 -37.196  1.00  0.00     0.040 A 
HETATM   41  C31 UNL     1      12.821  62.495 -36.721  1.00  0.00     0.098 A 
HETATM   42  C32 UNL     1      12.935  63.121 -35.482  1.00  0.00     0.099 A 
HETATM   43  C33 UNL     1      11.809  63.332 -34.690  1.00  0.00     0.046 A 
BRANCH  41  44
HETATM   44  O8  UNL     1      13.936  62.281 -37.481  1.00  0.00    -0.358 OA
HETATM   45  H39 UNL     1      14.667  62.652 -36.947  1.00  0.00     0.217 HD
ENDBRANCH  41  44
BRANCH  42  46
HETATM   46  O9  UNL     1      14.183  63.504 -35.077  1.00  0.00    -0.358 OA
HETATM   47  H40 UNL     1      14.097  63.990 -34.240  1.00  0.00     0.217 HD
ENDBRANCH  42  46
ENDBRANCH  37  38
ENDBRANCH  36  37
ENDBRANCH  34  36
ENDBRANCH  31  32
ENDBRANCH  30  31
ENDBRANCH  28  30
ENDBRANCH  27  28
ENDBRANCH  26  27
ENDBRANCH   1  26
TORSDOF 13
ENDMDL
MODEL 6
REMARK minimizedAffinity -9.74003601
REMARK CNNscore 0.505639017
REMARK CNNaffinity 6.77549601
REMARK  13 active torsions:
REMARK  status: ('A' for Active; 'I' for Inactive)
REMARK    1  A    between atoms: C19_21  and  O3_22 
REMARK    2  A    between atoms: C19_21  and  C20_23 
REMARK    3  A    between atoms: C20_23  and  C21_25 
REMARK    4  A    between atoms: C21_25  and  O5_26 
REMARK    5  A    between atoms: O5_26  and  C22_27 
REMARK    6  A    between atoms: C22_27  and  C23_29 
REMARK    7  A    between atoms: C23_29  and  C24_30 
REMARK    8  A    between atoms: C24_30  and  C25_31 
REMARK       I    between atoms: C25_31  and  N1_33 
REMARK    9  A    between atoms: N1_33  and  C26_34 
REMARK   10  A    between atoms: C26_34  and  C27_35 
REMARK   11  A    between atoms: C27_35  and  C28_36 
REMARK   12  A    between atoms: C31_39  and  O8_40 
REMARK   13  A    between atoms: C32_41  and  O9_42 
ROOT
HETATM    1  C20 UNL     1      -0.996  50.197 -18.200  1.00  0.00     0.185 C 
HETATM    2  O4  UNL     1      -1.977  49.570 -17.775  1.00  0.00    -0.292 OA
ENDROOT
BRANCH   1   3
HETATM    3  C19 UNL     1      -0.923  50.554 -19.713  1.00  0.00     0.128 C 
HETATM    4  C14 UNL     1      -2.278  50.532 -20.502  1.00  0.00     0.005 C 
HETATM    5  C13 UNL     1      -2.319  51.567 -21.659  1.00  0.00     0.091 C 
HETATM    6  C15 UNL     1      -3.469  50.863 -19.579  1.00  0.00     0.019 C 
HETATM    7  C16 UNL     1      -2.364  49.070 -21.042  1.00  0.00     0.002 C 
HETATM    8  C12 UNL     1      -1.706  51.046 -22.937  1.00  0.00     0.133 C 
HETATM    9  C11 UNL     1      -2.301  49.775 -23.533  1.00  0.00     0.072 C 
HETATM   10  O2  UNL     1      -0.801  51.647 -23.514  1.00  0.00    -0.297 OA
HETATM   11  C2  UNL     1      -3.146  50.057 -24.830  1.00  0.00    -0.009 C 
HETATM   12  C10 UNL     1      -2.995  48.908 -22.451  1.00  0.00     0.003 C 
HETATM   13  C1  UNL     1      -3.851  51.434 -24.820  1.00  0.00     0.021 C 
HETATM   14  C3  UNL     1      -2.161  50.025 -26.039  1.00  0.00     0.022 C 
HETATM   15  C7  UNL     1      -4.239  48.999 -25.003  1.00  0.00    -0.067 C 
HETATM   16  C4  UNL     1      -2.850  49.916 -27.393  1.00  0.00     0.084 C 
HETATM   17  C5  UNL     1      -3.745  48.706 -27.413  1.00  0.00     0.149 C 
HETATM   18  O1  UNL     1      -3.936  48.040 -28.431  1.00  0.00    -0.293 OA
HETATM   19  C6  UNL     1      -4.477  48.366 -26.169  1.00  0.00     0.053 C 
HETATM   20  C8  UNL     1      -5.113  48.687 -23.810  1.00  0.00     0.035 C 
HETATM   21  C9  UNL     1      -4.513  49.094 -22.462  1.00  0.00     0.010 C 
HETATM   22  C17 UNL     1      -0.918  48.515 -21.017  1.00  0.00     0.009 C 
HETATM   23  C18 UNL     1      -0.013  49.630 -20.512  1.00  0.00     0.047 C 
BRANCH   3  24
HETATM   24  O3  UNL     1      -0.340  51.864 -19.746  1.00  0.00    -0.381 OA
HETATM   25  H25 UNL     1      -0.717  52.358 -18.990  1.00  0.00     0.211 HD
ENDBRANCH   3  24
ENDBRANCH   1   3
BRANCH   1  26
HETATM   26  C21 UNL     1       0.142  50.616 -17.269  1.00  0.00     0.260 C 
BRANCH  26  27
HETATM   27  O5  UNL     1      -0.284  50.806 -15.918  1.00  0.00    -0.314 OA
BRANCH  27  28
HETATM   28  C22 UNL     1       0.449  51.721 -15.224  1.00  0.00     0.259 C 
HETATM   29  O6  UNL     1       1.068  52.645 -15.734  1.00  0.00    -0.265 OA
BRANCH  28  30
HETATM   30  C23 UNL     1       0.388  51.413 -13.749  1.00  0.00     0.120 C 
BRANCH  30  31
HETATM   31  C24 UNL     1      -0.010  52.648 -12.950  1.00  0.00     0.112 C 
BRANCH  31  32
HETATM   32  C25 UNL     1       1.046  53.018 -11.928  1.00  0.00     0.218 C 
HETATM   33  O7  UNL     1       1.997  52.296 -11.650  1.00  0.00    -0.274 OA
HETATM   34  N1  UNL     1       0.849  54.266 -11.380  1.00  0.00    -0.361 N 
HETATM   35  H32 UNL     1      -0.051  54.712 -11.527  1.00  0.00     0.162 HD
BRANCH  34  36
HETATM   36  C26 UNL     1       1.646  54.742 -10.265  1.00  0.00     0.127 C 
BRANCH  36  37
HETATM   37  C27 UNL     1       2.765  55.700 -10.699  1.00  0.00     0.058 C 
BRANCH  37  38
HETATM   38  C28 UNL     1       3.912  55.732  -9.713  1.00  0.00    -0.054 A 
HETATM   39  C29 UNL     1       3.787  56.450  -8.510  1.00  0.00     0.010 A 
HETATM   40  C30 UNL     1       4.851  56.531  -7.612  1.00  0.00     0.040 A 
HETATM   41  C31 UNL     1       6.039  55.885  -7.915  1.00  0.00     0.098 A 
HETATM   42  C32 UNL     1       6.177  55.162  -9.097  1.00  0.00     0.099 A 
HETATM   43  C33 UNL     1       5.122  55.081 -10.003  1.00  0.00     0.046 A 
BRANCH  41  44
HETATM   44  O8  UNL     1       7.087  55.969  -7.042  1.00  0.00    -0.358 OA
HETATM   45  H39 UNL     1       7.797  55.446  -7.466  1.00  0.00     0.217 HD
ENDBRANCH  41  44
BRANCH  42  46
HETATM   46  O9  UNL     1       7.377  54.551  -9.332  1.00  0.00    -0.358 OA
HETATM   47  H40 UNL     1       7.299  54.027 -10.146  1.00  0.00     0.217 HD
ENDBRANCH  42  46
ENDBRANCH  37  38
ENDBRANCH  36  37
ENDBRANCH  34  36
ENDBRANCH  31  32
ENDBRANCH  30  31
ENDBRANCH  28  30
ENDBRANCH  27  28
ENDBRANCH  26  27
ENDBRANCH   1  26
TORSDOF 13
ENDMDL
MODEL 7
REMARK minimizedAffinity -8.28913498
REMARK CNNscore 0.47502467
REMARK CNNaffinity 6.41507149
REMARK  13 active torsions:
REMARK  status: ('A' for Active; 'I' for Inactive)
REMARK    1  A    between atoms: C19_21  and  O3_22 
REMARK    2  A    between atoms: C19_21  and  C20_23 
REMARK    3  A    between atoms: C20_23  and  C21_25 
REMARK    4  A    between atoms: C21_25  and  O5_26 
REMARK    5  A    between atoms: O5_26  and  C22_27 
REMARK    6  A    between atoms: C22_27  and  C23_29 
REMARK    7  A    between atoms: C23_29  and  C24_30 
REMARK    8  A    between atoms: C24_30  and  C25_31 
REMARK       I    between atoms: C25_31  and  N1_33 
REMARK    9  A    between atoms: N1_33  and  C26_34 
REMARK   10  A    between atoms: C26_34  and  C27_35 
REMARK   11  A    between atoms: C27_35  and  C28_36 
REMARK   12  A    between atoms: C31_39  and  O8_40 
REMARK   13  A    between atoms: C32_41  and  O9_42 
ROOT
HETATM    1  C20 UNL     1      -9.568  48.152 -25.746  1.00  0.00     0.185 C 
HETATM    2  O4  UNL     1     -10.671  47.730 -25.367  1.00  0.00    -0.292 OA
ENDROOT
BRANCH   1   3
HETATM    3  C19 UNL     1      -9.198  48.054 -27.253  1.00  0.00     0.128 C 
HETATM    4  C14 UNL     1     -10.205  47.279 -28.171  1.00  0.00     0.005 C 
HETATM    5  C13 UNL     1     -10.248  47.832 -29.622  1.00  0.00     0.091 C 
HETATM    6  C15 UNL     1     -11.645  47.373 -27.627  1.00  0.00     0.019 C 
HETATM    7  C16 UNL     1      -9.677  45.810 -28.137  1.00  0.00     0.002 C 
HETATM    8  C12 UNL     1      -9.175  47.244 -30.509  1.00  0.00     0.133 C 
HETATM    9  C11 UNL     1      -9.154  45.729 -30.673  1.00  0.00     0.072 C 
HETATM   10  O2  UNL     1      -8.382  47.956 -31.125  1.00  0.00    -0.297 OA
HETATM   11  C2  UNL     1      -9.654  45.271 -32.093  1.00  0.00    -0.009 C 
HETATM   12  C10 UNL     1      -9.811  45.015 -29.463  1.00  0.00     0.003 C 
HETATM   13  C1  UNL     1     -10.728  46.204 -32.699  1.00  0.00     0.021 C 
HETATM   14  C3  UNL     1      -8.415  45.276 -33.041  1.00  0.00     0.022 C 
HETATM   15  C7  UNL     1     -10.267  43.870 -32.023  1.00  0.00    -0.067 C 
HETATM   16  C4  UNL     1      -8.635  44.520 -34.345  1.00  0.00     0.084 C 
HETATM   17  C5  UNL     1      -9.063  43.107 -34.049  1.00  0.00     0.149 C 
HETATM   18  O1  UNL     1      -8.747  42.156 -34.764  1.00  0.00    -0.293 OA
HETATM   19  C6  UNL     1      -9.964  42.886 -32.892  1.00  0.00     0.053 C 
HETATM   20  C8  UNL     1     -11.292  43.603 -30.944  1.00  0.00     0.035 C 
HETATM   21  C9  UNL     1     -11.246  44.583 -29.770  1.00  0.00     0.010 C 
HETATM   22  C17 UNL     1      -8.195  45.895 -27.692  1.00  0.00     0.009 C 
HETATM   23  C18 UNL     1      -7.861  47.369 -27.507  1.00  0.00     0.047 C 
BRANCH   3  24
HETATM   24  O3  UNL     1      -9.069  49.417 -27.682  1.00  0.00    -0.381 OA
HETATM   25  H25 UNL     1      -9.775  49.921 -27.229  1.00  0.00     0.211 HD
ENDBRANCH   3  24
ENDBRANCH   1   3
BRANCH   1  26
HETATM   26  C21 UNL     1      -8.569  48.758 -24.759  1.00  0.00     0.260 C 
BRANCH  26  27
HETATM   27  O5  UNL     1      -7.863  47.770 -24.004  1.00  0.00    -0.314 OA
BRANCH  27  28
HETATM   28  C22 UNL     1      -6.817  48.261 -23.283  1.00  0.00     0.259 C 
HETATM   29  O6  UNL     1      -6.609  48.013 -22.103  1.00  0.00    -0.265 OA
BRANCH  28  30
HETATM   30  C23 UNL     1      -5.971  49.156 -24.154  1.00  0.00     0.120 C 
BRANCH  30  31
HETATM   31  C24 UNL     1      -4.666  48.469 -24.537  1.00  0.00     0.112 C 
BRANCH  31  32
HETATM   32  C25 UNL     1      -3.519  48.911 -23.650  1.00  0.00     0.218 C 
HETATM   33  O7  UNL     1      -2.690  48.136 -23.184  1.00  0.00    -0.274 OA
HETATM   34  N1  UNL     1      -3.480  50.274 -23.461  1.00  0.00    -0.361 N 
HETATM   35  H32 UNL     1      -4.298  50.814 -23.726  1.00  0.00     0.162 HD
BRANCH  34  36
HETATM   36  C26 UNL     1      -2.567  50.885 -22.514  1.00  0.00     0.127 C 
BRANCH  36  37
HETATM   37  C27 UNL     1      -1.193  51.194 -23.126  1.00  0.00     0.058 C 
BRANCH  37  38
HETATM   38  C28 UNL     1      -0.301  51.971 -22.182  1.00  0.00    -0.054 A 
HETATM   39  C29 UNL     1      -0.231  51.611 -20.824  1.00  0.00     0.010 A 
HETATM   40  C30 UNL     1       0.548  52.346 -19.929  1.00  0.00     0.040 A 
HETATM   41  C31 UNL     1       1.264  53.436 -20.397  1.00  0.00     0.098 A 
HETATM   42  C32 UNL     1       1.214  53.800 -21.741  1.00  0.00     0.099 A 
HETATM   43  C33 UNL     1       0.434  53.077 -22.640  1.00  0.00     0.046 A 
BRANCH  41  44
HETATM   44  O8  UNL     1       2.022  54.164 -19.523  1.00  0.00    -0.358 OA
HETATM   45  H39 UNL     1       2.421  54.866 -20.075  1.00  0.00     0.217 HD
ENDBRANCH  41  44
BRANCH  42  46
HETATM   46  O9  UNL     1       1.944  54.887 -22.132  1.00  0.00    -0.358 OA
HETATM   47  H40 UNL     1       1.874  54.971 -23.097  1.00  0.00     0.217 HD
ENDBRANCH  42  46
ENDBRANCH  37  38
ENDBRANCH  36  37
ENDBRANCH  34  36
ENDBRANCH  31  32
ENDBRANCH  30  31
ENDBRANCH  28  30
ENDBRANCH  27  28
ENDBRANCH  26  27
ENDBRANCH   1  26
TORSDOF 13
ENDMDL
MODEL 8
REMARK minimizedAffinity -9.76232243
REMARK CNNscore 0.439004064
REMARK CNNaffinity 7.31095648
REMARK  13 active torsions:
REMARK  status: ('A' for Active; 'I' for Inactive)
REMARK    1  A    between atoms: C19_21  and  O3_22 
REMARK    2  A    between atoms: C19_21  and  C20_23 
REMARK    3  A    between atoms: C20_23  and  C21_25 
REMARK    4  A    between atoms: C21_25  and  O5_26 
REMARK    5  A    between atoms: O5_26  and  C22_27 
REMARK    6  A    between atoms: C22_27  and  C23_29 
REMARK    7  A    between atoms: C23_29  and  C24_30 
REMARK    8  A    between atoms: C24_30  and  C25_31 
REMARK       I    between atoms: C25_31  and  N1_33 
REMARK    9  A    between atoms: N1_33  and  C26_34 
REMARK   10  A    between atoms: C26_34  and  C27_35 
REMARK   11  A    between atoms: C27_35  and  C28_36 
REMARK   12  A    between atoms: C31_39  and  O8_40 
REMARK   13  A    between atoms: C32_41  and  O9_42 
ROOT
HETATM    1  C20 UNL     1      -2.167  48.406 -18.182  1.00  0.00     0.185 C 
HETATM    2  O4  UNL     1      -2.810  47.354 -18.051  1.00  0.00    -0.292 OA
ENDROOT
BRANCH   1   3
HETATM    3  C19 UNL     1      -1.935  48.980 -19.609  1.00  0.00     0.128 C 
HETATM    4  C14 UNL     1      -3.212  49.181 -20.497  1.00  0.00     0.005 C 
HETATM    5  C13 UNL     1      -3.083  50.379 -21.477  1.00  0.00     0.091 C 
HETATM    6  C15 UNL     1      -4.458  49.460 -19.631  1.00  0.00     0.019 C 
HETATM    7  C16 UNL     1      -3.342  47.828 -21.264  1.00  0.00     0.002 C 
HETATM    8  C12 UNL     1      -2.391  50.010 -22.769  1.00  0.00     0.133 C 
HETATM    9  C11 UNL     1      -3.009  48.893 -23.601  1.00  0.00     0.072 C 
HETATM   10  O2  UNL     1      -1.401  50.621 -23.170  1.00  0.00    -0.297 OA
HETATM   11  C2  UNL     1      -3.714  49.432 -24.901  1.00  0.00    -0.009 C 
HETATM   12  C10 UNL     1      -3.851  47.929 -22.727  1.00  0.00     0.003 C 
HETATM   13  C1  UNL     1      -4.328  50.842 -24.731  1.00  0.00     0.021 C 
HETATM   14  C3  UNL     1      -2.628  49.506 -26.018  1.00  0.00     0.022 C 
HETATM   15  C7  UNL     1      -4.852  48.499 -25.324  1.00  0.00    -0.067 C 
HETATM   16  C4  UNL     1      -3.198  49.656 -27.423  1.00  0.00     0.084 C 
HETATM   17  C5  UNL     1      -4.162  48.535 -27.703  1.00  0.00     0.149 C 
HETATM   18  O1  UNL     1      -4.302  48.047 -28.825  1.00  0.00    -0.293 OA
HETATM   19  C6  UNL     1      -5.024  48.069 -26.589  1.00  0.00     0.053 C 
HETATM   20  C8  UNL     1      -5.848  48.078 -24.267  1.00  0.00     0.035 C 
HETATM   21  C9  UNL     1      -5.348  48.231 -22.829  1.00  0.00     0.010 C 
HETATM   22  C17 UNL     1      -1.942  47.166 -21.212  1.00  0.00     0.009 C 
HETATM   23  C18 UNL     1      -1.018  48.119 -20.468  1.00  0.00     0.047 C 
BRANCH   3  24
HETATM   24  O3  UNL     1      -1.269  50.231 -19.390  1.00  0.00    -0.381 OA
HETATM   25  H25 UNL     1      -1.681  50.633 -18.598  1.00  0.00     0.211 HD
ENDBRANCH   3  24
ENDBRANCH   1   3
BRANCH   1  26
HETATM   26  C21 UNL     1      -1.593  49.140 -16.969  1.00  0.00     0.260 C 
BRANCH  26  27
HETATM   27  O5  UNL     1      -0.197  49.419 -17.095  1.00  0.00    -0.314 OA
BRANCH  27  28
HETATM   28  C22 UNL     1       0.459  49.531 -15.906  1.00  0.00     0.259 C 
HETATM   29  O6  UNL     1       0.328  48.761 -14.965  1.00  0.00    -0.265 OA
BRANCH  28  30
HETATM   30  C23 UNL     1       1.355  50.745 -15.929  1.00  0.00     0.120 C 
BRANCH  30  31
HETATM   31  C24 UNL     1       0.621  51.953 -16.497  1.00  0.00     0.112 C 
BRANCH  31  32
HETATM   32  C25 UNL     1       1.353  52.546 -17.685  1.00  0.00     0.218 C 
HETATM   33  O7  UNL     1       2.548  52.818 -17.673  1.00  0.00    -0.274 OA
HETATM   34  N1  UNL     1       0.545  52.703 -18.789  1.00  0.00    -0.361 N 
HETATM   35  H32 UNL     1      -0.459  52.627 -18.658  1.00  0.00     0.162 HD
BRANCH  34  36
HETATM   36  C26 UNL     1       1.003  53.406 -19.973  1.00  0.00     0.127 C 
BRANCH  36  37
HETATM   37  C27 UNL     1       1.264  52.467 -21.159  1.00  0.00     0.058 C 
BRANCH  37  38
HETATM   38  C28 UNL     1       0.963  53.120 -22.490  1.00  0.00    -0.054 A 
HETATM   39  C29 UNL     1       0.473  52.348 -23.559  1.00  0.00     0.010 A 
HETATM   40  C30 UNL     1       0.235  52.924 -24.807  1.00  0.00     0.040 A 
HETATM   41  C31 UNL     1       0.482  54.276 -24.983  1.00  0.00     0.098 A 
HETATM   42  C32 UNL     1       0.959  55.057 -23.933  1.00  0.00     0.099 A 
HETATM   43  C33 UNL     1       1.205  54.490 -22.685  1.00  0.00     0.046 A 
BRANCH  41  44
HETATM   44  O8  UNL     1       0.260  54.843 -26.207  1.00  0.00    -0.358 OA
HETATM   45  H39 UNL     1       0.502  55.783 -26.086  1.00  0.00     0.217 HD
ENDBRANCH  41  44
BRANCH  42  46
HETATM   46  O9  UNL     1       1.181  56.384 -24.178  1.00  0.00    -0.358 OA
HETATM   47  H40 UNL     1       1.434  56.811 -23.343  1.00  0.00     0.217 HD
ENDBRANCH  42  46
ENDBRANCH  37  38
ENDBRANCH  36  37
ENDBRANCH  34  36
ENDBRANCH  31  32
ENDBRANCH  30  31
ENDBRANCH  28  30
ENDBRANCH  27  28
ENDBRANCH  26  27
ENDBRANCH   1  26
TORSDOF 13
ENDMDL
MODEL 9
REMARK minimizedAffinity -9.25588989
REMARK CNNscore 0.402887106
REMARK CNNaffinity 6.58609533
REMARK  13 active torsions:
REMARK  status: ('A' for Active; 'I' for Inactive)
REMARK    1  A    between atoms: C19_21  and  O3_22 
REMARK    2  A    between atoms: C19_21  and  C20_23 
REMARK    3  A    between atoms: C20_23  and  C21_25 
REMARK    4  A    between atoms: C21_25  and  O5_26 
REMARK    5  A    between atoms: O5_26  and  C22_27 
REMARK    6  A    between atoms: C22_27  and  C23_29 
REMARK    7  A    between atoms: C23_29  and  C24_30 
REMARK    8  A    between atoms: C24_30  and  C25_31 
REMARK       I    between atoms: C25_31  and  N1_33 
REMARK    9  A    between atoms: N1_33  and  C26_34 
REMARK   10  A    between atoms: C26_34  and  C27_35 
REMARK   11  A    between atoms: C27_35  and  C28_36 
REMARK   12  A    between atoms: C31_39  and  O8_40 
REMARK   13  A    between atoms: C32_41  and  O9_42 
ROOT
HETATM    1  C20 UNL     1      -2.649  48.924 -18.158  1.00  0.00     0.185 C 
HETATM    2  O4  UNL     1      -2.399  47.720 -18.315  1.00  0.00    -0.292 OA
ENDROOT
BRANCH   1   3
HETATM    3  C19 UNL     1      -2.010  49.962 -19.125  1.00  0.00     0.128 C 
HETATM    4  C14 UNL     1      -2.688  50.119 -20.529  1.00  0.00     0.005 C 
HETATM    5  C13 UNL     1      -2.575  51.561 -21.097  1.00  0.00     0.091 C 
HETATM    6  C15 UNL     1      -4.195  49.796 -20.463  1.00  0.00     0.019 C 
HETATM    7  C16 UNL     1      -1.923  49.094 -21.424  1.00  0.00     0.002 C 
HETATM    8  C12 UNL     1      -1.278  51.805 -21.831  1.00  0.00     0.133 C 
HETATM    9  C11 UNL     1      -0.961  50.898 -23.014  1.00  0.00     0.072 C 
HETATM   10  O2  UNL     1      -0.528  52.733 -21.530  1.00  0.00    -0.297 OA
HETATM   11  C2  UNL     1      -1.117  51.635 -24.396  1.00  0.00    -0.009 C 
HETATM   12  C10 UNL     1      -1.682  49.530 -22.893  1.00  0.00     0.003 C 
HETATM   13  C1  UNL     1      -2.217  52.722 -24.394  1.00  0.00     0.021 C 
HETATM   14  C3  UNL     1       0.248  52.324 -24.707  1.00  0.00     0.022 C 
HETATM   15  C7  UNL     1      -1.475  50.639 -25.501  1.00  0.00    -0.067 C 
HETATM   16  C4  UNL     1       0.396  52.772 -26.155  1.00  0.00     0.084 C 
HETATM   17  C5  UNL     1       0.179  51.600 -27.075  1.00  0.00     0.149 C 
HETATM   18  O1  UNL     1       0.777  51.477 -28.144  1.00  0.00    -0.293 OA
HETATM   19  C6  UNL     1      -0.857  50.607 -26.698  1.00  0.00     0.053 C 
HETATM   20  C8  UNL     1      -2.610  49.673 -25.239  1.00  0.00     0.035 C 
HETATM   21  C9  UNL     1      -2.943  49.475 -23.758  1.00  0.00     0.010 C 
HETATM   22  C17 UNL     1      -0.580  48.812 -20.704  1.00  0.00     0.009 C 
HETATM   23  C18 UNL     1      -0.550  49.672 -19.449  1.00  0.00     0.047 C 
BRANCH   3  24
HETATM   24  O3  UNL     1      -2.051  51.200 -18.402  1.00  0.00    -0.381 OA
HETATM   25  H25 UNL     1      -2.903  51.215 -17.920  1.00  0.00     0.211 HD
ENDBRANCH   3  24
ENDBRANCH   1   3
BRANCH   1  26
HETATM   26  C21 UNL     1      -3.564  49.404 -17.031  1.00  0.00     0.260 C 
BRANCH  26  27
HETATM   27  O5  UNL     1      -3.000  49.207 -15.733  1.00  0.00    -0.314 OA
BRANCH  27  28
HETATM   28  C22 UNL     1      -2.765  50.360 -15.046  1.00  0.00     0.259 C 
HETATM   29  O6  UNL     1      -3.046  51.480 -15.451  1.00  0.00    -0.265 OA
BRANCH  28  30
HETATM   30  C23 UNL     1      -2.103  50.044 -13.728  1.00  0.00     0.120 C 
BRANCH  30  31
HETATM   31  C24 UNL     1      -3.114  49.500 -12.726  1.00  0.00     0.112 C 
BRANCH  31  32
HETATM   32  C25 UNL     1      -3.740  50.607 -11.902  1.00  0.00     0.218 C 
HETATM   33  O7  UNL     1      -4.554  50.404 -11.009  1.00  0.00    -0.274 OA
HETATM   34  N1  UNL     1      -3.264  51.857 -12.233  1.00  0.00    -0.361 N 
HETATM   35  H32 UNL     1      -2.738  51.952 -13.095  1.00  0.00     0.162 HD
BRANCH  34  36
HETATM   36  C26 UNL     1      -3.851  53.064 -11.684  1.00  0.00     0.127 C 
BRANCH  36  37
HETATM   37  C27 UNL     1      -3.228  53.472 -10.341  1.00  0.00     0.058 C 
BRANCH  37  38
HETATM   38  C28 UNL     1      -1.788  53.915 -10.483  1.00  0.00    -0.054 A 
HETATM   39  C29 UNL     1      -1.339  55.073  -9.823  1.00  0.00     0.010 A 
HETATM   40  C30 UNL     1      -0.028  55.522  -9.981  1.00  0.00     0.040 A 
HETATM   41  C31 UNL     1       0.836  54.807 -10.795  1.00  0.00     0.098 A 
HETATM   42  C32 UNL     1       0.410  53.653 -11.448  1.00  0.00     0.099 A 
HETATM   43  C33 UNL     1      -0.898  53.200 -11.302  1.00  0.00     0.046 A 
BRANCH  41  44
HETATM   44  O8  UNL     1       2.119  55.248 -10.959  1.00  0.00    -0.358 OA
HETATM   45  H39 UNL     1       2.524  54.595 -11.564  1.00  0.00     0.217 HD
ENDBRANCH  41  44
BRANCH  42  46
HETATM   46  O9  UNL     1       1.316  52.998 -12.235  1.00  0.00    -0.358 OA
HETATM   47  H40 UNL     1       0.904  52.180 -12.559  1.00  0.00     0.217 HD
ENDBRANCH  42  46
ENDBRANCH  37  38
ENDBRANCH  36  37
ENDBRANCH  34  36
ENDBRANCH  31  32
ENDBRANCH  30  31
ENDBRANCH  28  30
ENDBRANCH  27  28
ENDBRANCH  26  27
ENDBRANCH   1  26
TORSDOF 13
ENDMDL
