MODEL 1
REMARK minimizedAffinity -9.42946339
REMARK CNNscore 0.805633485
REMARK CNNaffinity 7.89314508
REMARK  10 active torsions:
REMARK  status: ('A' for Active; 'I' for Inactive)
REMARK    1  A    between atoms: C2_2  and  O1_3 
REMARK    2  A    between atoms: O1_3  and  C3_4 
REMARK    3  A    between atoms: C3_4  and  C4_6 
REMARK    4  A    between atoms: C5_7  and  C6_8 
REMARK    5  A    between atoms: C12_16  and  C13_17 
REMARK    6  A    between atoms: C23_28  and  O5_29 
REMARK    7  A    between atoms: C27_34  and  C28_35 
REMARK    8  A    between atoms: C28_35  and  O7_36 
REMARK    9  A    between atoms: C38_47  and  C39_48 
REMARK   10  A    between atoms: C39_48  and  O8_49 
ROOT
HETATM    1  C4  UNL     1      -1.705  50.249 -25.175  1.00  0.00     0.165 C 
HETATM    2  C5  UNL     1      -1.958  50.270 -23.851  1.00  0.00     0.053 C 
HETATM    3  C7  UNL     1      -2.858  49.245 -23.320  1.00  0.00    -0.002 C 
HETATM    4  C8  UNL     1      -2.618  48.575 -22.161  1.00  0.00    -0.066 C 
HETATM    5  C9  UNL     1      -1.529  48.893 -21.159  1.00  0.00     0.042 C 
HETATM    6  C10 UNL     1      -2.165  49.472 -19.903  1.00  0.00     0.083 C 
HETATM    7  C11 UNL     1      -3.496  48.834 -19.541  1.00  0.00     0.136 C 
HETATM    8  O4  UNL     1      -4.190  49.345 -18.655  1.00  0.00    -0.297 OA
HETATM    9  C12 UNL     1      -3.936  47.536 -20.234  1.00  0.00     0.092 C 
HETATM   10  C21 UNL     1      -3.354  47.346 -21.652  1.00  0.00     0.052 C 
HETATM   11  C22 UNL     1      -3.933  48.858 -24.282  1.00  0.00     0.044 C 
HETATM   12  C23 UNL     1      -5.277  48.620 -23.975  1.00  0.00     0.091 C 
HETATM   13  C25 UNL     1      -6.122  48.172 -24.979  1.00  0.00     0.013 C 
HETATM   14  C26 UNL     1      -5.680  48.059 -26.291  1.00  0.00     0.089 C 
HETATM   15  O6  UNL     1      -6.665  47.639 -27.152  1.00  0.00    -0.341 OA
HETATM   16  C27 UNL     1      -7.667  47.085 -26.273  1.00  0.00     0.168 C 
HETATM   17  C37 UNL     1      -7.556  47.806 -24.915  1.00  0.00     0.080 C 
HETATM   18  C38 UNL     1      -4.391  48.386 -26.672  1.00  0.00     0.034 C 
HETATM   19  C40 UNL     1      -3.536  48.821 -25.645  1.00  0.00     0.101 C 
HETATM   20  O9  UNL     1      -2.286  49.295 -26.019  1.00  0.00    -0.302 OA
ENDROOT
BRANCH   2  21
HETATM   21  C6  UNL     1      -1.501  51.427 -23.050  1.00  0.00     0.273 C 
HETATM   22  O3  UNL     1      -0.345  51.537 -22.655  1.00  0.00    -0.301 OA
ENDBRANCH   2  21
BRANCH   1  23
HETATM   23  C3  UNL     1      -0.840  51.279 -25.814  1.00  0.00     0.318 C 
HETATM   24  O2  UNL     1      -1.161  52.442 -26.009  1.00  0.00    -0.257 OA
BRANCH  23  25
HETATM   25  O1  UNL     1       0.339  50.708 -26.163  1.00  0.00    -0.316 OA
BRANCH  25  26
HETATM   26  C2  UNL     1       1.126  51.459 -27.095  1.00  0.00     0.175 C 
HETATM   27  C1  UNL     1       2.548  51.512 -26.572  1.00  0.00     0.034 C 
ENDBRANCH  25  26
ENDBRANCH  23  25
ENDBRANCH   1  23
BRANCH  12  28
HETATM   28  O5  UNL     1      -5.789  48.785 -22.718  1.00  0.00    -0.354 OA
HETATM   29  C24 UNL     1      -6.182  50.147 -22.515  1.00  0.00     0.210 C 
ENDBRANCH  12  28
BRANCH   9  30
HETATM   30  C13 UNL     1      -3.706  46.308 -19.358  1.00  0.00    -0.046 A 
HETATM   31  C14 UNL     1      -3.984  45.015 -19.828  1.00  0.00     0.010 A 
HETATM   32  C15 UNL     1      -3.802  43.879 -19.027  1.00  0.00     0.031 A 
HETATM   33  C16 UNL     1      -3.332  44.072 -17.726  1.00  0.00     0.042 A 
HETATM   34  N1  UNL     1      -3.047  43.158 -16.736  1.00  0.00    -0.365 N 
HETATM   35  C19 UNL     1      -3.047  45.338 -17.213  1.00  0.00    -0.008 A 
HETATM   36  C17 UNL     1      -2.591  43.803 -15.616  1.00  0.00     0.089 A 
HETATM   37  H14 UNL     1      -3.145  42.155 -16.833  1.00  0.00     0.165 HD
HETATM   38  C18 UNL     1      -2.599  45.152 -15.872  1.00  0.00     0.030 A 
HETATM   39  C20 UNL     1      -3.234  46.468 -18.040  1.00  0.00     0.021 A 
ENDBRANCH   9  30
BRANCH  18  40
HETATM   40  C39 UNL     1      -3.939  48.287 -28.097  1.00  0.00     0.208 C 
BRANCH  40  41
HETATM   41  O8  UNL     1      -4.710  49.181 -28.895  1.00  0.00    -0.396 OA
HETATM   42  H42 UNL     1      -4.365  49.110 -29.798  1.00  0.00     0.209 HD
ENDBRANCH  40  41
ENDBRANCH  18  40
BRANCH  16  43
HETATM   43  C28 UNL     1      -9.094  47.072 -26.893  1.00  0.00     0.092 C 
HETATM   44  C29 UNL     1      -9.165  47.763 -28.290  1.00  0.00     0.067 C 
HETATM   45  C30 UNL     1      -9.019  46.873 -29.492  1.00  0.00    -0.027 C 
HETATM   46  C31 UNL     1      -8.987  45.533 -29.431  1.00  0.00    -0.024 C 
HETATM   47  C32 UNL     1      -9.104  44.783 -28.135  1.00  0.00     0.043 C 
HETATM   48  C33 UNL     1      -9.933  43.493 -28.294  1.00  0.00     0.278 C 
HETATM   49  C36 UNL     1      -9.727  45.647 -27.010  1.00  0.00     0.034 C 
HETATM   50  N2  UNL     1      -9.939  42.712 -27.051  1.00  0.00     0.084 N 
HETATM   51  C34 UNL     1     -10.478  43.481 -25.927  1.00  0.00     0.270 C 
HETATM   52  H32 UNL     1     -10.508  41.877 -27.188  1.00  0.00     0.315 HD
HETATM   53  C35 UNL     1      -9.731  44.806 -25.718  1.00  0.00     0.038 C 
BRANCH  43  54
HETATM   54  O7  UNL     1      -9.941  47.853 -26.016  1.00  0.00    -0.386 OA
HETATM   55  H24 UNL     1      -9.989  47.407 -25.156  1.00  0.00     0.210 HD
ENDBRANCH  43  54
ENDBRANCH  16  43
TORSDOF 10
ENDMDL
MODEL 2
REMARK minimizedAffinity -9.68236828
REMARK CNNscore 0.706802607
REMARK CNNaffinity 8.01220226
REMARK  10 active torsions:
REMARK  status: ('A' for Active; 'I' for Inactive)
REMARK    1  A    between atoms: C2_2  and  O1_3 
REMARK    2  A    between atoms: O1_3  and  C3_4 
REMARK    3  A    between atoms: C3_4  and  C4_6 
REMARK    4  A    between atoms: C5_7  and  C6_8 
REMARK    5  A    between atoms: C12_16  and  C13_17 
REMARK    6  A    between atoms: C23_28  and  O5_29 
REMARK    7  A    between atoms: C27_34  and  C28_35 
REMARK    8  A    between atoms: C28_35  and  O7_36 
REMARK    9  A    between atoms: C38_47  and  C39_48 
REMARK   10  A    between atoms: C39_48  and  O8_49 
ROOT
HETATM    1  C4  UNL     1      -1.823  50.691 -24.676  1.00  0.00     0.165 C 
HETATM    2  C5  UNL     1      -2.199  50.593 -23.385  1.00  0.00     0.053 C 
HETATM    3  C7  UNL     1      -3.013  49.438 -23.005  1.00  0.00    -0.002 C 
HETATM    4  C8  UNL     1      -2.803  48.723 -21.867  1.00  0.00    -0.066 C 
HETATM    5  C9  UNL     1      -1.859  49.097 -20.744  1.00  0.00     0.042 C 
HETATM    6  C10 UNL     1      -2.675  49.512 -19.528  1.00  0.00     0.083 C 
HETATM    7  C11 UNL     1      -3.947  48.701 -19.338  1.00  0.00     0.136 C 
HETATM    8  O4  UNL     1      -4.777  49.067 -18.499  1.00  0.00    -0.297 OA
HETATM    9  C12 UNL     1      -4.159  47.411 -20.144  1.00  0.00     0.092 C 
HETATM   10  C21 UNL     1      -3.428  47.385 -21.504  1.00  0.00     0.052 C 
HETATM   11  C22 UNL     1      -3.938  48.994 -24.091  1.00  0.00     0.044 C 
HETATM   12  C23 UNL     1      -5.267  48.582 -23.935  1.00  0.00     0.091 C 
HETATM   13  C25 UNL     1      -5.953  48.108 -25.042  1.00  0.00     0.013 C 
HETATM   14  C26 UNL     1      -5.380  48.136 -26.307  1.00  0.00     0.089 C 
HETATM   15  O6  UNL     1      -6.221  47.664 -27.285  1.00  0.00    -0.341 OA
HETATM   16  C27 UNL     1      -7.227  46.940 -26.543  1.00  0.00     0.168 C 
HETATM   17  C37 UNL     1      -7.332  47.575 -25.144  1.00  0.00     0.080 C 
HETATM   18  C38 UNL     1      -4.110  48.635 -26.537  1.00  0.00     0.034 C 
HETATM   19  C40 UNL     1      -3.415  49.095 -25.407  1.00  0.00     0.101 C 
HETATM   20  O9  UNL     1      -2.202  49.735 -25.625  1.00  0.00    -0.302 OA
ENDROOT
BRANCH   2  21
HETATM   21  C6  UNL     1      -1.964  51.739 -22.478  1.00  0.00     0.273 C 
HETATM   22  O3  UNL     1      -0.866  51.968 -21.981  1.00  0.00    -0.301 OA
ENDBRANCH   2  21
BRANCH   1  23
HETATM   23  C3  UNL     1      -1.034  51.855 -25.165  1.00  0.00     0.318 C 
HETATM   24  O2  UNL     1      -1.509  52.918 -25.537  1.00  0.00    -0.257 OA
BRANCH  23  25
HETATM   25  O1  UNL     1       0.282  51.529 -25.155  1.00  0.00    -0.316 OA
BRANCH  25  26
HETATM   26  C2  UNL     1       0.831  51.176 -26.430  1.00  0.00     0.175 C 
HETATM   27  C1  UNL     1       2.326  51.421 -26.382  1.00  0.00     0.034 C 
ENDBRANCH  25  26
ENDBRANCH  23  25
ENDBRANCH   1  23
BRANCH  12  28
HETATM   28  O5  UNL     1      -5.910  48.601 -22.729  1.00  0.00    -0.354 OA
HETATM   29  C24 UNL     1      -6.484  49.891 -22.491  1.00  0.00     0.210 C 
ENDBRANCH  12  28
BRANCH   9  30
HETATM   30  C13 UNL     1      -3.863  46.161 -19.319  1.00  0.00    -0.046 A 
HETATM   31  C14 UNL     1      -4.139  44.878 -19.816  1.00  0.00     0.010 A 
HETATM   32  C15 UNL     1      -3.897  43.722 -19.062  1.00  0.00     0.031 A 
HETATM   33  C16 UNL     1      -3.369  43.884 -17.779  1.00  0.00     0.042 A 
HETATM   34  N1  UNL     1      -3.020  42.946 -16.833  1.00  0.00    -0.365 N 
HETATM   35  C19 UNL     1      -3.085  45.139 -17.239  1.00  0.00    -0.008 A 
HETATM   36  C17 UNL     1      -2.524  43.565 -15.715  1.00  0.00     0.089 A 
HETATM   37  H14 UNL     1      -3.102  41.945 -16.957  1.00  0.00     0.165 HD
HETATM   38  C18 UNL     1      -2.570  44.921 -15.927  1.00  0.00     0.030 A 
HETATM   39  C20 UNL     1      -3.333  46.290 -18.020  1.00  0.00     0.021 A 
ENDBRANCH   9  30
BRANCH  18  40
HETATM   40  C39 UNL     1      -3.518  48.685 -27.912  1.00  0.00     0.208 C 
BRANCH  40  41
HETATM   41  O8  UNL     1      -3.528  50.033 -28.377  1.00  0.00    -0.396 OA
HETATM   42  H42 UNL     1      -3.109  50.025 -29.250  1.00  0.00     0.209 HD
ENDBRANCH  40  41
ENDBRANCH  18  40
BRANCH  16  43
HETATM   43  C28 UNL     1      -8.577  46.803 -27.304  1.00  0.00     0.092 C 
HETATM   44  C29 UNL     1      -9.218  48.178 -27.673  1.00  0.00     0.067 C 
HETATM   45  C30 UNL     1      -8.909  48.721 -29.041  1.00  0.00    -0.027 C 
HETATM   46  C31 UNL     1      -8.257  48.032 -29.989  1.00  0.00    -0.024 C 
HETATM   47  C32 UNL     1      -7.771  46.627 -29.775  1.00  0.00     0.043 C 
HETATM   48  C33 UNL     1      -7.932  45.767 -31.043  1.00  0.00     0.278 C 
HETATM   49  C36 UNL     1      -8.497  45.929 -28.597  1.00  0.00     0.034 C 
HETATM   50  N2  UNL     1      -7.346  44.434 -30.857  1.00  0.00     0.084 N 
HETATM   51  C34 UNL     1      -7.955  43.725 -29.728  1.00  0.00     0.270 C 
HETATM   52  H32 UNL     1      -7.483  43.889 -31.708  1.00  0.00     0.315 HD
HETATM   53  C35 UNL     1      -7.873  44.529 -28.424  1.00  0.00     0.038 C 
BRANCH  43  54
HETATM   54  O7  UNL     1      -9.506  46.159 -26.400  1.00  0.00    -0.386 OA
HETATM   55  H24 UNL     1      -9.182  45.264 -26.211  1.00  0.00     0.210 HD
ENDBRANCH  43  54
ENDBRANCH  16  43
TORSDOF 10
ENDMDL
MODEL 3
REMARK minimizedAffinity -9.52968025
REMARK CNNscore 0.533571959
REMARK CNNaffinity 8.37937164
REMARK  10 active torsions:
REMARK  status: ('A' for Active; 'I' for Inactive)
REMARK    1  A    between atoms: C2_2  and  O1_3 
REMARK    2  A    between atoms: O1_3  and  C3_4 
REMARK    3  A    between atoms: C3_4  and  C4_6 
REMARK    4  A    between atoms: C5_7  and  C6_8 
REMARK    5  A    between atoms: C12_16  and  C13_17 
REMARK    6  A    between atoms: C23_28  and  O5_29 
REMARK    7  A    between atoms: C27_34  and  C28_35 
REMARK    8  A    between atoms: C28_35  and  O7_36 
REMARK    9  A    between atoms: C38_47  and  C39_48 
REMARK   10  A    between atoms: C39_48  and  O8_49 
ROOT
HETATM    1  C4  UNL     1      -0.311  52.033 -25.287  1.00  0.00     0.165 C 
HETATM    2  C5  UNL     1      -0.243  52.793 -24.175  1.00  0.00     0.053 C 
HETATM    3  C7  UNL     1      -0.570  52.155 -22.900  1.00  0.00    -0.002 C 
HETATM    4  C8  UNL     1       0.152  52.353 -21.764  1.00  0.00    -0.066 C 
HETATM    5  C9  UNL     1       1.253  53.374 -21.578  1.00  0.00     0.042 C 
HETATM    6  C10 UNL     1       0.758  54.472 -20.648  1.00  0.00     0.083 C 
HETATM    7  C11 UNL     1      -0.136  53.968 -19.526  1.00  0.00     0.136 C 
HETATM    8  O4  UNL     1      -0.744  54.785 -18.825  1.00  0.00    -0.297 OA
HETATM    9  C12 UNL     1      -0.228  52.463 -19.240  1.00  0.00     0.092 C 
HETATM   10  C21 UNL     1       0.043  51.566 -20.468  1.00  0.00     0.052 C 
HETATM   11  C22 UNL     1      -1.625  51.104 -23.027  1.00  0.00     0.044 C 
HETATM   12  C23 UNL     1      -2.687  50.881 -22.143  1.00  0.00     0.091 C 
HETATM   13  C25 UNL     1      -3.521  49.796 -22.362  1.00  0.00     0.013 C 
HETATM   14  C26 UNL     1      -3.380  49.000 -23.492  1.00  0.00     0.089 C 
HETATM   15  O6  UNL     1      -4.319  47.999 -23.560  1.00  0.00    -0.341 OA
HETATM   16  C27 UNL     1      -4.827  47.922 -22.210  1.00  0.00     0.168 C 
HETATM   17  C37 UNL     1      -4.674  49.313 -21.567  1.00  0.00     0.080 C 
HETATM   18  C38 UNL     1      -2.417  49.241 -24.455  1.00  0.00     0.034 C 
HETATM   19  C40 UNL     1      -1.565  50.331 -24.216  1.00  0.00     0.101 C 
HETATM   20  O9  UNL     1      -0.688  50.686 -25.233  1.00  0.00    -0.302 OA
ENDROOT
BRANCH   2  21
HETATM   21  C6  UNL     1      -0.061  54.255 -24.315  1.00  0.00     0.273 C 
HETATM   22  O3  UNL     1       1.048  54.778 -24.345  1.00  0.00    -0.301 OA
ENDBRANCH   2  21
BRANCH   1  23
HETATM   23  C3  UNL     1      -0.042  52.606 -26.634  1.00  0.00     0.318 C 
HETATM   24  O2  UNL     1      -0.264  53.762 -26.962  1.00  0.00    -0.257 OA
BRANCH  23  25
HETATM   25  O1  UNL     1       0.459  51.633 -27.434  1.00  0.00    -0.316 OA
BRANCH  25  26
HETATM   26  C2  UNL     1       1.822  51.817 -27.835  1.00  0.00     0.175 C 
HETATM   27  C1  UNL     1       2.710  51.428 -26.669  1.00  0.00     0.034 C 
ENDBRANCH  25  26
ENDBRANCH  23  25
ENDBRANCH   1  23
BRANCH  12  28
HETATM   28  O5  UNL     1      -2.921  51.674 -21.054  1.00  0.00    -0.354 OA
HETATM   29  C24 UNL     1      -3.255  50.872 -19.916  1.00  0.00     0.210 C 
ENDBRANCH  12  28
BRANCH   9  30
HETATM   30  C13 UNL     1       0.620  52.050 -18.040  1.00  0.00    -0.046 A 
HETATM   31  C14 UNL     1       1.845  52.677 -17.763  1.00  0.00     0.010 A 
HETATM   32  C15 UNL     1       2.647  52.292 -16.680  1.00  0.00     0.031 A 
HETATM   33  C16 UNL     1       2.189  51.248 -15.873  1.00  0.00     0.042 A 
HETATM   34  N1  UNL     1       2.747  50.678 -14.750  1.00  0.00    -0.365 N 
HETATM   35  C19 UNL     1       0.982  50.591 -16.112  1.00  0.00    -0.008 A 
HETATM   36  C17 UNL     1       1.933  49.684 -14.272  1.00  0.00     0.089 A 
HETATM   37  H14 UNL     1       3.623  50.966 -14.333  1.00  0.00     0.165 HD
HETATM   38  C18 UNL     1       0.844  49.592 -15.103  1.00  0.00     0.030 A 
HETATM   39  C20 UNL     1       0.187  50.999 -17.207  1.00  0.00     0.021 A 
ENDBRANCH   9  30
BRANCH  18  40
HETATM   40  C39 UNL     1      -2.299  48.391 -25.683  1.00  0.00     0.208 C 
BRANCH  40  41
HETATM   41  O8  UNL     1      -2.671  49.161 -26.823  1.00  0.00    -0.396 OA
HETATM   42  H42 UNL     1      -2.549  48.587 -27.594  1.00  0.00     0.209 HD
ENDBRANCH  40  41
ENDBRANCH  18  40
BRANCH  16  43
HETATM   43  C28 UNL     1      -6.256  47.312 -22.122  1.00  0.00     0.092 C 
HETATM   44  C29 UNL     1      -7.052  47.789 -20.867  1.00  0.00     0.067 C 
HETATM   45  C30 UNL     1      -7.954  48.978 -21.050  1.00  0.00    -0.027 C 
HETATM   46  C31 UNL     1      -8.220  49.537 -22.240  1.00  0.00    -0.024 C 
HETATM   47  C32 UNL     1      -7.639  49.017 -23.524  1.00  0.00     0.043 C 
HETATM   48  C33 UNL     1      -8.652  49.094 -24.682  1.00  0.00     0.278 C 
HETATM   49  C36 UNL     1      -7.135  47.558 -23.391  1.00  0.00     0.034 C 
HETATM   50  N2  UNL     1      -8.035  48.694 -25.953  1.00  0.00     0.084 N 
HETATM   51  C34 UNL     1      -7.494  47.334 -25.891  1.00  0.00     0.270 C 
HETATM   52  H32 UNL     1      -8.736  48.742 -26.691  1.00  0.00     0.315 HD
HETATM   53  C35 UNL     1      -6.499  47.156 -24.737  1.00  0.00     0.038 C 
BRANCH  43  54
HETATM   54  O7  UNL     1      -6.094  45.882 -21.974  1.00  0.00    -0.386 OA
HETATM   55  H24 UNL     1      -5.675  45.534 -22.777  1.00  0.00     0.210 HD
ENDBRANCH  43  54
ENDBRANCH  16  43
TORSDOF 10
ENDMDL
MODEL 4
REMARK minimizedAffinity -8.95591736
REMARK CNNscore 0.492203534
REMARK CNNaffinity 8.07322407
REMARK  10 active torsions:
REMARK  status: ('A' for Active; 'I' for Inactive)
REMARK    1  A    between atoms: C2_2  and  O1_3 
REMARK    2  A    between atoms: O1_3  and  C3_4 
REMARK    3  A    between atoms: C3_4  and  C4_6 
REMARK    4  A    between atoms: C5_7  and  C6_8 
REMARK    5  A    between atoms: C12_16  and  C13_17 
REMARK    6  A    between atoms: C23_28  and  O5_29 
REMARK    7  A    between atoms: C27_34  and  C28_35 
REMARK    8  A    between atoms: C28_35  and  O7_36 
REMARK    9  A    between atoms: C38_47  and  C39_48 
REMARK   10  A    between atoms: C39_48  and  O8_49 
ROOT
HETATM    1  C4  UNL     1      -3.235  50.641 -25.233  1.00  0.00     0.165 C 
HETATM    2  C5  UNL     1      -3.797  50.470 -24.020  1.00  0.00     0.053 C 
HETATM    3  C7  UNL     1      -4.481  49.201 -23.766  1.00  0.00    -0.002 C 
HETATM    4  C8  UNL     1      -4.355  48.511 -22.600  1.00  0.00    -0.066 C 
HETATM    5  C9  UNL     1      -3.674  49.006 -21.343  1.00  0.00     0.042 C 
HETATM    6  C10 UNL     1      -4.730  49.278 -20.282  1.00  0.00     0.083 C 
HETATM    7  C11 UNL     1      -5.880  48.283 -20.293  1.00  0.00     0.136 C 
HETATM    8  O4  UNL     1      -6.882  48.510 -19.606  1.00  0.00    -0.297 OA
HETATM    9  C12 UNL     1      -5.762  46.987 -21.108  1.00  0.00     0.092 C 
HETATM   10  C21 UNL     1      -4.823  47.090 -22.330  1.00  0.00     0.052 C 
HETATM   11  C22 UNL     1      -5.139  48.639 -24.983  1.00  0.00     0.044 C 
HETATM   12  C23 UNL     1      -6.398  48.032 -25.042  1.00  0.00     0.091 C 
HETATM   13  C25 UNL     1      -6.815  47.475 -26.241  1.00  0.00     0.013 C 
HETATM   14  C26 UNL     1      -6.054  47.606 -27.396  1.00  0.00     0.089 C 
HETATM   15  O6  UNL     1      -6.644  47.026 -28.493  1.00  0.00    -0.341 OA
HETATM   16  C27 UNL     1      -7.637  46.150 -27.918  1.00  0.00     0.168 C 
HETATM   17  C37 UNL     1      -8.064  46.744 -26.561  1.00  0.00     0.080 C 
HETATM   18  C38 UNL     1      -4.853  48.292 -27.420  1.00  0.00     0.034 C 
HETATM   19  C40 UNL     1      -4.428  48.836 -26.197  1.00  0.00     0.101 C 
HETATM   20  O9  UNL     1      -3.306  49.652 -26.221  1.00  0.00    -0.302 OA
ENDROOT
BRANCH   2  21
HETATM   21  C6  UNL     1      -3.887  51.626 -23.100  1.00  0.00     0.273 C 
HETATM   22  O3  UNL     1      -2.946  51.982 -22.399  1.00  0.00    -0.301 OA
ENDBRANCH   2  21
BRANCH   1  23
HETATM   23  C3  UNL     1      -2.559  51.916 -25.600  1.00  0.00     0.318 C 
HETATM   24  O2  UNL     1      -3.098  52.861 -26.157  1.00  0.00    -0.257 OA
BRANCH  23  25
HETATM   25  O1  UNL     1      -1.254  51.842 -25.240  1.00  0.00    -0.316 OA
BRANCH  25  26
HETATM   26  C2  UNL     1      -0.319  52.161 -26.276  1.00  0.00     0.175 C 
HETATM   27  C1  UNL     1       0.358  50.876 -26.710  1.00  0.00     0.034 C 
ENDBRANCH  25  26
ENDBRANCH  23  25
ENDBRANCH   1  23
BRANCH  12  28
HETATM   28  O5  UNL     1      -7.225  47.938 -23.958  1.00  0.00    -0.354 OA
HETATM   29  C24 UNL     1      -7.764  46.615 -23.854  1.00  0.00     0.210 C 
ENDBRANCH  12  28
BRANCH   9  30
HETATM   30  C13 UNL     1      -5.422  45.784 -20.232  1.00  0.00    -0.046 A 
HETATM   31  C14 UNL     1      -6.012  44.531 -20.455  1.00  0.00     0.010 A 
HETATM   32  C15 UNL     1      -5.729  43.423 -19.644  1.00  0.00     0.031 A 
HETATM   33  C16 UNL     1      -4.832  43.604 -18.589  1.00  0.00     0.042 A 
HETATM   34  N1  UNL     1      -4.360  42.709 -17.655  1.00  0.00    -0.365 N 
HETATM   35  C19 UNL     1      -4.225  44.833 -18.325  1.00  0.00    -0.008 A 
HETATM   36  C17 UNL     1      -3.475  43.329 -16.811  1.00  0.00     0.089 A 
HETATM   37  H14 UNL     1      -4.618  41.731 -17.613  1.00  0.00     0.165 HD
HETATM   38  C18 UNL     1      -3.386  44.647 -17.186  1.00  0.00     0.030 A 
HETATM   39  C20 UNL     1      -4.522  45.935 -19.158  1.00  0.00     0.021 A 
ENDBRANCH   9  30
BRANCH  18  40
HETATM   40  C39 UNL     1      -4.059  48.449 -28.681  1.00  0.00     0.208 C 
BRANCH  40  41
HETATM   41  O8  UNL     1      -3.963  49.833 -29.005  1.00  0.00    -0.396 OA
HETATM   42  H42 UNL     1      -3.417  49.892 -29.802  1.00  0.00     0.209 HD
ENDBRANCH  40  41
ENDBRANCH  18  40
BRANCH  16  43
HETATM   43  C28 UNL     1      -8.810  45.824 -28.887  1.00  0.00     0.092 C 
HETATM   44  C29 UNL     1     -10.139  46.550 -28.512  1.00  0.00     0.067 C 
HETATM   45  C30 UNL     1     -10.408  47.862 -29.195  1.00  0.00    -0.027 C 
HETATM   46  C31 UNL     1      -9.661  48.351 -30.196  1.00  0.00    -0.024 C 
HETATM   47  C32 UNL     1      -8.469  47.620 -30.743  1.00  0.00     0.043 C 
HETATM   48  C33 UNL     1      -8.356  47.776 -32.272  1.00  0.00     0.278 C 
HETATM   49  C36 UNL     1      -8.494  46.111 -30.391  1.00  0.00     0.034 C 
HETATM   50  N2  UNL     1      -7.124  47.156 -32.778  1.00  0.00     0.084 N 
HETATM   51  C34 UNL     1      -7.056  45.731 -32.444  1.00  0.00     0.270 C 
HETATM   52  H32 UNL     1      -7.090  47.265 -33.791  1.00  0.00     0.315 HD
HETATM   53  C35 UNL     1      -7.198  45.479 -30.938  1.00  0.00     0.038 C 
BRANCH  43  54
HETATM   54  O7  UNL     1      -9.078  44.407 -28.761  1.00  0.00    -0.386 OA
HETATM   55  H24 UNL     1      -8.298  43.917 -29.067  1.00  0.00     0.210 HD
ENDBRANCH  43  54
ENDBRANCH  16  43
TORSDOF 10
ENDMDL
MODEL 5
REMARK minimizedAffinity -11.6985483
REMARK CNNscore 0.484909445
REMARK CNNaffinity 8.06001759
REMARK  10 active torsions:
REMARK  status: ('A' for Active; 'I' for Inactive)
REMARK    1  A    between atoms: C2_2  and  O1_3 
REMARK    2  A    between atoms: O1_3  and  C3_4 
REMARK    3  A    between atoms: C3_4  and  C4_6 
REMARK    4  A    between atoms: C5_7  and  C6_8 
REMARK    5  A    between atoms: C12_16  and  C13_17 
REMARK    6  A    between atoms: C23_28  and  O5_29 
REMARK    7  A    between atoms: C27_34  and  C28_35 
REMARK    8  A    between atoms: C28_35  and  O7_36 
REMARK    9  A    between atoms: C38_47  and  C39_48 
REMARK   10  A    between atoms: C39_48  and  O8_49 
ROOT
HETATM    1  C4  UNL     1       0.145  51.465 -25.624  1.00  0.00     0.165 C 
HETATM    2  C5  UNL     1       0.265  52.166 -24.478  1.00  0.00     0.053 C 
HETATM    3  C7  UNL     1      -0.437  51.657 -23.299  1.00  0.00    -0.002 C 
HETATM    4  C8  UNL     1       0.124  51.620 -22.060  1.00  0.00    -0.066 C 
HETATM    5  C9  UNL     1       1.440  52.251 -21.660  1.00  0.00     0.042 C 
HETATM    6  C10 UNL     1       1.163  53.448 -20.761  1.00  0.00     0.083 C 
HETATM    7  C11 UNL     1      -0.007  53.242 -19.811  1.00  0.00     0.136 C 
HETATM    8  O4  UNL     1      -0.440  54.205 -19.169  1.00  0.00    -0.297 OA
HETATM    9  C12 UNL     1      -0.597  51.838 -19.618  1.00  0.00     0.092 C 
HETATM   10  C21 UNL     1      -0.423  50.903 -20.836  1.00  0.00     0.052 C 
HETATM   11  C22 UNL     1      -1.727  50.984 -23.634  1.00  0.00     0.044 C 
HETATM   12  C23 UNL     1      -2.932  51.098 -22.931  1.00  0.00     0.091 C 
HETATM   13  C25 UNL     1      -4.012  50.323 -23.326  1.00  0.00     0.013 C 
HETATM   14  C26 UNL     1      -3.944  49.525 -24.462  1.00  0.00     0.089 C 
HETATM   15  O6  UNL     1      -5.120  48.862 -24.718  1.00  0.00    -0.341 OA
HETATM   16  C27 UNL     1      -5.833  48.943 -23.465  1.00  0.00     0.168 C 
HETATM   17  C37 UNL     1      -5.367  50.218 -22.737  1.00  0.00     0.080 C 
HETATM   18  C38 UNL     1      -2.815  49.459 -25.257  1.00  0.00     0.034 C 
HETATM   19  C40 UNL     1      -1.719  50.232 -24.839  1.00  0.00     0.101 C 
HETATM   20  O9  UNL     1      -0.628  50.301 -25.694  1.00  0.00    -0.302 OA
ENDROOT
BRANCH   2  21
HETATM   21  C6  UNL     1       0.904  53.501 -24.515  1.00  0.00     0.273 C 
HETATM   22  O3  UNL     1       0.314  54.500 -24.912  1.00  0.00    -0.301 OA
ENDBRANCH   2  21
BRANCH   1  23
HETATM   23  C3  UNL     1       0.784  51.930 -26.886  1.00  0.00     0.318 C 
HETATM   24  O2  UNL     1       1.958  52.247 -27.002  1.00  0.00    -0.257 OA
BRANCH  23  25
HETATM   25  O1  UNL     1      -0.153  51.967 -27.865  1.00  0.00    -0.316 OA
BRANCH  25  26
HETATM   26  C2  UNL     1      -1.231  52.884 -27.640  1.00  0.00     0.175 C 
HETATM   27  C1  UNL     1      -0.851  54.215 -28.257  1.00  0.00     0.034 C 
ENDBRANCH  25  26
ENDBRANCH  23  25
ENDBRANCH   1  23
BRANCH  12  28
HETATM   28  O5  UNL     1      -3.082  51.922 -21.851  1.00  0.00    -0.354 OA
HETATM   29  C24 UNL     1      -3.790  51.248 -20.805  1.00  0.00     0.210 C 
ENDBRANCH  12  28
BRANCH   9  30
HETATM   30  C13 UNL     1      -0.114  51.181 -18.328  1.00  0.00    -0.046 A 
HETATM   31  C14 UNL     1      -0.554  49.903 -17.951  1.00  0.00     0.010 A 
HETATM   32  C15 UNL     1      -0.139  49.297 -16.757  1.00  0.00     0.031 A 
HETATM   33  C16 UNL     1       0.734  50.014 -15.936  1.00  0.00     0.042 A 
HETATM   34  N1  UNL     1       1.312  49.672 -14.734  1.00  0.00    -0.365 N 
HETATM   35  C19 UNL     1       1.193  51.290 -16.265  1.00  0.00    -0.008 A 
HETATM   36  C17 UNL     1       2.120  50.687 -14.292  1.00  0.00     0.089 A 
HETATM   37  H14 UNL     1       1.171  48.789 -14.258  1.00  0.00     0.165 HD
HETATM   38  C18 UNL     1       2.052  51.709 -15.206  1.00  0.00     0.030 A 
HETATM   39  C20 UNL     1       0.765  51.879 -17.476  1.00  0.00     0.021 A 
ENDBRANCH   9  30
BRANCH  18  40
HETATM   40  C39 UNL     1      -2.769  48.616 -26.495  1.00  0.00     0.208 C 
BRANCH  40  41
HETATM   41  O8  UNL     1      -2.983  49.445 -27.634  1.00  0.00    -0.396 OA
HETATM   42  H42 UNL     1      -2.913  48.870 -28.410  1.00  0.00     0.209 HD
ENDBRANCH  40  41
ENDBRANCH  18  40
BRANCH  16  43
HETATM   43  C28 UNL     1      -7.375  48.804 -23.621  1.00  0.00     0.092 C 
HETATM   44  C29 UNL     1      -7.801  48.155 -24.975  1.00  0.00     0.067 C 
HETATM   45  C30 UNL     1      -8.024  46.668 -24.971  1.00  0.00    -0.027 C 
HETATM   46  C31 UNL     1      -8.026  45.916 -23.860  1.00  0.00    -0.024 C 
HETATM   47  C32 UNL     1      -7.810  46.498 -22.492  1.00  0.00     0.043 C 
HETATM   48  C33 UNL     1      -8.698  45.815 -21.434  1.00  0.00     0.278 C 
HETATM   49  C36 UNL     1      -8.068  48.025 -22.457  1.00  0.00     0.034 C 
HETATM   50  N2  UNL     1      -8.392  46.311 -20.086  1.00  0.00     0.084 N 
HETATM   51  C34 UNL     1      -8.572  47.761 -19.986  1.00  0.00     0.270 C 
HETATM   52  H32 UNL     1      -9.007  45.850 -19.416  1.00  0.00     0.315 HD
HETATM   53  C35 UNL     1      -7.748  48.523 -21.033  1.00  0.00     0.038 C 
BRANCH  43  54
HETATM   54  O7  UNL     1      -7.918  50.146 -23.632  1.00  0.00    -0.386 OA
HETATM   55  H24 UNL     1      -7.746  50.556 -22.770  1.00  0.00     0.210 HD
ENDBRANCH  43  54
ENDBRANCH  16  43
TORSDOF 10
ENDMDL
MODEL 6
REMARK minimizedAffinity -8.44827557
REMARK CNNscore 0.427120626
REMARK CNNaffinity 7.54629135
REMARK  10 active torsions:
REMARK  status: ('A' for Active; 'I' for Inactive)
REMARK    1  A    between atoms: C2_2  and  O1_3 
REMARK    2  A    between atoms: O1_3  and  C3_4 
REMARK    3  A    between atoms: C3_4  and  C4_6 
REMARK    4  A    between atoms: C5_7  and  C6_8 
REMARK    5  A    between atoms: C12_16  and  C13_17 
REMARK    6  A    between atoms: C23_28  and  O5_29 
REMARK    7  A    between atoms: C27_34  and  C28_35 
REMARK    8  A    between atoms: C28_35  and  O7_36 
REMARK    9  A    between atoms: C38_47  and  C39_48 
REMARK   10  A    between atoms: C39_48  and  O8_49 
ROOT
HETATM    1  C4  UNL     1      -1.893  50.032 -23.069  1.00  0.00     0.165 C 
HETATM    2  C5  UNL     1      -2.476  49.630 -21.922  1.00  0.00     0.053 C 
HETATM    3  C7  UNL     1      -3.382  48.483 -21.992  1.00  0.00    -0.002 C 
HETATM    4  C8  UNL     1      -3.385  47.482 -21.070  1.00  0.00    -0.066 C 
HETATM    5  C9  UNL     1      -2.623  47.475 -19.763  1.00  0.00     0.042 C 
HETATM    6  C10 UNL     1      -3.610  47.622 -18.613  1.00  0.00     0.083 C 
HETATM    7  C11 UNL     1      -4.924  46.891 -18.838  1.00  0.00     0.136 C 
HETATM    8  O4  UNL     1      -5.865  47.090 -18.062  1.00  0.00    -0.297 OA
HETATM    9  C12 UNL     1      -5.049  45.877 -19.983  1.00  0.00     0.092 C 
HETATM   10  C21 UNL     1      -4.109  46.149 -21.177  1.00  0.00     0.052 C 
HETATM   11  C22 UNL     1      -4.134  48.412 -23.280  1.00  0.00     0.044 C 
HETATM   12  C23 UNL     1      -5.485  48.079 -23.437  1.00  0.00     0.091 C 
HETATM   13  C25 UNL     1      -5.999  47.965 -24.720  1.00  0.00     0.013 C 
HETATM   14  C26 UNL     1      -5.228  48.277 -25.832  1.00  0.00     0.089 C 
HETATM   15  O6  UNL     1      -5.916  48.143 -27.013  1.00  0.00    -0.341 OA
HETATM   16  C27 UNL     1      -7.054  47.332 -26.650  1.00  0.00     0.168 C 
HETATM   17  C37 UNL     1      -7.362  47.587 -25.162  1.00  0.00     0.080 C 
HETATM   18  C38 UNL     1      -3.920  48.717 -25.730  1.00  0.00     0.034 C 
HETATM   19  C40 UNL     1      -3.401  48.812 -24.429  1.00  0.00     0.101 C 
HETATM   20  O9  UNL     1      -2.147  49.389 -24.286  1.00  0.00    -0.302 OA
ENDROOT
BRANCH   2  21
HETATM   21  C6  UNL     1      -2.349  50.478 -20.715  1.00  0.00     0.273 C 
HETATM   22  O3  UNL     1      -3.310  51.050 -20.212  1.00  0.00    -0.301 OA
ENDBRANCH   2  21
BRANCH   1  23
HETATM   23  C3  UNL     1      -0.993  51.217 -23.106  1.00  0.00     0.318 C 
HETATM   24  O2  UNL     1      -0.114  51.457 -22.290  1.00  0.00    -0.257 OA
BRANCH  23  25
HETATM   25  O1  UNL     1      -1.327  51.991 -24.168  1.00  0.00    -0.316 OA
BRANCH  25  26
HETATM   26  C2  UNL     1      -0.253  52.277 -25.073  1.00  0.00     0.175 C 
HETATM   27  C1  UNL     1       0.037  53.762 -25.001  1.00  0.00     0.034 C 
ENDBRANCH  25  26
ENDBRANCH  23  25
ENDBRANCH   1  23
BRANCH  12  28
HETATM   28  O5  UNL     1      -6.314  47.833 -22.378  1.00  0.00    -0.354 OA
HETATM   29  C24 UNL     1      -7.090  46.654 -22.616  1.00  0.00     0.210 C 
ENDBRANCH  12  28
BRANCH   9  30
HETATM   30  C13 UNL     1      -4.937  44.436 -19.492  1.00  0.00    -0.046 A 
HETATM   31  C14 UNL     1      -3.751  43.950 -18.920  1.00  0.00     0.010 A 
HETATM   32  C15 UNL     1      -3.625  42.623 -18.488  1.00  0.00     0.031 A 
HETATM   33  C16 UNL     1      -4.727  41.781 -18.649  1.00  0.00     0.042 A 
HETATM   34  N1  UNL     1      -4.896  40.458 -18.309  1.00  0.00    -0.365 N 
HETATM   35  C19 UNL     1      -5.925  42.216 -19.218  1.00  0.00    -0.008 A 
HETATM   36  C17 UNL     1      -6.159  40.042 -18.642  1.00  0.00     0.089 A 
HETATM   37  H14 UNL     1      -4.193  39.884 -17.861  1.00  0.00     0.165 HD
HETATM   38  C18 UNL     1      -6.812  41.100 -19.225  1.00  0.00     0.030 A 
HETATM   39  C20 UNL     1      -6.031  43.560 -19.642  1.00  0.00     0.021 A 
ENDBRANCH   9  30
BRANCH  18  40
HETATM   40  C39 UNL     1      -3.112  49.078 -26.939  1.00  0.00     0.208 C 
BRANCH  40  41
HETATM   41  O8  UNL     1      -3.401  48.157 -27.987  1.00  0.00    -0.396 OA
HETATM   42  H42 UNL     1      -2.886  48.444 -28.756  1.00  0.00     0.209 HD
ENDBRANCH  40  41
ENDBRANCH  18  40
BRANCH  16  43
HETATM   43  C28 UNL     1      -8.268  47.504 -27.609  1.00  0.00     0.092 C 
HETATM   44  C29 UNL     1      -7.906  48.248 -28.933  1.00  0.00     0.067 C 
HETATM   45  C30 UNL     1      -7.548  47.390 -30.113  1.00  0.00    -0.027 C 
HETATM   46  C31 UNL     1      -7.670  46.054 -30.131  1.00  0.00    -0.024 C 
HETATM   47  C32 UNL     1      -8.191  45.276 -28.956  1.00  0.00     0.043 C 
HETATM   48  C33 UNL     1      -9.079  44.098 -29.400  1.00  0.00     0.278 C 
HETATM   49  C36 UNL     1      -8.991  46.167 -27.972  1.00  0.00     0.034 C 
HETATM   50  N2  UNL     1      -9.484  43.278 -28.251  1.00  0.00     0.084 N 
HETATM   51  C34 UNL     1     -10.212  44.065 -27.251  1.00  0.00     0.270 C 
HETATM   52  H32 UNL     1     -10.080  42.519 -28.579  1.00  0.00     0.315 HD
HETATM   53  C35 UNL     1      -9.413  45.286 -26.778  1.00  0.00     0.038 C 
BRANCH  43  54
HETATM   54  O7  UNL     1      -9.226  48.346 -26.926  1.00  0.00    -0.386 OA
HETATM   55  H24 UNL     1      -9.540  47.878 -26.135  1.00  0.00     0.210 HD
ENDBRANCH  43  54
ENDBRANCH  16  43
TORSDOF 10
ENDMDL
MODEL 7
REMARK minimizedAffinity -8.77215195
REMARK CNNscore 0.381720185
REMARK CNNaffinity 7.46164656
REMARK  10 active torsions:
REMARK  status: ('A' for Active; 'I' for Inactive)
REMARK    1  A    between atoms: C2_2  and  O1_3 
REMARK    2  A    between atoms: O1_3  and  C3_4 
REMARK    3  A    between atoms: C3_4  and  C4_6 
REMARK    4  A    between atoms: C5_7  and  C6_8 
REMARK    5  A    between atoms: C12_16  and  C13_17 
REMARK    6  A    between atoms: C23_28  and  O5_29 
REMARK    7  A    between atoms: C27_34  and  C28_35 
REMARK    8  A    between atoms: C28_35  and  O7_36 
REMARK    9  A    between atoms: C38_47  and  C39_48 
REMARK   10  A    between atoms: C39_48  and  O8_49 
ROOT
HETATM    1  C4  UNL     1      -1.913  51.059 -22.795  1.00  0.00     0.165 C 
HETATM    2  C5  UNL     1      -2.752  50.008 -22.895  1.00  0.00     0.053 C 
HETATM    3  C7  UNL     1      -3.512  49.636 -21.701  1.00  0.00    -0.002 C 
HETATM    4  C8  UNL     1      -4.830  49.301 -21.734  1.00  0.00    -0.066 C 
HETATM    5  C9  UNL     1      -5.658  49.073 -22.980  1.00  0.00     0.042 C 
HETATM    6  C10 UNL     1      -5.972  47.589 -23.102  1.00  0.00     0.083 C 
HETATM    7  C11 UNL     1      -6.233  46.907 -21.768  1.00  0.00     0.136 C 
HETATM    8  O4  UNL     1      -6.314  45.675 -21.726  1.00  0.00    -0.297 OA
HETATM    9  C12 UNL     1      -6.450  47.754 -20.506  1.00  0.00     0.092 C 
HETATM   10  C21 UNL     1      -5.756  49.133 -20.540  1.00  0.00     0.052 C 
HETATM   11  C22 UNL     1      -2.760  49.878 -20.433  1.00  0.00     0.044 C 
HETATM   12  C23 UNL     1      -2.720  49.035 -19.316  1.00  0.00     0.091 C 
HETATM   13  C25 UNL     1      -2.049  49.462 -18.181  1.00  0.00     0.013 C 
HETATM   14  C26 UNL     1      -1.336  50.655 -18.176  1.00  0.00     0.089 C 
HETATM   15  O6  UNL     1      -0.704  50.893 -16.979  1.00  0.00    -0.341 OA
HETATM   16  C27 UNL     1      -1.373  50.002 -16.061  1.00  0.00     0.168 C 
HETATM   17  C37 UNL     1      -1.894  48.796 -16.867  1.00  0.00     0.080 C 
HETATM   18  C38 UNL     1      -1.250  51.474 -19.287  1.00  0.00     0.034 C 
HETATM   19  C40 UNL     1      -1.949  51.043 -20.426  1.00  0.00     0.101 C 
HETATM   20  O9  UNL     1      -1.761  51.766 -21.597  1.00  0.00    -0.302 OA
ENDROOT
BRANCH   2  21
HETATM   21  C6  UNL     1      -2.706  49.164 -24.110  1.00  0.00     0.273 C 
HETATM   22  O3  UNL     1      -3.500  49.301 -25.035  1.00  0.00    -0.301 OA
ENDBRANCH   2  21
BRANCH   1  23
HETATM   23  C3  UNL     1      -1.064  51.483 -23.943  1.00  0.00     0.318 C 
HETATM   24  O2  UNL     1      -1.043  50.941 -25.038  1.00  0.00    -0.257 OA
BRANCH  23  25
HETATM   25  O1  UNL     1      -0.308  52.542 -23.562  1.00  0.00    -0.316 OA
BRANCH  25  26
HETATM   26  C2  UNL     1       0.647  52.987 -24.534  1.00  0.00     0.175 C 
HETATM   27  C1  UNL     1       0.167  54.314 -25.089  1.00  0.00     0.034 C 
ENDBRANCH  25  26
ENDBRANCH  23  25
ENDBRANCH   1  23
BRANCH  12  28
HETATM   28  O5  UNL     1      -3.340  47.817 -19.287  1.00  0.00    -0.354 OA
HETATM   29  C24 UNL     1      -4.053  47.650 -18.056  1.00  0.00     0.210 C 
ENDBRANCH  12  28
BRANCH   9  30
HETATM   30  C13 UNL     1      -7.927  47.873 -20.138  1.00  0.00    -0.046 A 
HETATM   31  C14 UNL     1      -8.340  48.585 -19.002  1.00  0.00     0.010 A 
HETATM   32  C15 UNL     1      -9.689  48.682 -18.637  1.00  0.00     0.031 A 
HETATM   33  C16 UNL     1     -10.628  48.037 -19.446  1.00  0.00     0.042 A 
HETATM   34  N1  UNL     1     -12.000  47.975 -19.345  1.00  0.00    -0.365 N 
HETATM   35  C19 UNL     1     -10.265  47.312 -20.582  1.00  0.00    -0.008 A 
HETATM   36  C17 UNL     1     -12.516  47.237 -20.378  1.00  0.00     0.089 A 
HETATM   37  H14 UNL     1     -12.545  48.426 -18.621  1.00  0.00     0.165 HD
HETATM   38  C18 UNL     1     -11.467  46.796 -21.148  1.00  0.00     0.030 A 
HETATM   39  C20 UNL     1      -8.898  47.232 -20.933  1.00  0.00     0.021 A 
ENDBRANCH   9  30
BRANCH  18  40
HETATM   40  C39 UNL     1      -0.452  52.742 -19.273  1.00  0.00     0.208 C 
BRANCH  40  41
HETATM   41  O8  UNL     1       0.796  52.502 -18.627  1.00  0.00    -0.396 OA
HETATM   42  H42 UNL     1       1.291  53.334 -18.669  1.00  0.00     0.209 HD
ENDBRANCH  40  41
ENDBRANCH  18  40
BRANCH  16  43
HETATM   43  C28 UNL     1      -0.513  49.637 -14.817  1.00  0.00     0.092 C 
HETATM   44  C29 UNL     1       1.008  49.504 -15.137  1.00  0.00     0.067 C 
HETATM   45  C30 UNL     1       1.853  50.728 -14.920  1.00  0.00    -0.027 C 
HETATM   46  C31 UNL     1       1.408  51.850 -14.336  1.00  0.00    -0.024 C 
HETATM   47  C32 UNL     1       0.001  51.991 -13.827  1.00  0.00     0.043 C 
HETATM   48  C33 UNL     1      -0.053  52.790 -12.511  1.00  0.00     0.278 C 
HETATM   49  C36 UNL     1      -0.684  50.618 -13.612  1.00  0.00     0.034 C 
HETATM   50  N2  UNL     1      -1.441  53.020 -12.088  1.00  0.00     0.084 N 
HETATM   51  C34 UNL     1      -2.169  51.762 -11.905  1.00  0.00     0.270 C 
HETATM   52  H32 UNL     1      -1.438  53.537 -11.210  1.00  0.00     0.315 HD
HETATM   53  C35 UNL     1      -2.135  50.882 -13.161  1.00  0.00     0.038 C 
BRANCH  43  54
HETATM   54  O7  UNL     1      -0.945  48.327 -14.377  1.00  0.00    -0.386 OA
HETATM   55  H24 UNL     1      -1.870  48.388 -14.089  1.00  0.00     0.210 HD
ENDBRANCH  43  54
ENDBRANCH  16  43
TORSDOF 10
ENDMDL
MODEL 8
REMARK minimizedAffinity -10.1320505
REMARK CNNscore 0.379895091
REMARK CNNaffinity 8.06827068
REMARK  10 active torsions:
REMARK  status: ('A' for Active; 'I' for Inactive)
REMARK    1  A    between atoms: C2_2  and  O1_3 
REMARK    2  A    between atoms: O1_3  and  C3_4 
REMARK    3  A    between atoms: C3_4  and  C4_6 
REMARK    4  A    between atoms: C5_7  and  C6_8 
REMARK    5  A    between atoms: C12_16  and  C13_17 
REMARK    6  A    between atoms: C23_28  and  O5_29 
REMARK    7  A    between atoms: C27_34  and  C28_35 
REMARK    8  A    between atoms: C28_35  and  O7_36 
REMARK    9  A    between atoms: C38_47  and  C39_48 
REMARK   10  A    between atoms: C39_48  and  O8_49 
ROOT
HETATM    1  C4  UNL     1      -0.431  51.053 -25.374  1.00  0.00     0.165 C 
HETATM    2  C5  UNL     1      -0.532  51.525 -24.115  1.00  0.00     0.053 C 
HETATM    3  C7  UNL     1      -1.409  50.802 -23.193  1.00  0.00    -0.002 C 
HETATM    4  C8  UNL     1      -1.069  50.532 -21.903  1.00  0.00    -0.066 C 
HETATM    5  C9  UNL     1       0.137  51.077 -21.170  1.00  0.00     0.042 C 
HETATM    6  C10 UNL     1      -0.330  52.082 -20.126  1.00  0.00     0.083 C 
HETATM    7  C11 UNL     1      -1.638  51.700 -19.451  1.00  0.00     0.136 C 
HETATM    8  O4  UNL     1      -2.207  52.524 -18.726  1.00  0.00    -0.297 OA
HETATM    9  C12 UNL     1      -2.206  50.285 -19.628  1.00  0.00     0.092 C 
HETATM   10  C21 UNL     1      -1.794  49.597 -20.948  1.00  0.00     0.052 C 
HETATM   11  C22 UNL     1      -2.600  50.204 -23.868  1.00  0.00     0.044 C 
HETATM   12  C23 UNL     1      -3.911  50.183 -23.377  1.00  0.00     0.091 C 
HETATM   13  C25 UNL     1      -4.880  49.496 -24.093  1.00  0.00     0.013 C 
HETATM   14  C26 UNL     1      -4.592  48.927 -25.327  1.00  0.00     0.089 C 
HETATM   15  O6  UNL     1      -5.683  48.324 -25.904  1.00  0.00    -0.341 OA
HETATM   16  C27 UNL     1      -6.603  48.167 -24.802  1.00  0.00     0.168 C 
HETATM   17  C37 UNL     1      -6.312  49.282 -23.779  1.00  0.00     0.080 C 
HETATM   18  C38 UNL     1      -3.341  49.012 -25.910  1.00  0.00     0.034 C 
HETATM   19  C40 UNL     1      -2.360  49.693 -25.171  1.00  0.00     0.101 C 
HETATM   20  O9  UNL     1      -1.140  49.922 -25.794  1.00  0.00    -0.302 OA
ENDROOT
BRANCH   2  21
HETATM   21  C6  UNL     1       0.058  52.842 -23.791  1.00  0.00     0.273 C 
HETATM   22  O3  UNL     1       1.146  52.956 -23.236  1.00  0.00    -0.301 OA
ENDBRANCH   2  21
BRANCH   1  23
HETATM   23  C3  UNL     1       0.400  51.748 -26.396  1.00  0.00     0.318 C 
HETATM   24  O2  UNL     1       1.545  52.138 -26.223  1.00  0.00    -0.257 OA
BRANCH  23  25
HETATM   25  O1  UNL     1      -0.330  51.897 -27.529  1.00  0.00    -0.316 OA
BRANCH  25  26
HETATM   26  C2  UNL     1      -1.239  53.004 -27.524  1.00  0.00     0.175 C 
HETATM   27  C1  UNL     1      -0.464  54.248 -27.910  1.00  0.00     0.034 C 
ENDBRANCH  25  26
ENDBRANCH  23  25
ENDBRANCH   1  23
BRANCH  12  28
HETATM   28  O5  UNL     1      -4.271  50.788 -22.206  1.00  0.00    -0.354 OA
HETATM   29  C24 UNL     1      -5.181  49.958 -21.476  1.00  0.00     0.210 C 
ENDBRANCH  12  28
BRANCH   9  30
HETATM   30  C13 UNL     1      -1.930  49.397 -18.418  1.00  0.00    -0.046 A 
HETATM   31  C14 UNL     1      -2.871  48.454 -17.976  1.00  0.00     0.010 A 
HETATM   32  C15 UNL     1      -2.643  47.649 -16.851  1.00  0.00     0.031 A 
HETATM   33  C16 UNL     1      -1.436  47.816 -16.169  1.00  0.00     0.042 A 
HETATM   34  N1  UNL     1      -0.941  47.165 -15.061  1.00  0.00    -0.365 N 
HETATM   35  C19 UNL     1      -0.473  48.744 -16.567  1.00  0.00    -0.008 A 
HETATM   36  C17 UNL     1       0.303  47.649 -14.746  1.00  0.00     0.089 A 
HETATM   37  H14 UNL     1      -1.421  46.425 -14.565  1.00  0.00     0.165 HD
HETATM   38  C18 UNL     1       0.611  48.640 -15.646  1.00  0.00     0.030 A 
HETATM   39  C20 UNL     1      -0.722  49.541 -17.706  1.00  0.00     0.021 A 
ENDBRANCH   9  30
BRANCH  18  40
HETATM   40  C39 UNL     1      -3.055  48.418 -27.256  1.00  0.00     0.208 C 
BRANCH  40  41
HETATM   41  O8  UNL     1      -3.885  49.045 -28.230  1.00  0.00    -0.396 OA
HETATM   42  H42 UNL     1      -3.647  48.658 -29.085  1.00  0.00     0.209 HD
ENDBRANCH  40  41
ENDBRANCH  18  40
BRANCH  16  43
HETATM   43  C28 UNL     1      -8.090  48.060 -25.249  1.00  0.00     0.092 C 
HETATM   44  C29 UNL     1      -8.255  47.695 -26.758  1.00  0.00     0.067 C 
HETATM   45  C30 UNL     1      -8.421  46.238 -27.086  1.00  0.00    -0.027 C 
HETATM   46  C31 UNL     1      -8.584  45.278 -26.164  1.00  0.00    -0.024 C 
HETATM   47  C32 UNL     1      -8.626  45.572 -24.692  1.00  0.00     0.043 C 
HETATM   48  C33 UNL     1      -9.655  44.689 -23.961  1.00  0.00     0.278 C 
HETATM   49  C36 UNL     1      -8.942  47.061 -24.400  1.00  0.00     0.034 C 
HETATM   50  N2  UNL     1      -9.602  44.903 -22.510  1.00  0.00     0.084 N 
HETATM   51  C34 UNL     1      -9.849  46.304 -22.157  1.00  0.00     0.270 C 
HETATM   52  H32 UNL     1     -10.304  44.316 -22.062  1.00  0.00     0.315 HD
HETATM   53  C35 UNL     1      -8.888  47.262 -22.872  1.00  0.00     0.038 C 
BRANCH  43  54
HETATM   54  O7  UNL     1      -8.673  49.375 -25.088  1.00  0.00    -0.386 OA
HETATM   55  H24 UNL     1      -8.664  49.603 -24.145  1.00  0.00     0.210 HD
ENDBRANCH  43  54
ENDBRANCH  16  43
TORSDOF 10
ENDMDL
MODEL 9
REMARK minimizedAffinity -8.72185898
REMARK CNNscore 0.332297176
REMARK CNNaffinity 6.78388357
REMARK  10 active torsions:
REMARK  status: ('A' for Active; 'I' for Inactive)
REMARK    1  A    between atoms: C2_2  and  O1_3 
REMARK    2  A    between atoms: O1_3  and  C3_4 
REMARK    3  A    between atoms: C3_4  and  C4_6 
REMARK    4  A    between atoms: C5_7  and  C6_8 
REMARK    5  A    between atoms: C12_16  and  C13_17 
REMARK    6  A    between atoms: C23_28  and  O5_29 
REMARK    7  A    between atoms: C27_34  and  C28_35 
REMARK    8  A    between atoms: C28_35  and  O7_36 
REMARK    9  A    between atoms: C38_47  and  C39_48 
REMARK   10  A    between atoms: C39_48  and  O8_49 
ROOT
HETATM    1  C4  UNL     1     -12.043  46.154 -26.456  1.00  0.00     0.165 C 
HETATM    2  C5  UNL     1     -11.514  46.529 -27.638  1.00  0.00     0.053 C 
HETATM    3  C7  UNL     1     -10.062  46.434 -27.789  1.00  0.00    -0.002 C 
HETATM    4  C8  UNL     1      -9.462  45.950 -28.910  1.00  0.00    -0.066 C 
HETATM    5  C9  UNL     1     -10.152  45.623 -30.217  1.00  0.00     0.042 C 
HETATM    6  C10 UNL     1      -9.747  46.654 -31.261  1.00  0.00     0.083 C 
HETATM    7  C11 UNL     1      -8.298  47.102 -31.151  1.00  0.00     0.136 C 
HETATM    8  O4  UNL     1      -7.911  48.064 -31.822  1.00  0.00    -0.297 OA
HETATM    9  C12 UNL     1      -7.323  46.322 -30.258  1.00  0.00     0.092 C 
HETATM   10  C21 UNL     1      -7.993  45.591 -29.073  1.00  0.00     0.052 C 
HETATM   11  C22 UNL     1      -9.325  46.705 -26.518  1.00  0.00     0.044 C 
HETATM   12  C23 UNL     1      -8.149  47.451 -26.382  1.00  0.00     0.091 C 
HETATM   13  C25 UNL     1      -7.543  47.521 -25.137  1.00  0.00     0.013 C 
HETATM   14  C26 UNL     1      -8.138  46.955 -24.017  1.00  0.00     0.089 C 
HETATM   15  O6  UNL     1      -7.414  47.159 -22.868  1.00  0.00    -0.341 OA
HETATM   16  C27 UNL     1      -6.106  47.531 -23.355  1.00  0.00     0.168 C 
HETATM   17  C37 UNL     1      -6.286  48.195 -24.734  1.00  0.00     0.080 C 
HETATM   18  C38 UNL     1      -9.355  46.301 -24.073  1.00  0.00     0.034 C 
HETATM   19  C40 UNL     1      -9.953  46.218 -25.341  1.00  0.00     0.101 C 
HETATM   20  O9  UNL     1     -11.240  45.699 -25.404  1.00  0.00    -0.302 OA
ENDROOT
BRANCH   2  21
HETATM   21  C6  UNL     1     -12.378  47.210 -28.629  1.00  0.00     0.273 C 
HETATM   22  O3  UNL     1     -12.165  48.357 -29.008  1.00  0.00    -0.301 OA
ENDBRANCH   2  21
BRANCH   1  23
HETATM   23  C3  UNL     1     -13.505  46.260 -26.193  1.00  0.00     0.318 C 
HETATM   24  O2  UNL     1     -14.065  47.246 -25.737  1.00  0.00    -0.257 OA
BRANCH  23  25
HETATM   25  O1  UNL     1     -14.096  45.084 -26.516  1.00  0.00    -0.316 OA
BRANCH  25  26
HETATM   26  C2  UNL     1     -15.435  45.194 -27.015  1.00  0.00     0.175 C 
HETATM   27  C1  UNL     1     -15.397  44.970 -28.514  1.00  0.00     0.034 C 
ENDBRANCH  25  26
ENDBRANCH  23  25
ENDBRANCH   1  23
BRANCH  12  28
HETATM   28  O5  UNL     1      -7.555  48.093 -27.433  1.00  0.00    -0.354 OA
HETATM   29  C24 UNL     1      -6.155  47.796 -27.471  1.00  0.00     0.210 C 
ENDBRANCH  12  28
BRANCH   9  30
HETATM   30  C13 UNL     1      -6.424  45.388 -31.062  1.00  0.00    -0.046 A 
HETATM   31  C14 UNL     1      -5.228  45.843 -31.638  1.00  0.00     0.010 A 
HETATM   32  C15 UNL     1      -4.405  45.004 -32.400  1.00  0.00     0.031 A 
HETATM   33  C16 UNL     1      -4.815  43.681 -32.579  1.00  0.00     0.042 A 
HETATM   34  N1  UNL     1      -4.212  42.643 -33.254  1.00  0.00    -0.365 N 
HETATM   35  C19 UNL     1      -5.999  43.184 -32.032  1.00  0.00    -0.008 A 
HETATM   36  C17 UNL     1      -4.973  41.507 -33.151  1.00  0.00     0.089 A 
HETATM   37  H14 UNL     1      -3.326  42.709 -33.739  1.00  0.00     0.165 HD
HETATM   38  C18 UNL     1      -6.094  41.815 -32.420  1.00  0.00     0.030 A 
HETATM   39  C20 UNL     1      -6.811  44.047 -31.263  1.00  0.00     0.021 A 
ENDBRANCH   9  30
BRANCH  18  40
HETATM   40  C39 UNL     1      -9.998  45.722 -22.850  1.00  0.00     0.208 C 
BRANCH  40  41
HETATM   41  O8  UNL     1     -11.181  46.458 -22.550  1.00  0.00    -0.396 OA
HETATM   42  H42 UNL     1     -11.581  46.034 -21.777  1.00  0.00     0.209 HD
ENDBRANCH  40  41
ENDBRANCH  18  40
BRANCH  16  43
HETATM   43  C28 UNL     1      -5.279  48.361 -22.331  1.00  0.00     0.092 C 
HETATM   44  C29 UNL     1      -4.136  47.542 -21.655  1.00  0.00     0.067 C 
HETATM   45  C30 UNL     1      -2.776  47.629 -22.289  1.00  0.00    -0.027 C 
HETATM   46  C31 UNL     1      -2.468  48.472 -23.285  1.00  0.00    -0.024 C 
HETATM   47  C32 UNL     1      -3.467  49.430 -23.868  1.00  0.00     0.043 C 
HETATM   48  C33 UNL     1      -2.822  50.785 -24.219  1.00  0.00     0.278 C 
HETATM   49  C36 UNL     1      -4.668  49.674 -22.919  1.00  0.00     0.034 C 
HETATM   50  N2  UNL     1      -3.781  51.669 -24.894  1.00  0.00     0.084 N 
HETATM   51  C34 UNL     1      -4.969  51.913 -24.072  1.00  0.00     0.270 C 
HETATM   52  H32 UNL     1      -3.326  52.558 -25.097  1.00  0.00     0.315 HD
HETATM   53  C35 UNL     1      -5.657  50.610 -23.643  1.00  0.00     0.038 C 
BRANCH  43  54
HETATM   54  O7  UNL     1      -6.184  48.740 -21.267  1.00  0.00    -0.386 OA
HETATM   55  H24 UNL     1      -6.866  49.323 -21.636  1.00  0.00     0.210 HD
ENDBRANCH  43  54
ENDBRANCH  16  43
TORSDOF 10
ENDMDL
