MODEL 1
REMARK minimizedAffinity -8.28998089
REMARK CNNscore 0.438322186
REMARK CNNaffinity 7.04167938
REMARK  11 active torsions:
REMARK  status: ('A' for Active; 'I' for Inactive)
REMARK    1  A    between atoms: C3_4  and  O2_5 
REMARK    2  A    between atoms: O2_5  and  C4_6 
REMARK    3  A    between atoms: C7_9  and  C8_10 
REMARK    4  A    between atoms: N1_11  and  C9_13 
REMARK    5  A    between atoms: C9_13  and  C10_14 
REMARK    6  A    between atoms: C10_14  and  C11_15 
REMARK    7  A    between atoms: C22_26  and  C23_27 
REMARK    8  A    between atoms: C29_35  and  O5_36 
REMARK    9  A    between atoms: C33_40  and  O6_41 
REMARK   10  A    between atoms: C36_44  and  O7_45 
REMARK   11  A    between atoms: C37_46  and  O8_47 
ROOT
HETATM    1  C4  UNL     1      -3.124  49.259 -10.942  1.00  0.00     0.127 C 
HETATM    2  C5  UNL     1      -1.936  49.068 -11.888  1.00  0.00     0.033 C 
HETATM    3  C6  UNL     1      -0.827  50.064 -11.585  1.00  0.00     0.021 C 
HETATM    4  C7  UNL     1      -1.253  51.563 -11.763  1.00  0.00     0.026 C 
HETATM    5  C17 UNL     1      -0.544  52.402 -10.628  1.00  0.00     0.009 C 
HETATM    6  C18 UNL     1       0.994  52.405 -10.748  1.00  0.00     0.007 C 
HETATM    7  C19 UNL     1       1.663  53.147  -9.590  1.00  0.00     0.013 C 
HETATM    8  C20 UNL     1       1.202  54.622  -9.463  1.00  0.00    -0.005 C 
HETATM    9  C21 UNL     1       1.783  55.462 -10.618  1.00  0.00     0.019 C 
HETATM   10  C22 UNL     1       1.565  55.261  -8.078  1.00  0.00     0.028 C 
HETATM   11  C27 UNL     1       0.525  54.650  -7.119  1.00  0.00     0.013 C 
HETATM   12  C28 UNL     1      -0.688  54.261  -7.969  1.00  0.00     0.040 C 
HETATM   13  C29 UNL     1      -0.355  54.683  -9.415  1.00  0.00     0.070 C 
HETATM   14  C30 UNL     1      -1.074  53.849 -10.511  1.00  0.00     0.026 C 
HETATM   15  C31 UNL     1      -2.596  53.841 -10.298  1.00  0.00     0.011 C 
HETATM   16  C32 UNL     1      -3.308  53.150 -11.447  1.00  0.00     0.039 C 
HETATM   17  C33 UNL     1      -2.825  51.711 -11.717  1.00  0.00     0.073 C 
HETATM   18  C34 UNL     1      -3.435  50.745 -10.671  1.00  0.00     0.071 C 
ENDROOT
BRANCH   1  19
HETATM   19  O2  UNL     1      -4.243  48.601 -11.538  1.00  0.00    -0.356 OA
BRANCH  19  20
HETATM   20  C3  UNL     1      -5.330  48.357 -10.649  1.00  0.00     0.263 C 
HETATM   21  O1  UNL     1      -4.894  48.008  -9.338  1.00  0.00    -0.354 OA
HETATM   22  C2  UNL     1      -5.956  47.643  -8.449  1.00  0.00     0.151 C 
HETATM   23  C1  UNL     1      -6.085  46.122  -8.423  1.00  0.00     0.042 C 
HETATM   24  C37 UNL     1      -7.301  48.321  -8.775  1.00  0.00     0.175 C 
HETATM   25  C36 UNL     1      -7.036  49.711  -9.352  1.00  0.00     0.154 C 
HETATM   26  C35 UNL     1      -6.166  49.637 -10.600  1.00  0.00     0.095 C 
BRANCH  24  27
HETATM   27  O8  UNL     1      -8.128  48.449  -7.611  1.00  0.00    -0.390 OA
HETATM   28  H55 UNL     1      -8.370  47.552  -7.323  1.00  0.00     0.210 HD
ENDBRANCH  24  27
BRANCH  25  29
HETATM   29  O7  UNL     1      -8.281  50.343  -9.667  1.00  0.00    -0.393 OA
HETATM   30  H53 UNL     1      -8.817  50.268  -8.851  1.00  0.00     0.210 HD
ENDBRANCH  25  29
ENDBRANCH  19  20
ENDBRANCH   1  19
BRANCH  17  31
HETATM   31  O6  UNL     1      -3.406  51.337 -12.979  1.00  0.00    -0.389 OA
HETATM   32  H47 UNL     1      -3.078  51.982 -13.639  1.00  0.00     0.210 HD
ENDBRANCH  17  31
BRANCH   4  33
HETATM   33  C8  UNL     1      -0.707  52.012 -13.132  1.00  0.00     0.068 C 
HETATM   34  N1  UNL     1       0.010  51.233 -13.869  1.00  0.00    -0.401 N 
ATOM     35  H1  UNL     1       0.236  50.278 -13.592  1.00  0.00     0.158 HD
BRANCH  34  36
HETATM   36  C9  UNL     1       0.478  51.816 -15.135  1.00  0.00     0.123 C 
BRANCH  36  37
HETATM   37  C10 UNL     1       0.503  50.717 -16.205  1.00  0.00     0.053 C 
BRANCH  37  38
HETATM   38  C11 UNL     1       0.314  51.244 -17.610  1.00  0.00    -0.082 C 
HETATM   39  C12 UNL     1      -0.326  50.523 -18.551  1.00  0.00    -0.024 C 
HETATM   40  C13 UNL     1      -0.543  50.991 -19.961  1.00  0.00     0.027 C 
HETATM   41  C14 UNL     1      -0.236  52.476 -20.160  1.00  0.00     0.004 C 
HETATM   42  C15 UNL     1       1.034  52.880 -19.420  1.00  0.00     0.005 C 
HETATM   43  C16 UNL     1       0.914  52.595 -17.920  1.00  0.00     0.034 C 
ENDBRANCH  37  38
ENDBRANCH  36  37
ENDBRANCH  34  36
ENDBRANCH   4  33
BRANCH  13  44
HETATM   44  O5  UNL     1      -0.786  56.050  -9.527  1.00  0.00    -0.389 OA
HETATM   45  H41 UNL     1      -0.795  56.297 -10.468  1.00  0.00     0.210 HD
ENDBRANCH  13  44
BRANCH  10  46
HETATM   46  C23 UNL     1       2.963  55.213  -7.524  1.00  0.00    -0.045 A 
HETATM   47  C24 UNL     1       4.039  55.948  -7.806  1.00  0.00     0.087 A 
HETATM   48  C25 UNL     1       5.117  55.505  -6.923  1.00  0.00     0.283 A 
HETATM   49  O3  UNL     1       6.245  55.959  -6.928  1.00  0.00    -0.260 OA
HETATM   50  O4  UNL     1       4.656  54.516  -6.114  1.00  0.00    -0.314 OA
HETATM   51  C26 UNL     1       3.288  54.264  -6.425  1.00  0.00     0.213 A 
ENDBRANCH  10  46
TORSDOF 11
ENDMDL
MODEL 2
REMARK minimizedAffinity -7.86938334
REMARK CNNscore 0.427002132
REMARK CNNaffinity 6.79199266
REMARK  11 active torsions:
REMARK  status: ('A' for Active; 'I' for Inactive)
REMARK    1  A    between atoms: C3_4  and  O2_5 
REMARK    2  A    between atoms: O2_5  and  C4_6 
REMARK    3  A    between atoms: C7_9  and  C8_10 
REMARK    4  A    between atoms: N1_11  and  C9_13 
REMARK    5  A    between atoms: C9_13  and  C10_14 
REMARK    6  A    between atoms: C10_14  and  C11_15 
REMARK    7  A    between atoms: C22_26  and  C23_27 
REMARK    8  A    between atoms: C29_35  and  O5_36 
REMARK    9  A    between atoms: C33_40  and  O6_41 
REMARK   10  A    between atoms: C36_44  and  O7_45 
REMARK   11  A    between atoms: C37_46  and  O8_47 
ROOT
HETATM    1  C4  UNL     1      -8.415  47.326 -20.634  1.00  0.00     0.127 C 
HETATM    2  C5  UNL     1      -8.299  48.101 -19.319  1.00  0.00     0.033 C 
HETATM    3  C6  UNL     1      -6.938  48.769 -19.193  1.00  0.00     0.021 C 
HETATM    4  C7  UNL     1      -5.735  47.761 -19.180  1.00  0.00     0.026 C 
HETATM    5  C17 UNL     1      -4.543  48.426 -19.975  1.00  0.00     0.009 C 
HETATM    6  C18 UNL     1      -4.004  49.705 -19.301  1.00  0.00     0.007 C 
HETATM    7  C19 UNL     1      -2.913  50.381 -20.133  1.00  0.00     0.013 C 
HETATM    8  C20 UNL     1      -1.701  49.456 -20.416  1.00  0.00    -0.005 C 
HETATM    9  C21 UNL     1      -0.883  49.240 -19.128  1.00  0.00     0.019 C 
HETATM   10  C22 UNL     1      -0.782  49.986 -21.571  1.00  0.00     0.028 C 
HETATM   11  C27 UNL     1      -1.582  49.653 -22.846  1.00  0.00     0.013 C 
HETATM   12  C28 UNL     1      -2.500  48.476 -22.499  1.00  0.00     0.040 C 
HETATM   13  C29 UNL     1      -2.199  48.112 -21.031  1.00  0.00     0.070 C 
HETATM   14  C30 UNL     1      -3.383  47.450 -20.275  1.00  0.00     0.026 C 
HETATM   15  C31 UNL     1      -3.909  46.219 -21.030  1.00  0.00     0.011 C 
HETATM   16  C32 UNL     1      -4.967  45.489 -20.224  1.00  0.00     0.039 C 
HETATM   17  C33 UNL     1      -6.159  46.371 -19.798  1.00  0.00     0.073 C 
HETATM   18  C34 UNL     1      -7.118  46.574 -20.997  1.00  0.00     0.071 C 
ENDROOT
BRANCH   1  19
HETATM   19  O2  UNL     1      -9.510  46.421 -20.490  1.00  0.00    -0.356 OA
BRANCH  19  20
HETATM   20  C3  UNL     1     -10.699  46.816 -21.169  1.00  0.00     0.263 C 
HETATM   21  O1  UNL     1     -11.413  45.707 -21.708  1.00  0.00    -0.354 OA
HETATM   22  C2  UNL     1     -12.551  46.075 -22.497  1.00  0.00     0.151 C 
HETATM   23  C1  UNL     1     -12.156  46.080 -23.972  1.00  0.00     0.042 C 
HETATM   24  C37 UNL     1     -13.192  47.412 -22.078  1.00  0.00     0.175 C 
HETATM   25  C36 UNL     1     -13.036  47.593 -20.568  1.00  0.00     0.154 C 
HETATM   26  C35 UNL     1     -11.571  47.558 -20.154  1.00  0.00     0.095 C 
BRANCH  24  27
HETATM   27  O8  UNL     1     -14.586  47.461 -22.411  1.00  0.00    -0.390 OA
HETATM   28  H55 UNL     1     -14.656  47.450 -23.381  1.00  0.00     0.210 HD
ENDBRANCH  24  27
BRANCH  25  29
HETATM   29  O7  UNL     1     -13.621  48.838 -20.173  1.00  0.00    -0.393 OA
HETATM   30  H53 UNL     1     -14.523  48.826 -20.553  1.00  0.00     0.210 HD
ENDBRANCH  25  29
ENDBRANCH  19  20
ENDBRANCH   1  19
BRANCH  17  31
HETATM   31  O6  UNL     1      -6.894  45.593 -18.837  1.00  0.00    -0.389 OA
HETATM   32  H47 UNL     1      -6.276  45.401 -18.101  1.00  0.00     0.210 HD
ENDBRANCH  17  31
BRANCH   4  33
HETATM   33  C8  UNL     1      -5.321  47.595 -17.706  1.00  0.00     0.068 C 
HETATM   34  N1  UNL     1      -4.468  46.702 -17.333  1.00  0.00    -0.401 N 
ATOM     35  H1  UNL     1      -4.014  46.073 -17.995  1.00  0.00     0.158 HD
BRANCH  34  36
HETATM   36  C9  UNL     1      -4.196  46.652 -15.889  1.00  0.00     0.123 C 
BRANCH  36  37
HETATM   37  C10 UNL     1      -2.720  46.992 -15.653  1.00  0.00     0.053 C 
BRANCH  37  38
HETATM   38  C11 UNL     1      -2.503  48.396 -15.134  1.00  0.00    -0.082 C 
HETATM   39  C12 UNL     1      -2.787  49.476 -15.887  1.00  0.00    -0.024 C 
HETATM   40  C13 UNL     1      -2.593  50.893 -15.429  1.00  0.00     0.027 C 
HETATM   41  C14 UNL     1      -2.323  51.011 -13.928  1.00  0.00     0.004 C 
HETATM   42  C15 UNL     1      -1.360  49.928 -13.454  1.00  0.00     0.005 C 
HETATM   43  C16 UNL     1      -1.913  48.530 -13.750  1.00  0.00     0.034 C 
ENDBRANCH  37  38
ENDBRANCH  36  37
ENDBRANCH  34  36
ENDBRANCH   4  33
BRANCH  13  44
HETATM   44  O5  UNL     1      -1.110  47.175 -21.082  1.00  0.00    -0.389 OA
HETATM   45  H41 UNL     1      -1.021  46.755 -20.208  1.00  0.00     0.210 HD
ENDBRANCH  13  44
BRANCH  10  46
HETATM   46  C23 UNL     1      -0.244  51.390 -21.576  1.00  0.00    -0.045 A 
HETATM   47  C24 UNL     1       0.217  52.151 -20.583  1.00  0.00     0.087 A 
HETATM   48  C25 UNL     1       0.667  53.413 -21.168  1.00  0.00     0.283 A 
HETATM   49  O3  UNL     1       1.131  54.343 -20.535  1.00  0.00    -0.260 OA
HETATM   50  O4  UNL     1       0.477  53.376 -22.512  1.00  0.00    -0.314 OA
HETATM   51  C26 UNL     1      -0.097  52.120 -22.864  1.00  0.00     0.213 A 
ENDBRANCH  10  46
TORSDOF 11
ENDMDL
MODEL 3
REMARK minimizedAffinity -8.81095409
REMARK CNNscore 0.400239587
REMARK CNNaffinity 6.9752593
REMARK  11 active torsions:
REMARK  status: ('A' for Active; 'I' for Inactive)
REMARK    1  A    between atoms: C3_4  and  O2_5 
REMARK    2  A    between atoms: O2_5  and  C4_6 
REMARK    3  A    between atoms: C7_9  and  C8_10 
REMARK    4  A    between atoms: N1_11  and  C9_13 
REMARK    5  A    between atoms: C9_13  and  C10_14 
REMARK    6  A    between atoms: C10_14  and  C11_15 
REMARK    7  A    between atoms: C22_26  and  C23_27 
REMARK    8  A    between atoms: C29_35  and  O5_36 
REMARK    9  A    between atoms: C33_40  and  O6_41 
REMARK   10  A    between atoms: C36_44  and  O7_45 
REMARK   11  A    between atoms: C37_46  and  O8_47 
ROOT
HETATM    1  C4  UNL     1      -8.104  47.986 -20.630  1.00  0.00     0.127 C 
HETATM    2  C5  UNL     1      -7.998  48.630 -19.246  1.00  0.00     0.033 C 
HETATM    3  C6  UNL     1      -6.622  49.243 -19.030  1.00  0.00     0.021 C 
HETATM    4  C7  UNL     1      -5.448  48.203 -19.087  1.00  0.00     0.026 C 
HETATM    5  C17 UNL     1      -4.221  48.905 -19.791  1.00  0.00     0.009 C 
HETATM    6  C18 UNL     1      -3.662  50.098 -18.988  1.00  0.00     0.007 C 
HETATM    7  C19 UNL     1      -2.533  50.816 -19.729  1.00  0.00     0.013 C 
HETATM    8  C20 UNL     1      -1.341  49.887 -20.073  1.00  0.00    -0.005 C 
HETATM    9  C21 UNL     1      -0.560  49.527 -18.794  1.00  0.00     0.019 C 
HETATM   10  C22 UNL     1      -0.382  50.495 -21.154  1.00  0.00     0.028 C 
HETATM   11  C27 UNL     1      -1.160  50.307 -22.471  1.00  0.00     0.013 C 
HETATM   12  C28 UNL     1      -2.118  49.131 -22.256  1.00  0.00     0.040 C 
HETATM   13  C29 UNL     1      -1.862  48.622 -20.823  1.00  0.00     0.070 C 
HETATM   14  C30 UNL     1      -3.081  47.927 -20.158  1.00  0.00     0.026 C 
HETATM   15  C31 UNL     1      -3.622  46.788 -21.037  1.00  0.00     0.011 C 
HETATM   16  C32 UNL     1      -4.719  46.017 -20.324  1.00  0.00     0.039 C 
HETATM   17  C33 UNL     1      -5.895  46.891 -19.843  1.00  0.00     0.073 C 
HETATM   18  C34 UNL     1      -6.821  47.234 -21.036  1.00  0.00     0.071 C 
ENDROOT
BRANCH   1  19
HETATM   19  O2  UNL     1      -9.228  47.104 -20.596  1.00  0.00    -0.356 OA
BRANCH  19  20
HETATM   20  C3  UNL     1     -10.236  47.465 -19.656  1.00  0.00     0.263 C 
HETATM   21  O1  UNL     1     -11.542  47.094 -20.089  1.00  0.00    -0.354 OA
HETATM   22  C2  UNL     1     -12.592  47.545 -19.225  1.00  0.00     0.151 C 
HETATM   23  C1  UNL     1     -13.169  48.847 -19.777  1.00  0.00     0.042 C 
HETATM   24  C37 UNL     1     -12.165  47.694 -17.752  1.00  0.00     0.175 C 
HETATM   25  C36 UNL     1     -11.110  46.636 -17.426  1.00  0.00     0.154 C 
HETATM   26  C35 UNL     1      -9.900  46.760 -18.342  1.00  0.00     0.095 C 
BRANCH  24  27
HETATM   27  O8  UNL     1     -13.275  47.536 -16.859  1.00  0.00    -0.390 OA
HETATM   28  H55 UNL     1     -13.883  48.279 -17.013  1.00  0.00     0.210 HD
ENDBRANCH  24  27
BRANCH  25  29
HETATM   29  O7  UNL     1     -10.702  46.775 -16.061  1.00  0.00    -0.393 OA
HETATM   30  H53 UNL     1     -11.534  46.782 -15.547  1.00  0.00     0.210 HD
ENDBRANCH  25  29
ENDBRANCH  19  20
ENDBRANCH   1  19
BRANCH  17  31
HETATM   31  O6  UNL     1      -6.674  46.047 -18.975  1.00  0.00    -0.389 OA
HETATM   32  H47 UNL     1      -6.079  45.770 -18.248  1.00  0.00     0.210 HD
ENDBRANCH  17  31
BRANCH   4  33
HETATM   33  C8  UNL     1      -5.073  47.888 -17.627  1.00  0.00     0.068 C 
HETATM   34  N1  UNL     1      -4.272  46.923 -17.322  1.00  0.00    -0.401 N 
ATOM     35  H1  UNL     1      -3.835  46.334 -18.029  1.00  0.00     0.158 HD
BRANCH  34  36
HETATM   36  C9  UNL     1      -4.033  46.733 -15.883  1.00  0.00     0.123 C 
BRANCH  36  37
HETATM   37  C10 UNL     1      -2.522  46.637 -15.643  1.00  0.00     0.053 C 
BRANCH  37  38
HETATM   38  C11 UNL     1      -1.865  47.979 -15.413  1.00  0.00    -0.082 C 
HETATM   39  C12 UNL     1      -0.525  48.104 -15.341  1.00  0.00    -0.024 C 
HETATM   40  C13 UNL     1       0.185  49.407 -15.114  1.00  0.00     0.027 C 
HETATM   41  C14 UNL     1      -0.727  50.627 -15.265  1.00  0.00     0.004 C 
HETATM   42  C15 UNL     1      -2.083  50.385 -14.613  1.00  0.00     0.005 C 
HETATM   43  C16 UNL     1      -2.780  49.166 -15.225  1.00  0.00     0.034 C 
ENDBRANCH  37  38
ENDBRANCH  36  37
ENDBRANCH  34  36
ENDBRANCH   4  33
BRANCH  13  44
HETATM   44  O5  UNL     1      -0.798  47.662 -20.940  1.00  0.00    -0.389 OA
HETATM   45  H41 UNL     1      -0.741  47.159 -20.108  1.00  0.00     0.210 HD
ENDBRANCH  13  44
BRANCH  10  46
HETATM   46  C23 UNL     1       0.195  51.878 -21.014  1.00  0.00    -0.045 A 
HETATM   47  C24 UNL     1       0.925  52.607 -21.858  1.00  0.00     0.087 A 
HETATM   48  C25 UNL     1       1.163  53.904 -21.226  1.00  0.00     0.283 A 
HETATM   49  O3  UNL     1       1.811  54.807 -21.721  1.00  0.00    -0.260 OA
HETATM   50  O4  UNL     1       0.554  53.929 -20.012  1.00  0.00    -0.314 OA
HETATM   51  C26 UNL     1      -0.092  52.677 -19.793  1.00  0.00     0.213 A 
ENDBRANCH  10  46
TORSDOF 11
ENDMDL
MODEL 4
REMARK minimizedAffinity -8.97351646
REMARK CNNscore 0.385420501
REMARK CNNaffinity 6.22774315
REMARK  11 active torsions:
REMARK  status: ('A' for Active; 'I' for Inactive)
REMARK    1  A    between atoms: C3_4  and  O2_5 
REMARK    2  A    between atoms: O2_5  and  C4_6 
REMARK    3  A    between atoms: C7_9  and  C8_10 
REMARK    4  A    between atoms: N1_11  and  C9_13 
REMARK    5  A    between atoms: C9_13  and  C10_14 
REMARK    6  A    between atoms: C10_14  and  C11_15 
REMARK    7  A    between atoms: C22_26  and  C23_27 
REMARK    8  A    between atoms: C29_35  and  O5_36 
REMARK    9  A    between atoms: C33_40  and  O6_41 
REMARK   10  A    between atoms: C36_44  and  O7_45 
REMARK   11  A    between atoms: C37_46  and  O8_47 
ROOT
HETATM    1  C4  UNL     1      -7.937  47.494 -24.788  1.00  0.00     0.127 C 
HETATM    2  C5  UNL     1      -8.410  48.557 -25.782  1.00  0.00     0.033 C 
HETATM    3  C6  UNL     1      -9.852  48.311 -26.204  1.00  0.00     0.021 C 
HETATM    4  C7  UNL     1     -10.073  46.940 -26.936  1.00  0.00     0.026 C 
HETATM    5  C17 UNL     1     -11.475  46.374 -26.479  1.00  0.00     0.009 C 
HETATM    6  C18 UNL     1     -12.659  47.260 -26.918  1.00  0.00     0.007 C 
HETATM    7  C19 UNL     1     -13.997  46.742 -26.389  1.00  0.00     0.013 C 
HETATM    8  C20 UNL     1     -14.310  45.291 -26.837  1.00  0.00    -0.005 C 
HETATM    9  C21 UNL     1     -14.649  45.260 -28.341  1.00  0.00     0.019 C 
HETATM   10  C22 UNL     1     -15.454  44.623 -25.999  1.00  0.00     0.028 C 
HETATM   11  C27 UNL     1     -14.762  44.269 -24.668  1.00  0.00     0.013 C 
HETATM   12  C28 UNL     1     -13.267  44.125 -24.969  1.00  0.00     0.040 C 
HETATM   13  C29 UNL     1     -13.107  44.363 -26.484  1.00  0.00     0.070 C 
HETATM   14  C30 UNL     1     -11.717  44.909 -26.908  1.00  0.00     0.026 C 
HETATM   15  C31 UNL     1     -10.582  44.011 -26.389  1.00  0.00     0.011 C 
HETATM   16  C32 UNL     1      -9.235  44.463 -26.924  1.00  0.00     0.039 C 
HETATM   17  C33 UNL     1      -8.896  45.937 -26.620  1.00  0.00     0.073 C 
HETATM   18  C34 UNL     1      -8.434  46.080 -25.149  1.00  0.00     0.071 C 
ENDROOT
BRANCH   1  19
HETATM   19  O2  UNL     1      -6.509  47.547 -24.769  1.00  0.00    -0.356 OA
BRANCH  19  20
HETATM   20  C3  UNL     1      -5.963  48.465 -23.826  1.00  0.00     0.263 C 
HETATM   21  O1  UNL     1      -6.529  49.767 -23.944  1.00  0.00    -0.354 OA
HETATM   22  C2  UNL     1      -5.921  50.745 -23.091  1.00  0.00     0.151 C 
HETATM   23  C1  UNL     1      -4.872  51.519 -23.886  1.00  0.00     0.042 C 
HETATM   24  C37 UNL     1      -5.330  50.158 -21.794  1.00  0.00     0.175 C 
HETATM   25  C36 UNL     1      -6.178  48.967 -21.350  1.00  0.00     0.154 C 
HETATM   26  C35 UNL     1      -6.240  47.897 -22.433  1.00  0.00     0.095 C 
BRANCH  24  27
HETATM   27  O8  UNL     1      -5.300  51.128 -20.738  1.00  0.00    -0.390 OA
HETATM   28  H55 UNL     1      -4.674  51.825 -20.998  1.00  0.00     0.210 HD
ENDBRANCH  24  27
BRANCH  25  29
HETATM   29  O7  UNL     1      -5.628  48.411 -20.152  1.00  0.00    -0.393 OA
HETATM   30  H53 UNL     1      -5.531  49.169 -19.542  1.00  0.00     0.210 HD
ENDBRANCH  25  29
ENDBRANCH  19  20
ENDBRANCH   1  19
BRANCH  17  31
HETATM   31  O6  UNL     1      -7.741  46.242 -27.423  1.00  0.00    -0.389 OA
HETATM   32  H47 UNL     1      -8.002  46.092 -28.355  1.00  0.00     0.210 HD
ENDBRANCH  17  31
BRANCH   4  33
HETATM   33  C8  UNL     1     -10.129  47.255 -28.443  1.00  0.00     0.068 C 
HETATM   34  N1  UNL     1      -9.766  48.399 -28.915  1.00  0.00    -0.401 N 
ATOM     35  H1  UNL     1      -9.408  49.146 -28.318  1.00  0.00     0.158 HD
BRANCH  34  36
HETATM   36  C9  UNL     1      -9.901  48.554 -30.371  1.00  0.00     0.123 C 
BRANCH  36  37
HETATM   37  C10 UNL     1      -8.715  49.373 -30.893  1.00  0.00     0.053 C 
BRANCH  37  38
HETATM   38  C11 UNL     1      -7.645  48.529 -31.548  1.00  0.00    -0.082 C 
HETATM   39  C12 UNL     1      -6.428  48.379 -30.991  1.00  0.00    -0.024 C 
HETATM   40  C13 UNL     1      -5.326  47.556 -31.593  1.00  0.00     0.027 C 
HETATM   41  C14 UNL     1      -5.796  46.664 -32.743  1.00  0.00     0.004 C 
HETATM   42  C15 UNL     1      -6.766  47.406 -33.655  1.00  0.00     0.005 C 
HETATM   43  C16 UNL     1      -7.990  47.898 -32.877  1.00  0.00     0.034 C 
ENDBRANCH  37  38
ENDBRANCH  36  37
ENDBRANCH  34  36
ENDBRANCH   4  33
BRANCH  13  44
HETATM   44  O5  UNL     1     -13.297  43.077 -27.098  1.00  0.00    -0.389 OA
HETATM   45  H41 UNL     1     -13.001  43.127 -28.024  1.00  0.00     0.210 HD
ENDBRANCH  13  44
BRANCH  10  46
HETATM   46  C23 UNL     1     -16.786  45.292 -25.799  1.00  0.00    -0.045 A 
HETATM   47  C24 UNL     1     -17.174  46.219 -24.923  1.00  0.00     0.087 A 
HETATM   48  C25 UNL     1     -18.567  46.549 -25.221  1.00  0.00     0.283 A 
HETATM   49  O3  UNL     1     -19.236  47.352 -24.598  1.00  0.00    -0.260 OA
HETATM   50  O4  UNL     1     -18.983  45.818 -26.286  1.00  0.00    -0.314 OA
HETATM   51  C26 UNL     1     -17.910  44.988 -26.725  1.00  0.00     0.213 A 
ENDBRANCH  10  46
TORSDOF 11
ENDMDL
MODEL 5
REMARK minimizedAffinity -9.82886314
REMARK CNNscore 0.312248439
REMARK CNNaffinity 6.75261641
REMARK  11 active torsions:
REMARK  status: ('A' for Active; 'I' for Inactive)
REMARK    1  A    between atoms: C3_4  and  O2_5 
REMARK    2  A    between atoms: O2_5  and  C4_6 
REMARK    3  A    between atoms: C7_9  and  C8_10 
REMARK    4  A    between atoms: N1_11  and  C9_13 
REMARK    5  A    between atoms: C9_13  and  C10_14 
REMARK    6  A    between atoms: C10_14  and  C11_15 
REMARK    7  A    between atoms: C22_26  and  C23_27 
REMARK    8  A    between atoms: C29_35  and  O5_36 
REMARK    9  A    between atoms: C33_40  and  O6_41 
REMARK   10  A    between atoms: C36_44  and  O7_45 
REMARK   11  A    between atoms: C37_46  and  O8_47 
ROOT
HETATM    1  C4  UNL     1      -7.223  48.047 -24.193  1.00  0.00     0.127 C 
HETATM    2  C5  UNL     1      -7.838  49.260 -23.491  1.00  0.00     0.033 C 
HETATM    3  C6  UNL     1      -6.838  49.915 -22.549  1.00  0.00     0.021 C 
HETATM    4  C7  UNL     1      -6.348  48.976 -21.391  1.00  0.00     0.026 C 
HETATM    5  C17 UNL     1      -4.819  49.283 -21.139  1.00  0.00     0.009 C 
HETATM    6  C18 UNL     1      -4.564  50.716 -20.630  1.00  0.00     0.007 C 
HETATM    7  C19 UNL     1      -3.073  51.020 -20.479  1.00  0.00     0.013 C 
HETATM    8  C20 UNL     1      -2.347  50.046 -19.515  1.00  0.00    -0.005 C 
HETATM    9  C21 UNL     1      -2.769  50.325 -18.059  1.00  0.00     0.019 C 
HETATM   10  C22 UNL     1      -0.786  50.094 -19.656  1.00  0.00     0.028 C 
HETATM   11  C27 UNL     1      -0.521  49.311 -20.957  1.00  0.00     0.013 C 
HETATM   12  C28 UNL     1      -1.705  48.360 -21.152  1.00  0.00     0.040 C 
HETATM   13  C29 UNL     1      -2.635  48.574 -19.941  1.00  0.00     0.070 C 
HETATM   14  C30 UNL     1      -4.131  48.256 -20.212  1.00  0.00     0.026 C 
HETATM   15  C31 UNL     1      -4.307  46.835 -20.771  1.00  0.00     0.011 C 
HETATM   16  C32 UNL     1      -5.775  46.472 -20.899  1.00  0.00     0.039 C 
HETATM   17  C33 UNL     1      -6.598  47.459 -21.751  1.00  0.00     0.073 C 
HETATM   18  C34 UNL     1      -6.336  47.204 -23.256  1.00  0.00     0.071 C 
ENDROOT
BRANCH   1  19
HETATM   19  O2  UNL     1      -8.305  47.272 -24.712  1.00  0.00    -0.356 OA
BRANCH  19  20
HETATM   20  C3  UNL     1      -8.797  47.713 -25.975  1.00  0.00     0.263 C 
HETATM   21  O1  UNL     1      -8.527  46.783 -27.020  1.00  0.00    -0.354 OA
HETATM   22  C2  UNL     1      -8.904  47.245 -28.323  1.00  0.00     0.151 C 
HETATM   23  C1  UNL     1      -7.679  47.835 -29.017  1.00  0.00     0.042 C 
HETATM   24  C37 UNL     1     -10.083  48.236 -28.313  1.00  0.00     0.175 C 
HETATM   25  C36 UNL     1     -11.029  47.882 -27.166  1.00  0.00     0.154 C 
HETATM   26  C35 UNL     1     -10.307  47.908 -25.825  1.00  0.00     0.095 C 
BRANCH  24  27
HETATM   27  O8  UNL     1     -10.814  48.204 -29.547  1.00  0.00    -0.390 OA
HETATM   28  H55 UNL     1     -10.224  48.533 -30.246  1.00  0.00     0.210 HD
ENDBRANCH  24  27
BRANCH  25  29
HETATM   29  O7  UNL     1     -12.122  48.806 -27.146  1.00  0.00    -0.393 OA
HETATM   30  H53 UNL     1     -12.472  48.804 -28.059  1.00  0.00     0.210 HD
ENDBRANCH  25  29
ENDBRANCH  19  20
ENDBRANCH   1  19
BRANCH  17  31
HETATM   31  O6  UNL     1      -7.976  47.107 -21.530  1.00  0.00    -0.389 OA
HETATM   32  H47 UNL     1      -8.138  47.202 -20.569  1.00  0.00     0.210 HD
ENDBRANCH  17  31
BRANCH   4  33
HETATM   33  C8  UNL     1      -7.150  49.375 -20.138  1.00  0.00     0.068 C 
HETATM   34  N1  UNL     1      -7.923  48.541 -19.528  1.00  0.00    -0.401 N 
ATOM     35  H1  UNL     1      -8.030  47.574 -19.834  1.00  0.00     0.158 HD
BRANCH  34  36
HETATM   36  C9  UNL     1      -8.641  49.080 -18.363  1.00  0.00     0.123 C 
BRANCH  36  37
HETATM   37  C10 UNL     1      -9.354  47.928 -17.646  1.00  0.00     0.053 C 
BRANCH  37  38
HETATM   38  C11 UNL     1     -10.794  47.754 -18.076  1.00  0.00    -0.082 C 
HETATM   39  C12 UNL     1     -11.241  48.242 -19.249  1.00  0.00    -0.024 C 
HETATM   40  C13 UNL     1     -12.658  48.104 -19.729  1.00  0.00     0.027 C 
HETATM   41  C14 UNL     1     -13.479  47.105 -18.911  1.00  0.00     0.004 C 
HETATM   42  C15 UNL     1     -13.201  47.256 -17.419  1.00  0.00     0.005 C 
HETATM   43  C16 UNL     1     -11.715  47.047 -17.110  1.00  0.00     0.034 C 
ENDBRANCH  37  38
ENDBRANCH  36  37
ENDBRANCH  34  36
ENDBRANCH   4  33
BRANCH  13  44
HETATM   44  O5  UNL     1      -2.155  47.678 -18.924  1.00  0.00    -0.389 OA
HETATM   45  H41 UNL     1      -2.826  47.617 -18.222  1.00  0.00     0.210 HD
ENDBRANCH  13  44
BRANCH  10  46
HETATM   46  C23 UNL     1      -0.023  51.388 -19.592  1.00  0.00    -0.045 A 
HETATM   47  C24 UNL     1       0.365  52.220 -20.559  1.00  0.00     0.087 A 
HETATM   48  C25 UNL     1       1.026  53.358 -19.921  1.00  0.00     0.283 A 
HETATM   49  O3  UNL     1       1.515  54.298 -20.518  1.00  0.00    -0.260 OA
HETATM   50  O4  UNL     1       1.008  53.189 -18.574  1.00  0.00    -0.314 OA
HETATM   51  C26 UNL     1       0.355  51.959 -18.271  1.00  0.00     0.213 A 
ENDBRANCH  10  46
TORSDOF 11
ENDMDL
MODEL 6
REMARK minimizedAffinity -8.88308144
REMARK CNNscore 0.304449469
REMARK CNNaffinity 6.95799112
REMARK  11 active torsions:
REMARK  status: ('A' for Active; 'I' for Inactive)
REMARK    1  A    between atoms: C3_4  and  O2_5 
REMARK    2  A    between atoms: O2_5  and  C4_6 
REMARK    3  A    between atoms: C7_9  and  C8_10 
REMARK    4  A    between atoms: N1_11  and  C9_13 
REMARK    5  A    between atoms: C9_13  and  C10_14 
REMARK    6  A    between atoms: C10_14  and  C11_15 
REMARK    7  A    between atoms: C22_26  and  C23_27 
REMARK    8  A    between atoms: C29_35  and  O5_36 
REMARK    9  A    between atoms: C33_40  and  O6_41 
REMARK   10  A    between atoms: C36_44  and  O7_45 
REMARK   11  A    between atoms: C37_46  and  O8_47 
ROOT
HETATM    1  C4  UNL     1      -1.589  50.365 -18.206  1.00  0.00     0.127 C 
HETATM    2  C5  UNL     1      -2.304  51.166 -19.297  1.00  0.00     0.033 C 
HETATM    3  C6  UNL     1      -3.724  50.660 -19.508  1.00  0.00     0.021 C 
HETATM    4  C7  UNL     1      -3.801  49.166 -19.981  1.00  0.00     0.026 C 
HETATM    5  C17 UNL     1      -5.056  48.507 -19.284  1.00  0.00     0.009 C 
HETATM    6  C18 UNL     1      -6.394  49.137 -19.722  1.00  0.00     0.007 C 
HETATM    7  C19 UNL     1      -7.587  48.546 -18.969  1.00  0.00     0.013 C 
HETATM    8  C20 UNL     1      -7.716  47.011 -19.141  1.00  0.00    -0.005 C 
HETATM    9  C21 UNL     1      -8.179  46.672 -20.572  1.00  0.00     0.019 C 
HETATM   10  C22 UNL     1      -8.668  46.353 -18.083  1.00  0.00     0.028 C 
HETATM   11  C27 UNL     1      -7.815  46.333 -16.799  1.00  0.00     0.013 C 
HETATM   12  C28 UNL     1      -6.348  46.339 -17.240  1.00  0.00     0.040 C 
HETATM   13  C29 UNL     1      -6.361  46.327 -18.782  1.00  0.00     0.070 C 
HETATM   14  C30 UNL     1      -5.112  46.971 -19.443  1.00  0.00     0.026 C 
HETATM   15  C31 UNL     1      -3.814  46.336 -18.918  1.00  0.00     0.011 C 
HETATM   16  C32 UNL     1      -2.603  46.862 -19.667  1.00  0.00     0.039 C 
HETATM   17  C33 UNL     1      -2.463  48.399 -19.644  1.00  0.00     0.073 C 
HETATM   18  C34 UNL     1      -1.899  48.857 -18.276  1.00  0.00     0.071 C 
ENDROOT
BRANCH   1  19
HETATM   19  O2  UNL     1      -0.190  50.610 -18.356  1.00  0.00    -0.356 OA
BRANCH  19  20
HETATM   20  C3  UNL     1       0.488  50.935 -17.146  1.00  0.00     0.263 C 
HETATM   21  O1  UNL     1       0.961  52.279 -17.131  1.00  0.00    -0.354 OA
HETATM   22  C2  UNL     1       1.749  52.607 -15.980  1.00  0.00     0.151 C 
HETATM   23  C1  UNL     1       3.228  52.469 -16.332  1.00  0.00     0.042 C 
HETATM   24  C37 UNL     1       1.386  51.789 -14.725  1.00  0.00     0.175 C 
HETATM   25  C36 UNL     1      -0.110  51.478 -14.744  1.00  0.00     0.154 C 
HETATM   26  C35 UNL     1      -0.502  50.715 -16.002  1.00  0.00     0.095 C 
BRANCH  24  27
HETATM   27  O8  UNL     1       1.700  52.499 -13.520  1.00  0.00    -0.390 OA
HETATM   28  H55 UNL     1       2.667  52.594 -13.478  1.00  0.00     0.210 HD
ENDBRANCH  24  27
BRANCH  25  29
HETATM   29  O7  UNL     1      -0.452  50.710 -13.585  1.00  0.00    -0.393 OA
HETATM   30  H53 UNL     1      -0.088  51.214 -12.830  1.00  0.00     0.210 HD
ENDBRANCH  25  29
ENDBRANCH  19  20
ENDBRANCH   1  19
BRANCH  17  31
HETATM   31  O6  UNL     1      -1.444  48.710 -20.610  1.00  0.00    -0.389 OA
HETATM   32  H47 UNL     1      -1.760  48.366 -21.471  1.00  0.00     0.210 HD
ENDBRANCH  17  31
BRANCH   4  33
HETATM   33  C8  UNL     1      -4.037  49.202 -21.503  1.00  0.00     0.068 C 
HETATM   34  N1  UNL     1      -4.319  48.136 -22.175  1.00  0.00    -0.401 N 
ATOM     35  H1  UNL     1      -4.416  47.223 -21.732  1.00  0.00     0.158 HD
BRANCH  34  36
HETATM   36  C9  UNL     1      -4.491  48.330 -23.623  1.00  0.00     0.123 C 
BRANCH  36  37
HETATM   37  C10 UNL     1      -3.110  48.520 -24.262  1.00  0.00     0.053 C 
BRANCH  37  38
HETATM   38  C11 UNL     1      -3.145  49.345 -25.529  1.00  0.00    -0.082 C 
HETATM   39  C12 UNL     1      -3.055  50.688 -25.497  1.00  0.00    -0.024 C 
HETATM   40  C13 UNL     1      -3.086  51.560 -26.719  1.00  0.00     0.027 C 
HETATM   41  C14 UNL     1      -2.931  50.777 -28.025  1.00  0.00     0.004 C 
HETATM   42  C15 UNL     1      -3.750  49.492 -27.997  1.00  0.00     0.005 C 
HETATM   43  C16 UNL     1      -3.330  48.595 -26.828  1.00  0.00     0.034 C 
ENDBRANCH  37  38
ENDBRANCH  36  37
ENDBRANCH  34  36
ENDBRANCH   4  33
BRANCH  13  44
HETATM   44  O5  UNL     1      -6.410  44.939 -19.156  1.00  0.00    -0.389 OA
HETATM   45  H41 UNL     1      -6.208  44.867 -20.106  1.00  0.00     0.210 HD
ENDBRANCH  13  44
BRANCH  10  46
HETATM   46  C23 UNL     1     -10.062  46.864 -17.844  1.00  0.00    -0.045 A 
HETATM   47  C24 UNL     1     -11.059  47.109 -18.694  1.00  0.00     0.087 A 
HETATM   48  C25 UNL     1     -12.214  47.539 -17.906  1.00  0.00     0.283 A 
HETATM   49  O3  UNL     1     -13.291  47.856 -18.374  1.00  0.00    -0.260 OA
HETATM   50  O4  UNL     1     -11.886  47.527 -16.589  1.00  0.00    -0.314 OA
HETATM   51  C26 UNL     1     -10.531  47.106 -16.452  1.00  0.00     0.213 A 
ENDBRANCH  10  46
TORSDOF 11
ENDMDL
MODEL 7
REMARK minimizedAffinity -8.14723301
REMARK CNNscore 0.290121526
REMARK CNNaffinity 6.72246981
REMARK  11 active torsions:
REMARK  status: ('A' for Active; 'I' for Inactive)
REMARK    1  A    between atoms: C3_4  and  O2_5 
REMARK    2  A    between atoms: O2_5  and  C4_6 
REMARK    3  A    between atoms: C7_9  and  C8_10 
REMARK    4  A    between atoms: N1_11  and  C9_13 
REMARK    5  A    between atoms: C9_13  and  C10_14 
REMARK    6  A    between atoms: C10_14  and  C11_15 
REMARK    7  A    between atoms: C22_26  and  C23_27 
REMARK    8  A    between atoms: C29_35  and  O5_36 
REMARK    9  A    between atoms: C33_40  and  O6_41 
REMARK   10  A    between atoms: C36_44  and  O7_45 
REMARK   11  A    between atoms: C37_46  and  O8_47 
ROOT
HETATM    1  C4  UNL     1      -0.239  54.791  -8.082  1.00  0.00     0.127 C 
HETATM    2  C5  UNL     1      -0.626  55.330  -9.461  1.00  0.00     0.033 C 
HETATM    3  C6  UNL     1      -1.542  54.360 -10.193  1.00  0.00     0.021 C 
HETATM    4  C7  UNL     1      -0.891  52.959 -10.471  1.00  0.00     0.026 C 
HETATM    5  C17 UNL     1      -2.017  51.865 -10.298  1.00  0.00     0.009 C 
HETATM    6  C18 UNL     1      -3.151  51.993 -11.335  1.00  0.00     0.007 C 
HETATM    7  C19 UNL     1      -4.272  50.981 -11.095  1.00  0.00     0.013 C 
HETATM    8  C20 UNL     1      -3.782  49.511 -11.120  1.00  0.00    -0.005 C 
HETATM    9  C21 UNL     1      -3.424  49.093 -12.560  1.00  0.00     0.019 C 
HETATM   10  C22 UNL     1      -4.814  48.510 -10.494  1.00  0.00     0.028 C 
HETATM   11  C27 UNL     1      -4.662  48.739  -8.978  1.00  0.00     0.013 C 
HETATM   12  C28 UNL     1      -3.250  49.289  -8.752  1.00  0.00     0.040 C 
HETATM   13  C29 UNL     1      -2.580  49.342 -10.140  1.00  0.00     0.070 C 
HETATM   14  C30 UNL     1      -1.470  50.419 -10.280  1.00  0.00     0.026 C 
HETATM   15  C31 UNL     1      -0.405  50.269  -9.182  1.00  0.00     0.011 C 
HETATM   16  C32 UNL     1       0.752  51.226  -9.403  1.00  0.00     0.039 C 
HETATM   17  C33 UNL     1       0.335  52.708  -9.508  1.00  0.00     0.073 C 
HETATM   18  C34 UNL     1       0.048  53.276  -8.096  1.00  0.00     0.071 C 
ENDROOT
BRANCH   1  19
HETATM   19  O2  UNL     1       0.908  55.527  -7.653  1.00  0.00    -0.356 OA
BRANCH  19  20
HETATM   20  C3  UNL     1       2.089  55.280  -8.410  1.00  0.00     0.263 C 
HETATM   21  O1  UNL     1       2.690  56.479  -8.890  1.00  0.00    -0.354 OA
HETATM   22  C2  UNL     1       3.813  56.264  -9.752  1.00  0.00     0.151 C 
HETATM   23  C1  UNL     1       3.349  56.340 -11.205  1.00  0.00     0.042 C 
HETATM   24  C37 UNL     1       4.574  54.954  -9.468  1.00  0.00     0.175 C 
HETATM   25  C36 UNL     1       4.505  54.648  -7.972  1.00  0.00     0.154 C 
HETATM   26  C35 UNL     1       3.062  54.536  -7.495  1.00  0.00     0.095 C 
BRANCH  24  27
HETATM   27  O8  UNL     1       5.949  55.042  -9.863  1.00  0.00    -0.390 OA
HETATM   28  H55 UNL     1       5.971  55.132 -10.831  1.00  0.00     0.210 HD
ENDBRANCH  24  27
BRANCH  25  29
HETATM   29  O7  UNL     1       5.201  53.428  -7.702  1.00  0.00    -0.393 OA
HETATM   30  H53 UNL     1       6.080  53.540  -8.117  1.00  0.00     0.210 HD
ENDBRANCH  25  29
ENDBRANCH  19  20
ENDBRANCH   1  19
BRANCH  17  31
HETATM   31  O6  UNL     1       1.501  53.406  -9.980  1.00  0.00    -0.389 OA
HETATM   32  H47 UNL     1       1.732  53.010 -10.845  1.00  0.00     0.210 HD
ENDBRANCH  17  31
BRANCH   4  33
HETATM   33  C8  UNL     1      -0.432  52.976 -11.941  1.00  0.00     0.068 C 
HETATM   34  N1  UNL     1       0.338  52.061 -12.425  1.00  0.00    -0.401 N 
ATOM     35  H1  UNL     1       0.667  51.274 -11.866  1.00  0.00     0.158 HD
BRANCH  34  36
HETATM   36  C9  UNL     1       0.709  52.230 -13.838  1.00  0.00     0.123 C 
BRANCH  36  37
HETATM   37  C10 UNL     1       1.080  50.861 -14.419  1.00  0.00     0.053 C 
BRANCH  37  38
HETATM   38  C11 UNL     1       0.533  50.631 -15.809  1.00  0.00    -0.082 C 
HETATM   39  C12 UNL     1       0.537  51.607 -16.737  1.00  0.00    -0.024 C 
HETATM   40  C13 UNL     1       0.007  51.441 -18.132  1.00  0.00     0.027 C 
HETATM   41  C14 UNL     1      -0.267  49.982 -18.505  1.00  0.00     0.004 C 
HETATM   42  C15 UNL     1      -0.931  49.235 -17.353  1.00  0.00     0.005 C 
HETATM   43  C16 UNL     1      -0.056  49.270 -16.096  1.00  0.00     0.034 C 
ENDBRANCH  37  38
ENDBRANCH  36  37
ENDBRANCH  34  36
ENDBRANCH   4  33
BRANCH  13  44
HETATM   44  O5  UNL     1      -1.985  48.047 -10.330  1.00  0.00    -0.389 OA
HETATM   45  H41 UNL     1      -1.375  48.094 -11.087  1.00  0.00     0.210 HD
ENDBRANCH  13  44
BRANCH  10  46
HETATM   46  C23 UNL     1      -6.253  48.476 -10.933  1.00  0.00    -0.045 A 
HETATM   47  C24 UNL     1      -6.904  47.622 -11.723  1.00  0.00     0.087 A 
HETATM   48  C25 UNL     1      -8.305  48.039 -11.760  1.00  0.00     0.283 A 
HETATM   49  O3  UNL     1      -9.176  47.483 -12.403  1.00  0.00    -0.260 OA
HETATM   50  O4  UNL     1      -8.468  49.133 -10.973  1.00  0.00    -0.314 OA
HETATM   51  C26 UNL     1      -7.210  49.483 -10.401  1.00  0.00     0.213 A 
ENDBRANCH  10  46
TORSDOF 11
ENDMDL
MODEL 8
REMARK minimizedAffinity -8.95650673
REMARK CNNscore 0.276062399
REMARK CNNaffinity 6.4576869
REMARK  11 active torsions:
REMARK  status: ('A' for Active; 'I' for Inactive)
REMARK    1  A    between atoms: C3_4  and  O2_5 
REMARK    2  A    between atoms: O2_5  and  C4_6 
REMARK    3  A    between atoms: C7_9  and  C8_10 
REMARK    4  A    between atoms: N1_11  and  C9_13 
REMARK    5  A    between atoms: C9_13  and  C10_14 
REMARK    6  A    between atoms: C10_14  and  C11_15 
REMARK    7  A    between atoms: C22_26  and  C23_27 
REMARK    8  A    between atoms: C29_35  and  O5_36 
REMARK    9  A    between atoms: C33_40  and  O6_41 
REMARK   10  A    between atoms: C36_44  and  O7_45 
REMARK   11  A    between atoms: C37_46  and  O8_47 
ROOT
HETATM    1  C4  UNL     1     -12.149  45.819 -35.754  1.00  0.00     0.127 C 
HETATM    2  C5  UNL     1     -12.061  44.431 -35.114  1.00  0.00     0.033 C 
HETATM    3  C6  UNL     1     -11.285  44.479 -33.806  1.00  0.00     0.021 C 
HETATM    4  C7  UNL     1      -9.796  44.950 -33.968  1.00  0.00     0.026 C 
HETATM    5  C17 UNL     1      -9.435  45.836 -32.711  1.00  0.00     0.009 C 
HETATM    6  C18 UNL     1      -9.465  45.048 -31.385  1.00  0.00     0.007 C 
HETATM    7  C19 UNL     1      -9.200  45.943 -30.174  1.00  0.00     0.013 C 
HETATM    8  C20 UNL     1      -7.838  46.681 -30.247  1.00  0.00    -0.005 C 
HETATM    9  C21 UNL     1      -6.681  45.685 -30.032  1.00  0.00     0.019 C 
HETATM   10  C22 UNL     1      -7.733  47.876 -29.237  1.00  0.00     0.028 C 
HETATM   11  C27 UNL     1      -8.585  48.978 -29.897  1.00  0.00     0.013 C 
HETATM   12  C28 UNL     1      -8.599  48.687 -31.400  1.00  0.00     0.040 C 
HETATM   13  C29 UNL     1      -7.723  47.436 -31.607  1.00  0.00     0.070 C 
HETATM   14  C30 UNL     1      -8.092  46.588 -32.855  1.00  0.00     0.026 C 
HETATM   15  C31 UNL     1      -8.100  47.446 -34.130  1.00  0.00     0.011 C 
HETATM   16  C32 UNL     1      -8.317  46.593 -35.366  1.00  0.00     0.039 C 
HETATM   17  C33 UNL     1      -9.598  45.734 -35.324  1.00  0.00     0.073 C 
HETATM   18  C34 UNL     1     -10.834  46.614 -35.633  1.00  0.00     0.071 C 
ENDROOT
BRANCH   1  19
HETATM   19  O2  UNL     1     -12.508  45.624 -37.124  1.00  0.00    -0.356 OA
BRANCH  19  20
HETATM   20  C3  UNL     1     -12.130  46.689 -37.992  1.00  0.00     0.263 C 
HETATM   21  O1  UNL     1     -11.925  46.252 -39.332  1.00  0.00    -0.354 OA
HETATM   22  C2  UNL     1     -11.432  47.273 -40.209  1.00  0.00     0.151 C 
HETATM   23  C1  UNL     1      -9.914  47.149 -40.316  1.00  0.00     0.042 C 
HETATM   24  C37 UNL     1     -11.858  48.698 -39.805  1.00  0.00     0.175 C 
HETATM   25  C36 UNL     1     -13.242  48.645 -39.160  1.00  0.00     0.154 C 
HETATM   26  C35 UNL     1     -13.252  47.727 -37.945  1.00  0.00     0.095 C 
BRANCH  24  27
HETATM   27  O8  UNL     1     -11.903  49.579 -40.936  1.00  0.00    -0.390 OA
HETATM   28  H55 UNL     1     -10.994  49.680 -41.266  1.00  0.00     0.210 HD
ENDBRANCH  24  27
BRANCH  25  29
HETATM   29  O7  UNL     1     -13.639  49.965 -38.774  1.00  0.00    -0.393 OA
HETATM   30  H53 UNL     1     -13.517  50.511 -39.576  1.00  0.00     0.210 HD
ENDBRANCH  25  29
ENDBRANCH  19  20
ENDBRANCH   1  19
BRANCH  17  31
HETATM   31  O6  UNL     1      -9.486  44.817 -36.427  1.00  0.00    -0.389 OA
HETATM   32  H47 UNL     1      -8.670  44.297 -36.276  1.00  0.00     0.210 HD
ENDBRANCH  17  31
BRANCH   4  33
HETATM   33  C8  UNL     1      -8.931  43.676 -33.946  1.00  0.00     0.068 C 
HETATM   34  N1  UNL     1      -7.784  43.621 -34.534  1.00  0.00    -0.401 N 
ATOM     35  H1  UNL     1      -7.385  44.420 -35.027  1.00  0.00     0.158 HD
BRANCH  34  36
HETATM   36  C9  UNL     1      -7.090  42.326 -34.445  1.00  0.00     0.123 C 
BRANCH  36  37
HETATM   37  C10 UNL     1      -7.375  41.525 -35.721  1.00  0.00     0.053 C 
BRANCH  37  38
HETATM   38  C11 UNL     1      -6.231  40.626 -36.132  1.00  0.00    -0.082 C 
HETATM   39  C12 UNL     1      -4.948  41.017 -36.004  1.00  0.00    -0.024 C 
HETATM   40  C13 UNL     1      -3.771  40.171 -36.396  1.00  0.00     0.027 C 
HETATM   41  C14 UNL     1      -4.140  38.713 -36.678  1.00  0.00     0.004 C 
HETATM   42  C15 UNL     1      -5.435  38.618 -37.477  1.00  0.00     0.005 C 
HETATM   43  C16 UNL     1      -6.594  39.288 -36.733  1.00  0.00     0.034 C 
ENDBRANCH  37  38
ENDBRANCH  36  37
ENDBRANCH  34  36
ENDBRANCH   4  33
BRANCH  13  44
HETATM   44  O5  UNL     1      -6.382  47.927 -31.771  1.00  0.00    -0.389 OA
HETATM   45  H41 UNL     1      -5.826  47.204 -32.112  1.00  0.00     0.210 HD
ENDBRANCH  13  44
BRANCH  10  46
HETATM   46  C23 UNL     1      -8.037  47.707 -27.773  1.00  0.00    -0.045 A 
HETATM   47  C24 UNL     1      -7.296  47.214 -26.780  1.00  0.00     0.087 A 
HETATM   48  C25 UNL     1      -8.072  47.345 -25.547  1.00  0.00     0.283 A 
HETATM   49  O3  UNL     1      -7.695  46.977 -24.451  1.00  0.00    -0.260 OA
HETATM   50  O4  UNL     1      -9.264  47.930 -25.828  1.00  0.00    -0.314 OA
HETATM   51  C26 UNL     1      -9.329  48.200 -27.226  1.00  0.00     0.213 A 
ENDBRANCH  10  46
TORSDOF 11
ENDMDL
MODEL 9
REMARK minimizedAffinity -10.3063374
REMARK CNNscore 0.260759354
REMARK CNNaffinity 7.01843119
REMARK  11 active torsions:
REMARK  status: ('A' for Active; 'I' for Inactive)
REMARK    1  A    between atoms: C3_4  and  O2_5 
REMARK    2  A    between atoms: O2_5  and  C4_6 
REMARK    3  A    between atoms: C7_9  and  C8_10 
REMARK    4  A    between atoms: N1_11  and  C9_13 
REMARK    5  A    between atoms: C9_13  and  C10_14 
REMARK    6  A    between atoms: C10_14  and  C11_15 
REMARK    7  A    between atoms: C22_26  and  C23_27 
REMARK    8  A    between atoms: C29_35  and  O5_36 
REMARK    9  A    between atoms: C33_40  and  O6_41 
REMARK   10  A    between atoms: C36_44  and  O7_45 
REMARK   11  A    between atoms: C37_46  and  O8_47 
ROOT
HETATM    1  C4  UNL     1      -4.004  48.365 -26.931  1.00  0.00     0.127 C 
HETATM    2  C5  UNL     1      -2.607  48.776 -26.461  1.00  0.00     0.033 C 
HETATM    3  C6  UNL     1      -2.392  48.416 -24.998  1.00  0.00     0.021 C 
HETATM    4  C7  UNL     1      -3.382  49.135 -24.015  1.00  0.00     0.026 C 
HETATM    5  C17 UNL     1      -3.746  48.111 -22.869  1.00  0.00     0.009 C 
HETATM    6  C18 UNL     1      -2.534  47.716 -22.001  1.00  0.00     0.007 C 
HETATM    7  C19 UNL     1      -2.891  46.658 -20.956  1.00  0.00     0.013 C 
HETATM    8  C20 UNL     1      -4.025  47.105 -19.997  1.00  0.00    -0.005 C 
HETATM    9  C21 UNL     1      -3.509  48.191 -19.032  1.00  0.00     0.019 C 
HETATM   10  C22 UNL     1      -4.659  45.914 -19.200  1.00  0.00     0.028 C 
HETATM   11  C27 UNL     1      -5.553  45.219 -20.246  1.00  0.00     0.013 C 
HETATM   12  C28 UNL     1      -5.914  46.276 -21.294  1.00  0.00     0.040 C 
HETATM   13  C29 UNL     1      -5.253  47.589 -20.828  1.00  0.00     0.070 C 
HETATM   14  C30 UNL     1      -4.914  48.582 -21.973  1.00  0.00     0.026 C 
HETATM   15  C31 UNL     1      -6.152  48.887 -22.832  1.00  0.00     0.011 C 
HETATM   16  C32 UNL     1      -5.857  49.965 -23.859  1.00  0.00     0.039 C 
HETATM   17  C33 UNL     1      -4.662  49.649 -24.782  1.00  0.00     0.073 C 
HETATM   18  C34 UNL     1      -5.091  48.636 -25.872  1.00  0.00     0.071 C 
ENDROOT
BRANCH   1  19
HETATM   19  O2  UNL     1      -4.269  49.086 -28.135  1.00  0.00    -0.356 OA
BRANCH  19  20
HETATM   20  C3  UNL     1      -5.146  48.424 -29.042  1.00  0.00     0.263 C 
HETATM   21  O1  UNL     1      -4.448  47.605 -29.976  1.00  0.00    -0.354 OA
HETATM   22  C2  UNL     1      -5.288  47.016 -30.976  1.00  0.00     0.151 C 
HETATM   23  C1  UNL     1      -5.240  47.875 -32.238  1.00  0.00     0.042 C 
HETATM   24  C37 UNL     1      -6.736  46.776 -30.509  1.00  0.00     0.175 C 
HETATM   25  C36 UNL     1      -6.735  46.449 -29.016  1.00  0.00     0.154 C 
HETATM   26  C35 UNL     1      -6.098  47.569 -28.204  1.00  0.00     0.095 C 
BRANCH  24  27
HETATM   27  O8  UNL     1      -7.352  45.695 -31.222  1.00  0.00    -0.390 OA
HETATM   28  H55 UNL     1      -7.438  45.968 -32.152  1.00  0.00     0.210 HD
ENDBRANCH  24  27
BRANCH  25  29
HETATM   29  O7  UNL     1      -8.079  46.234 -28.573  1.00  0.00    -0.393 OA
HETATM   30  H53 UNL     1      -8.449  45.577 -29.196  1.00  0.00     0.210 HD
ENDBRANCH  25  29
ENDBRANCH  19  20
ENDBRANCH   1  19
BRANCH  17  31
HETATM   31  O6  UNL     1      -4.377  50.875 -25.480  1.00  0.00    -0.389 OA
HETATM   32  H47 UNL     1      -4.167  51.543 -24.795  1.00  0.00     0.210 HD
ENDBRANCH  17  31
BRANCH   4  33
HETATM   33  C8  UNL     1      -2.606  50.316 -23.402  1.00  0.00     0.068 C 
HETATM   34  N1  UNL     1      -1.620  50.878 -24.017  1.00  0.00    -0.401 N 
ATOM     35  H1  UNL     1      -1.316  50.581 -24.944  1.00  0.00     0.158 HD
BRANCH  34  36
HETATM   36  C9  UNL     1      -0.965  51.976 -23.289  1.00  0.00     0.123 C 
BRANCH  36  37
HETATM   37  C10 UNL     1       0.451  52.161 -23.846  1.00  0.00     0.053 C 
BRANCH  37  38
HETATM   38  C11 UNL     1       0.488  52.312 -25.351  1.00  0.00    -0.082 C 
HETATM   39  C12 UNL     1       1.265  51.523 -26.118  1.00  0.00    -0.024 C 
HETATM   40  C13 UNL     1       1.346  51.626 -27.614  1.00  0.00     0.027 C 
HETATM   41  C14 UNL     1       0.250  52.504 -28.220  1.00  0.00     0.004 C 
HETATM   42  C15 UNL     1       0.033  53.765 -27.390  1.00  0.00     0.005 C 
HETATM   43  C16 UNL     1      -0.352  53.416 -25.948  1.00  0.00     0.034 C 
ENDBRANCH  37  38
ENDBRANCH  36  37
ENDBRANCH  34  36
ENDBRANCH   4  33
BRANCH  13  44
HETATM   44  O5  UNL     1      -6.209  48.212 -19.953  1.00  0.00    -0.389 OA
HETATM   45  H41 UNL     1      -5.935  49.133 -19.800  1.00  0.00     0.210 HD
ENDBRANCH  13  44
BRANCH  10  46
HETATM   46  C23 UNL     1      -3.816  44.942 -18.421  1.00  0.00    -0.045 A 
HETATM   47  C24 UNL     1      -3.128  45.096 -17.289  1.00  0.00     0.087 A 
HETATM   48  C25 UNL     1      -2.537  43.801 -16.954  1.00  0.00     0.283 A 
HETATM   49  O3  UNL     1      -1.832  43.592 -15.986  1.00  0.00    -0.260 OA
HETATM   50  O4  UNL     1      -2.900  42.888 -17.892  1.00  0.00    -0.314 OA
HETATM   51  C26 UNL     1      -3.720  43.526 -18.867  1.00  0.00     0.213 A 
ENDBRANCH  10  46
TORSDOF 11
ENDMDL
