MODEL 1
REMARK minimizedAffinity -8.19110966
REMARK CNNscore 0.377797544
REMARK CNNaffinity 7.20962763
REMARK  19 active torsions:
REMARK  status: ('A' for Active; 'I' for Inactive)
REMARK    1  A    between atoms: O1_2  and  C2_3 
REMARK    2  A    between atoms: C2_3  and  C3_4 
REMARK    3  A    between atoms: C2_3  and  C28_36 
REMARK    4  A    between atoms: C3_4  and  C4_5 
REMARK    5  A    between atoms: C4_5  and  C6_7 
REMARK    6  A    between atoms: C6_7  and  O2_8 
REMARK    7  A    between atoms: C6_7  and  C7_9 
REMARK    8  A    between atoms: C8_10  and  C9_11 
REMARK    9  A    between atoms: C10_12  and  C11_13 
REMARK   10  A    between atoms: C11_13  and  N1_14 
REMARK       I    between atoms: N1_14  and  C12_15 
REMARK   11  A    between atoms: C12_15  and  C13_17 
REMARK   12  A    between atoms: C13_17  and  C16_20 
REMARK   13  A    between atoms: C16_20  and  O4_21 
REMARK   14  A    between atoms: C16_20  and  C17_22 
REMARK   15  A    between atoms: C19_24  and  C20_25 
REMARK   16  A    between atoms: C21_26  and  C22_27 
REMARK   17  A    between atoms: C23_28  and  C24_29 
REMARK   18  A    between atoms: C26_31  and  N2_33 
REMARK   19  A    between atoms: C28_36  and  O7_37 
ROOT
HETATM    1  C9  UNL     1      -7.117   4.908  14.182  1.00  0.00    -0.003 C 
HETATM    2  C10 UNL     1      -7.642   6.081  14.580  1.00  0.00    -0.007 C 
ENDROOT
BRANCH   1   3
HETATM    3  C8  UNL     1      -6.197   4.822  13.068  1.00  0.00    -0.002 C 
HETATM    4  C7  UNL     1      -5.871   3.667  12.464  1.00  0.00     0.005 C 
BRANCH   4   5
HETATM    5  C6  UNL     1      -4.931   3.451  11.299  1.00  0.00     0.144 C 
BRANCH   5   6
HETATM    6  C4  UNL     1      -3.436   3.180  11.591  1.00  0.00     0.016 C 
HETATM    7  C5  UNL     1      -3.066   1.697  11.514  1.00  0.00     0.013 C 
BRANCH   6   8
HETATM    8  C3  UNL     1      -2.876   3.859  12.868  1.00  0.00     0.042 C 
BRANCH   8   9
HETATM    9  C2  UNL     1      -1.654   4.816  12.871  1.00  0.00     0.159 C 
BRANCH   9  10
HETATM   10  O1  UNL     1      -0.458   4.014  12.901  1.00  0.00    -0.388 OA
HETATM   11  C1  UNL     1       0.027   3.635  11.615  1.00  0.00     0.202 C 
ENDBRANCH   9  10
BRANCH   9  12
HETATM   12  C28 UNL     1      -1.495   5.936  13.959  1.00  0.00     0.133 C 
HETATM   13  C29 UNL     1      -2.933   6.444  14.371  1.00  0.00     0.114 C 
HETATM   14  C30 UNL     1      -3.060   6.993  15.792  1.00  0.00     0.023 C 
HETATM   15  C31 UNL     1      -3.199   7.574  13.407  1.00  0.00     0.227 C 
HETATM   16  O8  UNL     1      -4.304   7.975  13.083  1.00  0.00    -0.273 OA
HETATM   17  N3  UNL     1      -1.976   8.095  13.028  1.00  0.00    -0.332 N 
HETATM   18  C32 UNL     1      -1.890   9.011  11.913  1.00  0.00     0.154 C 
HETATM   19  C33 UNL     1      -0.817   7.242  13.477  1.00  0.00     0.183 C 
HETATM   20  C34 UNL     1       0.425   7.207  12.536  1.00  0.00     0.294 C 
HETATM   21  C35 UNL     1       0.184   8.060  14.379  1.00  0.00     0.169 C 
HETATM   22  O9  UNL     1       0.714   6.900  11.402  1.00  0.00    -0.262 OA
HETATM   23  O10 UNL     1       1.256   7.795  13.435  1.00  0.00    -0.311 OA
HETATM   24  C36 UNL     1       0.649   7.695  15.775  1.00  0.00     0.043 C 
BRANCH  12  25
HETATM   25  O7  UNL     1      -0.867   5.386  15.117  1.00  0.00    -0.383 OA
HETATM   26  H42 UNL     1      -1.482   4.730  15.499  1.00  0.00     0.210 HD
ENDBRANCH  12  25
ENDBRANCH   9  12
ENDBRANCH   8   9
ENDBRANCH   6   8
ENDBRANCH   5   6
BRANCH   5  27
HETATM   27  O2  UNL     1      -5.476   2.359  10.558  1.00  0.00    -0.391 OA
HETATM   28  H12 UNL     1      -5.512   1.597  11.168  1.00  0.00     0.210 HD
ENDBRANCH   5  27
ENDBRANCH   4   5
ENDBRANCH   1   3
BRANCH   2  29
HETATM   29  C11 UNL     1      -8.607   6.368  15.685  1.00  0.00     0.149 C 
BRANCH  29  30
HETATM   30  N1  UNL     1      -9.974   6.526  15.238  1.00  0.00    -0.357 N 
HETATM   31  C12 UNL     1     -10.460   7.809  15.032  1.00  0.00     0.228 C 
HETATM   32  O3  UNL     1      -9.755   8.786  15.265  1.00  0.00    -0.273 OA
HETATM   33  H19 UNL     1     -10.379   5.778  14.697  1.00  0.00     0.162 HD
BRANCH  31  34
HETATM   34  C13 UNL     1     -11.877   7.903  14.420  1.00  0.00     0.063 C 
HETATM   35  C14 UNL     1     -12.527   6.505  14.381  1.00  0.00     0.028 C 
HETATM   36  C15 UNL     1     -11.706   8.399  12.963  1.00  0.00     0.028 C 
BRANCH  34  37
HETATM   37  C16 UNL     1     -12.833   8.890  15.190  1.00  0.00     0.164 C 
BRANCH  37  38
HETATM   38  O4  UNL     1     -12.685   8.871  16.609  1.00  0.00    -0.390 OA
HETATM   39  H27 UNL     1     -11.751   8.743  16.843  1.00  0.00     0.210 HD
ENDBRANCH  37  38
BRANCH  37  40
HETATM   40  C17 UNL     1     -14.334   8.811  14.912  1.00  0.00    -0.054 C 
HETATM   41  C18 UNL     1     -14.805   9.423  13.615  1.00  0.00     0.046 C 
HETATM   42  C19 UNL     1     -15.241   8.157  15.673  1.00  0.00     0.005 C 
BRANCH  42  43
HETATM   43  C20 UNL     1     -15.018   7.442  16.915  1.00  0.00     0.000 C 
HETATM   44  C21 UNL     1     -15.820   6.505  17.456  1.00  0.00     0.000 C 
BRANCH  44  45
HETATM   45  C22 UNL     1     -17.084   6.039  16.926  1.00  0.00     0.001 C 
HETATM   46  C23 UNL     1     -17.331   4.988  16.124  1.00  0.00     0.009 C 
BRANCH  46  47
HETATM   47  C24 UNL     1     -16.433   4.053  15.434  1.00  0.00    -0.034 C 
HETATM   48  C25 UNL     1     -15.458   4.652  14.442  1.00  0.00     0.050 C 
HETATM   49  C26 UNL     1     -16.564   2.715  15.621  1.00  0.00     0.082 C 
HETATM   50  C27 UNL     1     -17.471   1.903  16.487  1.00  0.00     0.075 C 
BRANCH  49  51
HETATM   51  N2  UNL     1     -15.649   1.850  14.901  1.00  0.00    -0.120 N 
HETATM   52  O5  UNL     1     -14.449   2.157  14.919  1.00  0.00    -0.532 OA
HETATM   53  O6  UNL     1     -16.140   0.857  14.347  1.00  0.00    -0.532 OA
ENDBRANCH  49  51
ENDBRANCH  46  47
ENDBRANCH  44  45
ENDBRANCH  42  43
ENDBRANCH  37  40
ENDBRANCH  34  37
ENDBRANCH  31  34
ENDBRANCH  29  30
ENDBRANCH   2  29
TORSDOF 19
ENDMDL
MODEL 2
REMARK minimizedAffinity -8.41218472
REMARK CNNscore 0.245476544
REMARK CNNaffinity 7.90132284
REMARK  19 active torsions:
REMARK  status: ('A' for Active; 'I' for Inactive)
REMARK    1  A    between atoms: O1_2  and  C2_3 
REMARK    2  A    between atoms: C2_3  and  C3_4 
REMARK    3  A    between atoms: C2_3  and  C28_36 
REMARK    4  A    between atoms: C3_4  and  C4_5 
REMARK    5  A    between atoms: C4_5  and  C6_7 
REMARK    6  A    between atoms: C6_7  and  O2_8 
REMARK    7  A    between atoms: C6_7  and  C7_9 
REMARK    8  A    between atoms: C8_10  and  C9_11 
REMARK    9  A    between atoms: C10_12  and  C11_13 
REMARK   10  A    between atoms: C11_13  and  N1_14 
REMARK       I    between atoms: N1_14  and  C12_15 
REMARK   11  A    between atoms: C12_15  and  C13_17 
REMARK   12  A    between atoms: C13_17  and  C16_20 
REMARK   13  A    between atoms: C16_20  and  O4_21 
REMARK   14  A    between atoms: C16_20  and  C17_22 
REMARK   15  A    between atoms: C19_24  and  C20_25 
REMARK   16  A    between atoms: C21_26  and  C22_27 
REMARK   17  A    between atoms: C23_28  and  C24_29 
REMARK   18  A    between atoms: C26_31  and  N2_33 
REMARK   19  A    between atoms: C28_36  and  O7_37 
ROOT
HETATM    1  C9  UNL     1      -2.032   7.475  13.939  1.00  0.00    -0.003 C 
HETATM    2  C10 UNL     1      -2.644   6.287  14.089  1.00  0.00    -0.007 C 
ENDROOT
BRANCH   1   3
HETATM    3  C8  UNL     1      -0.803   7.795  14.635  1.00  0.00    -0.002 C 
HETATM    4  C7  UNL     1       0.347   7.126  14.451  1.00  0.00     0.005 C 
BRANCH   4   5
HETATM    5  C6  UNL     1       1.686   7.364  15.113  1.00  0.00     0.144 C 
BRANCH   5   6
HETATM    6  C4  UNL     1       2.512   8.603  14.694  1.00  0.00     0.016 C 
HETATM    7  C5  UNL     1       2.135   9.869  15.468  1.00  0.00     0.013 C 
BRANCH   6   8
HETATM    8  C3  UNL     1       2.602   8.855  13.167  1.00  0.00     0.042 C 
BRANCH   8   9
HETATM    9  C2  UNL     1       2.691   7.722  12.109  1.00  0.00     0.159 C 
BRANCH   9  10
HETATM   10  O1  UNL     1       3.881   7.934  11.326  1.00  0.00    -0.388 OA
HETATM   11  C1  UNL     1       5.019   7.205  11.780  1.00  0.00     0.202 C 
ENDBRANCH   9  10
BRANCH   9  12
HETATM   12  C28 UNL     1       1.514   7.444  11.109  1.00  0.00     0.133 C 
HETATM   13  C29 UNL     1       0.963   5.988  11.372  1.00  0.00     0.114 C 
HETATM   14  C30 UNL     1      -0.508   5.763  11.025  1.00  0.00     0.023 C 
HETATM   15  C31 UNL     1       1.797   5.123  10.458  1.00  0.00     0.227 C 
HETATM   16  O8  UNL     1       2.009   3.932  10.617  1.00  0.00    -0.273 OA
HETATM   17  N3  UNL     1       2.203   5.910   9.396  1.00  0.00    -0.332 N 
HETATM   18  C32 UNL     1       3.230   5.439   8.494  1.00  0.00     0.154 C 
HETATM   19  C33 UNL     1       1.913   7.373   9.614  1.00  0.00     0.183 C 
HETATM   20  C34 UNL     1       2.933   8.381   9.001  1.00  0.00     0.294 C 
HETATM   21  C35 UNL     1       1.006   7.957   8.465  1.00  0.00     0.169 C 
HETATM   22  O9  UNL     1       4.107   8.663   9.073  1.00  0.00    -0.262 OA
HETATM   23  O10 UNL     1       2.038   8.924   8.135  1.00  0.00    -0.311 OA
HETATM   24  C36 UNL     1      -0.316   8.679   8.636  1.00  0.00     0.043 C 
BRANCH  12  25
HETATM   25  O7  UNL     1       0.457   8.372  11.351  1.00  0.00    -0.383 OA
HETATM   26  H42 UNL     1       0.100   8.182  12.239  1.00  0.00     0.210 HD
ENDBRANCH  12  25
ENDBRANCH   9  12
ENDBRANCH   8   9
ENDBRANCH   6   8
ENDBRANCH   5   6
BRANCH   5  27
HETATM   27  O2  UNL     1       1.422   7.420  16.515  1.00  0.00    -0.391 OA
HETATM   28  H12 UNL     1       0.791   8.153  16.651  1.00  0.00     0.210 HD
ENDBRANCH   5  27
ENDBRANCH   4   5
ENDBRANCH   1   3
BRANCH   2  29
HETATM   29  C11 UNL     1      -3.910   5.781  13.475  1.00  0.00     0.149 C 
BRANCH  29  30
HETATM   30  N1  UNL     1      -5.078   5.976  14.306  1.00  0.00    -0.357 N 
HETATM   31  C12 UNL     1      -6.087   6.810  13.847  1.00  0.00     0.228 C 
HETATM   32  O3  UNL     1      -5.967   7.400  12.778  1.00  0.00    -0.273 OA
HETATM   33  H19 UNL     1      -5.335   5.230  14.935  1.00  0.00     0.162 HD
BRANCH  31  34
HETATM   34  C13 UNL     1      -7.365   6.863  14.716  1.00  0.00     0.063 C 
HETATM   35  C14 UNL     1      -7.457   8.225  15.434  1.00  0.00     0.028 C 
HETATM   36  C15 UNL     1      -7.225   5.756  15.790  1.00  0.00     0.028 C 
BRANCH  34  37
HETATM   37  C16 UNL     1      -8.692   6.624  13.902  1.00  0.00     0.164 C 
BRANCH  37  38
HETATM   38  O4  UNL     1      -9.784   6.136  14.681  1.00  0.00    -0.390 OA
HETATM   39  H27 UNL     1      -9.766   6.538  15.565  1.00  0.00     0.210 HD
ENDBRANCH  37  38
BRANCH  37  40
HETATM   40  C17 UNL     1      -8.629   5.746  12.652  1.00  0.00    -0.054 C 
HETATM   41  C18 UNL     1      -9.001   6.414  11.349  1.00  0.00     0.046 C 
HETATM   42  C19 UNL     1      -8.176   4.473  12.606  1.00  0.00     0.005 C 
BRANCH  42  43
HETATM   43  C20 UNL     1      -7.704   3.652  13.705  1.00  0.00     0.000 C 
HETATM   44  C21 UNL     1      -7.280   2.376  13.628  1.00  0.00     0.000 C 
BRANCH  44  45
HETATM   45  C22 UNL     1      -7.235   1.551  12.440  1.00  0.00     0.001 C 
HETATM   46  C23 UNL     1      -6.345   1.566  11.431  1.00  0.00     0.009 C 
BRANCH  46  47
HETATM   47  C24 UNL     1      -5.224   2.465  11.130  1.00  0.00    -0.034 C 
HETATM   48  C25 UNL     1      -5.562   3.768  10.436  1.00  0.00     0.050 C 
HETATM   49  C26 UNL     1      -3.948   2.074  11.382  1.00  0.00     0.082 C 
HETATM   50  C27 UNL     1      -3.375   0.839  11.994  1.00  0.00     0.075 C 
BRANCH  49  51
HETATM   51  N2  UNL     1      -2.889   3.010  11.051  1.00  0.00    -0.120 N 
HETATM   52  O5  UNL     1      -3.056   3.722  10.052  1.00  0.00    -0.532 OA
HETATM   53  O6  UNL     1      -1.912   3.037  11.813  1.00  0.00    -0.532 OA
ENDBRANCH  49  51
ENDBRANCH  46  47
ENDBRANCH  44  45
ENDBRANCH  42  43
ENDBRANCH  37  40
ENDBRANCH  34  37
ENDBRANCH  31  34
ENDBRANCH  29  30
ENDBRANCH   2  29
TORSDOF 19
ENDMDL
MODEL 3
REMARK minimizedAffinity -8.29478836
REMARK CNNscore 0.23692134
REMARK CNNaffinity 6.23723173
REMARK  19 active torsions:
REMARK  status: ('A' for Active; 'I' for Inactive)
REMARK    1  A    between atoms: O1_2  and  C2_3 
REMARK    2  A    between atoms: C2_3  and  C3_4 
REMARK    3  A    between atoms: C2_3  and  C28_36 
REMARK    4  A    between atoms: C3_4  and  C4_5 
REMARK    5  A    between atoms: C4_5  and  C6_7 
REMARK    6  A    between atoms: C6_7  and  O2_8 
REMARK    7  A    between atoms: C6_7  and  C7_9 
REMARK    8  A    between atoms: C8_10  and  C9_11 
REMARK    9  A    between atoms: C10_12  and  C11_13 
REMARK   10  A    between atoms: C11_13  and  N1_14 
REMARK       I    between atoms: N1_14  and  C12_15 
REMARK   11  A    between atoms: C12_15  and  C13_17 
REMARK   12  A    between atoms: C13_17  and  C16_20 
REMARK   13  A    between atoms: C16_20  and  O4_21 
REMARK   14  A    between atoms: C16_20  and  C17_22 
REMARK   15  A    between atoms: C19_24  and  C20_25 
REMARK   16  A    between atoms: C21_26  and  C22_27 
REMARK   17  A    between atoms: C23_28  and  C24_29 
REMARK   18  A    between atoms: C26_31  and  N2_33 
REMARK   19  A    between atoms: C28_36  and  O7_37 
ROOT
HETATM    1  C9  UNL     1       1.025  11.325  19.083  1.00  0.00    -0.003 C 
HETATM    2  C10 UNL     1       0.658  10.504  18.082  1.00  0.00    -0.007 C 
ENDROOT
BRANCH   1   3
HETATM    3  C8  UNL     1       1.518  10.816  20.345  1.00  0.00    -0.002 C 
HETATM    4  C7  UNL     1       2.817  10.578  20.590  1.00  0.00     0.005 C 
BRANCH   4   5
HETATM    5  C6  UNL     1       3.451  10.051  21.859  1.00  0.00     0.144 C 
BRANCH   5   6
HETATM    6  C4  UNL     1       4.006  11.065  22.888  1.00  0.00     0.016 C 
HETATM    7  C5  UNL     1       3.059  12.239  23.148  1.00  0.00     0.013 C 
BRANCH   6   8
HETATM    8  C3  UNL     1       5.464  11.530  22.640  1.00  0.00     0.042 C 
BRANCH   8   9
HETATM    9  C2  UNL     1       5.875  12.518  21.515  1.00  0.00     0.159 C 
BRANCH   9  10
HETATM   10  O1  UNL     1       6.827  11.853  20.662  1.00  0.00    -0.388 OA
HETATM   11  C1  UNL     1       6.272  11.335  19.456  1.00  0.00     0.202 C 
ENDBRANCH   9  10
BRANCH   9  12
HETATM   12  C28 UNL     1       6.453  13.939  21.845  1.00  0.00     0.133 C 
HETATM   13  C29 UNL     1       6.340  14.841  20.554  1.00  0.00     0.114 C 
HETATM   14  C30 UNL     1       6.208  16.343  20.805  1.00  0.00     0.023 C 
HETATM   15  C31 UNL     1       7.645  14.600  19.837  1.00  0.00     0.227 C 
HETATM   16  O8  UNL     1       7.828  14.748  18.640  1.00  0.00    -0.273 OA
HETATM   17  N3  UNL     1       8.586  14.252  20.789  1.00  0.00    -0.332 N 
HETATM   18  C32 UNL     1       9.861  13.703  20.385  1.00  0.00     0.154 C 
HETATM   19  C33 UNL     1       7.973  13.987  22.140  1.00  0.00     0.183 C 
HETATM   20  C34 UNL     1       8.662  12.893  23.013  1.00  0.00     0.294 C 
HETATM   21  C35 UNL     1       8.593  14.924  23.246  1.00  0.00     0.169 C 
HETATM   22  O9  UNL     1       8.932  11.715  22.970  1.00  0.00    -0.262 OA
HETATM   23  O10 UNL     1       9.035  13.759  23.991  1.00  0.00    -0.311 OA
HETATM   24  C36 UNL     1       7.833  15.850  24.176  1.00  0.00     0.043 C 
BRANCH  12  25
HETATM   25  O7  UNL     1       5.674  14.539  22.879  1.00  0.00    -0.383 OA
HETATM   26  H42 UNL     1       4.780  14.694  22.519  1.00  0.00     0.210 HD
ENDBRANCH  12  25
ENDBRANCH   9  12
ENDBRANCH   8   9
ENDBRANCH   6   8
ENDBRANCH   5   6
BRANCH   5  27
HETATM   27  O2  UNL     1       2.457   9.238  22.481  1.00  0.00    -0.391 OA
HETATM   28  H12 UNL     1       1.688   9.816  22.648  1.00  0.00     0.210 HD
ENDBRANCH   5  27
ENDBRANCH   4   5
ENDBRANCH   1   3
BRANCH   2  29
HETATM   29  C11 UNL     1       0.117  10.835  16.727  1.00  0.00     0.149 C 
BRANCH  29  30
HETATM   30  N1  UNL     1      -0.561   9.729  16.086  1.00  0.00    -0.357 N 
HETATM   31  C12 UNL     1      -0.197   9.390  14.791  1.00  0.00     0.228 C 
HETATM   32  O3  UNL     1       0.652  10.043  14.193  1.00  0.00    -0.273 OA
HETATM   33  H19 UNL     1      -0.929   8.999  16.677  1.00  0.00     0.162 HD
BRANCH  31  34
HETATM   34  C13 UNL     1      -0.858   8.115  14.217  1.00  0.00     0.063 C 
HETATM   35  C14 UNL     1      -1.954   8.501  13.204  1.00  0.00     0.028 C 
HETATM   36  C15 UNL     1      -1.531   7.384  15.406  1.00  0.00     0.028 C 
BRANCH  34  37
HETATM   37  C16 UNL     1       0.160   7.134  13.521  1.00  0.00     0.164 C 
BRANCH  37  38
HETATM   38  O4  UNL     1       1.509   7.600  13.499  1.00  0.00    -0.390 OA
HETATM   39  H27 UNL     1       1.707   8.079  14.320  1.00  0.00     0.210 HD
ENDBRANCH  37  38
BRANCH  37  40
HETATM   40  C17 UNL     1      -0.153   6.650  12.105  1.00  0.00    -0.054 C 
HETATM   41  C18 UNL     1       0.567   7.360  10.984  1.00  0.00     0.046 C 
HETATM   42  C19 UNL     1      -0.927   5.588  11.790  1.00  0.00     0.005 C 
BRANCH  42  43
HETATM   43  C20 UNL     1      -1.659   4.716  12.690  1.00  0.00     0.000 C 
HETATM   44  C21 UNL     1      -2.701   3.925  12.369  1.00  0.00     0.000 C 
BRANCH  44  45
HETATM   45  C22 UNL     1      -3.324   3.803  11.069  1.00  0.00     0.001 C 
HETATM   46  C23 UNL     1      -4.566   3.388  10.759  1.00  0.00     0.009 C 
BRANCH  46  47
HETATM   47  C24 UNL     1      -5.642   2.823  11.583  1.00  0.00    -0.034 C 
HETATM   48  C25 UNL     1      -6.065   1.403  11.271  1.00  0.00     0.050 C 
HETATM   49  C26 UNL     1      -6.275   3.594  12.504  1.00  0.00     0.082 C 
HETATM   50  C27 UNL     1      -6.076   5.008  12.942  1.00  0.00     0.075 C 
BRANCH  49  51
HETATM   51  N2  UNL     1      -7.333   2.972  13.277  1.00  0.00    -0.120 N 
HETATM   52  O5  UNL     1      -7.606   3.480  14.373  1.00  0.00    -0.532 OA
HETATM   53  O6  UNL     1      -7.898   1.995  12.764  1.00  0.00    -0.532 OA
ENDBRANCH  49  51
ENDBRANCH  46  47
ENDBRANCH  44  45
ENDBRANCH  42  43
ENDBRANCH  37  40
ENDBRANCH  34  37
ENDBRANCH  31  34
ENDBRANCH  29  30
ENDBRANCH   2  29
TORSDOF 19
ENDMDL
MODEL 4
REMARK minimizedAffinity -8.33619404
REMARK CNNscore 0.211102858
REMARK CNNaffinity 6.47107553
REMARK  19 active torsions:
REMARK  status: ('A' for Active; 'I' for Inactive)
REMARK    1  A    between atoms: O1_2  and  C2_3 
REMARK    2  A    between atoms: C2_3  and  C3_4 
REMARK    3  A    between atoms: C2_3  and  C28_36 
REMARK    4  A    between atoms: C3_4  and  C4_5 
REMARK    5  A    between atoms: C4_5  and  C6_7 
REMARK    6  A    between atoms: C6_7  and  O2_8 
REMARK    7  A    between atoms: C6_7  and  C7_9 
REMARK    8  A    between atoms: C8_10  and  C9_11 
REMARK    9  A    between atoms: C10_12  and  C11_13 
REMARK   10  A    between atoms: C11_13  and  N1_14 
REMARK       I    between atoms: N1_14  and  C12_15 
REMARK   11  A    between atoms: C12_15  and  C13_17 
REMARK   12  A    between atoms: C13_17  and  C16_20 
REMARK   13  A    between atoms: C16_20  and  O4_21 
REMARK   14  A    between atoms: C16_20  and  C17_22 
REMARK   15  A    between atoms: C19_24  and  C20_25 
REMARK   16  A    between atoms: C21_26  and  C22_27 
REMARK   17  A    between atoms: C23_28  and  C24_29 
REMARK   18  A    between atoms: C26_31  and  N2_33 
REMARK   19  A    between atoms: C28_36  and  O7_37 
ROOT
HETATM    1  C9  UNL     1      -7.377   4.531  13.769  1.00  0.00    -0.003 C 
HETATM    2  C10 UNL     1      -7.776   5.775  14.092  1.00  0.00    -0.007 C 
ENDROOT
BRANCH   1   3
HETATM    3  C8  UNL     1      -6.617   4.262  12.567  1.00  0.00    -0.002 C 
HETATM    4  C7  UNL     1      -5.463   3.574  12.559  1.00  0.00     0.005 C 
BRANCH   4   5
HETATM    5  C6  UNL     1      -4.584   3.230  11.377  1.00  0.00     0.144 C 
BRANCH   5   6
HETATM    6  C4  UNL     1      -3.154   3.816  11.319  1.00  0.00     0.016 C 
HETATM    7  C5  UNL     1      -2.062   2.744  11.337  1.00  0.00     0.013 C 
BRANCH   6   8
HETATM    8  C3  UNL     1      -2.866   4.965  12.320  1.00  0.00     0.042 C 
BRANCH   8   9
HETATM    9  C2  UNL     1      -1.457   5.276  12.895  1.00  0.00     0.159 C 
BRANCH   9  10
HETATM   10  O1  UNL     1      -1.625   5.831  14.213  1.00  0.00    -0.388 OA
HETATM   11  C1  UNL     1      -2.869   5.510  14.831  1.00  0.00     0.202 C 
ENDBRANCH   9  10
BRANCH   9  12
HETATM   12  C28 UNL     1      -0.445   6.193  12.124  1.00  0.00     0.133 C 
HETATM   13  C29 UNL     1       1.001   5.954  12.714  1.00  0.00     0.114 C 
HETATM   14  C30 UNL     1       2.159   6.196  11.747  1.00  0.00     0.023 C 
HETATM   15  C31 UNL     1       1.101   6.968  13.827  1.00  0.00     0.227 C 
HETATM   16  O8  UNL     1       1.840   6.879  14.794  1.00  0.00    -0.273 OA
HETATM   17  N3  UNL     1       0.264   8.021  13.508  1.00  0.00    -0.332 N 
HETATM   18  C32 UNL     1      -0.058   9.020  14.503  1.00  0.00     0.154 C 
HETATM   19  C33 UNL     1      -0.632   7.716  12.336  1.00  0.00     0.183 C 
HETATM   20  C34 UNL     1      -2.052   8.360  12.361  1.00  0.00     0.294 C 
HETATM   21  C35 UNL     1      -0.437   8.764  11.174  1.00  0.00     0.169 C 
HETATM   22  O9  UNL     1      -3.049   8.366  13.046  1.00  0.00    -0.262 OA
HETATM   23  O10 UNL     1      -1.840   9.128  11.261  1.00  0.00    -0.311 OA
HETATM   24  C36 UNL     1      -0.091   8.459   9.730  1.00  0.00     0.043 C 
BRANCH  12  25
HETATM   25  O7  UNL     1      -0.430   5.828  10.745  1.00  0.00    -0.383 OA
HETATM   26  H42 UNL     1      -0.066   4.924  10.685  1.00  0.00     0.210 HD
ENDBRANCH  12  25
ENDBRANCH   9  12
ENDBRANCH   8   9
ENDBRANCH   6   8
ENDBRANCH   5   6
BRANCH   5  27
HETATM   27  O2  UNL     1      -4.515   1.804  11.347  1.00  0.00    -0.391 OA
HETATM   28  H12 UNL     1      -4.134   1.525  12.202  1.00  0.00     0.210 HD
ENDBRANCH   5  27
ENDBRANCH   4   5
ENDBRANCH   1   3
BRANCH   2  29
HETATM   29  C11 UNL     1      -8.571   6.247  15.268  1.00  0.00     0.149 C 
BRANCH  29  30
HETATM   30  N1  UNL     1      -9.876   6.763  14.918  1.00  0.00    -0.357 N 
HETATM   31  C12 UNL     1     -10.238   8.020  15.382  1.00  0.00     0.228 C 
HETATM   32  O3  UNL     1      -9.480   8.656  16.107  1.00  0.00    -0.273 OA
HETATM   33  H19 UNL     1     -10.291   6.444  14.056  1.00  0.00     0.162 HD
BRANCH  31  34
HETATM   34  C13 UNL     1     -11.584   8.570  14.857  1.00  0.00     0.063 C 
HETATM   35  C14 UNL     1     -12.357   7.457  14.121  1.00  0.00     0.028 C 
HETATM   36  C15 UNL     1     -11.246   9.684  13.835  1.00  0.00     0.028 C 
BRANCH  34  37
HETATM   37  C16 UNL     1     -12.504   9.171  15.986  1.00  0.00     0.164 C 
BRANCH  37  38
HETATM   38  O4  UNL     1     -13.842   9.448  15.573  1.00  0.00    -0.390 OA
HETATM   39  H27 UNL     1     -14.142   8.770  14.946  1.00  0.00     0.210 HD
ENDBRANCH  37  38
BRANCH  37  40
HETATM   40  C17 UNL     1     -12.018  10.412  16.734  1.00  0.00    -0.054 C 
HETATM   41  C18 UNL     1     -11.864  11.668  15.911  1.00  0.00     0.046 C 
HETATM   42  C19 UNL     1     -11.820  10.499  18.069  1.00  0.00     0.005 C 
BRANCH  42  43
HETATM   43  C20 UNL     1     -11.970   9.455  19.065  1.00  0.00     0.000 C 
HETATM   44  C21 UNL     1     -11.504   9.479  20.329  1.00  0.00     0.000 C 
BRANCH  44  45
HETATM   45  C22 UNL     1     -10.733  10.538  20.945  1.00  0.00     0.001 C 
HETATM   46  C23 UNL     1     -10.583  10.829  22.250  1.00  0.00     0.009 C 
BRANCH  46  47
HETATM   47  C24 UNL     1     -11.215  10.274  23.454  1.00  0.00    -0.034 C 
HETATM   48  C25 UNL     1     -10.986   8.802  23.727  1.00  0.00     0.050 C 
HETATM   49  C26 UNL     1     -12.039  11.044  24.209  1.00  0.00     0.082 C 
HETATM   50  C27 UNL     1     -12.454  12.475  24.108  1.00  0.00     0.075 C 
BRANCH  49  51
HETATM   51  N2  UNL     1     -12.636  10.428  25.379  1.00  0.00    -0.120 N 
HETATM   52  O5  UNL     1     -12.173   9.338  25.742  1.00  0.00    -0.532 OA
HETATM   53  O6  UNL     1     -13.545  11.058  25.938  1.00  0.00    -0.532 OA
ENDBRANCH  49  51
ENDBRANCH  46  47
ENDBRANCH  44  45
ENDBRANCH  42  43
ENDBRANCH  37  40
ENDBRANCH  34  37
ENDBRANCH  31  34
ENDBRANCH  29  30
ENDBRANCH   2  29
TORSDOF 19
ENDMDL
MODEL 5
REMARK minimizedAffinity -8.33792305
REMARK CNNscore 0.206298336
REMARK CNNaffinity 5.99885416
REMARK  19 active torsions:
REMARK  status: ('A' for Active; 'I' for Inactive)
REMARK    1  A    between atoms: O1_2  and  C2_3 
REMARK    2  A    between atoms: C2_3  and  C3_4 
REMARK    3  A    between atoms: C2_3  and  C28_36 
REMARK    4  A    between atoms: C3_4  and  C4_5 
REMARK    5  A    between atoms: C4_5  and  C6_7 
REMARK    6  A    between atoms: C6_7  and  O2_8 
REMARK    7  A    between atoms: C6_7  and  C7_9 
REMARK    8  A    between atoms: C8_10  and  C9_11 
REMARK    9  A    between atoms: C10_12  and  C11_13 
REMARK   10  A    between atoms: C11_13  and  N1_14 
REMARK       I    between atoms: N1_14  and  C12_15 
REMARK   11  A    between atoms: C12_15  and  C13_17 
REMARK   12  A    between atoms: C13_17  and  C16_20 
REMARK   13  A    between atoms: C16_20  and  O4_21 
REMARK   14  A    between atoms: C16_20  and  C17_22 
REMARK   15  A    between atoms: C19_24  and  C20_25 
REMARK   16  A    between atoms: C21_26  and  C22_27 
REMARK   17  A    between atoms: C23_28  and  C24_29 
REMARK   18  A    between atoms: C26_31  and  N2_33 
REMARK   19  A    between atoms: C28_36  and  O7_37 
ROOT
HETATM    1  C9  UNL     1       0.855  10.716  19.929  1.00  0.00    -0.003 C 
HETATM    2  C10 UNL     1       1.389  10.745  18.695  1.00  0.00    -0.007 C 
ENDROOT
BRANCH   1   3
HETATM    3  C8  UNL     1       1.673  10.541  21.111  1.00  0.00    -0.002 C 
HETATM    4  C7  UNL     1       2.870   9.932  21.099  1.00  0.00     0.005 C 
BRANCH   4   5
HETATM    5  C6  UNL     1       3.812   9.691  22.258  1.00  0.00     0.144 C 
BRANCH   5   6
HETATM    6  C4  UNL     1       4.276  10.901  23.102  1.00  0.00     0.016 C 
HETATM    7  C5  UNL     1       3.205  11.986  23.239  1.00  0.00     0.013 C 
BRANCH   6   8
HETATM    8  C3  UNL     1       5.659  11.488  22.717  1.00  0.00     0.042 C 
BRANCH   8   9
HETATM    9  C2  UNL     1       5.861  12.577  21.628  1.00  0.00     0.159 C 
BRANCH   9  10
HETATM   10  O1  UNL     1       6.701  12.026  20.596  1.00  0.00    -0.388 OA
HETATM   11  C1  UNL     1       5.992  11.540  19.459  1.00  0.00     0.202 C 
ENDBRANCH   9  10
BRANCH   9  12
HETATM   12  C28 UNL     1       6.427  13.995  21.988  1.00  0.00     0.133 C 
HETATM   13  C29 UNL     1       6.228  14.947  20.743  1.00  0.00     0.114 C 
HETATM   14  C30 UNL     1       6.080  16.434  21.063  1.00  0.00     0.023 C 
HETATM   15  C31 UNL     1       7.499  14.764  19.950  1.00  0.00     0.227 C 
HETATM   16  O8  UNL     1       7.616  14.965  18.753  1.00  0.00    -0.273 OA
HETATM   17  N3  UNL     1       8.495  14.398  20.838  1.00  0.00    -0.332 N 
HETATM   18  C32 UNL     1       9.758  13.895  20.346  1.00  0.00     0.154 C 
HETATM   19  C33 UNL     1       7.959  14.066  22.206  1.00  0.00     0.183 C 
HETATM   20  C34 UNL     1       8.714  12.953  22.996  1.00  0.00     0.294 C 
HETATM   21  C35 UNL     1       8.617  14.970  23.317  1.00  0.00     0.169 C 
HETATM   22  O9  UNL     1       9.005  11.784  22.890  1.00  0.00    -0.262 OA
HETATM   23  O10 UNL     1       9.121  13.786  23.989  1.00  0.00    -0.311 OA
HETATM   24  C36 UNL     1       7.888  15.841  24.323  1.00  0.00     0.043 C 
BRANCH  12  25
HETATM   25  O7  UNL     1       5.691  14.535  23.085  1.00  0.00    -0.383 OA
HETATM   26  H42 UNL     1       4.777  14.685  22.778  1.00  0.00     0.210 HD
ENDBRANCH  12  25
ENDBRANCH   9  12
ENDBRANCH   8   9
ENDBRANCH   6   8
ENDBRANCH   5   6
BRANCH   5  27
HETATM   27  O2  UNL     1       3.153   8.747  23.102  1.00  0.00    -0.391 OA
HETATM   28  H12 UNL     1       2.309   9.155  23.373  1.00  0.00     0.210 HD
ENDBRANCH   5  27
ENDBRANCH   4   5
ENDBRANCH   1   3
BRANCH   2  29
HETATM   29  C11 UNL     1       0.717  10.900  17.368  1.00  0.00     0.149 C 
BRANCH  29  30
HETATM   30  N1  UNL     1      -0.649  10.423  17.348  1.00  0.00    -0.357 N 
HETATM   31  C12 UNL     1      -1.451  10.755  16.266  1.00  0.00     0.228 C 
HETATM   32  O3  UNL     1      -1.020  11.474  15.370  1.00  0.00    -0.273 OA
HETATM   33  H19 UNL     1      -0.852   9.564  17.837  1.00  0.00     0.162 HD
BRANCH  31  34
HETATM   34  C13 UNL     1      -2.851  10.098  16.238  1.00  0.00     0.063 C 
HETATM   35  C14 UNL     1      -3.751  10.821  15.215  1.00  0.00     0.028 C 
HETATM   36  C15 UNL     1      -3.466  10.290  17.646  1.00  0.00     0.028 C 
BRANCH  34  37
HETATM   37  C16 UNL     1      -2.820   8.561  15.895  1.00  0.00     0.164 C 
BRANCH  37  38
HETATM   38  O4  UNL     1      -2.423   7.722  16.980  1.00  0.00    -0.390 OA
HETATM   39  H27 UNL     1      -2.770   8.074  17.815  1.00  0.00     0.210 HD
ENDBRANCH  37  38
BRANCH  37  40
HETATM   40  C17 UNL     1      -2.013   8.104  14.680  1.00  0.00    -0.054 C 
HETATM   41  C18 UNL     1      -0.552   7.807  14.923  1.00  0.00     0.046 C 
HETATM   42  C19 UNL     1      -2.517   7.850  13.451  1.00  0.00     0.005 C 
BRANCH  42  43
HETATM   43  C20 UNL     1      -3.888   7.992  13.000  1.00  0.00     0.000 C 
HETATM   44  C21 UNL     1      -4.910   7.156  13.264  1.00  0.00     0.000 C 
BRANCH  44  45
HETATM   45  C22 UNL     1      -4.846   5.928  14.028  1.00  0.00     0.001 C 
HETATM   46  C23 UNL     1      -4.528   4.688  13.616  1.00  0.00     0.009 C 
BRANCH  46  47
HETATM   47  C24 UNL     1      -4.262   4.140  12.279  1.00  0.00    -0.034 C 
HETATM   48  C25 UNL     1      -5.431   3.502  11.559  1.00  0.00     0.050 C 
HETATM   49  C26 UNL     1      -2.998   4.132  11.783  1.00  0.00     0.082 C 
HETATM   50  C27 UNL     1      -1.701   4.641  12.321  1.00  0.00     0.075 C 
BRANCH  49  51
HETATM   51  N2  UNL     1      -2.808   3.568  10.460  1.00  0.00    -0.120 N 
HETATM   52  O5  UNL     1      -3.735   3.701   9.650  1.00  0.00    -0.532 OA
HETATM   53  O6  UNL     1      -1.718   3.020  10.239  1.00  0.00    -0.532 OA
ENDBRANCH  49  51
ENDBRANCH  46  47
ENDBRANCH  44  45
ENDBRANCH  42  43
ENDBRANCH  37  40
ENDBRANCH  34  37
ENDBRANCH  31  34
ENDBRANCH  29  30
ENDBRANCH   2  29
TORSDOF 19
ENDMDL
MODEL 6
REMARK minimizedAffinity -8.16852283
REMARK CNNscore 0.190048426
REMARK CNNaffinity 7.22699881
REMARK  19 active torsions:
REMARK  status: ('A' for Active; 'I' for Inactive)
REMARK    1  A    between atoms: O1_2  and  C2_3 
REMARK    2  A    between atoms: C2_3  and  C3_4 
REMARK    3  A    between atoms: C2_3  and  C28_36 
REMARK    4  A    between atoms: C3_4  and  C4_5 
REMARK    5  A    between atoms: C4_5  and  C6_7 
REMARK    6  A    between atoms: C6_7  and  O2_8 
REMARK    7  A    between atoms: C6_7  and  C7_9 
REMARK    8  A    between atoms: C8_10  and  C9_11 
REMARK    9  A    between atoms: C10_12  and  C11_13 
REMARK   10  A    between atoms: C11_13  and  N1_14 
REMARK       I    between atoms: N1_14  and  C12_15 
REMARK   11  A    between atoms: C12_15  and  C13_17 
REMARK   12  A    between atoms: C13_17  and  C16_20 
REMARK   13  A    between atoms: C16_20  and  O4_21 
REMARK   14  A    between atoms: C16_20  and  C17_22 
REMARK   15  A    between atoms: C19_24  and  C20_25 
REMARK   16  A    between atoms: C21_26  and  C22_27 
REMARK   17  A    between atoms: C23_28  and  C24_29 
REMARK   18  A    between atoms: C26_31  and  N2_33 
REMARK   19  A    between atoms: C28_36  and  O7_37 
ROOT
HETATM    1  C9  UNL     1      -5.739   2.891  11.567  1.00  0.00    -0.003 C 
HETATM    2  C10 UNL     1      -6.414   3.292  12.659  1.00  0.00    -0.007 C 
ENDROOT
BRANCH   1   3
HETATM    3  C8  UNL     1      -4.292   2.880  11.526  1.00  0.00    -0.002 C 
HETATM    4  C7  UNL     1      -3.561   3.852  10.955  1.00  0.00     0.005 C 
BRANCH   4   5
HETATM    5  C6  UNL     1      -2.055   3.954  10.850  1.00  0.00     0.144 C 
BRANCH   5   6
HETATM    6  C4  UNL     1      -1.266   4.545  12.042  1.00  0.00     0.016 C 
HETATM    7  C5  UNL     1      -2.167   5.033  13.179  1.00  0.00     0.013 C 
BRANCH   6   8
HETATM    8  C3  UNL     1      -0.178   5.585  11.668  1.00  0.00     0.042 C 
BRANCH   8   9
HETATM    9  C2  UNL     1       1.231   5.633  12.319  1.00  0.00     0.159 C 
BRANCH   9  10
HETATM   10  O1  UNL     1       1.061   5.676  13.748  1.00  0.00    -0.388 OA
HETATM   11  C1  UNL     1       0.398   6.844  14.226  1.00  0.00     0.202 C 
ENDBRANCH   9  10
BRANCH   9  12
HETATM   12  C28 UNL     1       2.270   6.744  11.936  1.00  0.00     0.133 C 
HETATM   13  C29 UNL     1       1.509   8.123  11.808  1.00  0.00     0.114 C 
HETATM   14  C30 UNL     1       2.343   9.370  12.100  1.00  0.00     0.023 C 
HETATM   15  C31 UNL     1       1.095   8.166  10.357  1.00  0.00     0.227 C 
HETATM   16  O8  UNL     1       0.162   8.813   9.911  1.00  0.00    -0.273 OA
HETATM   17  N3  UNL     1       2.000   7.402   9.643  1.00  0.00    -0.332 N 
HETATM   18  C32 UNL     1       1.719   7.034   8.273  1.00  0.00     0.154 C 
HETATM   19  C33 UNL     1       2.913   6.600  10.534  1.00  0.00     0.183 C 
HETATM   20  C34 UNL     1       3.366   5.210   9.993  1.00  0.00     0.294 C 
HETATM   21  C35 UNL     1       4.428   6.937  10.257  1.00  0.00     0.169 C 
HETATM   22  O9  UNL     1       2.886   4.158   9.638  1.00  0.00    -0.262 OA
HETATM   23  O10 UNL     1       4.680   5.547   9.920  1.00  0.00    -0.311 OA
HETATM   24  C36 UNL     1       5.453   7.395  11.277  1.00  0.00     0.043 C 
BRANCH  12  25
HETATM   25  O7  UNL     1       3.240   6.865  12.975  1.00  0.00    -0.383 OA
HETATM   26  H42 UNL     1       2.778   7.197  13.769  1.00  0.00     0.210 HD
ENDBRANCH  12  25
ENDBRANCH   9  12
ENDBRANCH   8   9
ENDBRANCH   6   8
ENDBRANCH   5   6
BRANCH   5  27
HETATM   27  O2  UNL     1      -1.594   2.629  10.585  1.00  0.00    -0.391 OA
HETATM   28  H12 UNL     1      -1.889   2.075  11.332  1.00  0.00     0.210 HD
ENDBRANCH   5  27
ENDBRANCH   4   5
ENDBRANCH   1   3
BRANCH   2  29
HETATM   29  C11 UNL     1      -7.890   3.386  12.888  1.00  0.00     0.149 C 
BRANCH  29  30
HETATM   30  N1  UNL     1      -8.272   4.454  13.786  1.00  0.00    -0.357 N 
HETATM   31  C12 UNL     1      -7.709   5.708  13.601  1.00  0.00     0.228 C 
HETATM   32  O3  UNL     1      -6.874   5.891  12.721  1.00  0.00    -0.273 OA
HETATM   33  H19 UNL     1      -9.188   4.407  14.205  1.00  0.00     0.162 HD
BRANCH  31  34
HETATM   34  C13 UNL     1      -8.266   6.835  14.502  1.00  0.00     0.063 C 
HETATM   35  C14 UNL     1      -7.117   7.755  14.964  1.00  0.00     0.028 C 
HETATM   36  C15 UNL     1      -8.874   6.153  15.752  1.00  0.00     0.028 C 
BRANCH  34  37
HETATM   37  C16 UNL     1      -9.373   7.712  13.805  1.00  0.00     0.164 C 
BRANCH  37  38
HETATM   38  O4  UNL     1     -10.128   8.530  14.698  1.00  0.00    -0.390 OA
HETATM   39  H27 UNL     1      -9.554   8.862  15.408  1.00  0.00     0.210 HD
ENDBRANCH  37  38
BRANCH  37  40
HETATM   40  C17 UNL     1     -10.388   7.014  12.899  1.00  0.00    -0.054 C 
HETATM   41  C18 UNL     1      -9.921   6.693  11.499  1.00  0.00     0.046 C 
HETATM   42  C19 UNL     1     -11.610   6.577  13.277  1.00  0.00     0.005 C 
BRANCH  42  43
HETATM   43  C20 UNL     1     -12.244   6.705  14.576  1.00  0.00     0.000 C 
HETATM   44  C21 UNL     1     -13.557   6.892  14.812  1.00  0.00     0.000 C 
BRANCH  44  45
HETATM   45  C22 UNL     1     -14.602   7.031  13.821  1.00  0.00     0.001 C 
HETATM   46  C23 UNL     1     -14.954   8.114  13.106  1.00  0.00     0.009 C 
BRANCH  46  47
HETATM   47  C24 UNL     1     -14.503   9.511  13.162  1.00  0.00    -0.034 C 
HETATM   48  C25 UNL     1     -13.149   9.815  12.555  1.00  0.00     0.050 C 
HETATM   49  C26 UNL     1     -15.240  10.441  13.820  1.00  0.00     0.082 C 
HETATM   50  C27 UNL     1     -16.552  10.369  14.530  1.00  0.00     0.075 C 
BRANCH  49  51
HETATM   51  N2  UNL     1     -14.731  11.800  13.842  1.00  0.00    -0.120 N 
HETATM   52  O5  UNL     1     -13.609  11.990  13.353  1.00  0.00    -0.532 OA
HETATM   53  O6  UNL     1     -15.473  12.666  14.327  1.00  0.00    -0.532 OA
ENDBRANCH  49  51
ENDBRANCH  46  47
ENDBRANCH  44  45
ENDBRANCH  42  43
ENDBRANCH  37  40
ENDBRANCH  34  37
ENDBRANCH  31  34
ENDBRANCH  29  30
ENDBRANCH   2  29
TORSDOF 19
ENDMDL
MODEL 7
REMARK minimizedAffinity -7.98297882
REMARK CNNscore 0.187416375
REMARK CNNaffinity 6.34206438
REMARK  19 active torsions:
REMARK  status: ('A' for Active; 'I' for Inactive)
REMARK    1  A    between atoms: O1_2  and  C2_3 
REMARK    2  A    between atoms: C2_3  and  C3_4 
REMARK    3  A    between atoms: C2_3  and  C28_36 
REMARK    4  A    between atoms: C3_4  and  C4_5 
REMARK    5  A    between atoms: C4_5  and  C6_7 
REMARK    6  A    between atoms: C6_7  and  O2_8 
REMARK    7  A    between atoms: C6_7  and  C7_9 
REMARK    8  A    between atoms: C8_10  and  C9_11 
REMARK    9  A    between atoms: C10_12  and  C11_13 
REMARK   10  A    between atoms: C11_13  and  N1_14 
REMARK       I    between atoms: N1_14  and  C12_15 
REMARK   11  A    between atoms: C12_15  and  C13_17 
REMARK   12  A    between atoms: C13_17  and  C16_20 
REMARK   13  A    between atoms: C16_20  and  O4_21 
REMARK   14  A    between atoms: C16_20  and  C17_22 
REMARK   15  A    between atoms: C19_24  and  C20_25 
REMARK   16  A    between atoms: C21_26  and  C22_27 
REMARK   17  A    between atoms: C23_28  and  C24_29 
REMARK   18  A    between atoms: C26_31  and  N2_33 
REMARK   19  A    between atoms: C28_36  and  O7_37 
ROOT
HETATM    1  C9  UNL     1       6.066   7.797  14.744  1.00  0.00    -0.003 C 
HETATM    2  C10 UNL     1       4.868   8.404  14.824  1.00  0.00    -0.007 C 
ENDROOT
BRANCH   1   3
HETATM    3  C8  UNL     1       7.261   8.391  15.306  1.00  0.00    -0.002 C 
HETATM    4  C7  UNL     1       7.241   9.424  16.164  1.00  0.00     0.005 C 
BRANCH   4   5
HETATM    5  C6  UNL     1       8.413  10.124  16.815  1.00  0.00     0.144 C 
BRANCH   5   6
HETATM    6  C4  UNL     1       8.180  11.503  17.477  1.00  0.00     0.016 C 
HETATM    7  C5  UNL     1       9.289  12.513  17.172  1.00  0.00     0.013 C 
BRANCH   6   8
HETATM    8  C3  UNL     1       7.823  11.462  18.986  1.00  0.00     0.042 C 
BRANCH   8   9
HETATM    9  C2  UNL     1       6.873  12.478  19.675  1.00  0.00     0.159 C 
BRANCH   9  10
HETATM   10  O1  UNL     1       7.587  13.087  20.768  1.00  0.00    -0.388 OA
HETATM   11  C1  UNL     1       8.219  14.323  20.440  1.00  0.00     0.202 C 
ENDBRANCH   9  10
BRANCH   9  12
HETATM   12  C28 UNL     1       5.466  12.044  20.218  1.00  0.00     0.133 C 
HETATM   13  C29 UNL     1       4.377  13.032  19.643  1.00  0.00     0.114 C 
HETATM   14  C30 UNL     1       2.973  12.450  19.482  1.00  0.00     0.023 C 
HETATM   15  C31 UNL     1       4.313  14.130  20.676  1.00  0.00     0.227 C 
HETATM   16  O8  UNL     1       3.936  15.271  20.467  1.00  0.00    -0.273 OA
HETATM   17  N3  UNL     1       4.691  13.583  21.889  1.00  0.00    -0.332 N 
HETATM   18  C32 UNL     1       4.985  14.443  23.014  1.00  0.00     0.154 C 
HETATM   19  C33 UNL     1       5.266  12.197  21.747  1.00  0.00     0.183 C 
HETATM   20  C34 UNL     1       6.392  11.806  22.752  1.00  0.00     0.294 C 
HETATM   21  C35 UNL     1       4.460  11.149  22.606  1.00  0.00     0.169 C 
HETATM   22  O9  UNL     1       7.497  12.167  23.084  1.00  0.00    -0.262 OA
HETATM   23  O10 UNL     1       5.667  10.821  23.344  1.00  0.00    -0.311 OA
HETATM   24  C36 UNL     1       3.820   9.870  22.104  1.00  0.00     0.043 C 
BRANCH  12  25
HETATM   25  O7  UNL     1       5.165  10.728  19.755  1.00  0.00    -0.383 OA
HETATM   26  H42 UNL     1       5.071  10.775  18.784  1.00  0.00     0.210 HD
ENDBRANCH  12  25
ENDBRANCH   9  12
ENDBRANCH   8   9
ENDBRANCH   6   8
ENDBRANCH   5   6
BRANCH   5  27
HETATM   27  O2  UNL     1       8.922   9.210  17.786  1.00  0.00    -0.391 OA
HETATM   28  H12 UNL     1       8.192   9.028  18.407  1.00  0.00     0.210 HD
ENDBRANCH   5  27
ENDBRANCH   4   5
ENDBRANCH   1   3
BRANCH   2  29
HETATM   29  C11 UNL     1       3.538   7.963  14.300  1.00  0.00     0.149 C 
BRANCH  29  30
HETATM   30  N1  UNL     1       3.614   7.250  13.043  1.00  0.00    -0.357 N 
HETATM   31  C12 UNL     1       3.253   7.916  11.882  1.00  0.00     0.228 C 
HETATM   32  O3  UNL     1       2.838   9.070  11.929  1.00  0.00    -0.273 OA
HETATM   33  H19 UNL     1       4.291   6.506  12.967  1.00  0.00     0.162 HD
BRANCH  31  34
HETATM   34  C13 UNL     1       3.492   7.146  10.562  1.00  0.00     0.063 C 
HETATM   35  C14 UNL     1       4.668   6.163  10.731  1.00  0.00     0.028 C 
HETATM   36  C15 UNL     1       3.887   8.197   9.494  1.00  0.00     0.028 C 
BRANCH  34  37
HETATM   37  C16 UNL     1       2.229   6.351  10.057  1.00  0.00     0.164 C 
BRANCH  37  38
HETATM   38  O4  UNL     1       2.338   5.856   8.722  1.00  0.00    -0.390 OA
HETATM   39  H27 UNL     1       3.250   5.574   8.547  1.00  0.00     0.210 HD
ENDBRANCH  37  38
BRANCH  37  40
HETATM   40  C17 UNL     1       0.860   7.023  10.157  1.00  0.00    -0.054 C 
HETATM   41  C18 UNL     1       0.517   8.003   9.060  1.00  0.00     0.046 C 
HETATM   42  C19 UNL     1      -0.091   6.738  11.074  1.00  0.00     0.005 C 
BRANCH  42  43
HETATM   43  C20 UNL     1      -0.020   5.793  12.172  1.00  0.00     0.000 C 
HETATM   44  C21 UNL     1      -1.025   5.450  13.001  1.00  0.00     0.000 C 
BRANCH  44  45
HETATM   45  C22 UNL     1      -2.374   5.974  12.987  1.00  0.00     0.001 C 
HETATM   46  C23 UNL     1      -3.505   5.393  12.550  1.00  0.00     0.009 C 
BRANCH  46  47
HETATM   47  C24 UNL     1      -3.745   4.123  11.852  1.00  0.00    -0.034 C 
HETATM   48  C25 UNL     1      -2.724   3.715  10.810  1.00  0.00     0.050 C 
HETATM   49  C26 UNL     1      -4.885   3.422  12.079  1.00  0.00     0.082 C 
HETATM   50  C27 UNL     1      -6.041   3.649  12.997  1.00  0.00     0.075 C 
BRANCH  49  51
HETATM   51  N2  UNL     1      -5.059   2.181  11.348  1.00  0.00    -0.120 N 
HETATM   52  O5  UNL     1      -5.962   2.146  10.501  1.00  0.00    -0.532 OA
HETATM   53  O6  UNL     1      -4.271   1.262  11.614  1.00  0.00    -0.532 OA
ENDBRANCH  49  51
ENDBRANCH  46  47
ENDBRANCH  44  45
ENDBRANCH  42  43
ENDBRANCH  37  40
ENDBRANCH  34  37
ENDBRANCH  31  34
ENDBRANCH  29  30
ENDBRANCH   2  29
TORSDOF 19
ENDMDL
MODEL 8
REMARK minimizedAffinity -8.03018093
REMARK CNNscore 0.187027574
REMARK CNNaffinity 5.71801138
REMARK  19 active torsions:
REMARK  status: ('A' for Active; 'I' for Inactive)
REMARK    1  A    between atoms: O1_2  and  C2_3 
REMARK    2  A    between atoms: C2_3  and  C3_4 
REMARK    3  A    between atoms: C2_3  and  C28_36 
REMARK    4  A    between atoms: C3_4  and  C4_5 
REMARK    5  A    between atoms: C4_5  and  C6_7 
REMARK    6  A    between atoms: C6_7  and  O2_8 
REMARK    7  A    between atoms: C6_7  and  C7_9 
REMARK    8  A    between atoms: C8_10  and  C9_11 
REMARK    9  A    between atoms: C10_12  and  C11_13 
REMARK   10  A    between atoms: C11_13  and  N1_14 
REMARK       I    between atoms: N1_14  and  C12_15 
REMARK   11  A    between atoms: C12_15  and  C13_17 
REMARK   12  A    between atoms: C13_17  and  C16_20 
REMARK   13  A    between atoms: C16_20  and  O4_21 
REMARK   14  A    between atoms: C16_20  and  C17_22 
REMARK   15  A    between atoms: C19_24  and  C20_25 
REMARK   16  A    between atoms: C21_26  and  C22_27 
REMARK   17  A    between atoms: C23_28  and  C24_29 
REMARK   18  A    between atoms: C26_31  and  N2_33 
REMARK   19  A    between atoms: C28_36  and  O7_37 
ROOT
HETATM    1  C9  UNL     1       0.803  10.902  19.745  1.00  0.00    -0.003 C 
HETATM    2  C10 UNL     1       1.279  10.748  18.496  1.00  0.00    -0.007 C 
ENDROOT
BRANCH   1   3
HETATM    3  C8  UNL     1       1.535  10.435  20.904  1.00  0.00    -0.002 C 
HETATM    4  C7  UNL     1       2.868  10.270  20.921  1.00  0.00     0.005 C 
BRANCH   4   5
HETATM    5  C6  UNL     1       3.739   9.793  22.061  1.00  0.00     0.144 C 
BRANCH   5   6
HETATM    6  C4  UNL     1       4.235  10.828  23.099  1.00  0.00     0.016 C 
HETATM    7  C5  UNL     1       3.185  11.887  23.444  1.00  0.00     0.013 C 
BRANCH   6   8
HETATM    8  C3  UNL     1       5.623  11.453  22.802  1.00  0.00     0.042 C 
BRANCH   8   9
HETATM    9  C2  UNL     1       5.875  12.503  21.687  1.00  0.00     0.159 C 
BRANCH   9  10
HETATM   10  O1  UNL     1       6.796  11.933  20.737  1.00  0.00    -0.388 OA
HETATM   11  C1  UNL     1       6.174  11.348  19.595  1.00  0.00     0.202 C 
ENDBRANCH   9  10
BRANCH   9  12
HETATM   12  C28 UNL     1       6.384  13.948  22.025  1.00  0.00     0.133 C 
HETATM   13  C29 UNL     1       6.139  14.875  20.770  1.00  0.00     0.114 C 
HETATM   14  C30 UNL     1       5.931  16.359  21.072  1.00  0.00     0.023 C 
HETATM   15  C31 UNL     1       7.412  14.734  19.972  1.00  0.00     0.227 C 
HETATM   16  O8  UNL     1       7.513  14.925  18.771  1.00  0.00    -0.273 OA
HETATM   17  N3  UNL     1       8.427  14.421  20.857  1.00  0.00    -0.332 N 
HETATM   18  C32 UNL     1       9.707  13.965  20.364  1.00  0.00     0.154 C 
HETATM   19  C33 UNL     1       7.913  14.084  22.233  1.00  0.00     0.183 C 
HETATM   20  C34 UNL     1       8.718  13.014  23.032  1.00  0.00     0.294 C 
HETATM   21  C35 UNL     1       8.539  15.029  23.329  1.00  0.00     0.169 C 
HETATM   22  O9  UNL     1       9.056  11.856  22.939  1.00  0.00    -0.262 OA
HETATM   23  O10 UNL     1       9.095  13.875  24.012  1.00  0.00    -0.311 OA
HETATM   24  C36 UNL     1       7.781  15.881  24.328  1.00  0.00     0.043 C 
BRANCH  12  25
HETATM   25  O7  UNL     1       5.632  14.471  23.120  1.00  0.00    -0.383 OA
HETATM   26  H42 UNL     1       4.711  14.579  22.816  1.00  0.00     0.210 HD
ENDBRANCH  12  25
ENDBRANCH   9  12
ENDBRANCH   8   9
ENDBRANCH   6   8
ENDBRANCH   5   6
BRANCH   5  27
HETATM   27  O2  UNL     1       2.988   8.777  22.725  1.00  0.00    -0.391 OA
HETATM   28  H12 UNL     1       2.158   9.193  23.025  1.00  0.00     0.210 HD
ENDBRANCH   5  27
ENDBRANCH   4   5
ENDBRANCH   1   3
BRANCH   2  29
HETATM   29  C11 UNL     1       0.673  11.146  17.188  1.00  0.00     0.149 C 
BRANCH  29  30
HETATM   30  N1  UNL     1      -0.410  10.285  16.763  1.00  0.00    -0.357 N 
HETATM   31  C12 UNL     1      -0.316   9.663  15.528  1.00  0.00     0.228 C 
HETATM   32  O3  UNL     1       0.647   9.874  14.797  1.00  0.00    -0.273 OA
HETATM   33  H19 UNL     1      -0.953   9.828  17.479  1.00  0.00     0.162 HD
BRANCH  31  34
HETATM   34  C13 UNL     1      -1.436   8.649  15.196  1.00  0.00     0.063 C 
HETATM   35  C14 UNL     1      -1.955   8.888  13.763  1.00  0.00     0.028 C 
HETATM   36  C15 UNL     1      -2.597   8.923  16.185  1.00  0.00     0.028 C 
BRANCH  34  37
HETATM   37  C16 UNL     1      -0.988   7.145  15.334  1.00  0.00     0.164 C 
BRANCH  37  38
HETATM   38  O4  UNL     1       0.142   6.940  16.182  1.00  0.00    -0.390 OA
HETATM   39  H27 UNL     1       0.110   7.556  16.931  1.00  0.00     0.210 HD
ENDBRANCH  37  38
BRANCH  37  40
HETATM   40  C17 UNL     1      -0.719   6.348  14.057  1.00  0.00    -0.054 C 
HETATM   41  C18 UNL     1       0.589   6.632  13.358  1.00  0.00     0.046 C 
HETATM   42  C19 UNL     1      -1.496   5.355  13.571  1.00  0.00     0.005 C 
BRANCH  42  43
HETATM   43  C20 UNL     1      -2.752   4.860  14.103  1.00  0.00     0.000 C 
HETATM   44  C21 UNL     1      -3.977   5.372  13.876  1.00  0.00     0.000 C 
BRANCH  44  45
HETATM   45  C22 UNL     1      -4.291   6.537  13.078  1.00  0.00     0.001 C 
HETATM   46  C23 UNL     1      -5.269   7.445  13.251  1.00  0.00     0.009 C 
BRANCH  46  47
HETATM   47  C24 UNL     1      -6.391   7.505  14.197  1.00  0.00    -0.034 C 
HETATM   48  C25 UNL     1      -6.246   8.457  15.366  1.00  0.00     0.050 C 
HETATM   49  C26 UNL     1      -7.447   6.664  14.060  1.00  0.00     0.082 C 
HETATM   50  C27 UNL     1      -7.780   5.622  13.042  1.00  0.00     0.075 C 
BRANCH  49  51
HETATM   51  N2  UNL     1      -8.515   6.773  15.035  1.00  0.00    -0.120 N 
HETATM   52  O5  UNL     1      -9.448   7.543  14.768  1.00  0.00    -0.532 OA
HETATM   53  O6  UNL     1      -8.420   6.066  16.048  1.00  0.00    -0.532 OA
ENDBRANCH  49  51
ENDBRANCH  46  47
ENDBRANCH  44  45
ENDBRANCH  42  43
ENDBRANCH  37  40
ENDBRANCH  34  37
ENDBRANCH  31  34
ENDBRANCH  29  30
ENDBRANCH   2  29
TORSDOF 19
ENDMDL
MODEL 9
REMARK minimizedAffinity -8.39574051
REMARK CNNscore 0.183267146
REMARK CNNaffinity 6.52791786
REMARK  19 active torsions:
REMARK  status: ('A' for Active; 'I' for Inactive)
REMARK    1  A    between atoms: O1_2  and  C2_3 
REMARK    2  A    between atoms: C2_3  and  C3_4 
REMARK    3  A    between atoms: C2_3  and  C28_36 
REMARK    4  A    between atoms: C3_4  and  C4_5 
REMARK    5  A    between atoms: C4_5  and  C6_7 
REMARK    6  A    between atoms: C6_7  and  O2_8 
REMARK    7  A    between atoms: C6_7  and  C7_9 
REMARK    8  A    between atoms: C8_10  and  C9_11 
REMARK    9  A    between atoms: C10_12  and  C11_13 
REMARK   10  A    between atoms: C11_13  and  N1_14 
REMARK       I    between atoms: N1_14  and  C12_15 
REMARK   11  A    between atoms: C12_15  and  C13_17 
REMARK   12  A    between atoms: C13_17  and  C16_20 
REMARK   13  A    between atoms: C16_20  and  O4_21 
REMARK   14  A    between atoms: C16_20  and  C17_22 
REMARK   15  A    between atoms: C19_24  and  C20_25 
REMARK   16  A    between atoms: C21_26  and  C22_27 
REMARK   17  A    between atoms: C23_28  and  C24_29 
REMARK   18  A    between atoms: C26_31  and  N2_33 
REMARK   19  A    between atoms: C28_36  and  O7_37 
ROOT
HETATM    1  C9  UNL     1      -7.320   4.119  13.771  1.00  0.00    -0.003 C 
HETATM    2  C10 UNL     1      -7.090   5.122  14.637  1.00  0.00    -0.007 C 
ENDROOT
BRANCH   1   3
HETATM    3  C8  UNL     1      -6.573   3.988  12.538  1.00  0.00    -0.002 C 
HETATM    4  C7  UNL     1      -5.333   3.476  12.475  1.00  0.00     0.005 C 
BRANCH   4   5
HETATM    5  C6  UNL     1      -4.457   3.288  11.256  1.00  0.00     0.144 C 
BRANCH   5   6
HETATM    6  C4  UNL     1      -3.007   3.826  11.293  1.00  0.00     0.016 C 
HETATM    7  C5  UNL     1      -1.955   2.717  11.365  1.00  0.00     0.013 C 
BRANCH   6   8
HETATM    8  C3  UNL     1      -2.744   4.953  12.325  1.00  0.00     0.042 C 
BRANCH   8   9
HETATM    9  C2  UNL     1      -1.340   5.287  12.899  1.00  0.00     0.159 C 
BRANCH   9  10
HETATM   10  O1  UNL     1      -1.517   5.850  14.213  1.00  0.00    -0.388 OA
HETATM   11  C1  UNL     1      -2.703   5.424  14.879  1.00  0.00     0.202 C 
ENDBRANCH   9  10
BRANCH   9  12
HETATM   12  C28 UNL     1      -0.339   6.212  12.122  1.00  0.00     0.133 C 
HETATM   13  C29 UNL     1       1.112   5.985  12.705  1.00  0.00     0.114 C 
HETATM   14  C30 UNL     1       2.264   6.235  11.733  1.00  0.00     0.023 C 
HETATM   15  C31 UNL     1       1.209   7.001  13.817  1.00  0.00     0.227 C 
HETATM   16  O8  UNL     1       1.953   6.919  14.781  1.00  0.00    -0.273 OA
HETATM   17  N3  UNL     1       0.362   8.047  13.501  1.00  0.00    -0.332 N 
HETATM   18  C32 UNL     1       0.036   9.045  14.496  1.00  0.00     0.154 C 
HETATM   19  C33 UNL     1      -0.537   7.733  12.333  1.00  0.00     0.183 C 
HETATM   20  C34 UNL     1      -1.962   8.365  12.364  1.00  0.00     0.294 C 
HETATM   21  C35 UNL     1      -0.356   8.781  11.170  1.00  0.00     0.169 C 
HETATM   22  O9  UNL     1      -2.956   8.364  13.054  1.00  0.00    -0.262 OA
HETATM   23  O10 UNL     1      -1.761   9.134  11.263  1.00  0.00    -0.311 OA
HETATM   24  C36 UNL     1      -0.014   8.477   9.724  1.00  0.00     0.043 C 
BRANCH  12  25
HETATM   25  O7  UNL     1      -0.327   5.845  10.743  1.00  0.00    -0.383 OA
HETATM   26  H42 UNL     1       0.044   4.944  10.683  1.00  0.00     0.210 HD
ENDBRANCH  12  25
ENDBRANCH   9  12
ENDBRANCH   8   9
ENDBRANCH   6   8
ENDBRANCH   5   6
BRANCH   5  27
HETATM   27  O2  UNL     1      -4.437   1.883  11.005  1.00  0.00    -0.391 OA
HETATM   28  H12 UNL     1      -4.073   1.461  11.807  1.00  0.00     0.210 HD
ENDBRANCH   5  27
ENDBRANCH   4   5
ENDBRANCH   1   3
BRANCH   2  29
HETATM   29  C11 UNL     1      -7.758   5.431  15.939  1.00  0.00     0.149 C 
BRANCH  29  30
HETATM   30  N1  UNL     1      -8.921   6.282  15.809  1.00  0.00    -0.357 N 
HETATM   31  C12 UNL     1      -8.737   7.656  15.786  1.00  0.00     0.228 C 
HETATM   32  O3  UNL     1      -7.616   8.136  15.916  1.00  0.00    -0.273 OA
HETATM   33  H19 UNL     1      -9.724   5.907  15.327  1.00  0.00     0.162 HD
BRANCH  31  34
HETATM   34  C13 UNL     1     -10.002   8.500  15.503  1.00  0.00     0.063 C 
HETATM   35  C14 UNL     1      -9.600   9.876  14.933  1.00  0.00     0.028 C 
HETATM   36  C15 UNL     1     -10.705   8.727  16.865  1.00  0.00     0.028 C 
BRANCH  34  37
HETATM   37  C16 UNL     1     -11.013   7.812  14.511  1.00  0.00     0.164 C 
BRANCH  37  38
HETATM   38  O4  UNL     1     -10.398   7.139  13.413  1.00  0.00    -0.390 OA
HETATM   39  H27 UNL     1      -9.569   6.725  13.700  1.00  0.00     0.210 HD
ENDBRANCH  37  38
BRANCH  37  40
HETATM   40  C17 UNL     1     -12.142   8.658  13.922  1.00  0.00    -0.054 C 
HETATM   41  C18 UNL     1     -11.806   9.441  12.675  1.00  0.00     0.046 C 
HETATM   42  C19 UNL     1     -13.420   8.679  14.360  1.00  0.00     0.005 C 
BRANCH  42  43
HETATM   43  C20 UNL     1     -13.993   7.963  15.485  1.00  0.00     0.000 C 
HETATM   44  C21 UNL     1     -15.098   8.304  16.174  1.00  0.00     0.000 C 
BRANCH  44  45
HETATM   45  C22 UNL     1     -15.929   9.469  15.952  1.00  0.00     0.001 C 
HETATM   46  C23 UNL     1     -16.678   9.786  14.881  1.00  0.00     0.009 C 
BRANCH  46  47
HETATM   47  C24 UNL     1     -16.819   9.150  13.565  1.00  0.00    -0.034 C 
HETATM   48  C25 UNL     1     -17.463   7.779  13.535  1.00  0.00     0.050 C 
HETATM   49  C26 UNL     1     -16.298   9.742  12.460  1.00  0.00     0.082 C 
HETATM   50  C27 UNL     1     -15.584  11.038  12.253  1.00  0.00     0.075 C 
BRANCH  49  51
HETATM   51  N2  UNL     1     -16.467   9.053  11.194  1.00  0.00    -0.120 N 
HETATM   52  O5  UNL     1     -15.892   7.964  11.062  1.00  0.00    -0.532 OA
HETATM   53  O6  UNL     1     -17.196   9.601  10.355  1.00  0.00    -0.532 OA
ENDBRANCH  49  51
ENDBRANCH  46  47
ENDBRANCH  44  45
ENDBRANCH  42  43
ENDBRANCH  37  40
ENDBRANCH  34  37
ENDBRANCH  31  34
ENDBRANCH  29  30
ENDBRANCH   2  29
TORSDOF 19
ENDMDL
