MODEL 1
REMARK minimizedAffinity -8.7293272
REMARK  13 active torsions:
REMARK  status: ('A' for Active; 'I' for Inactive)
REMARK    1  A    between atoms: C2_2  and  C3_3 
REMARK    2  A    between atoms: C2_2  and  C14_14 
REMARK    3  A    between atoms: C4_4  and  C5_5 
REMARK    4  A    between atoms: C6_6  and  C8_8 
REMARK    5  A    between atoms: C8_8  and  C9_9 
REMARK    6  A    between atoms: C9_9  and  C10_10 
REMARK    7  A    between atoms: C18_18  and  O1_19 
REMARK    8  A    between atoms: C19_20  and  C20_21 
REMARK    9  A    between atoms: C20_21  and  C21_22 
REMARK   10  A    between atoms: C21_22  and  C22_23 
REMARK   11  A    between atoms: C22_23  and  O2_24 
REMARK   12  A    between atoms: C24_26  and  C26_28 
REMARK   13  A    between atoms: C29_32  and  O4_34 
ROOT
HETATM    1  C14 UNL     1      -7.348  46.759 -27.594  1.00  0.00     0.047 C 
HETATM    2  C15 UNL     1      -8.365  45.609 -27.661  1.00  0.00     0.013 C 
HETATM    3  C16 UNL     1      -9.356  45.960 -28.769  1.00  0.00     0.017 C 
HETATM    4  C17 UNL     1      -8.658  46.974 -29.714  1.00  0.00     0.024 C 
HETATM    5  C18 UNL     1      -7.885  47.803 -28.610  1.00  0.00     0.138 C 
HETATM    6  C19 UNL     1      -7.608  46.317 -30.725  1.00  0.00     0.029 C 
HETATM    7  C23 UNL     1      -7.157  47.191 -31.918  1.00  0.00    -0.066 C 
HETATM    8  C24 UNL     1      -5.914  47.143 -32.475  1.00  0.00    -0.021 C 
HETATM    9  C25 UNL     1      -5.481  47.908 -33.703  1.00  0.00     0.052 C 
HETATM   10  C27 UNL     1      -8.176  48.193 -32.442  1.00  0.00     0.038 C 
HETATM   11  C28 UNL     1      -9.010  48.877 -31.370  1.00  0.00     0.042 C 
HETATM   12  C29 UNL     1      -9.713  47.887 -30.442  1.00  0.00     0.065 C 
HETATM   13  C30 UNL     1     -10.807  47.139 -31.221  1.00  0.00     0.047 C 
ENDROOT
BRANCH   5  14
HETATM   14  O1  UNL     1      -6.805  48.566 -29.136  1.00  0.00    -0.394 OA
HETATM   15  H26 UNL     1      -6.415  49.055 -28.389  1.00  0.00     0.210 HD
ENDBRANCH   5  14
BRANCH   6  16
HETATM   16  C20 UNL     1      -7.773  44.807 -31.092  1.00  0.00     0.012 C 
BRANCH  16  17
HETATM   17  C21 UNL     1      -6.606  43.830 -31.002  1.00  0.00     0.027 C 
BRANCH  17  18
HETATM   18  C22 UNL     1      -6.360  43.017 -32.265  1.00  0.00     0.164 C 
BRANCH  18  19
HETATM   19  O2  UNL     1      -5.410  41.993 -31.991  1.00  0.00    -0.401 OA
HETATM   20  H34 UNL     1      -5.798  41.401 -31.325  1.00  0.00     0.209 HD
ENDBRANCH  18  19
ENDBRANCH  17  18
ENDBRANCH  16  17
ENDBRANCH   6  16
BRANCH  12  21
HETATM   21  O4  UNL     1     -10.426  48.690 -29.480  1.00  0.00    -0.389 OA
HETATM   22  H46 UNL     1     -11.159  48.169 -29.109  1.00  0.00     0.210 HD
ENDBRANCH  12  21
BRANCH   1  23
HETATM   23  C2  UNL     1      -7.066  47.214 -26.159  1.00  0.00    -0.061 C 
HETATM   24  C1  UNL     1      -7.842  46.893 -25.106  1.00  0.00     0.019 C 
BRANCH  23  25
HETATM   25  C3  UNL     1      -5.901  48.067 -25.898  1.00  0.00     0.007 C 
HETATM   26  C4  UNL     1      -5.335  48.332 -24.709  1.00  0.00     0.001 C 
BRANCH  26  27
HETATM   27  C5  UNL     1      -4.176  49.193 -24.570  1.00  0.00     0.002 C 
HETATM   28  C6  UNL     1      -3.107  49.252 -25.389  1.00  0.00    -0.084 C 
HETATM   29  C7  UNL     1      -2.881  48.389 -26.605  1.00  0.00     0.043 C 
BRANCH  28  30
HETATM   30  C8  UNL     1      -1.982  50.232 -25.092  1.00  0.00     0.037 C 
BRANCH  30  31
HETATM   31  C9  UNL     1      -1.297  50.750 -26.363  1.00  0.00     0.031 C 
BRANCH  31  32
HETATM   32  C10 UNL     1       0.198  50.809 -26.199  1.00  0.00    -0.024 C 
HETATM   33  C11 UNL     1       1.084  51.475 -26.966  1.00  0.00    -0.091 C 
HETATM   34  C12 UNL     1       2.552  51.467 -26.628  1.00  0.00     0.042 C 
HETATM   35  C13 UNL     1       0.737  52.264 -28.198  1.00  0.00     0.042 C 
ENDBRANCH  31  32
ENDBRANCH  30  31
ENDBRANCH  28  30
ENDBRANCH  26  27
ENDBRANCH  23  25
ENDBRANCH   1  23
BRANCH   8  36
HETATM   36  C26 UNL     1      -4.804  46.292 -31.928  1.00  0.00     0.265 C 
HETATM   37  O3  UNL     1      -3.631  46.650 -31.912  1.00  0.00    -0.302 OA
ENDBRANCH   8  36
TORSDOF 13
ENDMDL
MODEL 2
REMARK minimizedAffinity -8.37573242
REMARK  13 active torsions:
REMARK  status: ('A' for Active; 'I' for Inactive)
REMARK    1  A    between atoms: C2_2  and  C3_3 
REMARK    2  A    between atoms: C2_2  and  C14_14 
REMARK    3  A    between atoms: C4_4  and  C5_5 
REMARK    4  A    between atoms: C6_6  and  C8_8 
REMARK    5  A    between atoms: C8_8  and  C9_9 
REMARK    6  A    between atoms: C9_9  and  C10_10 
REMARK    7  A    between atoms: C18_18  and  O1_19 
REMARK    8  A    between atoms: C19_20  and  C20_21 
REMARK    9  A    between atoms: C20_21  and  C21_22 
REMARK   10  A    between atoms: C21_22  and  C22_23 
REMARK   11  A    between atoms: C22_23  and  O2_24 
REMARK   12  A    between atoms: C24_26  and  C26_28 
REMARK   13  A    between atoms: C29_32  and  O4_34 
ROOT
HETATM    1  C14 UNL     1      -6.813  47.109 -27.745  1.00  0.00     0.047 C 
HETATM    2  C15 UNL     1      -7.787  45.928 -27.623  1.00  0.00     0.013 C 
HETATM    3  C16 UNL     1      -8.883  46.149 -28.665  1.00  0.00     0.017 C 
HETATM    4  C17 UNL     1      -8.308  47.096 -29.751  1.00  0.00     0.024 C 
HETATM    5  C18 UNL     1      -7.475  48.043 -28.795  1.00  0.00     0.138 C 
HETATM    6  C19 UNL     1      -7.325  46.384 -30.792  1.00  0.00     0.029 C 
HETATM    7  C23 UNL     1      -7.013  47.163 -32.091  1.00  0.00    -0.066 C 
HETATM    8  C24 UNL     1      -5.821  47.103 -32.750  1.00  0.00    -0.021 C 
HETATM    9  C25 UNL     1      -5.525  47.769 -34.073  1.00  0.00     0.052 C 
HETATM   10  C27 UNL     1      -8.110  48.084 -32.605  1.00  0.00     0.038 C 
HETATM   11  C28 UNL     1      -8.873  48.834 -31.525  1.00  0.00     0.042 C 
HETATM   12  C29 UNL     1      -9.456  47.909 -30.457  1.00  0.00     0.065 C 
HETATM   13  C30 UNL     1     -10.583  47.063 -31.068  1.00  0.00     0.047 C 
ENDROOT
BRANCH   5  14
HETATM   14  O1  UNL     1      -6.473  48.788 -29.479  1.00  0.00    -0.394 OA
HETATM   15  H26 UNL     1      -6.039  49.353 -28.815  1.00  0.00     0.210 HD
ENDBRANCH   5  14
BRANCH   6  16
HETATM   16  C20 UNL     1      -7.464  44.843 -31.012  1.00  0.00     0.012 C 
BRANCH  16  17
HETATM   17  C21 UNL     1      -8.541  44.259 -31.920  1.00  0.00     0.027 C 
BRANCH  17  18
HETATM   18  C22 UNL     1      -8.015  43.372 -33.039  1.00  0.00     0.164 C 
BRANCH  18  19
HETATM   19  O2  UNL     1      -6.706  43.796 -33.403  1.00  0.00    -0.401 OA
HETATM   20  H34 UNL     1      -6.130  43.675 -32.630  1.00  0.00     0.209 HD
ENDBRANCH  18  19
ENDBRANCH  17  18
ENDBRANCH  16  17
ENDBRANCH   6  16
BRANCH  12  21
HETATM   21  O4  UNL     1     -10.113  48.772 -29.507  1.00  0.00    -0.389 OA
HETATM   22  H46 UNL     1     -10.791  48.265 -29.029  1.00  0.00     0.210 HD
ENDBRANCH  12  21
BRANCH   1  23
HETATM   23  C2  UNL     1      -6.425  47.697 -26.385  1.00  0.00    -0.061 C 
HETATM   24  C1  UNL     1      -7.294  47.877 -25.373  1.00  0.00     0.019 C 
BRANCH  23  25
HETATM   25  C3  UNL     1      -5.037  48.115 -26.160  1.00  0.00     0.007 C 
HETATM   26  C4  UNL     1      -4.128  48.461 -27.086  1.00  0.00     0.001 C 
BRANCH  26  27
HETATM   27  C5  UNL     1      -2.778  48.864 -26.744  1.00  0.00     0.002 C 
HETATM   28  C6  UNL     1      -2.266  50.109 -26.794  1.00  0.00    -0.084 C 
HETATM   29  C7  UNL     1      -2.994  51.342 -27.267  1.00  0.00     0.043 C 
BRANCH  28  30
HETATM   30  C8  UNL     1      -0.821  50.348 -26.383  1.00  0.00     0.037 C 
BRANCH  30  31
HETATM   31  C9  UNL     1      -0.502  51.834 -26.178  1.00  0.00     0.031 C 
BRANCH  31  32
HETATM   32  C10 UNL     1       0.141  52.080 -24.838  1.00  0.00    -0.024 C 
HETATM   33  C11 UNL     1      -0.470  52.218 -23.645  1.00  0.00    -0.091 C 
HETATM   34  C12 UNL     1       0.334  52.412 -22.387  1.00  0.00     0.042 C 
HETATM   35  C13 UNL     1      -1.959  52.203 -23.432  1.00  0.00     0.042 C 
ENDBRANCH  31  32
ENDBRANCH  30  31
ENDBRANCH  28  30
ENDBRANCH  26  27
ENDBRANCH  23  25
ENDBRANCH   1  23
BRANCH   8  36
HETATM   36  C26 UNL     1      -4.637  46.337 -32.234  1.00  0.00     0.265 C 
HETATM   37  O3  UNL     1      -3.923  46.742 -31.322  1.00  0.00    -0.302 OA
ENDBRANCH   8  36
TORSDOF 13
ENDMDL
MODEL 3
REMARK minimizedAffinity -8.22128868
REMARK  13 active torsions:
REMARK  status: ('A' for Active; 'I' for Inactive)
REMARK    1  A    between atoms: C2_2  and  C3_3 
REMARK    2  A    between atoms: C2_2  and  C14_14 
REMARK    3  A    between atoms: C4_4  and  C5_5 
REMARK    4  A    between atoms: C6_6  and  C8_8 
REMARK    5  A    between atoms: C8_8  and  C9_9 
REMARK    6  A    between atoms: C9_9  and  C10_10 
REMARK    7  A    between atoms: C18_18  and  O1_19 
REMARK    8  A    between atoms: C19_20  and  C20_21 
REMARK    9  A    between atoms: C20_21  and  C21_22 
REMARK   10  A    between atoms: C21_22  and  C22_23 
REMARK   11  A    between atoms: C22_23  and  O2_24 
REMARK   12  A    between atoms: C24_26  and  C26_28 
REMARK   13  A    between atoms: C29_32  and  O4_34 
ROOT
HETATM    1  C14 UNL     1      -7.128  46.791 -27.913  1.00  0.00     0.047 C 
HETATM    2  C15 UNL     1      -8.171  45.662 -27.925  1.00  0.00     0.013 C 
HETATM    3  C16 UNL     1      -9.184  46.008 -29.014  1.00  0.00     0.017 C 
HETATM    4  C17 UNL     1      -8.490  46.982 -30.003  1.00  0.00     0.024 C 
HETATM    5  C18 UNL     1      -7.670  47.821 -28.941  1.00  0.00     0.138 C 
HETATM    6  C19 UNL     1      -7.482  46.278 -31.024  1.00  0.00     0.029 C 
HETATM    7  C23 UNL     1      -7.046  47.113 -32.250  1.00  0.00    -0.066 C 
HETATM    8  C24 UNL     1      -5.820  47.023 -32.838  1.00  0.00    -0.021 C 
HETATM    9  C25 UNL     1      -5.404  47.748 -34.097  1.00  0.00     0.052 C 
HETATM   10  C27 UNL     1      -8.057  48.124 -32.772  1.00  0.00     0.038 C 
HETATM   11  C28 UNL     1      -8.846  48.852 -31.695  1.00  0.00     0.042 C 
HETATM   12  C29 UNL     1      -9.545  47.901 -30.724  1.00  0.00     0.065 C 
HETATM   13  C30 UNL     1     -10.675  47.159 -31.454  1.00  0.00     0.047 C 
ENDROOT
BRANCH   5  14
HETATM   14  O1  UNL     1      -6.588  48.547 -29.514  1.00  0.00    -0.394 OA
HETATM   15  H26 UNL     1      -6.167  49.045 -28.791  1.00  0.00     0.210 HD
ENDBRANCH   5  14
BRANCH   6  16
HETATM   16  C20 UNL     1      -7.690  44.764 -31.349  1.00  0.00     0.012 C 
BRANCH  16  17
HETATM   17  C21 UNL     1      -6.710  43.700 -30.865  1.00  0.00     0.027 C 
BRANCH  17  18
HETATM   18  C22 UNL     1      -6.552  42.511 -31.801  1.00  0.00     0.164 C 
BRANCH  18  19
HETATM   19  O2  UNL     1      -5.173  42.322 -32.097  1.00  0.00    -0.401 OA
HETATM   20  H34 UNL     1      -4.718  42.110 -31.264  1.00  0.00     0.209 HD
ENDBRANCH  18  19
ENDBRANCH  17  18
ENDBRANCH  16  17
ENDBRANCH   6  16
BRANCH  12  21
HETATM   21  O4  UNL     1     -10.214  48.743 -29.764  1.00  0.00    -0.389 OA
HETATM   22  H46 UNL     1     -10.947  48.248 -29.360  1.00  0.00     0.210 HD
ENDBRANCH  12  21
BRANCH   1  23
HETATM   23  C2  UNL     1      -6.797  47.274 -26.498  1.00  0.00    -0.061 C 
HETATM   24  C1  UNL     1      -7.534  46.971 -25.413  1.00  0.00     0.019 C 
BRANCH  23  25
HETATM   25  C3  UNL     1      -5.627  48.134 -26.294  1.00  0.00     0.007 C 
HETATM   26  C4  UNL     1      -5.088  48.517 -25.124  1.00  0.00     0.001 C 
BRANCH  26  27
HETATM   27  C5  UNL     1      -3.921  49.372 -25.044  1.00  0.00     0.002 C 
HETATM   28  C6  UNL     1      -2.925  49.303 -24.139  1.00  0.00    -0.084 C 
HETATM   29  C7  UNL     1      -2.851  48.336 -22.984  1.00  0.00     0.043 C 
BRANCH  28  30
HETATM   30  C8  UNL     1      -1.764  50.283 -24.216  1.00  0.00     0.037 C 
BRANCH  30  31
HETATM   31  C9  UNL     1      -2.040  51.588 -23.460  1.00  0.00     0.031 C 
BRANCH  31  32
HETATM   32  C10 UNL     1      -0.987  51.854 -22.416  1.00  0.00    -0.024 C 
HETATM   33  C11 UNL     1       0.155  52.555 -22.560  1.00  0.00    -0.091 C 
HETATM   34  C12 UNL     1       1.079  52.766 -21.390  1.00  0.00     0.042 C 
HETATM   35  C13 UNL     1       0.629  53.179 -23.843  1.00  0.00     0.042 C 
ENDBRANCH  31  32
ENDBRANCH  30  31
ENDBRANCH  28  30
ENDBRANCH  26  27
ENDBRANCH  23  25
ENDBRANCH   1  23
BRANCH   8  36
HETATM   36  C26 UNL     1      -4.714  46.161 -32.300  1.00  0.00     0.265 C 
HETATM   37  O3  UNL     1      -3.800  46.598 -31.609  1.00  0.00    -0.302 OA
ENDBRANCH   8  36
TORSDOF 13
ENDMDL
MODEL 4
REMARK minimizedAffinity -8.17402554
REMARK  13 active torsions:
REMARK  status: ('A' for Active; 'I' for Inactive)
REMARK    1  A    between atoms: C2_2  and  C3_3 
REMARK    2  A    between atoms: C2_2  and  C14_14 
REMARK    3  A    between atoms: C4_4  and  C5_5 
REMARK    4  A    between atoms: C6_6  and  C8_8 
REMARK    5  A    between atoms: C8_8  and  C9_9 
REMARK    6  A    between atoms: C9_9  and  C10_10 
REMARK    7  A    between atoms: C18_18  and  O1_19 
REMARK    8  A    between atoms: C19_20  and  C20_21 
REMARK    9  A    between atoms: C20_21  and  C21_22 
REMARK   10  A    between atoms: C21_22  and  C22_23 
REMARK   11  A    between atoms: C22_23  and  O2_24 
REMARK   12  A    between atoms: C24_26  and  C26_28 
REMARK   13  A    between atoms: C29_32  and  O4_34 
ROOT
HETATM    1  C14 UNL     1      -7.303  47.499 -26.179  1.00  0.00     0.047 C 
HETATM    2  C15 UNL     1      -6.518  47.661 -27.490  1.00  0.00     0.013 C 
HETATM    3  C16 UNL     1      -6.862  46.454 -28.362  1.00  0.00     0.017 C 
HETATM    4  C17 UNL     1      -8.218  45.889 -27.860  1.00  0.00     0.024 C 
HETATM    5  C18 UNL     1      -7.985  46.111 -26.310  1.00  0.00     0.138 C 
HETATM    6  C19 UNL     1      -9.496  46.723 -28.336  1.00  0.00     0.029 C 
HETATM    7  C23 UNL     1     -10.869  46.027 -28.188  1.00  0.00    -0.066 C 
HETATM    8  C24 UNL     1     -12.031  46.682 -27.910  1.00  0.00    -0.021 C 
HETATM    9  C25 UNL     1     -13.400  46.042 -27.863  1.00  0.00     0.052 C 
HETATM   10  C27 UNL     1     -10.873  44.510 -28.315  1.00  0.00     0.038 C 
HETATM   11  C28 UNL     1      -9.681  43.812 -27.679  1.00  0.00     0.042 C 
HETATM   12  C29 UNL     1      -8.341  44.352 -28.178  1.00  0.00     0.065 C 
HETATM   13  C30 UNL     1      -8.145  43.966 -29.652  1.00  0.00     0.047 C 
ENDROOT
BRANCH   5  14
HETATM   14  O1  UNL     1      -9.191  46.091 -25.554  1.00  0.00    -0.394 OA
HETATM   15  H26 UNL     1      -8.941  46.209 -24.620  1.00  0.00     0.210 HD
ENDBRANCH   5  14
BRANCH   6  16
HETATM   16  C20 UNL     1      -9.378  47.591 -29.630  1.00  0.00     0.012 C 
BRANCH  16  17
HETATM   17  C21 UNL     1      -9.051  49.079 -29.568  1.00  0.00     0.027 C 
BRANCH  17  18
HETATM   18  C22 UNL     1      -8.687  49.705 -30.907  1.00  0.00     0.164 C 
BRANCH  18  19
HETATM   19  O2  UNL     1      -8.812  51.119 -30.817  1.00  0.00    -0.401 OA
HETATM   20  H34 UNL     1      -8.170  51.432 -30.157  1.00  0.00     0.209 HD
ENDBRANCH  18  19
ENDBRANCH  17  18
ENDBRANCH  16  17
ENDBRANCH   6  16
BRANCH  12  21
HETATM   21  O4  UNL     1      -7.330  43.613 -27.463  1.00  0.00    -0.389 OA
HETATM   22  H46 UNL     1      -6.500  43.632 -27.970  1.00  0.00     0.210 HD
ENDBRANCH  12  21
BRANCH   1  23
HETATM   23  C2  UNL     1      -6.445  47.778 -24.940  1.00  0.00    -0.061 C 
HETATM   24  C1  UNL     1      -6.778  47.386 -23.697  1.00  0.00     0.019 C 
BRANCH  23  25
HETATM   25  C3  UNL     1      -5.197  48.534 -25.093  1.00  0.00     0.007 C 
HETATM   26  C4  UNL     1      -4.069  48.399 -24.376  1.00  0.00     0.001 C 
BRANCH  26  27
HETATM   27  C5  UNL     1      -2.888  49.204 -24.621  1.00  0.00     0.002 C 
HETATM   28  C6  UNL     1      -2.430  50.222 -23.867  1.00  0.00    -0.084 C 
HETATM   29  C7  UNL     1      -3.091  50.765 -22.626  1.00  0.00     0.043 C 
BRANCH  28  30
HETATM   30  C8  UNL     1      -1.157  50.950 -24.273  1.00  0.00     0.037 C 
BRANCH  30  31
HETATM   31  C9  UNL     1      -0.884  50.869 -25.780  1.00  0.00     0.031 C 
BRANCH  31  32
HETATM   32  C10 UNL     1       0.585  50.999 -26.082  1.00  0.00    -0.024 C 
HETATM   33  C11 UNL     1       1.156  51.578 -27.157  1.00  0.00    -0.091 C 
HETATM   34  C12 UNL     1       2.654  51.666 -27.279  1.00  0.00     0.042 C 
HETATM   35  C13 UNL     1       0.406  52.174 -28.317  1.00  0.00     0.042 C 
ENDBRANCH  31  32
ENDBRANCH  30  31
ENDBRANCH  28  30
ENDBRANCH  26  27
ENDBRANCH  23  25
ENDBRANCH   1  23
BRANCH   8  36
HETATM   36  C26 UNL     1     -12.094  48.155 -27.624  1.00  0.00     0.265 C 
HETATM   37  O3  UNL     1     -11.689  48.652 -26.578  1.00  0.00    -0.302 OA
ENDBRANCH   8  36
TORSDOF 13
ENDMDL
MODEL 5
REMARK minimizedAffinity -7.87408733
REMARK  13 active torsions:
REMARK  status: ('A' for Active; 'I' for Inactive)
REMARK    1  A    between atoms: C2_2  and  C3_3 
REMARK    2  A    between atoms: C2_2  and  C14_14 
REMARK    3  A    between atoms: C4_4  and  C5_5 
REMARK    4  A    between atoms: C6_6  and  C8_8 
REMARK    5  A    between atoms: C8_8  and  C9_9 
REMARK    6  A    between atoms: C9_9  and  C10_10 
REMARK    7  A    between atoms: C18_18  and  O1_19 
REMARK    8  A    between atoms: C19_20  and  C20_21 
REMARK    9  A    between atoms: C20_21  and  C21_22 
REMARK   10  A    between atoms: C21_22  and  C22_23 
REMARK   11  A    between atoms: C22_23  and  O2_24 
REMARK   12  A    between atoms: C24_26  and  C26_28 
REMARK   13  A    between atoms: C29_32  and  O4_34 
ROOT
HETATM    1  C14 UNL     1      -2.157  48.785 -21.496  1.00  0.00     0.047 C 
HETATM    2  C15 UNL     1      -3.025  47.604 -21.958  1.00  0.00     0.013 C 
HETATM    3  C16 UNL     1      -4.260  48.201 -22.632  1.00  0.00     0.017 C 
HETATM    4  C17 UNL     1      -3.896  49.642 -23.077  1.00  0.00     0.024 C 
HETATM    5  C18 UNL     1      -3.011  50.039 -21.826  1.00  0.00     0.138 C 
HETATM    6  C19 UNL     1      -3.011  49.718 -24.406  1.00  0.00     0.029 C 
HETATM    7  C23 UNL     1      -2.925  51.097 -25.100  1.00  0.00    -0.066 C 
HETATM    8  C24 UNL     1      -1.828  51.546 -25.774  1.00  0.00    -0.021 C 
HETATM    9  C25 UNL     1      -1.752  52.841 -26.547  1.00  0.00     0.052 C 
HETATM   10  C27 UNL     1      -4.139  52.003 -24.955  1.00  0.00     0.038 C 
HETATM   11  C28 UNL     1      -4.804  51.967 -23.588  1.00  0.00     0.042 C 
HETATM   12  C29 UNL     1      -5.179  50.552 -23.146  1.00  0.00     0.065 C 
HETATM   13  C30 UNL     1      -6.317  50.021 -24.031  1.00  0.00     0.047 C 
ENDROOT
BRANCH   5  14
HETATM   14  O1  UNL     1      -2.160  51.153 -22.072  1.00  0.00    -0.394 OA
HETATM   15  H26 UNL     1      -1.682  51.331 -21.243  1.00  0.00     0.210 HD
ENDBRANCH   5  14
BRANCH   6  16
HETATM   16  C20 UNL     1      -3.074  48.523 -25.410  1.00  0.00     0.012 C 
BRANCH  16  17
HETATM   17  C21 UNL     1      -4.266  48.320 -26.340  1.00  0.00     0.027 C 
BRANCH  17  18
HETATM   18  C22 UNL     1      -3.969  48.556 -27.814  1.00  0.00     0.164 C 
BRANCH  18  19
HETATM   19  O2  UNL     1      -5.186  48.802 -28.508  1.00  0.00    -0.401 OA
HETATM   20  H34 UNL     1      -5.573  49.618 -28.147  1.00  0.00     0.209 HD
ENDBRANCH  18  19
ENDBRANCH  17  18
ENDBRANCH  16  17
ENDBRANCH   6  16
BRANCH  12  21
HETATM   21  O4  UNL     1      -5.763  50.693 -21.836  1.00  0.00    -0.389 OA
HETATM   22  H46 UNL     1      -6.337  49.928 -21.657  1.00  0.00     0.210 HD
ENDBRANCH  12  21
BRANCH   1  23
HETATM   23  C2  UNL     1      -1.636  48.610 -20.067  1.00  0.00    -0.061 C 
HETATM   24  C1  UNL     1      -2.066  47.652 -19.226  1.00  0.00     0.019 C 
BRANCH  23  25
HETATM   25  C3  UNL     1      -0.625  49.544 -19.558  1.00  0.00     0.007 C 
HETATM   26  C4  UNL     1      -0.836  50.698 -18.903  1.00  0.00     0.001 C 
BRANCH  26  27
HETATM   27  C5  UNL     1       0.247  51.543 -18.441  1.00  0.00     0.002 C 
HETATM   28  C6  UNL     1       0.782  51.573 -17.205  1.00  0.00    -0.084 C 
HETATM   29  C7  UNL     1       0.321  50.753 -16.026  1.00  0.00     0.043 C 
BRANCH  28  30
HETATM   30  C8  UNL     1       1.931  52.523 -16.901  1.00  0.00     0.037 C 
BRANCH  30  31
HETATM   31  C9  UNL     1       2.281  52.571 -15.409  1.00  0.00     0.031 C 
BRANCH  31  32
HETATM   32  C10 UNL     1       3.371  51.590 -15.067  1.00  0.00    -0.024 C 
HETATM   33  C11 UNL     1       3.427  50.760 -14.006  1.00  0.00    -0.091 C 
HETATM   34  C12 UNL     1       4.576  49.801 -13.841  1.00  0.00     0.042 C 
HETATM   35  C13 UNL     1       2.405  50.697 -12.905  1.00  0.00     0.042 C 
ENDBRANCH  31  32
ENDBRANCH  30  31
ENDBRANCH  28  30
ENDBRANCH  26  27
ENDBRANCH  23  25
ENDBRANCH   1  23
BRANCH   8  36
HETATM   36  C26 UNL     1      -0.537  50.780 -25.840  1.00  0.00     0.265 C 
HETATM   37  O3  UNL     1       0.154  50.721 -26.852  1.00  0.00    -0.302 OA
ENDBRANCH   8  36
TORSDOF 13
ENDMDL
MODEL 6
REMARK minimizedAffinity -7.78097773
REMARK  13 active torsions:
REMARK  status: ('A' for Active; 'I' for Inactive)
REMARK    1  A    between atoms: C2_2  and  C3_3 
REMARK    2  A    between atoms: C2_2  and  C14_14 
REMARK    3  A    between atoms: C4_4  and  C5_5 
REMARK    4  A    between atoms: C6_6  and  C8_8 
REMARK    5  A    between atoms: C8_8  and  C9_9 
REMARK    6  A    between atoms: C9_9  and  C10_10 
REMARK    7  A    between atoms: C18_18  and  O1_19 
REMARK    8  A    between atoms: C19_20  and  C20_21 
REMARK    9  A    between atoms: C20_21  and  C21_22 
REMARK   10  A    between atoms: C21_22  and  C22_23 
REMARK   11  A    between atoms: C22_23  and  O2_24 
REMARK   12  A    between atoms: C24_26  and  C26_28 
REMARK   13  A    between atoms: C29_32  and  O4_34 
ROOT
HETATM    1  C14 UNL     1      -4.131  48.439 -24.951  1.00  0.00     0.047 C 
HETATM    2  C15 UNL     1      -3.100  48.352 -23.815  1.00  0.00     0.013 C 
HETATM    3  C16 UNL     1      -3.764  48.938 -22.571  1.00  0.00     0.017 C 
HETATM    4  C17 UNL     1      -5.300  48.855 -22.779  1.00  0.00     0.024 C 
HETATM    5  C18 UNL     1      -5.329  49.202 -24.323  1.00  0.00     0.138 C 
HETATM    6  C19 UNL     1      -5.918  47.399 -22.545  1.00  0.00     0.029 C 
HETATM    7  C23 UNL     1      -7.453  47.319 -22.376  1.00  0.00    -0.066 C 
HETATM    8  C24 UNL     1      -8.214  46.270 -22.796  1.00  0.00    -0.021 C 
HETATM    9  C25 UNL     1      -9.698  46.119 -22.551  1.00  0.00     0.052 C 
HETATM   10  C27 UNL     1      -8.125  48.530 -21.745  1.00  0.00     0.038 C 
HETATM   11  C28 UNL     1      -7.554  49.873 -22.171  1.00  0.00     0.042 C 
HETATM   12  C29 UNL     1      -6.043  49.971 -21.956  1.00  0.00     0.065 C 
HETATM   13  C30 UNL     1      -5.737  49.995 -20.451  1.00  0.00     0.047 C 
ENDROOT
BRANCH   5  14
HETATM   14  O1  UNL     1      -6.539  48.812 -24.963  1.00  0.00    -0.394 OA
HETATM   15  H26 UNL     1      -6.469  49.090 -25.893  1.00  0.00     0.210 HD
ENDBRANCH   5  14
BRANCH   6  16
HETATM   16  C20 UNL     1      -5.142  46.400 -21.627  1.00  0.00     0.012 C 
BRANCH  16  17
HETATM   17  C21 UNL     1      -5.662  46.012 -20.248  1.00  0.00     0.027 C 
BRANCH  17  18
HETATM   18  C22 UNL     1      -4.728  46.358 -19.097  1.00  0.00     0.164 C 
BRANCH  18  19
HETATM   19  O2  UNL     1      -5.358  47.310 -18.247  1.00  0.00    -0.401 OA
HETATM   20  H34 UNL     1      -6.151  46.892 -17.872  1.00  0.00     0.209 HD
ENDBRANCH  18  19
ENDBRANCH  17  18
ENDBRANCH  16  17
ENDBRANCH   6  16
BRANCH  12  21
HETATM   21  O4  UNL     1      -5.664  51.278 -22.432  1.00  0.00    -0.389 OA
HETATM   22  H46 UNL     1      -4.831  51.545 -22.007  1.00  0.00     0.210 HD
ENDBRANCH  12  21
BRANCH   1  23
HETATM   23  C2  UNL     1      -3.528  48.971 -26.255  1.00  0.00    -0.061 C 
HETATM   24  C1  UNL     1      -3.791  48.451 -27.468  1.00  0.00     0.019 C 
BRANCH  23  25
HETATM   25  C3  UNL     1      -2.591  50.099 -26.199  1.00  0.00     0.007 C 
HETATM   26  C4  UNL     1      -2.861  51.368 -25.853  1.00  0.00     0.001 C 
BRANCH  26  27
HETATM   27  C5  UNL     1      -1.848  52.405 -25.830  1.00  0.00     0.002 C 
HETATM   28  C6  UNL     1      -0.517  52.241 -25.962  1.00  0.00    -0.084 C 
HETATM   29  C7  UNL     1       0.196  50.921 -26.118  1.00  0.00     0.043 C 
BRANCH  28  30
HETATM   30  C8  UNL     1       0.401  53.453 -25.924  1.00  0.00     0.037 C 
BRANCH  30  31
HETATM   31  C9  UNL     1       0.663  53.953 -24.498  1.00  0.00     0.031 C 
BRANCH  31  32
HETATM   32  C10 UNL     1       0.406  52.874 -23.480  1.00  0.00    -0.024 C 
HETATM   33  C11 UNL     1       0.705  52.895 -22.166  1.00  0.00    -0.091 C 
HETATM   34  C12 UNL     1       0.331  51.742 -21.274  1.00  0.00     0.042 C 
HETATM   35  C13 UNL     1       1.423  54.014 -21.462  1.00  0.00     0.042 C 
ENDBRANCH  31  32
ENDBRANCH  30  31
ENDBRANCH  28  30
ENDBRANCH  26  27
ENDBRANCH  23  25
ENDBRANCH   1  23
BRANCH   8  36
HETATM   36  C26 UNL     1      -7.653  45.103 -23.558  1.00  0.00     0.265 C 
HETATM   37  O3  UNL     1      -8.123  44.710 -24.620  1.00  0.00    -0.302 OA
ENDBRANCH   8  36
TORSDOF 13
ENDMDL
MODEL 7
REMARK minimizedAffinity -7.69411182
REMARK  13 active torsions:
REMARK  status: ('A' for Active; 'I' for Inactive)
REMARK    1  A    between atoms: C2_2  and  C3_3 
REMARK    2  A    between atoms: C2_2  and  C14_14 
REMARK    3  A    between atoms: C4_4  and  C5_5 
REMARK    4  A    between atoms: C6_6  and  C8_8 
REMARK    5  A    between atoms: C8_8  and  C9_9 
REMARK    6  A    between atoms: C9_9  and  C10_10 
REMARK    7  A    between atoms: C18_18  and  O1_19 
REMARK    8  A    between atoms: C19_20  and  C20_21 
REMARK    9  A    between atoms: C20_21  and  C21_22 
REMARK   10  A    between atoms: C21_22  and  C22_23 
REMARK   11  A    between atoms: C22_23  and  O2_24 
REMARK   12  A    between atoms: C24_26  and  C26_28 
REMARK   13  A    between atoms: C29_32  and  O4_34 
ROOT
HETATM    1  C14 UNL     1       0.576  51.449 -15.846  1.00  0.00     0.047 C 
HETATM    2  C15 UNL     1       0.484  49.926 -16.026  1.00  0.00     0.013 C 
HETATM    3  C16 UNL     1       0.761  49.302 -14.660  1.00  0.00     0.017 C 
HETATM    4  C17 UNL     1       0.464  50.382 -13.586  1.00  0.00     0.024 C 
HETATM    5  C18 UNL     1       1.032  51.632 -14.373  1.00  0.00     0.138 C 
HETATM    6  C19 UNL     1      -1.091  50.600 -13.283  1.00  0.00     0.029 C 
HETATM    7  C23 UNL     1      -1.440  51.377 -11.992  1.00  0.00    -0.066 C 
HETATM    8  C24 UNL     1      -2.523  52.195 -11.863  1.00  0.00    -0.021 C 
HETATM    9  C25 UNL     1      -2.945  52.882 -10.585  1.00  0.00     0.052 C 
HETATM   10  C27 UNL     1      -0.463  51.234 -10.834  1.00  0.00     0.038 C 
HETATM   11  C28 UNL     1       1.003  51.201 -11.235  1.00  0.00     0.042 C 
HETATM   12  C29 UNL     1       1.308  50.130 -12.282  1.00  0.00     0.065 C 
HETATM   13  C30 UNL     1       1.152  48.737 -11.655  1.00  0.00     0.047 C 
ENDROOT
BRANCH   5  14
HETATM   14  O1  UNL     1       0.555  52.876 -13.870  1.00  0.00    -0.394 OA
HETATM   15  H26 UNL     1       0.978  53.575 -14.399  1.00  0.00     0.210 HD
ENDBRANCH   5  14
BRANCH   6  16
HETATM   16  C20 UNL     1      -2.079  49.429 -13.588  1.00  0.00     0.012 C 
BRANCH  16  17
HETATM   17  C21 UNL     1      -2.377  48.345 -12.558  1.00  0.00     0.027 C 
BRANCH  17  18
HETATM   18  C22 UNL     1      -3.854  48.018 -12.390  1.00  0.00     0.164 C 
BRANCH  18  19
HETATM   19  O2  UNL     1      -4.584  49.223 -12.183  1.00  0.00    -0.401 OA
HETATM   20  H34 UNL     1      -4.488  49.767 -12.983  1.00  0.00     0.209 HD
ENDBRANCH  18  19
ENDBRANCH  17  18
ENDBRANCH  16  17
ENDBRANCH   6  16
BRANCH  12  21
HETATM   21  O4  UNL     1       2.716  50.252 -12.568  1.00  0.00    -0.389 OA
HETATM   22  H46 UNL     1       3.046  49.409 -12.923  1.00  0.00     0.210 HD
ENDBRANCH  12  21
BRANCH   1  23
HETATM   23  C2  UNL     1       1.390  52.126 -16.953  1.00  0.00    -0.061 C 
HETATM   24  C1  UNL     1       2.456  52.914 -16.722  1.00  0.00     0.019 C 
BRANCH  23  25
HETATM   25  C3  UNL     1       0.987  51.937 -18.351  1.00  0.00     0.007 C 
HETATM   26  C4  UNL     1       0.209  52.743 -19.093  1.00  0.00     0.001 C 
BRANCH  26  27
HETATM   27  C5  UNL     1      -0.122  52.455 -20.475  1.00  0.00     0.002 C 
HETATM   28  C6  UNL     1       0.446  52.990 -21.573  1.00  0.00    -0.084 C 
HETATM   29  C7  UNL     1       1.523  54.045 -21.582  1.00  0.00     0.043 C 
BRANCH  28  30
HETATM   30  C8  UNL     1      -0.024  52.556 -22.954  1.00  0.00     0.037 C 
BRANCH  30  31
HETATM   31  C9  UNL     1       0.692  53.304 -24.085  1.00  0.00     0.031 C 
BRANCH  31  32
HETATM   32  C10 UNL     1       0.179  52.882 -25.436  1.00  0.00    -0.024 C 
HETATM   33  C11 UNL     1       0.793  52.089 -26.338  1.00  0.00    -0.091 C 
HETATM   34  C12 UNL     1       0.112  51.724 -27.630  1.00  0.00     0.042 C 
HETATM   35  C13 UNL     1       2.170  51.506 -26.178  1.00  0.00     0.042 C 
ENDBRANCH  31  32
ENDBRANCH  30  31
ENDBRANCH  28  30
ENDBRANCH  26  27
ENDBRANCH  23  25
ENDBRANCH   1  23
BRANCH   8  36
HETATM   36  C26 UNL     1      -3.455  52.508 -12.998  1.00  0.00     0.265 C 
HETATM   37  O3  UNL     1      -4.233  53.456 -12.984  1.00  0.00    -0.302 OA
ENDBRANCH   8  36
TORSDOF 13
ENDMDL
MODEL 8
REMARK minimizedAffinity -7.53903198
REMARK  13 active torsions:
REMARK  status: ('A' for Active; 'I' for Inactive)
REMARK    1  A    between atoms: C2_2  and  C3_3 
REMARK    2  A    between atoms: C2_2  and  C14_14 
REMARK    3  A    between atoms: C4_4  and  C5_5 
REMARK    4  A    between atoms: C6_6  and  C8_8 
REMARK    5  A    between atoms: C8_8  and  C9_9 
REMARK    6  A    between atoms: C9_9  and  C10_10 
REMARK    7  A    between atoms: C18_18  and  O1_19 
REMARK    8  A    between atoms: C19_20  and  C20_21 
REMARK    9  A    between atoms: C20_21  and  C21_22 
REMARK   10  A    between atoms: C21_22  and  C22_23 
REMARK   11  A    between atoms: C22_23  and  O2_24 
REMARK   12  A    between atoms: C24_26  and  C26_28 
REMARK   13  A    between atoms: C29_32  and  O4_34 
ROOT
HETATM    1  C14 UNL     1      -7.511  46.267 -29.309  1.00  0.00     0.047 C 
HETATM    2  C15 UNL     1      -7.226  44.761 -29.205  1.00  0.00     0.013 C 
HETATM    3  C16 UNL     1      -8.325  44.048 -29.990  1.00  0.00     0.017 C 
HETATM    4  C17 UNL     1      -8.915  45.069 -30.998  1.00  0.00     0.024 C 
HETATM    5  C18 UNL     1      -8.865  46.348 -30.066  1.00  0.00     0.138 C 
HETATM    6  C19 UNL     1      -8.011  45.314 -32.294  1.00  0.00     0.029 C 
HETATM    7  C23 UNL     1      -8.693  46.021 -33.488  1.00  0.00    -0.066 C 
HETATM    8  C24 UNL     1      -8.049  46.861 -34.347  1.00  0.00    -0.021 C 
HETATM    9  C25 UNL     1      -8.664  47.482 -35.580  1.00  0.00     0.052 C 
HETATM   10  C27 UNL     1     -10.186  45.780 -33.651  1.00  0.00     0.038 C 
HETATM   11  C28 UNL     1     -10.971  45.728 -32.349  1.00  0.00     0.042 C 
HETATM   12  C29 UNL     1     -10.406  44.714 -31.355  1.00  0.00     0.065 C 
HETATM   13  C30 UNL     1     -10.636  43.290 -31.884  1.00  0.00     0.047 C 
ENDROOT
BRANCH   5  14
HETATM   14  O1  UNL     1      -8.943  47.572 -30.788  1.00  0.00    -0.394 OA
HETATM   15  H26 UNL     1      -8.930  48.289 -30.130  1.00  0.00     0.210 HD
ENDBRANCH   5  14
BRANCH   6  16
HETATM   16  C20 UNL     1      -7.012  44.193 -32.726  1.00  0.00     0.012 C 
BRANCH  16  17
HETATM   17  C21 UNL     1      -5.524  44.280 -32.403  1.00  0.00     0.027 C 
BRANCH  17  18
HETATM   18  C22 UNL     1      -4.773  42.960 -32.512  1.00  0.00     0.164 C 
BRANCH  18  19
HETATM   19  O2  UNL     1      -5.615  41.900 -32.073  1.00  0.00    -0.401 OA
HETATM   20  H34 UNL     1      -6.378  41.860 -32.673  1.00  0.00     0.209 HD
ENDBRANCH  18  19
ENDBRANCH  17  18
ENDBRANCH  16  17
ENDBRANCH   6  16
BRANCH  12  21
HETATM   21  O4  UNL     1     -11.237  44.812 -30.181  1.00  0.00    -0.389 OA
HETATM   22  H46 UNL     1     -11.179  43.982 -29.677  1.00  0.00     0.210 HD
ENDBRANCH  12  21
BRANCH   1  23
HETATM   23  C2  UNL     1      -7.383  46.986 -27.962  1.00  0.00    -0.061 C 
HETATM   24  C1  UNL     1      -8.427  47.256 -27.157  1.00  0.00     0.019 C 
BRANCH  23  25
HETATM   25  C3  UNL     1      -6.059  47.433 -27.517  1.00  0.00     0.007 C 
HETATM   26  C4  UNL     1      -5.155  48.136 -28.220  1.00  0.00     0.001 C 
BRANCH  26  27
HETATM   27  C5  UNL     1      -3.872  48.528 -27.672  1.00  0.00     0.002 C 
HETATM   28  C6  UNL     1      -3.564  48.702 -26.372  1.00  0.00    -0.084 C 
HETATM   29  C7  UNL     1      -4.521  48.564 -25.215  1.00  0.00     0.043 C 
BRANCH  28  30
HETATM   30  C8  UNL     1      -2.151  49.106 -25.978  1.00  0.00     0.037 C 
BRANCH  30  31
HETATM   31  C9  UNL     1      -1.810  50.544 -26.389  1.00  0.00     0.031 C 
BRANCH  31  32
HETATM   32  C10 UNL     1      -0.341  50.701 -26.677  1.00  0.00    -0.024 C 
HETATM   33  C11 UNL     1       0.581  51.338 -25.928  1.00  0.00    -0.091 C 
HETATM   34  C12 UNL     1       2.028  51.358 -26.343  1.00  0.00     0.042 C 
HETATM   35  C13 UNL     1       0.293  52.078 -24.651  1.00  0.00     0.042 C 
ENDBRANCH  31  32
ENDBRANCH  30  31
ENDBRANCH  28  30
ENDBRANCH  26  27
ENDBRANCH  23  25
ENDBRANCH   1  23
BRANCH   8  36
HETATM   36  C26 UNL     1      -6.614  47.269 -34.174  1.00  0.00     0.265 C 
HETATM   37  O3  UNL     1      -6.226  47.975 -33.249  1.00  0.00    -0.302 OA
ENDBRANCH   8  36
TORSDOF 13
ENDMDL
MODEL 9
REMARK minimizedAffinity -7.49279356
REMARK  13 active torsions:
REMARK  status: ('A' for Active; 'I' for Inactive)
REMARK    1  A    between atoms: C2_2  and  C3_3 
REMARK    2  A    between atoms: C2_2  and  C14_14 
REMARK    3  A    between atoms: C4_4  and  C5_5 
REMARK    4  A    between atoms: C6_6  and  C8_8 
REMARK    5  A    between atoms: C8_8  and  C9_9 
REMARK    6  A    between atoms: C9_9  and  C10_10 
REMARK    7  A    between atoms: C18_18  and  O1_19 
REMARK    8  A    between atoms: C19_20  and  C20_21 
REMARK    9  A    between atoms: C20_21  and  C21_22 
REMARK   10  A    between atoms: C21_22  and  C22_23 
REMARK   11  A    between atoms: C22_23  and  O2_24 
REMARK   12  A    between atoms: C24_26  and  C26_28 
REMARK   13  A    between atoms: C29_32  and  O4_34 
ROOT
HETATM    1  C14 UNL     1       0.567  51.555 -15.697  1.00  0.00     0.047 C 
HETATM    2  C15 UNL     1       0.509  50.028 -15.857  1.00  0.00     0.013 C 
HETATM    3  C16 UNL     1       0.913  49.427 -14.512  1.00  0.00     0.017 C 
HETATM    4  C17 UNL     1       0.670  50.509 -13.427  1.00  0.00     0.024 C 
HETATM    5  C18 UNL     1       1.134  51.768 -14.267  1.00  0.00     0.138 C 
HETATM    6  C19 UNL     1      -0.862  50.683 -13.002  1.00  0.00     0.029 C 
HETATM    7  C23 UNL     1      -1.131  51.462 -11.693  1.00  0.00    -0.066 C 
HETATM    8  C24 UNL     1      -2.224  52.248 -11.484  1.00  0.00    -0.021 C 
HETATM    9  C25 UNL     1      -2.564  52.935 -10.182  1.00  0.00     0.052 C 
HETATM   10  C27 UNL     1      -0.060  51.362 -10.616  1.00  0.00     0.038 C 
HETATM   11  C28 UNL     1       1.369  51.369 -11.134  1.00  0.00     0.042 C 
HETATM   12  C29 UNL     1       1.624  50.297 -12.194  1.00  0.00     0.065 C 
HETATM   13  C30 UNL     1       1.562  48.906 -11.544  1.00  0.00     0.047 C 
ENDROOT
BRANCH   5  14
HETATM   14  O1  UNL     1       0.660  53.001 -13.738  1.00  0.00    -0.394 OA
HETATM   15  H26 UNL     1       1.017  53.708 -14.304  1.00  0.00     0.210 HD
ENDBRANCH   5  14
BRANCH   6  16
HETATM   16  C20 UNL     1      -1.834  49.479 -13.217  1.00  0.00     0.012 C 
BRANCH  16  17
HETATM   17  C21 UNL     1      -2.701  49.365 -14.467  1.00  0.00     0.027 C 
BRANCH  17  18
HETATM   18  C22 UNL     1      -2.987  50.687 -15.164  1.00  0.00     0.164 C 
BRANCH  18  19
HETATM   19  O2  UNL     1      -2.957  50.494 -16.574  1.00  0.00    -0.401 OA
HETATM   20  H34 UNL     1      -3.671  49.875 -16.803  1.00  0.00     0.209 HD
ENDBRANCH  18  19
ENDBRANCH  17  18
ENDBRANCH  16  17
ENDBRANCH   6  16
BRANCH  12  21
HETATM   21  O4  UNL     1       2.999  50.459 -12.593  1.00  0.00    -0.389 OA
HETATM   22  H46 UNL     1       3.325  49.622 -12.966  1.00  0.00     0.210 HD
ENDBRANCH  12  21
BRANCH   1  23
HETATM   23  C2  UNL     1       1.268  52.245 -16.871  1.00  0.00    -0.061 C 
HETATM   24  C1  UNL     1       2.502  52.777 -16.798  1.00  0.00     0.019 C 
BRANCH  23  25
HETATM   25  C3  UNL     1       0.562  52.364 -18.152  1.00  0.00     0.007 C 
HETATM   26  C4  UNL     1       1.086  52.691 -19.346  1.00  0.00     0.001 C 
BRANCH  26  27
HETATM   27  C5  UNL     1       0.288  52.774 -20.553  1.00  0.00     0.002 C 
HETATM   28  C6  UNL     1      -0.262  51.750 -21.234  1.00  0.00    -0.084 C 
HETATM   29  C7  UNL     1      -0.114  50.288 -20.896  1.00  0.00     0.043 C 
BRANCH  28  30
HETATM   30  C8  UNL     1      -1.085  52.028 -22.483  1.00  0.00     0.037 C 
BRANCH  30  31
HETATM   31  C9  UNL     1      -1.516  50.746 -23.206  1.00  0.00     0.031 C 
BRANCH  31  32
HETATM   32  C10 UNL     1      -1.291  50.848 -24.691  1.00  0.00    -0.024 C 
HETATM   33  C11 UNL     1      -0.276  51.464 -25.328  1.00  0.00    -0.091 C 
HETATM   34  C12 UNL     1      -0.176  51.428 -26.830  1.00  0.00     0.042 C 
HETATM   35  C13 UNL     1       0.827  52.234 -24.654  1.00  0.00     0.042 C 
ENDBRANCH  31  32
ENDBRANCH  30  31
ENDBRANCH  28  30
ENDBRANCH  26  27
ENDBRANCH  23  25
ENDBRANCH   1  23
BRANCH   8  36
HETATM   36  C26 UNL     1      -3.253  52.520 -12.543  1.00  0.00     0.265 C 
HETATM   37  O3  UNL     1      -4.156  53.339 -12.405  1.00  0.00    -0.302 OA
ENDBRANCH   8  36
TORSDOF 13
ENDMDL
