MODEL 1
REMARK minimizedAffinity -7.25633049
REMARK CNNscore 0.524503887
REMARK CNNaffinity 6.59866953
REMARK  7 active torsions:
REMARK  status: ('A' for Active; 'I' for Inactive)
REMARK    1  A    between atoms: C2_2  and  C3_3 
REMARK    2  A    between atoms: C2_2  and  C9_11 
REMARK    3  A    between atoms: C3_3  and  C4_4 
REMARK    4  A    between atoms: C5_5  and  C6_6 
REMARK    5  A    between atoms: C6_6  and  O1_9 
REMARK    6  A    between atoms: O1_9  and  O2_10 
REMARK    7  A    between atoms: C10_12  and  O3_13 
ROOT
HETATM    1  C9  UNL     1      -8.685  45.894 -34.339  1.00  0.00     0.028 C 
HETATM    2  C10 UNL     1      -8.993  44.360 -34.317  1.00  0.00     0.124 C 
HETATM    3  C11 UNL     1      -9.115  43.931 -32.840  1.00  0.00     0.046 C 
HETATM    4  C12 UNL     1      -8.499  45.099 -32.045  1.00  0.00    -0.010 C 
HETATM    5  C13 UNL     1      -6.949  44.899 -32.074  1.00  0.00     0.021 C 
HETATM    6  C14 UNL     1      -8.870  45.228 -30.567  1.00  0.00    -0.070 C 
HETATM    7  C15 UNL     1      -9.065  44.145 -29.787  1.00  0.00    -0.022 C 
HETATM    8  C16 UNL     1      -9.334  44.194 -28.308  1.00  0.00     0.034 C 
HETATM    9  C17 UNL     1      -9.628  45.622 -27.821  1.00  0.00     0.013 C 
HETATM   10  C18 UNL     1      -9.932  45.776 -26.297  1.00  0.00     0.018 C 
HETATM   11  C19 UNL     1     -11.087  44.837 -25.886  1.00  0.00     0.023 C 
HETATM   12  C20 UNL     1      -8.741  45.508 -25.368  1.00  0.00     0.023 C 
HETATM   13  C21 UNL     1     -10.404  47.221 -26.049  1.00  0.00     0.135 C 
HETATM   14  O4  UNL     1     -10.946  47.560 -24.996  1.00  0.00    -0.297 OA
HETATM   15  C22 UNL     1     -10.199  48.229 -27.162  1.00  0.00     0.080 C 
HETATM   16  C23 UNL     1      -8.816  48.049 -27.770  1.00  0.00     0.017 C 
HETATM   17  C24 UNL     1      -8.599  46.654 -28.430  1.00  0.00    -0.031 C 
HETATM   18  C25 UNL     1      -7.113  46.266 -28.206  1.00  0.00     0.016 C 
HETATM   19  C26 UNL     1      -8.906  46.659 -29.986  1.00  0.00     0.024 C 
HETATM   20  C27 UNL     1      -8.067  47.649 -30.830  1.00  0.00     0.010 C 
HETATM   21  C28 UNL     1      -8.318  47.604 -32.357  1.00  0.00     0.011 C 
HETATM   22  C29 UNL     1      -9.025  46.328 -32.866  1.00  0.00    -0.026 C 
HETATM   23  C30 UNL     1     -10.572  46.526 -32.763  1.00  0.00     0.016 C 
ENDROOT
BRANCH   1  24
HETATM   24  C2  UNL     1      -9.390  46.643 -35.522  1.00  0.00    -0.008 C 
HETATM   25  C1  UNL     1      -8.369  47.332 -36.441  1.00  0.00     0.011 C 
BRANCH  24  26
HETATM   26  C3  UNL     1     -10.278  45.679 -36.353  1.00  0.00     0.031 C 
BRANCH  26  27
HETATM   27  C4  UNL     1     -11.582  46.283 -36.795  1.00  0.00    -0.027 C 
HETATM   28  C5  UNL     1     -11.690  47.436 -37.478  1.00  0.00     0.009 C 
BRANCH  28  29
HETATM   29  C6  UNL     1     -12.974  48.095 -37.954  1.00  0.00     0.106 C 
HETATM   30  C7  UNL     1     -14.100  47.713 -36.983  1.00  0.00     0.053 C 
HETATM   31  C8  UNL     1     -13.350  47.613 -39.363  1.00  0.00     0.053 C 
BRANCH  29  32
HETATM   32  O1  UNL     1     -12.903  49.536 -37.909  1.00  0.00    -0.229 OA
BRANCH  32  33
HETATM   33  O2  UNL     1     -11.496  49.925 -37.814  1.00  0.00    -0.249 OA
HETATM   34  H15 UNL     1     -11.478  50.456 -38.629  1.00  0.00     0.253 HD
ENDBRANCH  32  33
ENDBRANCH  29  32
ENDBRANCH  28  29
ENDBRANCH  26  27
ENDBRANCH  24  26
ENDBRANCH   1  24
BRANCH   2  35
HETATM   35  O3  UNL     1      -7.924  43.622 -34.902  1.00  0.00    -0.395 OA
HETATM   36  H18 UNL     1      -7.817  43.904 -35.824  1.00  0.00     0.210 HD
ENDBRANCH   2  35
TORSDOF 7
ENDMDL
MODEL 2
REMARK minimizedAffinity -8.19479847
REMARK CNNscore 0.457922697
REMARK CNNaffinity 6.68237638
REMARK  7 active torsions:
REMARK  status: ('A' for Active; 'I' for Inactive)
REMARK    1  A    between atoms: C2_2  and  C3_3 
REMARK    2  A    between atoms: C2_2  and  C9_11 
REMARK    3  A    between atoms: C3_3  and  C4_4 
REMARK    4  A    between atoms: C5_5  and  C6_6 
REMARK    5  A    between atoms: C6_6  and  O1_9 
REMARK    6  A    between atoms: O1_9  and  O2_10 
REMARK    7  A    between atoms: C10_12  and  O3_13 
ROOT
HETATM    1  C9  UNL     1      -5.892  48.821 -23.090  1.00  0.00     0.028 C 
HETATM    2  C10 UNL     1      -6.738  49.211 -21.833  1.00  0.00     0.124 C 
HETATM    3  C11 UNL     1      -5.798  49.930 -20.844  1.00  0.00     0.046 C 
HETATM    4  C12 UNL     1      -4.378  49.601 -21.349  1.00  0.00    -0.010 C 
HETATM    5  C13 UNL     1      -4.021  48.180 -20.805  1.00  0.00     0.021 C 
HETATM    6  C14 UNL     1      -3.235  50.513 -20.903  1.00  0.00    -0.070 C 
HETATM    7  C15 UNL     1      -3.208  51.067 -19.673  1.00  0.00    -0.022 C 
HETATM    8  C16 UNL     1      -2.072  51.891 -19.132  1.00  0.00     0.034 C 
HETATM    9  C17 UNL     1      -1.054  52.260 -20.223  1.00  0.00     0.013 C 
HETATM   10  C18 UNL     1       0.160  53.127 -19.762  1.00  0.00     0.018 C 
HETATM   11  C19 UNL     1      -0.337  54.408 -19.057  1.00  0.00     0.023 C 
HETATM   12  C20 UNL     1       1.145  52.416 -18.826  1.00  0.00     0.023 C 
HETATM   13  C21 UNL     1       0.937  53.565 -21.017  1.00  0.00     0.135 C 
HETATM   14  O4  UNL     1       1.790  54.454 -20.981  1.00  0.00    -0.297 OA
HETATM   15  C22 UNL     1       0.607  52.875 -22.326  1.00  0.00     0.080 C 
HETATM   16  C23 UNL     1       0.454  51.379 -22.094  1.00  0.00     0.017 C 
HETATM   17  C24 UNL     1      -0.710  51.012 -21.127  1.00  0.00    -0.031 C 
HETATM   18  C25 UNL     1      -0.263  49.760 -20.324  1.00  0.00     0.016 C 
HETATM   19  C26 UNL     1      -2.061  50.682 -21.891  1.00  0.00     0.024 C 
HETATM   20  C27 UNL     1      -1.986  49.518 -22.909  1.00  0.00     0.010 C 
HETATM   21  C28 UNL     1      -3.320  49.152 -23.604  1.00  0.00     0.011 C 
HETATM   22  C29 UNL     1      -4.589  49.683 -22.902  1.00  0.00    -0.026 C 
HETATM   23  C30 UNL     1      -4.888  51.131 -23.411  1.00  0.00     0.016 C 
ENDROOT
BRANCH   1  24
HETATM   24  C2  UNL     1      -6.691  48.956 -24.432  1.00  0.00    -0.008 C 
HETATM   25  C1  UNL     1      -6.457  47.748 -25.352  1.00  0.00     0.011 C 
BRANCH  24  26
HETATM   26  C3  UNL     1      -8.211  49.129 -24.170  1.00  0.00     0.031 C 
BRANCH  26  27
HETATM   27  C4  UNL     1      -9.079  48.240 -25.017  1.00  0.00    -0.027 C 
HETATM   28  C5  UNL     1      -9.915  48.685 -25.973  1.00  0.00     0.009 C 
BRANCH  28  29
HETATM   29  C6  UNL     1     -10.812  47.839 -26.862  1.00  0.00     0.106 C 
HETATM   30  C7  UNL     1     -10.909  46.434 -26.252  1.00  0.00     0.053 C 
HETATM   31  C8  UNL     1     -10.233  47.726 -28.279  1.00  0.00     0.053 C 
BRANCH  29  32
HETATM   32  O1  UNL     1     -12.168  48.333 -26.902  1.00  0.00    -0.229 OA
BRANCH  32  33
HETATM   33  O2  UNL     1     -12.928  47.681 -25.835  1.00  0.00    -0.249 OA
HETATM   34  H15 UNL     1     -13.182  48.499 -25.372  1.00  0.00     0.253 HD
ENDBRANCH  32  33
ENDBRANCH  29  32
ENDBRANCH  28  29
ENDBRANCH  26  27
ENDBRANCH  24  26
ENDBRANCH   1  24
BRANCH   2  35
HETATM   35  O3  UNL     1      -7.249  48.048 -21.188  1.00  0.00    -0.395 OA
HETATM   36  H18 UNL     1      -7.819  47.570 -21.811  1.00  0.00     0.210 HD
ENDBRANCH   2  35
TORSDOF 7
ENDMDL
MODEL 3
REMARK minimizedAffinity -7.50469732
REMARK CNNscore 0.416620761
REMARK CNNaffinity 5.50526381
REMARK  7 active torsions:
REMARK  status: ('A' for Active; 'I' for Inactive)
REMARK    1  A    between atoms: C2_2  and  C3_3 
REMARK    2  A    between atoms: C2_2  and  C9_11 
REMARK    3  A    between atoms: C3_3  and  C4_4 
REMARK    4  A    between atoms: C5_5  and  C6_6 
REMARK    5  A    between atoms: C6_6  and  O1_9 
REMARK    6  A    between atoms: O1_9  and  O2_10 
REMARK    7  A    between atoms: C10_12  and  O3_13 
ROOT
HETATM    1  C9  UNL     1       3.263  67.854 -38.104  1.00  0.00     0.028 C 
HETATM    2  C10 UNL     1       2.891  68.800 -36.915  1.00  0.00     0.124 C 
HETATM    3  C11 UNL     1       1.666  69.631 -37.347  1.00  0.00     0.046 C 
HETATM    4  C12 UNL     1       1.594  69.451 -38.876  1.00  0.00    -0.010 C 
HETATM    5  C13 UNL     1       2.616  70.455 -39.500  1.00  0.00     0.021 C 
HETATM    6  C14 UNL     1       0.260  69.739 -39.565  1.00  0.00    -0.070 C 
HETATM    7  C15 UNL     1      -0.558  70.725 -39.143  1.00  0.00    -0.022 C 
HETATM    8  C16 UNL     1      -1.834  71.129 -39.829  1.00  0.00     0.034 C 
HETATM    9  C17 UNL     1      -2.249  70.125 -40.917  1.00  0.00     0.013 C 
HETATM   10  C18 UNL     1      -3.571  70.451 -41.681  1.00  0.00     0.018 C 
HETATM   11  C19 UNL     1      -4.731  70.646 -40.680  1.00  0.00     0.023 C 
HETATM   12  C20 UNL     1      -3.507  71.686 -42.588  1.00  0.00     0.023 C 
HETATM   13  C21 UNL     1      -3.923  69.239 -42.562  1.00  0.00     0.135 C 
HETATM   14  O4  UNL     1      -5.032  69.110 -43.084  1.00  0.00    -0.297 OA
HETATM   15  C22 UNL     1      -2.858  68.180 -42.762  1.00  0.00     0.080 C 
HETATM   16  C23 UNL     1      -1.511  68.845 -43.007  1.00  0.00     0.017 C 
HETATM   17  C24 UNL     1      -1.015  69.713 -41.812  1.00  0.00    -0.031 C 
HETATM   18  C25 UNL     1      -0.243  70.920 -42.410  1.00  0.00     0.016 C 
HETATM   19  C26 UNL     1      -0.055  68.915 -40.833  1.00  0.00     0.024 C 
HETATM   20  C27 UNL     1       1.225  68.333 -41.480  1.00  0.00     0.010 C 
HETATM   21  C28 UNL     1       2.195  67.614 -40.511  1.00  0.00     0.011 C 
HETATM   22  C29 UNL     1       1.983  67.937 -39.015  1.00  0.00    -0.026 C 
HETATM   23  C30 UNL     1       0.907  66.965 -38.430  1.00  0.00     0.016 C 
ENDROOT
BRANCH   1  24
HETATM   24  C2  UNL     1       3.757  66.442 -37.633  1.00  0.00    -0.008 C 
HETATM   25  C1  UNL     1       5.290  66.351 -37.636  1.00  0.00     0.011 C 
BRANCH  24  26
HETATM   26  C3  UNL     1       3.213  66.095 -36.222  1.00  0.00     0.031 C 
BRANCH  26  27
HETATM   27  C4  UNL     1       4.217  65.413 -35.334  1.00  0.00    -0.027 C 
HETATM   28  C5  UNL     1       3.902  64.505 -34.393  1.00  0.00     0.009 C 
BRANCH  28  29
HETATM   29  C6  UNL     1       4.869  63.780 -33.470  1.00  0.00     0.106 C 
HETATM   30  C7  UNL     1       5.517  62.632 -34.255  1.00  0.00     0.053 C 
HETATM   31  C8  UNL     1       4.134  63.197 -32.254  1.00  0.00     0.053 C 
BRANCH  29  32
HETATM   32  O1  UNL     1       5.963  64.623 -33.050  1.00  0.00    -0.229 OA
BRANCH  32  33
HETATM   33  O2  UNL     1       5.528  65.402 -31.892  1.00  0.00    -0.249 OA
HETATM   34  H15 UNL     1       6.212  65.075 -31.281  1.00  0.00     0.253 HD
ENDBRANCH  32  33
ENDBRANCH  29  32
ENDBRANCH  28  29
ENDBRANCH  26  27
ENDBRANCH  24  26
ENDBRANCH   1  24
BRANCH   2  35
HETATM   35  O3  UNL     1       3.958  69.701 -36.634  1.00  0.00    -0.395 OA
HETATM   36  H18 UNL     1       4.745  69.188 -36.390  1.00  0.00     0.210 HD
ENDBRANCH   2  35
TORSDOF 7
ENDMDL
MODEL 4
REMARK minimizedAffinity -7.93613338
REMARK CNNscore 0.352213323
REMARK CNNaffinity 5.68281746
REMARK  7 active torsions:
REMARK  status: ('A' for Active; 'I' for Inactive)
REMARK    1  A    between atoms: C2_2  and  C3_3 
REMARK    2  A    between atoms: C2_2  and  C9_11 
REMARK    3  A    between atoms: C3_3  and  C4_4 
REMARK    4  A    between atoms: C5_5  and  C6_6 
REMARK    5  A    between atoms: C6_6  and  O1_9 
REMARK    6  A    between atoms: O1_9  and  O2_10 
REMARK    7  A    between atoms: C10_12  and  O3_13 
ROOT
HETATM    1  C9  UNL     1       6.240  66.866 -36.359  1.00  0.00     0.028 C 
HETATM    2  C10 UNL     1       5.593  67.508 -35.088  1.00  0.00     0.124 C 
HETATM    3  C11 UNL     1       4.369  68.325 -35.550  1.00  0.00     0.046 C 
HETATM    4  C12 UNL     1       4.552  68.470 -37.074  1.00  0.00    -0.010 C 
HETATM    5  C13 UNL     1       5.548  69.653 -37.301  1.00  0.00     0.021 C 
HETATM    6  C14 UNL     1       3.318  68.804 -37.911  1.00  0.00    -0.070 C 
HETATM    7  C15 UNL     1       2.346  69.618 -37.450  1.00  0.00    -0.022 C 
HETATM    8  C16 UNL     1       1.155  70.069 -38.251  1.00  0.00     0.034 C 
HETATM    9  C17 UNL     1       1.020  69.292 -39.571  1.00  0.00     0.013 C 
HETATM   10  C18 UNL     1      -0.196  69.681 -40.472  1.00  0.00     0.018 C 
HETATM   11  C19 UNL     1      -1.509  69.576 -39.667  1.00  0.00     0.023 C 
HETATM   12  C20 UNL     1      -0.122  71.082 -41.090  1.00  0.00     0.023 C 
HETATM   13  C21 UNL     1      -0.280  68.662 -41.623  1.00  0.00     0.135 C 
HETATM   14  O4  UNL     1      -1.276  68.570 -42.342  1.00  0.00    -0.297 OA
HETATM   15  C22 UNL     1       0.908  67.747 -41.842  1.00  0.00     0.080 C 
HETATM   16  C23 UNL     1       2.200  68.541 -41.715  1.00  0.00     0.017 C 
HETATM   17  C24 UNL     1       2.413  69.167 -40.304  1.00  0.00    -0.031 C 
HETATM   18  C25 UNL     1       3.139  70.525 -40.509  1.00  0.00     0.016 C 
HETATM   19  C26 UNL     1       3.289  68.249 -39.352  1.00  0.00     0.024 C 
HETATM   20  C27 UNL     1       4.707  67.908 -39.872  1.00  0.00     0.010 C 
HETATM   21  C28 UNL     1       5.586  67.069 -38.912  1.00  0.00     0.011 C 
HETATM   22  C29 UNL     1       5.113  67.051 -37.442  1.00  0.00    -0.026 C 
HETATM   23  C30 UNL     1       4.068  65.904 -37.255  1.00  0.00     0.016 C 
ENDROOT
BRANCH   1  24
HETATM   24  C2  UNL     1       6.799  65.424 -36.099  1.00  0.00    -0.008 C 
HETATM   25  C1  UNL     1       8.289  65.324 -36.460  1.00  0.00     0.011 C 
BRANCH  24  26
HETATM   26  C3  UNL     1       6.586  64.992 -34.624  1.00  0.00     0.031 C 
BRANCH  26  27
HETATM   27  C4  UNL     1       7.390  63.786 -34.222  1.00  0.00    -0.027 C 
HETATM   28  C5  UNL     1       8.732  63.760 -34.150  1.00  0.00     0.009 C 
BRANCH  28  29
HETATM   29  C6  UNL     1       9.599  62.577 -33.749  1.00  0.00     0.106 C 
HETATM   30  C7  UNL     1      10.966  62.728 -34.428  1.00  0.00     0.053 C 
HETATM   31  C8  UNL     1       8.964  61.254 -34.200  1.00  0.00     0.053 C 
BRANCH  29  32
HETATM   32  O1  UNL     1       9.876  62.555 -32.332  1.00  0.00    -0.229 OA
BRANCH  32  33
HETATM   33  O2  UNL     1      10.471  63.837 -31.958  1.00  0.00    -0.249 OA
HETATM   34  H15 UNL     1       9.791  64.083 -31.306  1.00  0.00     0.253 HD
ENDBRANCH  32  33
ENDBRANCH  29  32
ENDBRANCH  28  29
ENDBRANCH  26  27
ENDBRANCH  24  26
ENDBRANCH   1  24
BRANCH   2  35
HETATM   35  O3  UNL     1       6.504  68.402 -34.454  1.00  0.00    -0.395 OA
HETATM   36  H18 UNL     1       7.293  67.905 -34.185  1.00  0.00     0.210 HD
ENDBRANCH   2  35
TORSDOF 7
ENDMDL
MODEL 5
REMARK minimizedAffinity -8.38400364
REMARK CNNscore 0.343167901
REMARK CNNaffinity 6.5626359
REMARK  7 active torsions:
REMARK  status: ('A' for Active; 'I' for Inactive)
REMARK    1  A    between atoms: C2_2  and  C3_3 
REMARK    2  A    between atoms: C2_2  and  C9_11 
REMARK    3  A    between atoms: C3_3  and  C4_4 
REMARK    4  A    between atoms: C5_5  and  C6_6 
REMARK    5  A    between atoms: C6_6  and  O1_9 
REMARK    6  A    between atoms: O1_9  and  O2_10 
REMARK    7  A    between atoms: C10_12  and  O3_13 
ROOT
HETATM    1  C9  UNL     1      -1.504  51.115 -23.060  1.00  0.00     0.028 C 
HETATM    2  C10 UNL     1      -2.847  51.570 -23.721  1.00  0.00     0.124 C 
HETATM    3  C11 UNL     1      -3.977  50.707 -23.122  1.00  0.00     0.046 C 
HETATM    4  C12 UNL     1      -3.247  49.531 -22.443  1.00  0.00    -0.010 C 
HETATM    5  C13 UNL     1      -2.919  48.493 -23.564  1.00  0.00     0.021 C 
HETATM    6  C14 UNL     1      -4.003  48.750 -21.367  1.00  0.00    -0.070 C 
HETATM    7  C15 UNL     1      -5.331  48.527 -21.453  1.00  0.00    -0.022 C 
HETATM    8  C16 UNL     1      -6.122  47.687 -20.487  1.00  0.00     0.034 C 
HETATM    9  C17 UNL     1      -5.305  47.322 -19.237  1.00  0.00     0.013 C 
HETATM   10  C18 UNL     1      -6.044  46.457 -18.166  1.00  0.00     0.018 C 
HETATM   11  C19 UNL     1      -7.363  47.142 -17.747  1.00  0.00     0.023 C 
HETATM   12  C20 UNL     1      -6.365  45.022 -18.601  1.00  0.00     0.023 C 
HETATM   13  C21 UNL     1      -5.148  46.381 -16.916  1.00  0.00     0.135 C 
HETATM   14  O4  UNL     1      -5.573  45.978 -15.832  1.00  0.00    -0.297 OA
HETATM   15  C22 UNL     1      -3.709  46.838 -17.051  1.00  0.00     0.080 C 
HETATM   16  C23 UNL     1      -3.124  46.314 -18.355  1.00  0.00     0.017 C 
HETATM   17  C24 UNL     1      -3.850  46.848 -19.626  1.00  0.00    -0.031 C 
HETATM   18  C25 UNL     1      -3.821  45.711 -20.683  1.00  0.00     0.016 C 
HETATM   19  C26 UNL     1      -3.154  48.138 -20.232  1.00  0.00     0.024 C 
HETATM   20  C27 UNL     1      -1.671  47.967 -20.644  1.00  0.00     0.010 C 
HETATM   21  C28 UNL     1      -1.013  49.206 -21.299  1.00  0.00     0.011 C 
HETATM   22  C29 UNL     1      -2.002  50.265 -21.833  1.00  0.00    -0.026 C 
HETATM   23  C30 UNL     1      -2.369  51.251 -20.676  1.00  0.00     0.016 C 
ENDROOT
BRANCH   1  24
HETATM   24  C2  UNL     1      -0.518  52.305 -22.795  1.00  0.00    -0.008 C 
HETATM   25  C1  UNL     1       0.089  52.232 -21.386  1.00  0.00     0.011 C 
BRANCH  24  26
HETATM   26  C3  UNL     1       0.617  52.345 -23.854  1.00  0.00     0.031 C 
BRANCH  26  27
HETATM   27  C4  UNL     1       0.321  53.236 -25.029  1.00  0.00    -0.027 C 
HETATM   28  C5  UNL     1      -0.210  52.809 -26.188  1.00  0.00     0.009 C 
BRANCH  28  29
HETATM   29  C6  UNL     1      -0.533  53.657 -27.407  1.00  0.00     0.106 C 
HETATM   30  C7  UNL     1       0.212  53.072 -28.614  1.00  0.00     0.053 C 
HETATM   31  C8  UNL     1      -0.081  55.110 -27.201  1.00  0.00     0.053 C 
BRANCH  29  32
HETATM   32  O1  UNL     1      -1.933  53.603 -27.759  1.00  0.00    -0.229 OA
BRANCH  32  33
HETATM   33  O2  UNL     1      -2.329  52.199 -27.858  1.00  0.00    -0.249 OA
HETATM   34  H15 UNL     1      -3.023  52.236 -27.177  1.00  0.00     0.253 HD
ENDBRANCH  32  33
ENDBRANCH  29  32
ENDBRANCH  28  29
ENDBRANCH  26  27
ENDBRANCH  24  26
ENDBRANCH   1  24
BRANCH   2  35
HETATM   35  O3  UNL     1      -2.820  51.344 -25.128  1.00  0.00    -0.395 OA
HETATM   36  H18 UNL     1      -2.093  51.859 -25.513  1.00  0.00     0.210 HD
ENDBRANCH   2  35
TORSDOF 7
ENDMDL
MODEL 6
REMARK minimizedAffinity -8.90124321
REMARK CNNscore 0.334362
REMARK CNNaffinity 5.92376757
REMARK  7 active torsions:
REMARK  status: ('A' for Active; 'I' for Inactive)
REMARK    1  A    between atoms: C2_2  and  C3_3 
REMARK    2  A    between atoms: C2_2  and  C9_11 
REMARK    3  A    between atoms: C3_3  and  C4_4 
REMARK    4  A    between atoms: C5_5  and  C6_6 
REMARK    5  A    between atoms: C6_6  and  O1_9 
REMARK    6  A    between atoms: O1_9  and  O2_10 
REMARK    7  A    between atoms: C10_12  and  O3_13 
ROOT
HETATM    1  C9  UNL     1       6.609  63.519 -34.170  1.00  0.00     0.028 C 
HETATM    2  C10 UNL     1       5.291  62.837 -33.674  1.00  0.00     0.124 C 
HETATM    3  C11 UNL     1       4.107  63.596 -34.307  1.00  0.00     0.046 C 
HETATM    4  C12 UNL     1       4.722  64.914 -34.821  1.00  0.00    -0.010 C 
HETATM    5  C13 UNL     1       4.812  65.880 -33.596  1.00  0.00     0.021 C 
HETATM    6  C14 UNL     1       3.957  65.683 -35.898  1.00  0.00    -0.070 C 
HETATM    7  C15 UNL     1       2.608  65.724 -35.919  1.00  0.00    -0.022 C 
HETATM    8  C16 UNL     1       1.792  66.538 -36.885  1.00  0.00     0.034 C 
HETATM    9  C17 UNL     1       2.651  67.117 -38.022  1.00  0.00     0.013 C 
HETATM   10  C18 UNL     1       1.891  67.971 -39.086  1.00  0.00     0.018 C 
HETATM   11  C19 UNL     1       0.717  67.162 -39.679  1.00  0.00     0.023 C 
HETATM   12  C20 UNL     1       1.342  69.308 -38.572  1.00  0.00     0.023 C 
HETATM   13  C21 UNL     1       2.867  68.276 -40.237  1.00  0.00     0.135 C 
HETATM   14  O4  UNL     1       2.482  68.716 -41.322  1.00  0.00    -0.297 OA
HETATM   15  C22 UNL     1       4.339  67.999 -40.004  1.00  0.00     0.080 C 
HETATM   16  C23 UNL     1       4.738  68.474 -38.615  1.00  0.00     0.017 C 
HETATM   17  C24 UNL     1       3.991  67.739 -37.463  1.00  0.00    -0.031 C 
HETATM   18  C25 UNL     1       3.777  68.770 -36.322  1.00  0.00     0.016 C 
HETATM   19  C26 UNL     1       4.805  66.500 -36.897  1.00  0.00     0.024 C 
HETATM   20  C27 UNL     1       6.211  66.824 -36.336  1.00  0.00     0.010 C 
HETATM   21  C28 UNL     1       6.977  65.627 -35.722  1.00  0.00     0.011 C 
HETATM   22  C29 UNL     1       6.101  64.405 -35.367  1.00  0.00    -0.026 C 
HETATM   23  C30 UNL     1       5.969  63.488 -36.627  1.00  0.00     0.016 C 
ENDROOT
BRANCH   1  24
HETATM   24  C2  UNL     1       7.767  62.496 -34.433  1.00  0.00    -0.008 C 
HETATM   25  C1  UNL     1       7.229  61.067 -34.603  1.00  0.00     0.011 C 
BRANCH  24  26
HETATM   26  C3  UNL     1       8.602  62.895 -35.680  1.00  0.00     0.031 C 
BRANCH  26  27
HETATM   27  C4  UNL     1      10.084  62.934 -35.431  1.00  0.00    -0.027 C 
HETATM   28  C5  UNL     1      11.000  63.253 -36.363  1.00  0.00     0.009 C 
BRANCH  28  29
HETATM   29  C6  UNL     1      12.507  63.313 -36.174  1.00  0.00     0.106 C 
HETATM   30  C7  UNL     1      13.006  64.667 -36.694  1.00  0.00     0.053 C 
HETATM   31  C8  UNL     1      13.204  62.192 -36.959  1.00  0.00     0.053 C 
BRANCH  29  32
HETATM   32  O1  UNL     1      12.888  63.274 -34.782  1.00  0.00    -0.229 OA
BRANCH  32  33
HETATM   33  O2  UNL     1      14.325  63.529 -34.689  1.00  0.00    -0.249 OA
HETATM   34  H15 UNL     1      14.256  64.319 -34.124  1.00  0.00     0.253 HD
ENDBRANCH  32  33
ENDBRANCH  29  32
ENDBRANCH  28  29
ENDBRANCH  26  27
ENDBRANCH  24  26
ENDBRANCH   1  24
BRANCH   2  35
HETATM   35  O3  UNL     1       5.172  62.937 -32.258  1.00  0.00    -0.395 OA
HETATM   36  H18 UNL     1       5.928  62.488 -31.848  1.00  0.00     0.210 HD
ENDBRANCH   2  35
TORSDOF 7
ENDMDL
MODEL 7
REMARK minimizedAffinity -8.51872158
REMARK CNNscore 0.327876925
REMARK CNNaffinity 6.73088694
REMARK  7 active torsions:
REMARK  status: ('A' for Active; 'I' for Inactive)
REMARK    1  A    between atoms: C2_2  and  C3_3 
REMARK    2  A    between atoms: C2_2  and  C9_11 
REMARK    3  A    between atoms: C3_3  and  C4_4 
REMARK    4  A    between atoms: C5_5  and  C6_6 
REMARK    5  A    between atoms: C6_6  and  O1_9 
REMARK    6  A    between atoms: O1_9  and  O2_10 
REMARK    7  A    between atoms: C10_12  and  O3_13 
ROOT
HETATM    1  C9  UNL     1      -2.270  49.576 -21.350  1.00  0.00     0.028 C 
HETATM    2  C10 UNL     1      -1.675  50.909 -21.913  1.00  0.00     0.124 C 
HETATM    3  C11 UNL     1      -0.869  51.574 -20.779  1.00  0.00     0.046 C 
HETATM    4  C12 UNL     1      -1.324  50.845 -19.499  1.00  0.00    -0.010 C 
HETATM    5  C13 UNL     1      -2.671  51.503 -19.057  1.00  0.00     0.021 C 
HETATM    6  C14 UNL     1      -0.409  50.915 -18.276  1.00  0.00    -0.070 C 
HETATM    7  C15 UNL     1       0.307  52.021 -17.987  1.00  0.00    -0.022 C 
HETATM    8  C16 UNL     1       1.148  52.198 -16.753  1.00  0.00     0.034 C 
HETATM    9  C17 UNL     1       1.319  50.882 -15.977  1.00  0.00     0.013 C 
HETATM   10  C18 UNL     1       2.188  50.959 -14.682  1.00  0.00     0.018 C 
HETATM   11  C19 UNL     1       3.574  51.559 -15.005  1.00  0.00     0.023 C 
HETATM   12  C20 UNL     1       1.571  51.768 -13.535  1.00  0.00     0.023 C 
HETATM   13  C21 UNL     1       2.416  49.523 -14.175  1.00  0.00     0.135 C 
HETATM   14  O4  UNL     1       3.264  49.258 -13.321  1.00  0.00    -0.297 OA
HETATM   15  C22 UNL     1       1.568  48.421 -14.777  1.00  0.00     0.080 C 
HETATM   16  C23 UNL     1       0.126  48.890 -14.900  1.00  0.00     0.017 C 
HETATM   17  C24 UNL     1      -0.055  50.116 -15.844  1.00  0.00    -0.031 C 
HETATM   18  C25 UNL     1      -1.203  50.982 -15.258  1.00  0.00     0.016 C 
HETATM   19  C26 UNL     1      -0.429  49.696 -17.328  1.00  0.00     0.024 C 
HETATM   20  C27 UNL     1      -1.723  48.861 -17.481  1.00  0.00     0.010 C 
HETATM   21  C28 UNL     1      -2.124  48.511 -18.935  1.00  0.00     0.011 C 
HETATM   22  C29 UNL     1      -1.447  49.372 -20.024  1.00  0.00    -0.026 C 
HETATM   23  C30 UNL     1      -0.072  48.731 -20.402  1.00  0.00     0.016 C 
ENDROOT
BRANCH   1  24
HETATM   24  C2  UNL     1      -2.287  48.419 -22.407  1.00  0.00    -0.008 C 
HETATM   25  C1  UNL     1      -2.819  47.110 -21.803  1.00  0.00     0.011 C 
BRANCH  24  26
HETATM   26  C3  UNL     1      -3.129  48.803 -23.653  1.00  0.00     0.031 C 
BRANCH  26  27
HETATM   27  C4  UNL     1      -4.572  48.388 -23.563  1.00  0.00    -0.027 C 
HETATM   28  C5  UNL     1      -5.506  48.692 -24.481  1.00  0.00     0.009 C 
BRANCH  28  29
HETATM   29  C6  UNL     1      -6.975  48.300 -24.448  1.00  0.00     0.106 C 
HETATM   30  C7  UNL     1      -7.162  47.222 -23.372  1.00  0.00     0.053 C 
HETATM   31  C8  UNL     1      -7.423  47.732 -25.802  1.00  0.00     0.053 C 
BRANCH  29  32
HETATM   32  O1  UNL     1      -7.826  49.394 -24.045  1.00  0.00    -0.229 OA
BRANCH  32  33
HETATM   33  O2  UNL     1      -8.850  49.584 -25.072  1.00  0.00    -0.249 OA
HETATM   34  H15 UNL     1      -9.615  49.440 -24.487  1.00  0.00     0.253 HD
ENDBRANCH  32  33
ENDBRANCH  29  32
ENDBRANCH  28  29
ENDBRANCH  26  27
ENDBRANCH  24  26
ENDBRANCH   1  24
BRANCH   2  35
HETATM   35  O3  UNL     1      -2.716  51.805 -22.295  1.00  0.00    -0.395 OA
HETATM   36  H18 UNL     1      -3.250  51.385 -22.988  1.00  0.00     0.210 HD
ENDBRANCH   2  35
TORSDOF 7
ENDMDL
MODEL 8
REMARK minimizedAffinity -7.65971756
REMARK CNNscore 0.323868513
REMARK CNNaffinity 5.75334024
REMARK  7 active torsions:
REMARK  status: ('A' for Active; 'I' for Inactive)
REMARK    1  A    between atoms: C2_2  and  C3_3 
REMARK    2  A    between atoms: C2_2  and  C9_11 
REMARK    3  A    between atoms: C3_3  and  C4_4 
REMARK    4  A    between atoms: C5_5  and  C6_6 
REMARK    5  A    between atoms: C6_6  and  O1_9 
REMARK    6  A    between atoms: O1_9  and  O2_10 
REMARK    7  A    between atoms: C10_12  and  O3_13 
ROOT
HETATM    1  C9  UNL     1      -8.457  46.842 -29.311  1.00  0.00     0.028 C 
HETATM    2  C10 UNL     1      -8.539  48.210 -28.555  1.00  0.00     0.124 C 
HETATM    3  C11 UNL     1      -9.890  48.250 -27.811  1.00  0.00     0.046 C 
HETATM    4  C12 UNL     1     -10.718  47.116 -28.448  1.00  0.00    -0.010 C 
HETATM    5  C13 UNL     1     -11.322  47.686 -29.772  1.00  0.00     0.021 C 
HETATM    6  C14 UNL     1     -11.905  46.569 -27.655  1.00  0.00    -0.070 C 
HETATM    7  C15 UNL     1     -12.670  47.367 -26.881  1.00  0.00    -0.022 C 
HETATM    8  C16 UNL     1     -13.908  46.920 -26.153  1.00  0.00     0.034 C 
HETATM    9  C17 UNL     1     -14.067  45.391 -26.168  1.00  0.00     0.013 C 
HETATM   10  C18 UNL     1     -15.320  44.826 -25.427  1.00  0.00     0.018 C 
HETATM   11  C19 UNL     1     -15.354  45.340 -23.971  1.00  0.00     0.023 C 
HETATM   12  C20 UNL     1     -16.665  45.157 -26.085  1.00  0.00     0.023 C 
HETATM   13  C21 UNL     1     -15.189  43.293 -25.370  1.00  0.00     0.135 C 
HETATM   14  O4  UNL     1     -15.897  42.603 -24.635  1.00  0.00    -0.297 OA
HETATM   15  C22 UNL     1     -14.134  42.644 -26.244  1.00  0.00     0.080 C 
HETATM   16  C23 UNL     1     -14.142  43.286 -27.623  1.00  0.00     0.017 C 
HETATM   17  C24 UNL     1     -13.791  44.804 -27.608  1.00  0.00    -0.031 C 
HETATM   18  C25 UNL     1     -14.624  45.479 -28.732  1.00  0.00     0.016 C 
HETATM   19  C26 UNL     1     -12.251  45.079 -27.868  1.00  0.00     0.024 C 
HETATM   20  C27 UNL     1     -11.691  44.539 -29.207  1.00  0.00     0.010 C 
HETATM   21  C28 UNL     1     -10.205  44.867 -29.490  1.00  0.00     0.011 C 
HETATM   22  C29 UNL     1      -9.616  46.016 -28.641  1.00  0.00    -0.026 C 
HETATM   23  C30 UNL     1      -9.080  45.432 -27.293  1.00  0.00     0.016 C 
ENDROOT
BRANCH   1  24
HETATM   24  C2  UNL     1      -7.012  46.234 -29.320  1.00  0.00    -0.008 C 
HETATM   25  C1  UNL     1      -6.851  45.180 -30.427  1.00  0.00     0.011 C 
BRANCH  24  26
HETATM   26  C3  UNL     1      -5.934  47.338 -29.485  1.00  0.00     0.031 C 
BRANCH  26  27
HETATM   27  C4  UNL     1      -5.418  47.883 -28.182  1.00  0.00    -0.027 C 
HETATM   28  C5  UNL     1      -4.304  48.626 -28.060  1.00  0.00     0.009 C 
BRANCH  28  29
HETATM   29  C6  UNL     1      -3.733  49.207 -26.776  1.00  0.00     0.106 C 
HETATM   30  C7  UNL     1      -2.388  48.524 -26.495  1.00  0.00     0.053 C 
HETATM   31  C8  UNL     1      -4.676  48.951 -25.591  1.00  0.00     0.053 C 
BRANCH  29  32
HETATM   32  O1  UNL     1      -3.431  50.613 -26.895  1.00  0.00    -0.229 OA
BRANCH  32  33
HETATM   33  O2  UNL     1      -3.386  50.957 -28.316  1.00  0.00    -0.249 OA
HETATM   34  H15 UNL     1      -4.089  51.629 -28.285  1.00  0.00     0.253 HD
ENDBRANCH  32  33
ENDBRANCH  29  32
ENDBRANCH  28  29
ENDBRANCH  26  27
ENDBRANCH  24  26
ENDBRANCH   1  24
BRANCH   2  35
HETATM   35  O3  UNL     1      -8.512  49.297 -29.475  1.00  0.00    -0.395 OA
HETATM   36  H18 UNL     1      -7.679  49.266 -29.972  1.00  0.00     0.210 HD
ENDBRANCH   2  35
TORSDOF 7
ENDMDL
MODEL 9
REMARK minimizedAffinity -7.83485031
REMARK CNNscore 0.298755974
REMARK CNNaffinity 6.16983461
REMARK  7 active torsions:
REMARK  status: ('A' for Active; 'I' for Inactive)
REMARK    1  A    between atoms: C2_2  and  C3_3 
REMARK    2  A    between atoms: C2_2  and  C9_11 
REMARK    3  A    between atoms: C3_3  and  C4_4 
REMARK    4  A    between atoms: C5_5  and  C6_6 
REMARK    5  A    between atoms: C6_6  and  O1_9 
REMARK    6  A    between atoms: O1_9  and  O2_10 
REMARK    7  A    between atoms: C10_12  and  O3_13 
ROOT
HETATM    1  C9  UNL     1      -8.266  47.388 -20.601  1.00  0.00     0.028 C 
HETATM    2  C10 UNL     1      -7.287  46.736 -19.570  1.00  0.00     0.124 C 
HETATM    3  C11 UNL     1      -5.851  47.106 -19.993  1.00  0.00     0.046 C 
HETATM    4  C12 UNL     1      -5.992  47.614 -21.442  1.00  0.00    -0.010 C 
HETATM    5  C13 UNL     1      -6.040  46.351 -22.362  1.00  0.00     0.021 C 
HETATM    6  C14 UNL     1      -4.871  48.490 -22.002  1.00  0.00    -0.070 C 
HETATM    7  C15 UNL     1      -3.579  48.286 -21.672  1.00  0.00    -0.022 C 
HETATM    8  C16 UNL     1      -2.417  49.041 -22.258  1.00  0.00     0.034 C 
HETATM    9  C17 UNL     1      -2.874  50.256 -23.082  1.00  0.00     0.013 C 
HETATM   10  C18 UNL     1      -1.738  51.114 -23.724  1.00  0.00     0.018 C 
HETATM   11  C19 UNL     1      -0.734  51.565 -22.641  1.00  0.00     0.023 C 
HETATM   12  C20 UNL     1      -0.955  50.418 -24.844  1.00  0.00     0.023 C 
HETATM   13  C21 UNL     1      -2.377  52.383 -24.316  1.00  0.00     0.135 C 
HETATM   14  O4  UNL     1      -1.701  53.354 -24.663  1.00  0.00    -0.297 OA
HETATM   15  C22 UNL     1      -3.886  52.417 -24.446  1.00  0.00     0.080 C 
HETATM   16  C23 UNL     1      -4.387  51.081 -24.974  1.00  0.00     0.017 C 
HETATM   17  C24 UNL     1      -4.079  49.880 -24.031  1.00  0.00    -0.031 C 
HETATM   18  C25 UNL     1      -3.807  48.646 -24.932  1.00  0.00     0.016 C 
HETATM   19  C26 UNL     1      -5.280  49.550 -23.048  1.00  0.00     0.024 C 
HETATM   20  C27 UNL     1      -6.626  49.206 -23.729  1.00  0.00     0.010 C 
HETATM   21  C28 UNL     1      -7.779  48.817 -22.771  1.00  0.00     0.011 C 
HETATM   22  C29 UNL     1      -7.337  48.416 -21.346  1.00  0.00    -0.026 C 
HETATM   23  C30 UNL     1      -7.230  49.702 -20.463  1.00  0.00     0.016 C 
ENDROOT
BRANCH   1  24
HETATM   24  C2  UNL     1      -9.588  47.914 -19.942  1.00  0.00    -0.008 C 
HETATM   25  C1  UNL     1     -10.803  47.076 -20.367  1.00  0.00     0.011 C 
BRANCH  24  26
HETATM   26  C3  UNL     1      -9.479  47.934 -18.394  1.00  0.00     0.031 C 
BRANCH  26  27
HETATM   27  C4  UNL     1     -10.725  47.469 -17.691  1.00  0.00    -0.027 C 
HETATM   28  C5  UNL     1     -11.968  47.598 -18.189  1.00  0.00     0.009 C 
BRANCH  28  29
HETATM   29  C6  UNL     1     -13.262  47.148 -17.531  1.00  0.00     0.106 C 
HETATM   30  C7  UNL     1     -13.635  45.769 -18.092  1.00  0.00     0.053 C 
HETATM   31  C8  UNL     1     -14.403  48.131 -17.832  1.00  0.00     0.053 C 
BRANCH  29  32
HETATM   32  O1  UNL     1     -13.116  46.955 -16.107  1.00  0.00    -0.229 OA
BRANCH  32  33
HETATM   33  O2  UNL     1     -14.390  46.473 -15.575  1.00  0.00    -0.249 OA
HETATM   34  H15 UNL     1     -14.044  45.640 -15.210  1.00  0.00     0.253 HD
ENDBRANCH  32  33
ENDBRANCH  29  32
ENDBRANCH  28  29
ENDBRANCH  26  27
ENDBRANCH  24  26
ENDBRANCH   1  24
BRANCH   2  35
HETATM   35  O3  UNL     1      -7.400  45.315 -19.594  1.00  0.00    -0.395 OA
HETATM   36  H18 UNL     1      -8.309  45.070 -19.359  1.00  0.00     0.210 HD
ENDBRANCH   2  35
TORSDOF 7
ENDMDL
