MODEL 1
REMARK minimizedAffinity -8.59838867
REMARK CNNscore 0.403835863
REMARK CNNaffinity 6.00320196
REMARK  9 active torsions:
REMARK  status: ('A' for Active; 'I' for Inactive)
REMARK    1  A    between atoms: C3_3  and  O1_4 
REMARK    2  A    between atoms: N1_14  and  O2_16 
REMARK    3  A    between atoms: O2_16  and  C13_17 
REMARK    4  A    between atoms: C13_17  and  C14_18 
REMARK       I    between atoms: C14_18  and  N2_20 
REMARK    5  A    between atoms: N2_20  and  C15_21 
REMARK    6  A    between atoms: C15_21  and  C16_22 
REMARK    7  A    between atoms: C15_21  and  C18_26 
REMARK    8  A    between atoms: C16_22  and  C17_23 
REMARK    9  A    between atoms: C17_23  and  O5_25 
ROOT
HETATM    1  C1  UNL     1      -4.285  45.800 -31.865  1.00  0.00     0.015 C 
HETATM    2  C2  UNL     1      -5.390  46.144 -32.195  1.00  0.00    -0.078 C 
HETATM    3  C3  UNL     1      -6.745  46.550 -32.591  1.00  0.00     0.128 C 
HETATM    4  C4  UNL     1      -7.096  47.940 -32.062  1.00  0.00     0.052 C 
HETATM    5  C5  UNL     1      -8.616  48.012 -32.142  1.00  0.00     0.010 C 
HETATM    6  C6  UNL     1      -9.143  46.560 -32.098  1.00  0.00     0.002 C 
HETATM    7  C7  UNL     1     -10.123  46.259 -30.950  1.00  0.00    -0.004 C 
HETATM    8  C8  UNL     1     -11.436  47.039 -31.076  1.00  0.00     0.010 C 
HETATM    9  C9  UNL     1     -12.438  46.546 -30.037  1.00  0.00     0.035 C 
HETATM   10  C10 UNL     1     -11.897  46.590 -28.625  1.00  0.00    -0.069 C 
HETATM   11  C11 UNL     1     -12.694  47.023 -27.634  1.00  0.00     0.030 C 
HETATM   12  C12 UNL     1     -12.296  46.937 -26.205  1.00  0.00     0.032 C 
HETATM   13  N1  UNL     1     -13.212  47.164 -25.305  1.00  0.00    -0.271 N 
ATOM     14  H1  UNL     1     -14.168  47.447 -25.521  1.00  0.00     0.194 HD
HETATM   15  C25 UNL     1     -10.883  46.498 -25.874  1.00  0.00     0.060 C 
HETATM   16  C26 UNL     1      -9.939  46.670 -27.056  1.00  0.00     0.020 C 
HETATM   17  C27 UNL     1     -10.474  46.064 -28.385  1.00  0.00    -0.016 C 
HETATM   18  C28 UNL     1     -10.546  44.522 -28.275  1.00  0.00     0.020 C 
HETATM   19  C29 UNL     1      -9.513  46.520 -29.553  1.00  0.00     0.002 C 
HETATM   20  C30 UNL     1      -8.066  45.985 -29.460  1.00  0.00     0.007 C 
HETATM   21  C31 UNL     1      -7.681  45.057 -30.610  1.00  0.00     0.014 C 
HETATM   22  C32 UNL     1      -7.890  45.627 -32.052  1.00  0.00     0.003 C 
HETATM   23  C33 UNL     1      -8.097  44.403 -32.982  1.00  0.00     0.020 C 
ENDROOT
BRANCH   3  24
HETATM   24  O1  UNL     1      -6.765  46.617 -34.022  1.00  0.00    -0.377 OA
HETATM   25  H2  UNL     1      -7.664  46.847 -34.299  1.00  0.00     0.211 HD
ENDBRANCH   3  24
BRANCH  13  26
HETATM   26  O2  UNL     1     -12.724  46.970 -24.003  1.00  0.00    -0.271 OA
BRANCH  26  27
HETATM   27  C13 UNL     1     -13.734  46.355 -23.210  1.00  0.00     0.303 C 
BRANCH  27  28
HETATM   28  C14 UNL     1     -15.123  46.797 -23.643  1.00  0.00     0.244 C 
HETATM   29  O3  UNL     1     -15.380  47.965 -23.933  1.00  0.00    -0.271 OA
HETATM   30  N2  UNL     1     -16.071  45.789 -23.604  1.00  0.00    -0.354 N 
HETATM   31  H16 UNL     1     -15.769  44.894 -23.220  1.00  0.00     0.162 HD
BRANCH  30  32
HETATM   32  C15 UNL     1     -17.500  46.046 -23.832  1.00  0.00     0.098 C 
BRANCH  32  33
HETATM   33  C16 UNL     1     -18.006  45.069 -24.902  1.00  0.00     0.135 C 
BRANCH  33  34
HETATM   34  C17 UNL     1     -18.992  45.695 -25.841  1.00  0.00     0.141 C 
HETATM   35  O4  UNL     1     -20.006  46.298 -25.525  1.00  0.00    -0.650 OA
BRANCH  34  36
HETATM   36  O5  UNL     1     -18.653  45.550 -27.134  1.00  0.00    -0.776 OA
HETATM   37  H20 UNL     1     -19.365  46.010 -27.630  1.00  0.00     0.167 HD
ENDBRANCH  34  36
ENDBRANCH  33  34
ENDBRANCH  32  33
BRANCH  32  38
HETATM   38  C18 UNL     1     -18.251  46.034 -22.467  1.00  0.00     0.014 C 
HETATM   39  C19 UNL     1     -19.395  44.999 -22.423  1.00  0.00     0.033 C 
HETATM   40  C20 UNL     1     -19.572  44.382 -21.040  1.00  0.00     0.169 C 
HETATM   41  O6  UNL     1     -19.453  45.389 -20.041  1.00  0.00    -0.381 OA
HETATM   42  C21 UNL     1     -18.139  45.957 -19.921  1.00  0.00     0.054 C 
HETATM   43  C22 UNL     1     -18.347  47.416 -19.489  1.00  0.00     0.045 C 
HETATM   44  C23 UNL     1     -17.396  45.211 -18.807  1.00  0.00     0.045 C 
HETATM   45  C24 UNL     1     -17.338  45.882 -21.243  1.00  0.00     0.044 C 
ENDBRANCH  32  38
ENDBRANCH  30  32
ENDBRANCH  27  28
ENDBRANCH  26  27
ENDBRANCH  13  26
TORSDOF 9
ENDMDL
MODEL 2
REMARK minimizedAffinity -9.31964302
REMARK CNNscore 0.369448721
REMARK CNNaffinity 7.01881361
REMARK  9 active torsions:
REMARK  status: ('A' for Active; 'I' for Inactive)
REMARK    1  A    between atoms: C3_3  and  O1_4 
REMARK    2  A    between atoms: N1_14  and  O2_16 
REMARK    3  A    between atoms: O2_16  and  C13_17 
REMARK    4  A    between atoms: C13_17  and  C14_18 
REMARK       I    between atoms: C14_18  and  N2_20 
REMARK    5  A    between atoms: N2_20  and  C15_21 
REMARK    6  A    between atoms: C15_21  and  C16_22 
REMARK    7  A    between atoms: C15_21  and  C18_26 
REMARK    8  A    between atoms: C16_22  and  C17_23 
REMARK    9  A    between atoms: C17_23  and  O5_25 
ROOT
HETATM    1  C1  UNL     1      -0.472  54.337 -27.873  1.00  0.00     0.015 C 
HETATM    2  C2  UNL     1      -0.964  53.395 -27.305  1.00  0.00    -0.078 C 
HETATM    3  C3  UNL     1      -1.549  52.243 -26.607  1.00  0.00     0.128 C 
HETATM    4  C4  UNL     1      -2.663  52.667 -25.651  1.00  0.00     0.052 C 
HETATM    5  C5  UNL     1      -2.829  51.486 -24.702  1.00  0.00     0.010 C 
HETATM    6  C6  UNL     1      -1.488  50.719 -24.693  1.00  0.00     0.002 C 
HETATM    7  C7  UNL     1      -0.833  50.574 -23.307  1.00  0.00    -0.004 C 
HETATM    8  C8  UNL     1      -1.665  49.714 -22.349  1.00  0.00     0.010 C 
HETATM    9  C9  UNL     1      -0.871  49.436 -21.075  1.00  0.00     0.035 C 
HETATM   10  C10 UNL     1      -0.370  50.695 -20.404  1.00  0.00    -0.069 C 
HETATM   11  C11 UNL     1      -0.446  50.795 -19.065  1.00  0.00     0.030 C 
HETATM   12  C12 UNL     1       0.175  51.920 -18.320  1.00  0.00     0.032 C 
HETATM   13  N1  UNL     1       0.252  51.819 -17.023  1.00  0.00    -0.271 N 
ATOM     14  H1  UNL     1      -0.135  51.043 -16.486  1.00  0.00     0.194 HD
HETATM   15  C25 UNL     1       0.769  53.069 -19.111  1.00  0.00     0.060 C 
HETATM   16  C26 UNL     1       0.220  53.131 -20.530  1.00  0.00     0.020 C 
HETATM   17  C27 UNL     1       0.272  51.774 -21.288  1.00  0.00    -0.016 C 
HETATM   18  C28 UNL     1       1.742  51.367 -21.548  1.00  0.00     0.020 C 
HETATM   19  C29 UNL     1      -0.536  51.935 -22.635  1.00  0.00     0.002 C 
HETATM   20  C30 UNL     1       0.063  52.942 -23.644  1.00  0.00     0.007 C 
HETATM   21  C31 UNL     1       0.521  52.302 -24.952  1.00  0.00     0.014 C 
HETATM   22  C32 UNL     1      -0.546  51.444 -25.707  1.00  0.00     0.003 C 
HETATM   23  C33 UNL     1       0.241  50.404 -26.547  1.00  0.00     0.020 C 
ENDROOT
BRANCH   3  24
HETATM   24  O1  UNL     1      -2.136  51.398 -27.604  1.00  0.00    -0.377 OA
HETATM   25  H2  UNL     1      -2.493  50.615 -27.161  1.00  0.00     0.211 HD
ENDBRANCH   3  24
BRANCH  13  26
HETATM   26  O2  UNL     1       0.931  52.908 -16.454  1.00  0.00    -0.271 OA
BRANCH  26  27
HETATM   27  C13 UNL     1       2.197  52.472 -15.970  1.00  0.00     0.303 C 
BRANCH  27  28
HETATM   28  C14 UNL     1       2.039  51.502 -14.809  1.00  0.00     0.244 C 
HETATM   29  O3  UNL     1       1.642  50.348 -14.966  1.00  0.00    -0.271 OA
HETATM   30  N2  UNL     1       2.307  52.060 -13.570  1.00  0.00    -0.354 N 
HETATM   31  H16 UNL     1       2.498  53.061 -13.554  1.00  0.00     0.162 HD
BRANCH  30  32
HETATM   32  C15 UNL     1       2.062  51.337 -12.314  1.00  0.00     0.098 C 
BRANCH  32  33
HETATM   33  C16 UNL     1       3.231  50.375 -12.069  1.00  0.00     0.135 C 
BRANCH  33  34
HETATM   34  C17 UNL     1       2.807  48.937 -12.052  1.00  0.00     0.141 C 
HETATM   35  O4  UNL     1       3.521  47.973 -12.280  1.00  0.00    -0.650 OA
BRANCH  34  36
HETATM   36  O5  UNL     1       1.513  48.774 -11.732  1.00  0.00    -0.776 OA
HETATM   37  H20 UNL     1       1.374  47.801 -11.745  1.00  0.00     0.167 HD
ENDBRANCH  34  36
ENDBRANCH  33  34
ENDBRANCH  32  33
BRANCH  32  38
HETATM   38  C18 UNL     1       1.755  52.362 -11.181  1.00  0.00     0.014 C 
HETATM   39  C19 UNL     1       2.861  53.425 -11.021  1.00  0.00     0.033 C 
HETATM   40  C20 UNL     1       2.308  54.786 -10.610  1.00  0.00     0.169 C 
HETATM   41  O6  UNL     1       1.298  54.621  -9.621  1.00  0.00    -0.381 OA
HETATM   42  C21 UNL     1       0.106  53.971 -10.090  1.00  0.00     0.054 C 
HETATM   43  C22 UNL     1      -0.448  53.189  -8.890  1.00  0.00     0.045 C 
HETATM   44  C23 UNL     1      -0.904  55.054 -10.485  1.00  0.00     0.045 C 
HETATM   45  C24 UNL     1       0.376  53.028 -11.285  1.00  0.00     0.044 C 
ENDBRANCH  32  38
ENDBRANCH  30  32
ENDBRANCH  27  28
ENDBRANCH  26  27
ENDBRANCH  13  26
TORSDOF 9
ENDMDL
MODEL 3
REMARK minimizedAffinity -8.5446434
REMARK CNNscore 0.316373408
REMARK CNNaffinity 6.5937953
REMARK  9 active torsions:
REMARK  status: ('A' for Active; 'I' for Inactive)
REMARK    1  A    between atoms: C3_3  and  O1_4 
REMARK    2  A    between atoms: N1_14  and  O2_16 
REMARK    3  A    between atoms: O2_16  and  C13_17 
REMARK    4  A    between atoms: C13_17  and  C14_18 
REMARK       I    between atoms: C14_18  and  N2_20 
REMARK    5  A    between atoms: N2_20  and  C15_21 
REMARK    6  A    between atoms: C15_21  and  C16_22 
REMARK    7  A    between atoms: C15_21  and  C18_26 
REMARK    8  A    between atoms: C16_22  and  C17_23 
REMARK    9  A    between atoms: C17_23  and  O5_25 
ROOT
HETATM    1  C1  UNL     1      -4.339  45.634 -20.580  1.00  0.00     0.015 C 
HETATM    2  C2  UNL     1      -3.747  46.615 -20.949  1.00  0.00    -0.078 C 
HETATM    3  C3  UNL     1      -3.031  47.821 -21.387  1.00  0.00     0.128 C 
HETATM    4  C4  UNL     1      -1.525  47.581 -21.482  1.00  0.00     0.052 C 
HETATM    5  C5  UNL     1      -0.910  48.975 -21.480  1.00  0.00     0.010 C 
HETATM    6  C6  UNL     1      -1.918  49.916 -20.782  1.00  0.00     0.002 C 
HETATM    7  C7  UNL     1      -1.368  50.658 -19.552  1.00  0.00    -0.004 C 
HETATM    8  C8  UNL     1      -0.251  51.646 -19.909  1.00  0.00     0.010 C 
HETATM    9  C9  UNL     1       0.104  52.495 -18.692  1.00  0.00     0.035 C 
HETATM   10  C10 UNL     1       0.458  51.668 -17.476  1.00  0.00    -0.069 C 
HETATM   11  C11 UNL     1       1.500  52.043 -16.714  1.00  0.00     0.030 C 
HETATM   12  C12 UNL     1       1.807  51.386 -15.417  1.00  0.00     0.032 C 
HETATM   13  N1  UNL     1       2.685  51.956 -14.641  1.00  0.00    -0.271 N 
ATOM     14  H1  UNL     1       3.211  52.793 -14.891  1.00  0.00     0.194 HD
HETATM   15  C25 UNL     1       1.016  50.152 -15.028  1.00  0.00     0.060 C 
HETATM   16  C26 UNL     1       0.359  49.491 -16.232  1.00  0.00     0.020 C 
HETATM   17  C27 UNL     1      -0.443  50.473 -17.133  1.00  0.00    -0.016 C 
HETATM   18  C28 UNL     1      -1.677  51.009 -16.368  1.00  0.00     0.020 C 
HETATM   19  C29 UNL     1      -0.861  49.702 -18.446  1.00  0.00     0.002 C 
HETATM   20  C30 UNL     1      -1.835  48.521 -18.233  1.00  0.00     0.007 C 
HETATM   21  C31 UNL     1      -3.195  48.720 -18.898  1.00  0.00     0.014 C 
HETATM   22  C32 UNL     1      -3.170  49.051 -20.427  1.00  0.00     0.003 C 
HETATM   23  C33 UNL     1      -4.471  49.840 -20.726  1.00  0.00     0.020 C 
ENDROOT
BRANCH   3  24
HETATM   24  O1  UNL     1      -3.499  48.137 -22.703  1.00  0.00    -0.377 OA
HETATM   25  H2  UNL     1      -3.062  48.952 -22.990  1.00  0.00     0.211 HD
ENDBRANCH   3  24
BRANCH  13  26
HETATM   26  O2  UNL     1       2.819  51.279 -13.418  1.00  0.00    -0.271 OA
BRANCH  26  27
HETATM   27  C13 UNL     1       2.425  52.143 -12.357  1.00  0.00     0.303 C 
BRANCH  27  28
HETATM   28  C14 UNL     1       3.249  51.888 -11.104  1.00  0.00     0.244 C 
HETATM   29  O3  UNL     1       3.619  50.760 -10.778  1.00  0.00    -0.271 OA
HETATM   30  N2  UNL     1       3.471  53.019 -10.338  1.00  0.00    -0.354 N 
HETATM   31  H16 UNL     1       3.002  53.873 -10.640  1.00  0.00     0.162 HD
BRANCH  30  32
HETATM   32  C15 UNL     1       4.108  52.960  -9.015  1.00  0.00     0.098 C 
BRANCH  32  33
HETATM   33  C16 UNL     1       5.213  51.896  -9.053  1.00  0.00     0.135 C 
BRANCH  33  34
HETATM   34  C17 UNL     1       6.572  52.478  -9.296  1.00  0.00     0.141 C 
HETATM   35  O4  UNL     1       6.847  53.666  -9.354  1.00  0.00    -0.650 OA
BRANCH  34  36
HETATM   36  O5  UNL     1       7.527  51.543  -9.437  1.00  0.00    -0.776 OA
HETATM   37  H20 UNL     1       8.356  52.053  -9.575  1.00  0.00     0.167 HD
ENDBRANCH  34  36
ENDBRANCH  33  34
ENDBRANCH  32  33
BRANCH  32  38
HETATM   38  C18 UNL     1       4.537  54.395  -8.583  1.00  0.00     0.014 C 
HETATM   39  C19 UNL     1       3.953  55.493  -9.495  1.00  0.00     0.033 C 
HETATM   40  C20 UNL     1       3.632  56.775  -8.734  1.00  0.00     0.169 C 
HETATM   41  O6  UNL     1       4.675  57.064  -7.810  1.00  0.00    -0.381 OA
HETATM   42  C21 UNL     1       4.791  56.125  -6.729  1.00  0.00     0.054 C 
HETATM   43  C22 UNL     1       6.283  56.078  -6.369  1.00  0.00     0.045 C 
HETATM   44  C23 UNL     1       4.010  56.677  -5.532  1.00  0.00     0.045 C 
HETATM   45  C24 UNL     1       4.271  54.719  -7.108  1.00  0.00     0.044 C 
ENDBRANCH  32  38
ENDBRANCH  30  32
ENDBRANCH  27  28
ENDBRANCH  26  27
ENDBRANCH  13  26
TORSDOF 9
ENDMDL
MODEL 4
REMARK minimizedAffinity -8.37627697
REMARK CNNscore 0.257558674
REMARK CNNaffinity 6.05236006
REMARK  9 active torsions:
REMARK  status: ('A' for Active; 'I' for Inactive)
REMARK    1  A    between atoms: C3_3  and  O1_4 
REMARK    2  A    between atoms: N1_14  and  O2_16 
REMARK    3  A    between atoms: O2_16  and  C13_17 
REMARK    4  A    between atoms: C13_17  and  C14_18 
REMARK       I    between atoms: C14_18  and  N2_20 
REMARK    5  A    between atoms: N2_20  and  C15_21 
REMARK    6  A    between atoms: C15_21  and  C16_22 
REMARK    7  A    between atoms: C15_21  and  C18_26 
REMARK    8  A    between atoms: C16_22  and  C17_23 
REMARK    9  A    between atoms: C17_23  and  O5_25 
ROOT
HETATM    1  C1  UNL     1      -9.386  48.110 -41.220  1.00  0.00     0.015 C 
HETATM    2  C2  UNL     1     -10.237  47.812 -40.421  1.00  0.00    -0.078 C 
HETATM    3  C3  UNL     1     -11.266  47.437 -39.442  1.00  0.00     0.128 C 
HETATM    4  C4  UNL     1     -11.618  48.601 -38.517  1.00  0.00     0.052 C 
HETATM    5  C5  UNL     1     -12.304  47.951 -37.321  1.00  0.00     0.010 C 
HETATM    6  C6  UNL     1     -11.805  46.490 -37.250  1.00  0.00     0.002 C 
HETATM    7  C7  UNL     1     -11.129  46.100 -35.923  1.00  0.00    -0.004 C 
HETATM    8  C8  UNL     1     -12.098  46.133 -34.736  1.00  0.00     0.010 C 
HETATM    9  C9  UNL     1     -11.428  45.539 -33.499  1.00  0.00     0.035 C 
HETATM   10  C10 UNL     1     -10.111  46.202 -33.164  1.00  0.00    -0.069 C 
HETATM   11  C11 UNL     1      -9.827  46.475 -31.879  1.00  0.00     0.030 C 
HETATM   12  C12 UNL     1      -8.492  46.967 -31.452  1.00  0.00     0.032 C 
HETATM   13  N1  UNL     1      -8.232  46.987 -30.175  1.00  0.00    -0.271 N 
ATOM     14  H1  UNL     1      -8.905  46.736 -29.451  1.00  0.00     0.194 HD
HETATM   15  C25 UNL     1      -7.478  47.324 -32.521  1.00  0.00     0.060 C 
HETATM   16  C26 UNL     1      -8.136  47.580 -33.871  1.00  0.00     0.020 C 
HETATM   17  C27 UNL     1      -9.126  46.465 -34.312  1.00  0.00    -0.016 C 
HETATM   18  C28 UNL     1      -8.357  45.152 -34.593  1.00  0.00     0.020 C 
HETATM   19  C29 UNL     1      -9.896  46.974 -35.594  1.00  0.00     0.002 C 
HETATM   20  C30 UNL     1      -9.015  47.200 -36.844  1.00  0.00     0.007 C 
HETATM   21  C31 UNL     1      -9.359  46.276 -38.011  1.00  0.00     0.014 C 
HETATM   22  C32 UNL     1     -10.854  46.278 -38.471  1.00  0.00     0.003 C 
HETATM   23  C33 UNL     1     -11.114  44.894 -39.121  1.00  0.00     0.020 C 
ENDROOT
BRANCH   3  24
HETATM   24  O1  UNL     1     -12.447  47.099 -40.178  1.00  0.00    -0.377 OA
HETATM   25  H2  UNL     1     -13.123  46.813 -39.546  1.00  0.00     0.211 HD
ENDBRANCH   3  24
BRANCH  13  26
HETATM   26  O2  UNL     1      -6.914  47.394 -29.916  1.00  0.00    -0.271 OA
BRANCH  26  27
HETATM   27  C13 UNL     1      -6.820  47.856 -28.572  1.00  0.00     0.303 C 
BRANCH  27  28
HETATM   28  C14 UNL     1      -5.369  48.031 -28.150  1.00  0.00     0.244 C 
HETATM   29  O3  UNL     1      -4.431  47.833 -28.921  1.00  0.00    -0.271 OA
HETATM   30  N2  UNL     1      -5.208  48.355 -26.813  1.00  0.00    -0.354 N 
HETATM   31  H16 UNL     1      -6.053  48.362 -26.241  1.00  0.00     0.162 HD
BRANCH  30  32
HETATM   32  C15 UNL     1      -3.887  48.413 -26.173  1.00  0.00     0.098 C 
BRANCH  32  33
HETATM   33  C16 UNL     1      -2.987  49.345 -26.996  1.00  0.00     0.135 C 
BRANCH  33  34
HETATM   34  C17 UNL     1      -3.278  50.796 -26.756  1.00  0.00     0.141 C 
HETATM   35  O4  UNL     1      -2.841  51.734 -27.403  1.00  0.00    -0.650 OA
BRANCH  34  36
HETATM   36  O5  UNL     1      -4.117  51.001 -25.727  1.00  0.00    -0.776 OA
HETATM   37  H20 UNL     1      -4.230  51.977 -25.689  1.00  0.00     0.167 HD
ENDBRANCH  34  36
ENDBRANCH  33  34
ENDBRANCH  32  33
BRANCH  32  38
HETATM   38  C18 UNL     1      -4.060  48.766 -24.664  1.00  0.00     0.014 C 
HETATM   39  C19 UNL     1      -5.339  48.160 -24.052  1.00  0.00     0.033 C 
HETATM   40  C20 UNL     1      -5.155  47.760 -22.591  1.00  0.00     0.169 C 
HETATM   41  O6  UNL     1      -4.414  48.762 -21.904  1.00  0.00    -0.381 OA
HETATM   42  C21 UNL     1      -3.047  48.889 -22.328  1.00  0.00     0.054 C 
HETATM   43  C22 UNL     1      -2.685  50.371 -22.150  1.00  0.00     0.045 C 
HETATM   44  C23 UNL     1      -2.176  48.049 -21.388  1.00  0.00     0.045 C 
HETATM   45  C24 UNL     1      -2.838  48.443 -23.794  1.00  0.00     0.044 C 
ENDBRANCH  32  38
ENDBRANCH  30  32
ENDBRANCH  27  28
ENDBRANCH  26  27
ENDBRANCH  13  26
TORSDOF 9
ENDMDL
MODEL 5
REMARK minimizedAffinity -8.84699154
REMARK CNNscore 0.246720657
REMARK CNNaffinity 6.55482817
REMARK  9 active torsions:
REMARK  status: ('A' for Active; 'I' for Inactive)
REMARK    1  A    between atoms: C3_3  and  O1_4 
REMARK    2  A    between atoms: N1_14  and  O2_16 
REMARK    3  A    between atoms: O2_16  and  C13_17 
REMARK    4  A    between atoms: C13_17  and  C14_18 
REMARK       I    between atoms: C14_18  and  N2_20 
REMARK    5  A    between atoms: N2_20  and  C15_21 
REMARK    6  A    between atoms: C15_21  and  C16_22 
REMARK    7  A    between atoms: C15_21  and  C18_26 
REMARK    8  A    between atoms: C16_22  and  C17_23 
REMARK    9  A    between atoms: C17_23  and  O5_25 
ROOT
HETATM    1  C1  UNL     1      -0.111  54.497 -27.372  1.00  0.00     0.015 C 
HETATM    2  C2  UNL     1      -0.700  53.461 -27.199  1.00  0.00    -0.078 C 
HETATM    3  C3  UNL     1      -1.407  52.192 -26.978  1.00  0.00     0.128 C 
HETATM    4  C4  UNL     1      -2.794  52.414 -26.378  1.00  0.00     0.052 C 
HETATM    5  C5  UNL     1      -3.184  51.062 -25.794  1.00  0.00     0.010 C 
HETATM    6  C6  UNL     1      -1.873  50.300 -25.497  1.00  0.00     0.002 C 
HETATM    7  C7  UNL     1      -1.694  49.863 -24.033  1.00  0.00    -0.004 C 
HETATM    8  C8  UNL     1      -2.736  48.827 -23.594  1.00  0.00     0.010 C 
HETATM    9  C9  UNL     1      -2.381  48.282 -22.214  1.00  0.00     0.035 C 
HETATM   10  C10 UNL     1      -2.204  49.368 -21.176  1.00  0.00    -0.069 C 
HETATM   11  C11 UNL     1      -2.714  49.186 -19.947  1.00  0.00     0.030 C 
HETATM   12  C12 UNL     1      -2.439  50.125 -18.829  1.00  0.00     0.032 C 
HETATM   13  N1  UNL     1      -2.780  49.754 -17.627  1.00  0.00    -0.271 N 
ATOM     14  H1  UNL     1      -3.270  48.885 -17.414  1.00  0.00     0.194 HD
HETATM   15  C25 UNL     1      -1.694  51.410 -19.133  1.00  0.00     0.060 C 
HETATM   16  C26 UNL     1      -1.757  51.773 -20.610  1.00  0.00     0.020 C 
HETATM   17  C27 UNL     1      -1.379  50.604 -21.564  1.00  0.00    -0.016 C 
HETATM   18  C28 UNL     1       0.119  50.250 -21.402  1.00  0.00     0.020 C 
HETATM   19  C29 UNL     1      -1.715  51.051 -23.042  1.00  0.00     0.002 C 
HETATM   20  C30 UNL     1      -0.887  52.243 -23.573  1.00  0.00     0.007 C 
HETATM   21  C31 UNL     1       0.009  51.887 -24.757  1.00  0.00     0.014 C 
HETATM   22  C32 UNL     1      -0.701  51.215 -25.978  1.00  0.00     0.003 C 
HETATM   23  C33 UNL     1       0.378  50.369 -26.702  1.00  0.00     0.020 C 
ENDROOT
BRANCH   3  24
HETATM   24  O1  UNL     1      -1.586  51.580 -28.261  1.00  0.00    -0.377 OA
HETATM   25  H2  UNL     1      -2.018  50.724 -28.126  1.00  0.00     0.211 HD
ENDBRANCH   3  24
BRANCH  13  26
HETATM   26  O2  UNL     1      -2.390  50.694 -16.660  1.00  0.00    -0.271 OA
BRANCH  26  27
HETATM   27  C13 UNL     1      -3.359  50.725 -15.617  1.00  0.00     0.303 C 
BRANCH  27  28
HETATM   28  C14 UNL     1      -2.716  51.048 -14.276  1.00  0.00     0.244 C 
HETATM   29  O3  UNL     1      -1.647  51.652 -14.188  1.00  0.00    -0.271 OA
HETATM   30  N2  UNL     1      -3.401  50.536 -13.187  1.00  0.00    -0.354 N 
HETATM   31  H16 UNL     1      -4.202  49.939 -13.392  1.00  0.00     0.162 HD
BRANCH  30  32
HETATM   32  C15 UNL     1      -2.864  50.602 -11.821  1.00  0.00     0.098 C 
BRANCH  32  33
HETATM   33  C16 UNL     1      -1.692  49.619 -11.709  1.00  0.00     0.135 C 
BRANCH  33  34
HETATM   34  C17 UNL     1      -2.117  48.189 -11.857  1.00  0.00     0.141 C 
HETATM   35  O4  UNL     1      -2.379  47.620 -12.905  1.00  0.00    -0.650 OA
BRANCH  34  36
HETATM   36  O5  UNL     1      -2.175  47.533 -10.685  1.00  0.00    -0.776 OA
HETATM   37  H20 UNL     1      -2.449  46.620 -10.924  1.00  0.00     0.167 HD
ENDBRANCH  34  36
ENDBRANCH  33  34
ENDBRANCH  32  33
BRANCH  32  38
HETATM   38  C18 UNL     1      -2.563  52.088 -11.456  1.00  0.00     0.014 C 
HETATM   39  C19 UNL     1      -3.840  52.946 -11.347  1.00  0.00     0.033 C 
HETATM   40  C20 UNL     1      -3.728  54.027 -10.277  1.00  0.00     0.169 C 
HETATM   41  O6  UNL     1      -2.439  54.629 -10.328  1.00  0.00    -0.381 OA
HETATM   42  C21 UNL     1      -1.360  53.759  -9.953  1.00  0.00     0.054 C 
HETATM   43  C22 UNL     1      -0.147  54.208 -10.782  1.00  0.00     0.045 C 
HETATM   44  C23 UNL     1      -1.057  53.987  -8.468  1.00  0.00     0.045 C 
HETATM   45  C24 UNL     1      -1.683  52.268 -10.212  1.00  0.00     0.044 C 
ENDBRANCH  32  38
ENDBRANCH  30  32
ENDBRANCH  27  28
ENDBRANCH  26  27
ENDBRANCH  13  26
TORSDOF 9
ENDMDL
MODEL 6
REMARK minimizedAffinity -8.91474342
REMARK CNNscore 0.236192971
REMARK CNNaffinity 6.53367949
REMARK  9 active torsions:
REMARK  status: ('A' for Active; 'I' for Inactive)
REMARK    1  A    between atoms: C3_3  and  O1_4 
REMARK    2  A    between atoms: N1_14  and  O2_16 
REMARK    3  A    between atoms: O2_16  and  C13_17 
REMARK    4  A    between atoms: C13_17  and  C14_18 
REMARK       I    between atoms: C14_18  and  N2_20 
REMARK    5  A    between atoms: N2_20  and  C15_21 
REMARK    6  A    between atoms: C15_21  and  C16_22 
REMARK    7  A    between atoms: C15_21  and  C18_26 
REMARK    8  A    between atoms: C16_22  and  C17_23 
REMARK    9  A    between atoms: C17_23  and  O5_25 
ROOT
HETATM    1  C1  UNL     1      -4.638  45.600 -20.734  1.00  0.00     0.015 C 
HETATM    2  C2  UNL     1      -4.098  46.596 -21.141  1.00  0.00    -0.078 C 
HETATM    3  C3  UNL     1      -3.444  47.819 -21.625  1.00  0.00     0.128 C 
HETATM    4  C4  UNL     1      -1.939  47.625 -21.800  1.00  0.00     0.052 C 
HETATM    5  C5  UNL     1      -1.368  49.038 -21.840  1.00  0.00     0.010 C 
HETATM    6  C6  UNL     1      -2.367  49.952 -21.095  1.00  0.00     0.002 C 
HETATM    7  C7  UNL     1      -1.774  50.722 -19.901  1.00  0.00    -0.004 C 
HETATM    8  C8  UNL     1      -0.710  51.740 -20.325  1.00  0.00     0.010 C 
HETATM    9  C9  UNL     1      -0.316  52.610 -19.135  1.00  0.00     0.035 C 
HETATM   10  C10 UNL     1       0.129  51.805 -17.935  1.00  0.00    -0.069 C 
HETATM   11  C11 UNL     1       1.198  52.217 -17.232  1.00  0.00     0.030 C 
HETATM   12  C12 UNL     1       1.595  51.581 -15.950  1.00  0.00     0.032 C 
HETATM   13  N1  UNL     1       2.495  52.184 -15.226  1.00  0.00    -0.271 N 
ATOM     14  H1  UNL     1       2.981  53.035 -15.510  1.00  0.00     0.194 HD
HETATM   15  C25 UNL     1       0.866  50.326 -15.511  1.00  0.00     0.060 C 
HETATM   16  C26 UNL     1       0.165  49.636 -16.672  1.00  0.00     0.020 C 
HETATM   17  C27 UNL     1      -0.714  50.585 -17.535  1.00  0.00    -0.016 C 
HETATM   18  C28 UNL     1      -1.922  51.089 -16.708  1.00  0.00     0.020 C 
HETATM   19  C29 UNL     1      -1.179  49.791 -18.819  1.00  0.00     0.002 C 
HETATM   20  C30 UNL     1      -2.103  48.582 -18.545  1.00  0.00     0.007 C 
HETATM   21  C31 UNL     1      -3.502  48.733 -19.137  1.00  0.00     0.014 C 
HETATM   22  C32 UNL     1      -3.570  49.052 -20.667  1.00  0.00     0.003 C 
HETATM   23  C33 UNL     1      -4.909  49.799 -20.901  1.00  0.00     0.020 C 
ENDROOT
BRANCH   3  24
HETATM   24  O1  UNL     1      -3.993  48.110 -22.916  1.00  0.00    -0.377 OA
HETATM   25  H2  UNL     1      -3.598  48.936 -23.231  1.00  0.00     0.211 HD
ENDBRANCH   3  24
BRANCH  13  26
HETATM   26  O2  UNL     1       2.717  51.522 -14.008  1.00  0.00    -0.271 OA
BRANCH  26  27
HETATM   27  C13 UNL     1       1.821  52.033 -13.026  1.00  0.00     0.303 C 
BRANCH  27  28
HETATM   28  C14 UNL     1       2.561  52.419 -11.754  1.00  0.00     0.244 C 
HETATM   29  O3  UNL     1       3.240  51.614 -11.118  1.00  0.00    -0.271 OA
HETATM   30  N2  UNL     1       2.334  53.722 -11.346  1.00  0.00    -0.354 N 
HETATM   31  H16 UNL     1       1.646  54.254 -11.880  1.00  0.00     0.162 HD
BRANCH  30  32
HETATM   32  C15 UNL     1       2.827  54.241 -10.063  1.00  0.00     0.098 C 
BRANCH  32  33
HETATM   33  C16 UNL     1       1.939  53.688  -8.940  1.00  0.00     0.135 C 
BRANCH  33  34
HETATM   34  C17 UNL     1       0.499  54.071  -9.095  1.00  0.00     0.141 C 
HETATM   35  O4  UNL     1      -0.461  53.456  -8.658  1.00  0.00    -0.650 OA
BRANCH  34  36
HETATM   36  O5  UNL     1       0.329  55.218  -9.775  1.00  0.00    -0.776 OA
HETATM   37  H20 UNL     1      -0.643  55.356  -9.791  1.00  0.00     0.167 HD
ENDBRANCH  34  36
ENDBRANCH  33  34
ENDBRANCH  32  33
BRANCH  32  38
HETATM   38  C18 UNL     1       4.355  53.959  -9.945  1.00  0.00     0.014 C 
HETATM   39  C19 UNL     1       5.214  55.224 -10.146  1.00  0.00     0.033 C 
HETATM   40  C20 UNL     1       6.474  55.218  -9.288  1.00  0.00     0.169 C 
HETATM   41  O6  UNL     1       7.062  53.922  -9.299  1.00  0.00    -0.381 OA
HETATM   42  C21 UNL     1       6.281  52.908  -8.646  1.00  0.00     0.054 C 
HETATM   43  C22 UNL     1       6.574  51.600  -9.396  1.00  0.00     0.045 C 
HETATM   44  C23 UNL     1       6.781  52.775  -7.204  1.00  0.00     0.045 C 
HETATM   45  C24 UNL     1       4.767  53.225  -8.662  1.00  0.00     0.044 C 
ENDBRANCH  32  38
ENDBRANCH  30  32
ENDBRANCH  27  28
ENDBRANCH  26  27
ENDBRANCH  13  26
TORSDOF 9
ENDMDL
MODEL 7
REMARK minimizedAffinity -8.71527481
REMARK CNNscore 0.230232492
REMARK CNNaffinity 6.25798607
REMARK  9 active torsions:
REMARK  status: ('A' for Active; 'I' for Inactive)
REMARK    1  A    between atoms: C3_3  and  O1_4 
REMARK    2  A    between atoms: N1_14  and  O2_16 
REMARK    3  A    between atoms: O2_16  and  C13_17 
REMARK    4  A    between atoms: C13_17  and  C14_18 
REMARK       I    between atoms: C14_18  and  N2_20 
REMARK    5  A    between atoms: N2_20  and  C15_21 
REMARK    6  A    between atoms: C15_21  and  C16_22 
REMARK    7  A    between atoms: C15_21  and  C18_26 
REMARK    8  A    between atoms: C16_22  and  C17_23 
REMARK    9  A    between atoms: C17_23  and  O5_25 
ROOT
HETATM    1  C1  UNL     1      -0.496  51.501 -26.531  1.00  0.00     0.015 C 
HETATM    2  C2  UNL     1      -1.497  51.436 -25.864  1.00  0.00    -0.078 C 
HETATM    3  C3  UNL     1      -2.711  51.345 -25.042  1.00  0.00     0.128 C 
HETATM    4  C4  UNL     1      -2.952  52.626 -24.245  1.00  0.00     0.052 C 
HETATM    5  C5  UNL     1      -3.921  52.219 -23.142  1.00  0.00     0.010 C 
HETATM    6  C6  UNL     1      -3.743  50.700 -22.919  1.00  0.00     0.002 C 
HETATM    7  C7  UNL     1      -3.361  50.295 -21.484  1.00  0.00    -0.004 C 
HETATM    8  C8  UNL     1      -4.464  50.609 -20.468  1.00  0.00     0.010 C 
HETATM    9  C9  UNL     1      -4.116  50.000 -19.113  1.00  0.00     0.035 C 
HETATM   10  C10 UNL     1      -2.755  50.423 -18.607  1.00  0.00    -0.069 C 
HETATM   11  C11 UNL     1      -2.611  50.740 -17.308  1.00  0.00     0.030 C 
HETATM   12  C12 UNL     1      -1.281  51.000 -16.701  1.00  0.00     0.032 C 
HETATM   13  N1  UNL     1      -1.212  51.072 -15.401  1.00  0.00    -0.271 N 
ATOM     14  H1  UNL     1      -2.020  51.014 -14.781  1.00  0.00     0.194 HD
HETATM   15  C25 UNL     1      -0.072  51.068 -17.612  1.00  0.00     0.060 C 
HETATM   16  C26 UNL     1      -0.461  51.335 -19.060  1.00  0.00     0.020 C 
HETATM   17  C27 UNL     1      -1.581  50.399 -19.596  1.00  0.00    -0.016 C 
HETATM   18  C28 UNL     1      -1.060  48.944 -19.685  1.00  0.00     0.020 C 
HETATM   19  C29 UNL     1      -2.038  50.941 -21.007  1.00  0.00     0.002 C 
HETATM   20  C30 UNL     1      -0.957  50.892 -22.112  1.00  0.00     0.007 C 
HETATM   21  C31 UNL     1      -1.306  49.961 -23.270  1.00  0.00     0.014 C 
HETATM   22  C32 UNL     1      -2.687  50.211 -23.961  1.00  0.00     0.003 C 
HETATM   23  C33 UNL     1      -3.124  48.855 -24.574  1.00  0.00     0.020 C 
ENDROOT
BRANCH   3  24
HETATM   24  O1  UNL     1      -3.817  51.182 -25.938  1.00  0.00    -0.377 OA
HETATM   25  H2  UNL     1      -4.620  51.083 -25.408  1.00  0.00     0.211 HD
ENDBRANCH   3  24
BRANCH  13  26
HETATM   26  O2  UNL     1       0.110  51.239 -14.957  1.00  0.00    -0.271 OA
BRANCH  26  27
HETATM   27  C13 UNL     1       0.104  51.936 -13.716  1.00  0.00     0.303 C 
BRANCH  27  28
HETATM   28  C14 UNL     1       1.449  51.825 -13.014  1.00  0.00     0.244 C 
HETATM   29  O3  UNL     1       2.515  51.835 -13.630  1.00  0.00    -0.271 OA
HETATM   30  N2  UNL     1       1.355  51.635 -11.646  1.00  0.00    -0.354 N 
HETATM   31  H16 UNL     1       0.417  51.510 -11.267  1.00  0.00     0.162 HD
BRANCH  30  32
HETATM   32  C15 UNL     1       2.530  51.348 -10.811  1.00  0.00     0.098 C 
BRANCH  32  33
HETATM   33  C16 UNL     1       3.588  50.654 -11.679  1.00  0.00     0.135 C 
BRANCH  33  34
HETATM   34  C17 UNL     1       3.431  49.164 -11.706  1.00  0.00     0.141 C 
HETATM   35  O4  UNL     1       3.699  48.429 -12.644  1.00  0.00    -0.650 OA
BRANCH  34  36
HETATM   36  O5  UNL     1       2.964  48.662 -10.551  1.00  0.00    -0.776 OA
HETATM   37  H20 UNL     1       2.923  47.692 -10.700  1.00  0.00     0.167 HD
ENDBRANCH  34  36
ENDBRANCH  33  34
ENDBRANCH  32  33
BRANCH  32  38
HETATM   38  C18 UNL     1       2.974  52.651 -10.079  1.00  0.00     0.014 C 
HETATM   39  C19 UNL     1       4.439  52.595  -9.597  1.00  0.00     0.033 C 
HETATM   40  C20 UNL     1       5.127  53.954  -9.662  1.00  0.00     0.169 C 
HETATM   41  O6  UNL     1       4.240  54.969  -9.204  1.00  0.00    -0.381 OA
HETATM   42  C21 UNL     1       3.105  55.196 -10.055  1.00  0.00     0.054 C 
HETATM   43  C22 UNL     1       1.960  55.625  -9.126  1.00  0.00     0.045 C 
HETATM   44  C23 UNL     1       3.440  56.358 -10.997  1.00  0.00     0.045 C 
HETATM   45  C24 UNL     1       2.714  53.941 -10.869  1.00  0.00     0.044 C 
ENDBRANCH  32  38
ENDBRANCH  30  32
ENDBRANCH  27  28
ENDBRANCH  26  27
ENDBRANCH  13  26
TORSDOF 9
ENDMDL
MODEL 8
REMARK minimizedAffinity -8.3967762
REMARK CNNscore 0.182898954
REMARK CNNaffinity 5.02953577
REMARK  9 active torsions:
REMARK  status: ('A' for Active; 'I' for Inactive)
REMARK    1  A    between atoms: C3_3  and  O1_4 
REMARK    2  A    between atoms: N1_14  and  O2_16 
REMARK    3  A    between atoms: O2_16  and  C13_17 
REMARK    4  A    between atoms: C13_17  and  C14_18 
REMARK       I    between atoms: C14_18  and  N2_20 
REMARK    5  A    between atoms: N2_20  and  C15_21 
REMARK    6  A    between atoms: C15_21  and  C16_22 
REMARK    7  A    between atoms: C15_21  and  C18_26 
REMARK    8  A    between atoms: C16_22  and  C17_23 
REMARK    9  A    between atoms: C17_23  and  O5_25 
ROOT
HETATM    1  C1  UNL     1     -17.928  43.072 -17.270  1.00  0.00     0.015 C 
HETATM    2  C2  UNL     1     -18.570  43.493 -18.198  1.00  0.00    -0.078 C 
HETATM    3  C3  UNL     1     -19.344  44.018 -19.330  1.00  0.00     0.128 C 
HETATM    4  C4  UNL     1     -19.427  43.010 -20.475  1.00  0.00     0.052 C 
HETATM    5  C5  UNL     1     -19.825  43.837 -21.691  1.00  0.00     0.010 C 
HETATM    6  C6  UNL     1     -19.371  45.290 -21.421  1.00  0.00     0.002 C 
HETATM    7  C7  UNL     1     -18.408  45.874 -22.471  1.00  0.00    -0.004 C 
HETATM    8  C8  UNL     1     -19.061  46.027 -23.850  1.00  0.00     0.010 C 
HETATM    9  C9  UNL     1     -18.133  46.798 -24.784  1.00  0.00     0.035 C 
HETATM   10  C10 UNL     1     -16.754  46.187 -24.885  1.00  0.00    -0.069 C 
HETATM   11  C11 UNL     1     -16.160  46.110 -26.088  1.00  0.00     0.030 C 
HETATM   12  C12 UNL     1     -14.747  45.682 -26.247  1.00  0.00     0.032 C 
HETATM   13  N1  UNL     1     -14.187  45.855 -27.411  1.00  0.00    -0.271 N 
ATOM     14  H1  UNL     1     -14.674  46.217 -28.232  1.00  0.00     0.194 HD
HETATM   15  C25 UNL     1     -14.009  45.161 -25.029  1.00  0.00     0.060 C 
HETATM   16  C26 UNL     1     -14.964  44.707 -23.933  1.00  0.00     0.020 C 
HETATM   17  C27 UNL     1     -16.066  45.747 -23.584  1.00  0.00    -0.016 C 
HETATM   18  C28 UNL     1     -15.429  46.998 -22.933  1.00  0.00     0.020 C 
HETATM   19  C29 UNL     1     -17.105  45.053 -22.618  1.00  0.00     0.002 C 
HETATM   20  C30 UNL     1     -16.544  44.635 -21.240  1.00  0.00     0.007 C 
HETATM   21  C31 UNL     1     -17.187  45.372 -20.067  1.00  0.00     0.014 C 
HETATM   22  C32 UNL     1     -18.748  45.309 -19.988  1.00  0.00     0.003 C 
HETATM   23  C33 UNL     1     -19.201  46.579 -19.223  1.00  0.00     0.020 C 
ENDROOT
BRANCH   3  24
HETATM   24  O1  UNL     1     -20.679  44.247 -18.861  1.00  0.00    -0.377 OA
HETATM   25  H2  UNL     1     -21.191  44.629 -19.588  1.00  0.00     0.211 HD
ENDBRANCH   3  24
BRANCH  13  26
HETATM   26  O2  UNL     1     -12.833  45.485 -27.400  1.00  0.00    -0.271 OA
BRANCH  26  27
HETATM   27  C13 UNL     1     -12.224  45.892 -28.621  1.00  0.00     0.303 C 
BRANCH  27  28
HETATM   28  C14 UNL     1     -10.766  46.270 -28.412  1.00  0.00     0.244 C 
HETATM   29  O3  UNL     1     -10.004  45.592 -27.723  1.00  0.00    -0.271 OA
HETATM   30  N2  UNL     1     -10.407  47.472 -28.997  1.00  0.00    -0.354 N 
HETATM   31  H16 UNL     1     -11.158  48.010 -29.430  1.00  0.00     0.162 HD
BRANCH  30  32
HETATM   32  C15 UNL     1      -9.092  48.090 -28.780  1.00  0.00     0.098 C 
BRANCH  32  33
HETATM   33  C16 UNL     1      -8.786  48.069 -27.276  1.00  0.00     0.135 C 
BRANCH  33  34
HETATM   34  C17 UNL     1      -9.772  48.860 -26.471  1.00  0.00     0.141 C 
HETATM   35  O4  UNL     1     -10.807  48.437 -25.982  1.00  0.00    -0.650 OA
BRANCH  34  36
HETATM   36  O5  UNL     1      -9.405  50.142 -26.302  1.00  0.00    -0.776 OA
HETATM   37  H20 UNL     1     -10.121  50.535 -25.755  1.00  0.00     0.167 HD
ENDBRANCH  34  36
ENDBRANCH  33  34
ENDBRANCH  32  33
BRANCH  32  38
HETATM   38  C18 UNL     1      -8.043  47.412 -29.713  1.00  0.00     0.014 C 
HETATM   39  C19 UNL     1      -8.303  45.904 -29.909  1.00  0.00     0.033 C 
HETATM   40  C20 UNL     1      -7.920  45.422 -31.304  1.00  0.00     0.169 C 
HETATM   41  O6  UNL     1      -6.688  46.013 -31.701  1.00  0.00    -0.381 OA
HETATM   42  C21 UNL     1      -6.749  47.433 -31.909  1.00  0.00     0.054 C 
HETATM   43  C22 UNL     1      -5.364  47.976 -31.527  1.00  0.00     0.045 C 
HETATM   44  C23 UNL     1      -6.986  47.687 -33.402  1.00  0.00     0.045 C 
HETATM   45  C24 UNL     1      -7.857  48.109 -31.068  1.00  0.00     0.044 C 
ENDBRANCH  32  38
ENDBRANCH  30  32
ENDBRANCH  27  28
ENDBRANCH  26  27
ENDBRANCH  13  26
TORSDOF 9
ENDMDL
MODEL 9
REMARK minimizedAffinity -8.19996929
REMARK CNNscore 0.168793261
REMARK CNNaffinity 6.28288221
REMARK  9 active torsions:
REMARK  status: ('A' for Active; 'I' for Inactive)
REMARK    1  A    between atoms: C3_3  and  O1_4 
REMARK    2  A    between atoms: N1_14  and  O2_16 
REMARK    3  A    between atoms: O2_16  and  C13_17 
REMARK    4  A    between atoms: C13_17  and  C14_18 
REMARK       I    between atoms: C14_18  and  N2_20 
REMARK    5  A    between atoms: N2_20  and  C15_21 
REMARK    6  A    between atoms: C15_21  and  C16_22 
REMARK    7  A    between atoms: C15_21  and  C18_26 
REMARK    8  A    between atoms: C16_22  and  C17_23 
REMARK    9  A    between atoms: C17_23  and  O5_25 
ROOT
HETATM    1  C1  UNL     1      -5.524  48.100 -25.703  1.00  0.00     0.015 C 
HETATM    2  C2  UNL     1      -4.689  48.952 -25.534  1.00  0.00    -0.078 C 
HETATM    3  C3  UNL     1      -3.680  49.996 -25.315  1.00  0.00     0.128 C 
HETATM    4  C4  UNL     1      -2.275  49.408 -25.197  1.00  0.00     0.052 C 
HETATM    5  C5  UNL     1      -1.452  50.503 -24.529  1.00  0.00     0.010 C 
HETATM    6  C6  UNL     1      -2.436  51.389 -23.733  1.00  0.00     0.002 C 
HETATM    7  C7  UNL     1      -2.136  51.502 -22.228  1.00  0.00    -0.004 C 
HETATM    8  C8  UNL     1      -0.809  52.216 -21.943  1.00  0.00     0.010 C 
HETATM    9  C9  UNL     1      -0.671  52.482 -20.446  1.00  0.00     0.035 C 
HETATM   10  C10 UNL     1      -0.825  51.234 -19.607  1.00  0.00    -0.069 C 
HETATM   11  C11 UNL     1       0.007  51.039 -18.569  1.00  0.00     0.030 C 
HETATM   12  C12 UNL     1      -0.185  49.930 -17.600  1.00  0.00     0.032 C 
HETATM   13  N1  UNL     1       0.523  49.951 -16.505  1.00  0.00    -0.271 N 
ATOM     14  H1  UNL     1       1.236  50.650 -16.299  1.00  0.00     0.194 HD
HETATM   15  C25 UNL     1      -1.256  48.896 -17.888  1.00  0.00     0.060 C 
HETATM   16  C26 UNL     1      -1.651  48.877 -19.358  1.00  0.00     0.020 C 
HETATM   17  C27 UNL     1      -1.980  50.280 -19.943  1.00  0.00    -0.016 C 
HETATM   18  C28 UNL     1      -3.267  50.838 -19.289  1.00  0.00     0.020 C 
HETATM   19  C29 UNL     1      -2.138  50.133 -21.507  1.00  0.00     0.002 C 
HETATM   20  C30 UNL     1      -3.323  49.255 -21.969  1.00  0.00     0.007 C 
HETATM   21  C31 UNL     1      -4.382  50.021 -22.759  1.00  0.00     0.014 C 
HETATM   22  C32 UNL     1      -3.868  50.824 -23.999  1.00  0.00     0.003 C 
HETATM   23  C33 UNL     1      -4.873  51.986 -24.217  1.00  0.00     0.020 C 
ENDROOT
BRANCH   3  24
HETATM   24  O1  UNL     1      -3.694  50.846 -26.468  1.00  0.00    -0.377 OA
HETATM   25  H2  UNL     1      -3.059  51.562 -26.320  1.00  0.00     0.211 HD
ENDBRANCH   3  24
BRANCH  13  26
HETATM   26  O2  UNL     1       0.185  48.895 -15.644  1.00  0.00    -0.271 OA
BRANCH  26  27
HETATM   27  C13 UNL     1      -0.553  49.406 -14.539  1.00  0.00     0.303 C 
BRANCH  27  28
HETATM   28  C14 UNL     1       0.367  49.787 -13.390  1.00  0.00     0.244 C 
HETATM   29  O3  UNL     1       1.255  49.039 -12.982  1.00  0.00    -0.271 OA
HETATM   30  N2  UNL     1       0.062  51.005 -12.806  1.00  0.00    -0.354 N 
HETATM   31  H16 UNL     1      -0.779  51.474 -13.143  1.00  0.00     0.162 HD
BRANCH  30  32
HETATM   32  C15 UNL     1       0.729  51.480 -11.585  1.00  0.00     0.098 C 
BRANCH  32  33
HETATM   33  C16 UNL     1       2.031  52.187 -11.985  1.00  0.00     0.135 C 
BRANCH  33  34
HETATM   34  C17 UNL     1       3.234  51.625 -11.290  1.00  0.00     0.141 C 
HETATM   35  O4  UNL     1       3.915  52.197 -10.453  1.00  0.00    -0.650 OA
BRANCH  34  36
HETATM   36  O5  UNL     1       3.518  50.366 -11.665  1.00  0.00    -0.776 OA
HETATM   37  H20 UNL     1       4.307  50.121 -11.133  1.00  0.00     0.167 HD
ENDBRANCH  34  36
ENDBRANCH  33  34
ENDBRANCH  32  33
BRANCH  32  38
HETATM   38  C18 UNL     1      -0.281  52.308 -10.735  1.00  0.00     0.014 C 
HETATM   39  C19 UNL     1      -1.060  51.443  -9.723  1.00  0.00     0.033 C 
HETATM   40  C20 UNL     1      -1.367  52.191  -8.429  1.00  0.00     0.169 C 
HETATM   41  O6  UNL     1      -1.773  53.523  -8.724  1.00  0.00    -0.381 OA
HETATM   42  C21 UNL     1      -0.739  54.351  -9.281  1.00  0.00     0.054 C 
HETATM   43  C22 UNL     1      -1.448  55.335 -10.223  1.00  0.00     0.045 C 
HETATM   44  C23 UNL     1      -0.092  55.140  -8.137  1.00  0.00     0.045 C 
HETATM   45  C24 UNL     1       0.331  53.533 -10.041  1.00  0.00     0.044 C 
ENDBRANCH  32  38
ENDBRANCH  30  32
ENDBRANCH  27  28
ENDBRANCH  26  27
ENDBRANCH  13  26
TORSDOF 9
ENDMDL
