MODEL 1
REMARK minimizedAffinity -9.27148342
REMARK  7 active torsions:
REMARK  status: ('A' for Active; 'I' for Inactive)
REMARK    1  A    between atoms: C2_2  and  C3_3 
REMARK    2  A    between atoms: C2_2  and  C9_11 
REMARK    3  A    between atoms: C3_3  and  C4_4 
REMARK    4  A    between atoms: C5_5  and  C6_6 
REMARK    5  A    between atoms: C6_6  and  O1_9 
REMARK    6  A    between atoms: O1_9  and  O2_10 
REMARK    7  A    between atoms: C10_12  and  O3_13 
ROOT
HETATM    1  C9  UNL     1      -1.856  51.529 -23.211  1.00  0.00     0.028 C 
HETATM    2  C10 UNL     1      -2.861  52.671 -23.578  1.00  0.00     0.124 C 
HETATM    3  C11 UNL     1      -4.286  52.131 -23.338  1.00  0.00     0.046 C 
HETATM    4  C12 UNL     1      -4.108  50.604 -23.223  1.00  0.00    -0.010 C 
HETATM    5  C13 UNL     1      -4.040  50.046 -24.681  1.00  0.00     0.021 C 
HETATM    6  C14 UNL     1      -5.214  49.809 -22.529  1.00  0.00    -0.070 C 
HETATM    7  C15 UNL     1      -6.514  50.150 -22.646  1.00  0.00    -0.022 C 
HETATM    8  C16 UNL     1      -7.660  49.360 -22.075  1.00  0.00     0.034 C 
HETATM    9  C17 UNL     1      -7.182  48.260 -21.113  1.00  0.00     0.013 C 
HETATM   10  C18 UNL     1      -8.300  47.390 -20.457  1.00  0.00     0.018 C 
HETATM   11  C19 UNL     1      -9.330  48.295 -19.745  1.00  0.00     0.023 C 
HETATM   12  C20 UNL     1      -9.056  46.471 -21.424  1.00  0.00     0.023 C 
HETATM   13  C21 UNL     1      -7.645  46.504 -19.382  1.00  0.00     0.135 C 
HETATM   14  O4  UNL     1      -8.311  45.901 -18.538  1.00  0.00    -0.297 OA
HETATM   15  C22 UNL     1      -6.133  46.406 -19.376  1.00  0.00     0.080 C 
HETATM   16  C23 UNL     1      -5.622  46.255 -20.801  1.00  0.00     0.017 C 
HETATM   17  C24 UNL     1      -5.954  47.471 -21.717  1.00  0.00    -0.031 C 
HETATM   18  C25 UNL     1      -6.206  46.915 -23.144  1.00  0.00     0.016 C 
HETATM   19  C26 UNL     1      -4.778  48.534 -21.774  1.00  0.00     0.024 C 
HETATM   20  C27 UNL     1      -3.416  47.998 -22.277  1.00  0.00     0.010 C 
HETATM   21  C28 UNL     1      -2.288  49.052 -22.398  1.00  0.00     0.011 C 
HETATM   22  C29 UNL     1      -2.765  50.521 -22.417  1.00  0.00    -0.026 C 
HETATM   23  C30 UNL     1      -2.892  51.036 -20.946  1.00  0.00     0.016 C 
ENDROOT
BRANCH   1  24
HETATM   24  C2  UNL     1      -0.550  52.060 -22.525  1.00  0.00    -0.008 C 
HETATM   25  C1  UNL     1      -0.011  51.063 -21.488  1.00  0.00     0.011 C 
BRANCH  24  26
HETATM   26  C3  UNL     1       0.552  52.375 -23.573  1.00  0.00     0.031 C 
BRANCH  26  27
HETATM   27  C4  UNL     1       0.189  51.973 -24.975  1.00  0.00    -0.027 C 
HETATM   28  C5  UNL     1       0.408  52.734 -26.062  1.00  0.00     0.009 C 
BRANCH  28  29
HETATM   29  C6  UNL     1       0.068  52.383 -27.502  1.00  0.00     0.106 C 
HETATM   30  C7  UNL     1      -1.058  51.340 -27.491  1.00  0.00     0.053 C 
HETATM   31  C8  UNL     1       1.286  51.791 -28.225  1.00  0.00     0.053 C 
BRANCH  29  32
HETATM   32  O1  UNL     1      -0.462  53.510 -28.232  1.00  0.00    -0.229 OA
BRANCH  32  33
HETATM   33  O2  UNL     1      -1.895  53.606 -27.955  1.00  0.00    -0.249 OA
HETATM   34  H15 UNL     1      -1.872  54.505 -27.584  1.00  0.00     0.253 HD
ENDBRANCH  32  33
ENDBRANCH  29  32
ENDBRANCH  28  29
ENDBRANCH  26  27
ENDBRANCH  24  26
ENDBRANCH   1  24
BRANCH   2  35
HETATM   35  O3  UNL     1      -2.749  53.019 -24.955  1.00  0.00    -0.395 OA
HETATM   36  H18 UNL     1      -1.847  53.332 -25.126  1.00  0.00     0.210 HD
ENDBRANCH   2  35
TORSDOF 7
ENDMDL
MODEL 2
REMARK minimizedAffinity -9.26191998
REMARK  7 active torsions:
REMARK  status: ('A' for Active; 'I' for Inactive)
REMARK    1  A    between atoms: C2_2  and  C3_3 
REMARK    2  A    between atoms: C2_2  and  C9_11 
REMARK    3  A    between atoms: C3_3  and  C4_4 
REMARK    4  A    between atoms: C5_5  and  C6_6 
REMARK    5  A    between atoms: C6_6  and  O1_9 
REMARK    6  A    between atoms: O1_9  and  O2_10 
REMARK    7  A    between atoms: C10_12  and  O3_13 
ROOT
HETATM    1  C9  UNL     1      -0.801  52.239 -20.940  1.00  0.00     0.028 C 
HETATM    2  C10 UNL     1      -0.065  51.285 -19.943  1.00  0.00     0.124 C 
HETATM    3  C11 UNL     1      -0.989  50.077 -19.685  1.00  0.00     0.046 C 
HETATM    4  C12 UNL     1      -2.370  50.528 -20.203  1.00  0.00    -0.010 C 
HETATM    5  C13 UNL     1      -3.019  51.389 -19.072  1.00  0.00     0.021 C 
HETATM    6  C14 UNL     1      -3.395  49.443 -20.535  1.00  0.00    -0.070 C 
HETATM    7  C15 UNL     1      -3.483  48.306 -19.816  1.00  0.00    -0.022 C 
HETATM    8  C16 UNL     1      -4.526  47.242 -20.021  1.00  0.00     0.034 C 
HETATM    9  C17 UNL     1      -5.327  47.461 -21.315  1.00  0.00     0.013 C 
HETATM   10  C18 UNL     1      -6.431  46.400 -21.624  1.00  0.00     0.018 C 
HETATM   11  C19 UNL     1      -5.821  44.982 -21.621  1.00  0.00     0.023 C 
HETATM   12  C20 UNL     1      -7.627  46.411 -20.665  1.00  0.00     0.023 C 
HETATM   13  C21 UNL     1      -6.964  46.668 -23.043  1.00  0.00     0.135 C 
HETATM   14  O4  UNL     1      -7.658  45.848 -23.647  1.00  0.00    -0.297 OA
HETATM   15  C22 UNL     1      -6.593  47.984 -23.699  1.00  0.00     0.080 C 
HETATM   16  C23 UNL     1      -6.717  49.115 -22.689  1.00  0.00     0.017 C 
HETATM   17  C24 UNL     1      -5.757  48.973 -21.470  1.00  0.00    -0.031 C 
HETATM   18  C25 UNL     1      -6.499  49.545 -20.231  1.00  0.00     0.016 C 
HETATM   19  C26 UNL     1      -4.395  49.762 -21.668  1.00  0.00     0.024 C 
HETATM   20  C27 UNL     1      -4.533  51.284 -21.911  1.00  0.00     0.010 C 
HETATM   21  C28 UNL     1      -3.201  52.064 -22.035  1.00  0.00     0.011 C 
HETATM   22  C29 UNL     1      -1.958  51.326 -21.490  1.00  0.00    -0.026 C 
HETATM   23  C30 UNL     1      -1.366  50.419 -22.618  1.00  0.00     0.016 C 
ENDROOT
BRANCH   1  24
HETATM   24  C2  UNL     1       0.169  52.918 -21.967  1.00  0.00    -0.008 C 
HETATM   25  C1  UNL     1       1.369  53.571 -21.264  1.00  0.00     0.011 C 
BRANCH  24  26
HETATM   26  C3  UNL     1       0.671  51.902 -23.028  1.00  0.00     0.031 C 
BRANCH  26  27
HETATM   27  C4  UNL     1       0.679  52.443 -24.431  1.00  0.00    -0.027 C 
HETATM   28  C5  UNL     1       0.818  51.686 -25.534  1.00  0.00     0.009 C 
BRANCH  28  29
HETATM   29  C6  UNL     1       0.831  52.171 -26.975  1.00  0.00     0.106 C 
HETATM   30  C7  UNL     1      -0.294  51.456 -27.735  1.00  0.00     0.053 C 
HETATM   31  C8  UNL     1       2.171  51.846 -27.652  1.00  0.00     0.053 C 
BRANCH  29  32
HETATM   32  O1  UNL     1       0.532  53.579 -27.083  1.00  0.00    -0.229 OA
BRANCH  32  33
HETATM   33  O2  UNL     1       0.670  54.183 -25.758  1.00  0.00    -0.249 OA
HETATM   34  H15 UNL     1       1.355  54.828 -26.007  1.00  0.00     0.253 HD
ENDBRANCH  32  33
ENDBRANCH  29  32
ENDBRANCH  28  29
ENDBRANCH  26  27
ENDBRANCH  24  26
ENDBRANCH   1  24
BRANCH   2  35
HETATM   35  O3  UNL     1       0.165  51.937 -18.697  1.00  0.00    -0.395 OA
HETATM   36  H18 UNL     1       0.722  52.717 -18.850  1.00  0.00     0.210 HD
ENDBRANCH   2  35
TORSDOF 7
ENDMDL
MODEL 3
REMARK minimizedAffinity -9.16974258
REMARK  7 active torsions:
REMARK  status: ('A' for Active; 'I' for Inactive)
REMARK    1  A    between atoms: C2_2  and  C3_3 
REMARK    2  A    between atoms: C2_2  and  C9_11 
REMARK    3  A    between atoms: C3_3  and  C4_4 
REMARK    4  A    between atoms: C5_5  and  C6_6 
REMARK    5  A    between atoms: C6_6  and  O1_9 
REMARK    6  A    between atoms: O1_9  and  O2_10 
REMARK    7  A    between atoms: C10_12  and  O3_13 
ROOT
HETATM    1  C9  UNL     1      -2.240  49.851 -21.489  1.00  0.00     0.028 C 
HETATM    2  C10 UNL     1      -1.625  51.223 -21.920  1.00  0.00     0.124 C 
HETATM    3  C11 UNL     1      -0.850  51.787 -20.711  1.00  0.00     0.046 C 
HETATM    4  C12 UNL     1      -1.346  50.955 -19.511  1.00  0.00    -0.010 C 
HETATM    5  C13 UNL     1      -2.703  51.581 -19.055  1.00  0.00     0.021 C 
HETATM    6  C14 UNL     1      -0.468  50.917 -18.260  1.00  0.00    -0.070 C 
HETATM    7  C15 UNL     1       0.242  51.991 -17.858  1.00  0.00    -0.022 C 
HETATM    8  C16 UNL     1       1.047  52.059 -16.589  1.00  0.00     0.034 C 
HETATM    9  C17 UNL     1       1.191  50.681 -15.922  1.00  0.00     0.013 C 
HETATM   10  C18 UNL     1       2.021  50.645 -14.600  1.00  0.00     0.018 C 
HETATM   11  C19 UNL     1       3.417  51.262 -14.831  1.00  0.00     0.023 C 
HETATM   12  C20 UNL     1       1.372  51.358 -13.408  1.00  0.00     0.023 C 
HETATM   13  C21 UNL     1       2.229  49.170 -14.209  1.00  0.00     0.135 C 
HETATM   14  O4  UNL     1       3.050  48.830 -13.355  1.00  0.00    -0.297 OA
HETATM   15  C22 UNL     1       1.396  48.127 -14.926  1.00  0.00     0.080 C 
HETATM   16  C23 UNL     1      -0.041  48.613 -15.052  1.00  0.00     0.017 C 
HETATM   17  C24 UNL     1      -0.190  49.915 -15.895  1.00  0.00    -0.031 C 
HETATM   18  C25 UNL     1      -1.351  50.735 -15.272  1.00  0.00     0.016 C 
HETATM   19  C26 UNL     1      -0.520  49.623 -17.419  1.00  0.00     0.024 C 
HETATM   20  C27 UNL     1      -1.812  48.811 -17.680  1.00  0.00     0.010 C 
HETATM   21  C28 UNL     1      -2.169  48.586 -19.169  1.00  0.00     0.011 C 
HETATM   22  C29 UNL     1      -1.458  49.532 -20.162  1.00  0.00    -0.026 C 
HETATM   23  C30 UNL     1      -0.074  48.917 -20.551  1.00  0.00     0.016 C 
ENDROOT
BRANCH   1  24
HETATM   24  C2  UNL     1      -2.229  48.787 -22.640  1.00  0.00    -0.008 C 
HETATM   25  C1  UNL     1      -2.259  47.355 -22.084  1.00  0.00     0.011 C 
BRANCH  24  26
HETATM   26  C3  UNL     1      -3.417  48.996 -23.616  1.00  0.00     0.031 C 
BRANCH  26  27
HETATM   27  C4  UNL     1      -3.009  49.512 -24.968  1.00  0.00    -0.027 C 
HETATM   28  C5  UNL     1      -2.734  50.801 -25.235  1.00  0.00     0.009 C 
BRANCH  28  29
HETATM   29  C6  UNL     1      -2.315  51.383 -26.576  1.00  0.00     0.106 C 
HETATM   30  C7  UNL     1      -3.028  50.599 -27.686  1.00  0.00     0.053 C 
HETATM   31  C8  UNL     1      -0.797  51.260 -26.779  1.00  0.00     0.053 C 
BRANCH  29  32
HETATM   32  O1  UNL     1      -2.743  52.752 -26.739  1.00  0.00    -0.229 OA
BRANCH  32  33
HETATM   33  O2  UNL     1      -2.086  53.302 -27.924  1.00  0.00    -0.249 OA
HETATM   34  H15 UNL     1      -2.903  53.523 -28.405  1.00  0.00     0.253 HD
ENDBRANCH  32  33
ENDBRANCH  29  32
ENDBRANCH  28  29
ENDBRANCH  26  27
ENDBRANCH  24  26
ENDBRANCH   1  24
BRANCH   2  35
HETATM   35  O3  UNL     1      -2.651  52.153 -22.257  1.00  0.00    -0.395 OA
HETATM   36  H18 UNL     1      -3.165  51.796 -22.998  1.00  0.00     0.210 HD
ENDBRANCH   2  35
TORSDOF 7
ENDMDL
MODEL 4
REMARK minimizedAffinity -9.03778744
REMARK  7 active torsions:
REMARK  status: ('A' for Active; 'I' for Inactive)
REMARK    1  A    between atoms: C2_2  and  C3_3 
REMARK    2  A    between atoms: C2_2  and  C9_11 
REMARK    3  A    between atoms: C3_3  and  C4_4 
REMARK    4  A    between atoms: C5_5  and  C6_6 
REMARK    5  A    between atoms: C6_6  and  O1_9 
REMARK    6  A    between atoms: O1_9  and  O2_10 
REMARK    7  A    between atoms: C10_12  and  O3_13 
ROOT
HETATM    1  C9  UNL     1      -1.707  49.887 -18.129  1.00  0.00     0.028 C 
HETATM    2  C10 UNL     1      -2.880  48.860 -18.251  1.00  0.00     0.124 C 
HETATM    3  C11 UNL     1      -3.360  48.874 -19.717  1.00  0.00     0.046 C 
HETATM    4  C12 UNL     1      -2.748  50.158 -20.314  1.00  0.00    -0.010 C 
HETATM    5  C13 UNL     1      -3.681  51.340 -19.896  1.00  0.00     0.021 C 
HETATM    6  C14 UNL     1      -2.625  50.247 -21.835  1.00  0.00    -0.070 C 
HETATM    7  C15 UNL     1      -3.553  49.713 -22.655  1.00  0.00    -0.022 C 
HETATM    8  C16 UNL     1      -3.549  49.846 -24.153  1.00  0.00     0.034 C 
HETATM    9  C17 UNL     1      -2.229  50.434 -24.678  1.00  0.00     0.013 C 
HETATM   10  C18 UNL     1      -2.122  50.602 -26.227  1.00  0.00     0.018 C 
HETATM   11  C19 UNL     1      -2.411  49.258 -26.930  1.00  0.00     0.023 C 
HETATM   12  C20 UNL     1      -3.047  51.667 -26.828  1.00  0.00     0.023 C 
HETATM   13  C21 UNL     1      -0.672  50.995 -26.564  1.00  0.00     0.135 C 
HETATM   14  O4  UNL     1      -0.234  50.953 -27.715  1.00  0.00    -0.297 OA
HETATM   15  C22 UNL     1       0.225  51.426 -25.421  1.00  0.00     0.080 C 
HETATM   16  C23 UNL     1      -0.541  52.349 -24.485  1.00  0.00     0.017 C 
HETATM   17  C24 UNL     1      -1.775  51.675 -23.813  1.00  0.00    -0.031 C 
HETATM   18  C25 UNL     1      -2.868  52.767 -23.659  1.00  0.00     0.016 C 
HETATM   19  C26 UNL     1      -1.440  51.071 -22.384  1.00  0.00     0.024 C 
HETATM   20  C27 UNL     1      -0.901  52.081 -21.342  1.00  0.00     0.010 C 
HETATM   21  C28 UNL     1      -0.640  51.504 -19.928  1.00  0.00     0.011 C 
HETATM   22  C29 UNL     1      -1.334  50.156 -19.634  1.00  0.00    -0.026 C 
HETATM   23  C30 UNL     1      -0.414  48.990 -20.122  1.00  0.00     0.016 C 
ENDROOT
BRANCH   1  24
HETATM   24  C2  UNL     1      -0.577  49.413 -17.152  1.00  0.00    -0.008 C 
HETATM   25  C1  UNL     1       0.442  50.531 -16.881  1.00  0.00     0.011 C 
BRANCH  24  26
HETATM   26  C3  UNL     1      -1.167  48.904 -15.809  1.00  0.00     0.031 C 
BRANCH  26  27
HETATM   27  C4  UNL     1      -1.438  49.996 -14.812  1.00  0.00    -0.027 C 
HETATM   28  C5  UNL     1      -2.656  50.507 -14.560  1.00  0.00     0.009 C 
BRANCH  28  29
HETATM   29  C6  UNL     1      -2.994  51.606 -13.565  1.00  0.00     0.106 C 
HETATM   30  C7  UNL     1      -1.685  52.275 -13.124  1.00  0.00     0.053 C 
HETATM   31  C8  UNL     1      -3.698  51.030 -12.328  1.00  0.00     0.053 C 
BRANCH  29  32
HETATM   32  O1  UNL     1      -3.782  52.660 -14.158  1.00  0.00    -0.229 OA
BRANCH  32  33
HETATM   33  O2  UNL     1      -4.148  53.609 -13.107  1.00  0.00    -0.249 OA
HETATM   34  H15 UNL     1      -3.727  54.386 -13.515  1.00  0.00     0.253 HD
ENDBRANCH  32  33
ENDBRANCH  29  32
ENDBRANCH  28  29
ENDBRANCH  26  27
ENDBRANCH  24  26
ENDBRANCH   1  24
BRANCH   2  35
HETATM   35  O3  UNL     1      -3.976  49.245 -17.426  1.00  0.00    -0.395 OA
HETATM   36  H18 UNL     1      -3.678  49.269 -16.503  1.00  0.00     0.210 HD
ENDBRANCH   2  35
TORSDOF 7
ENDMDL
MODEL 5
REMARK minimizedAffinity -8.99431896
REMARK  7 active torsions:
REMARK  status: ('A' for Active; 'I' for Inactive)
REMARK    1  A    between atoms: C2_2  and  C3_3 
REMARK    2  A    between atoms: C2_2  and  C9_11 
REMARK    3  A    between atoms: C3_3  and  C4_4 
REMARK    4  A    between atoms: C5_5  and  C6_6 
REMARK    5  A    between atoms: C6_6  and  O1_9 
REMARK    6  A    between atoms: O1_9  and  O2_10 
REMARK    7  A    between atoms: C10_12  and  O3_13 
ROOT
HETATM    1  C9  UNL     1      -2.967  50.489 -21.990  1.00  0.00     0.028 C 
HETATM    2  C10 UNL     1      -2.431  49.551 -20.859  1.00  0.00     0.124 C 
HETATM    3  C11 UNL     1      -3.351  48.313 -20.806  1.00  0.00     0.046 C 
HETATM    4  C12 UNL     1      -4.602  48.726 -21.607  1.00  0.00    -0.010 C 
HETATM    5  C13 UNL     1      -5.505  49.558 -20.640  1.00  0.00     0.021 C 
HETATM    6  C14 UNL     1      -5.497  47.612 -22.152  1.00  0.00    -0.070 C 
HETATM    7  C15 UNL     1      -5.701  46.467 -21.468  1.00  0.00    -0.022 C 
HETATM    8  C16 UNL     1      -6.642  45.373 -21.893  1.00  0.00     0.034 C 
HETATM    9  C17 UNL     1      -7.155  45.578 -23.328  1.00  0.00     0.013 C 
HETATM   10  C18 UNL     1      -8.133  44.486 -23.868  1.00  0.00     0.018 C 
HETATM   11  C19 UNL     1      -7.493  43.087 -23.736  1.00  0.00     0.023 C 
HETATM   12  C20 UNL     1      -9.506  44.453 -23.186  1.00  0.00     0.023 C 
HETATM   13  C21 UNL     1      -8.359  44.749 -25.368  1.00  0.00     0.135 C 
HETATM   14  O4  UNL     1      -8.881  43.912 -26.106  1.00  0.00    -0.297 OA
HETATM   15  C22 UNL     1      -7.898  46.079 -25.927  1.00  0.00     0.080 C 
HETATM   16  C23 UNL     1      -8.270  47.198 -24.966  1.00  0.00     0.017 C 
HETATM   17  C24 UNL     1      -7.589  47.077 -23.570  1.00  0.00    -0.031 C 
HETATM   18  C25 UNL     1      -8.596  47.616 -22.519  1.00  0.00     0.016 C 
HETATM   19  C26 UNL     1      -6.242  47.908 -23.472  1.00  0.00     0.024 C 
HETATM   20  C27 UNL     1      -6.373  49.428 -23.737  1.00  0.00     0.010 C 
HETATM   21  C28 UNL     1      -5.070  50.249 -23.573  1.00  0.00     0.011 C 
HETATM   22  C29 UNL     1      -3.951  49.545 -22.775  1.00  0.00    -0.026 C 
HETATM   23  C30 UNL     1      -3.103  48.666 -23.751  1.00  0.00     0.016 C 
ENDROOT
BRANCH   1  24
HETATM   24  C2  UNL     1      -1.822  51.206 -22.785  1.00  0.00    -0.008 C 
HETATM   25  C1  UNL     1      -0.494  51.175 -22.013  1.00  0.00     0.011 C 
BRANCH  24  26
HETATM   26  C3  UNL     1      -1.627  50.574 -24.190  1.00  0.00     0.031 C 
BRANCH  26  27
HETATM   27  C4  UNL     1      -0.971  51.492 -25.183  1.00  0.00    -0.027 C 
HETATM   28  C5  UNL     1       0.233  51.269 -25.740  1.00  0.00     0.009 C 
BRANCH  28  29
HETATM   29  C6  UNL     1       0.947  52.154 -26.749  1.00  0.00     0.106 C 
HETATM   30  C7  UNL     1       0.322  53.555 -26.689  1.00  0.00     0.053 C 
HETATM   31  C8  UNL     1       0.789  51.602 -28.173  1.00  0.00     0.053 C 
BRANCH  29  32
HETATM   32  O1  UNL     1       2.341  52.343 -26.425  1.00  0.00    -0.229 OA
BRANCH  32  33
HETATM   33  O2  UNL     1       3.136  51.468 -27.285  1.00  0.00    -0.249 OA
HETATM   34  H15 UNL     1       3.661  52.176 -27.701  1.00  0.00     0.253 HD
ENDBRANCH  32  33
ENDBRANCH  29  32
ENDBRANCH  28  29
ENDBRANCH  26  27
ENDBRANCH  24  26
ENDBRANCH   1  24
BRANCH   2  35
HETATM   35  O3  UNL     1      -2.493  50.200 -19.592  1.00  0.00    -0.395 OA
HETATM   36  H18 UNL     1      -1.942  50.997 -19.622  1.00  0.00     0.210 HD
ENDBRANCH   2  35
TORSDOF 7
ENDMDL
MODEL 6
REMARK minimizedAffinity -8.77210617
REMARK  7 active torsions:
REMARK  status: ('A' for Active; 'I' for Inactive)
REMARK    1  A    between atoms: C2_2  and  C3_3 
REMARK    2  A    between atoms: C2_2  and  C9_11 
REMARK    3  A    between atoms: C3_3  and  C4_4 
REMARK    4  A    between atoms: C5_5  and  C6_6 
REMARK    5  A    between atoms: C6_6  and  O1_9 
REMARK    6  A    between atoms: O1_9  and  O2_10 
REMARK    7  A    between atoms: C10_12  and  O3_13 
ROOT
HETATM    1  C9  UNL     1      -5.708  48.318 -22.780  1.00  0.00     0.028 C 
HETATM    2  C10 UNL     1      -6.634  48.856 -21.640  1.00  0.00     0.124 C 
HETATM    3  C11 UNL     1      -5.762  49.712 -20.698  1.00  0.00     0.046 C 
HETATM    4  C12 UNL     1      -4.312  49.341 -21.067  1.00  0.00    -0.010 C 
HETATM    5  C13 UNL     1      -3.981  48.009 -20.320  1.00  0.00     0.021 C 
HETATM    6  C14 UNL     1      -3.205  50.320 -20.675  1.00  0.00    -0.070 C 
HETATM    7  C15 UNL     1      -3.258  51.031 -19.530  1.00  0.00    -0.022 C 
HETATM    8  C16 UNL     1      -2.164  51.935 -19.032  1.00  0.00     0.034 C 
HETATM    9  C17 UNL     1      -1.082  52.173 -20.098  1.00  0.00     0.013 C 
HETATM   10  C18 UNL     1       0.095  53.110 -19.681  1.00  0.00     0.018 C 
HETATM   11  C19 UNL     1      -0.453  54.465 -19.182  1.00  0.00     0.023 C 
HETATM   12  C20 UNL     1       1.024  52.541 -18.601  1.00  0.00     0.023 C 
HETATM   13  C21 UNL     1       0.947  53.391 -20.932  1.00  0.00     0.135 C 
HETATM   14  O4  UNL     1       1.790  54.289 -20.961  1.00  0.00    -0.297 OA
HETATM   15  C22 UNL     1       0.704  52.532 -22.157  1.00  0.00     0.080 C 
HETATM   16  C23 UNL     1       0.547  51.077 -21.741  1.00  0.00     0.017 C 
HETATM   17  C24 UNL     1      -0.674  50.822 -20.807  1.00  0.00    -0.031 C 
HETATM   18  C25 UNL     1      -0.270  49.693 -19.821  1.00  0.00     0.016 C 
HETATM   19  C26 UNL     1      -1.972  50.375 -21.603  1.00  0.00     0.024 C 
HETATM   20  C27 UNL     1      -1.825  49.089 -22.453  1.00  0.00     0.010 C 
HETATM   21  C28 UNL     1      -3.111  48.617 -23.174  1.00  0.00     0.011 C 
HETATM   22  C29 UNL     1      -4.425  49.216 -22.627  1.00  0.00    -0.026 C 
HETATM   23  C30 UNL     1      -4.700  50.580 -23.339  1.00  0.00     0.016 C 
ENDROOT
BRANCH   1  24
HETATM   24  C2  UNL     1      -6.422  48.265 -24.175  1.00  0.00    -0.008 C 
HETATM   25  C1  UNL     1      -5.408  48.259 -25.329  1.00  0.00     0.011 C 
BRANCH  24  26
HETATM   26  C3  UNL     1      -7.352  47.027 -24.287  1.00  0.00     0.031 C 
BRANCH  26  27
HETATM   27  C4  UNL     1      -8.754  47.357 -24.717  1.00  0.00    -0.027 C 
HETATM   28  C5  UNL     1      -9.113  47.636 -25.983  1.00  0.00     0.009 C 
BRANCH  28  29
HETATM   29  C6  UNL     1     -10.510  47.973 -26.479  1.00  0.00     0.106 C 
HETATM   30  C7  UNL     1     -11.519  47.124 -25.694  1.00  0.00     0.053 C 
HETATM   31  C8  UNL     1     -10.653  47.656 -27.975  1.00  0.00     0.053 C 
BRANCH  29  32
HETATM   32  O1  UNL     1     -10.872  49.344 -26.210  1.00  0.00    -0.229 OA
BRANCH  32  33
HETATM   33  O2  UNL     1      -9.648  50.142 -26.151  1.00  0.00    -0.249 OA
HETATM   34  H15 UNL     1      -9.885  50.753 -26.871  1.00  0.00     0.253 HD
ENDBRANCH  32  33
ENDBRANCH  29  32
ENDBRANCH  28  29
ENDBRANCH  26  27
ENDBRANCH  24  26
ENDBRANCH   1  24
BRANCH   2  35
HETATM   35  O3  UNL     1      -7.177  47.780 -20.880  1.00  0.00    -0.395 OA
HETATM   36  H18 UNL     1      -7.704  47.217 -21.469  1.00  0.00     0.210 HD
ENDBRANCH   2  35
TORSDOF 7
ENDMDL
MODEL 7
REMARK minimizedAffinity -8.76918888
REMARK  7 active torsions:
REMARK  status: ('A' for Active; 'I' for Inactive)
REMARK    1  A    between atoms: C2_2  and  C3_3 
REMARK    2  A    between atoms: C2_2  and  C9_11 
REMARK    3  A    between atoms: C3_3  and  C4_4 
REMARK    4  A    between atoms: C5_5  and  C6_6 
REMARK    5  A    between atoms: C6_6  and  O1_9 
REMARK    6  A    between atoms: O1_9  and  O2_10 
REMARK    7  A    between atoms: C10_12  and  O3_13 
ROOT
HETATM    1  C9  UNL     1      -2.689  50.869 -21.759  1.00  0.00     0.028 C 
HETATM    2  C10 UNL     1      -2.134  49.928 -20.640  1.00  0.00     0.124 C 
HETATM    3  C11 UNL     1      -3.068  48.703 -20.556  1.00  0.00     0.046 C 
HETATM    4  C12 UNL     1      -4.336  49.129 -21.323  1.00  0.00    -0.010 C 
HETATM    5  C13 UNL     1      -5.200  49.976 -20.335  1.00  0.00     0.021 C 
HETATM    6  C14 UNL     1      -5.260  48.025 -21.838  1.00  0.00    -0.070 C 
HETATM    7  C15 UNL     1      -5.460  46.885 -21.144  1.00  0.00    -0.022 C 
HETATM    8  C16 UNL     1      -6.426  45.802 -21.538  1.00  0.00     0.034 C 
HETATM    9  C17 UNL     1      -6.976  46.007 -22.959  1.00  0.00     0.013 C 
HETATM   10  C18 UNL     1      -7.983  44.926 -23.467  1.00  0.00     0.018 C 
HETATM   11  C19 UNL     1      -7.358  43.519 -23.346  1.00  0.00     0.023 C 
HETATM   12  C20 UNL     1      -9.337  44.914 -22.747  1.00  0.00     0.023 C 
HETATM   13  C21 UNL     1      -8.247  45.186 -24.961  1.00  0.00     0.135 C 
HETATM   14  O4  UNL     1      -8.801  44.353 -25.681  1.00  0.00    -0.297 OA
HETATM   15  C22 UNL     1      -7.784  46.508 -25.539  1.00  0.00     0.080 C 
HETATM   16  C23 UNL     1      -8.116  47.636 -24.572  1.00  0.00     0.017 C 
HETATM   17  C24 UNL     1      -7.397  47.511 -23.196  1.00  0.00    -0.031 C 
HETATM   18  C25 UNL     1      -8.368  48.068 -22.119  1.00  0.00     0.016 C 
HETATM   19  C26 UNL     1      -6.037  48.325 -23.138  1.00  0.00     0.024 C 
HETATM   20  C27 UNL     1      -6.156  49.845 -23.406  1.00  0.00     0.010 C 
HETATM   21  C28 UNL     1      -4.839  50.650 -23.282  1.00  0.00     0.011 C 
HETATM   22  C29 UNL     1      -3.706  49.935 -22.513  1.00  0.00    -0.026 C 
HETATM   23  C30 UNL     1      -2.898  49.040 -23.508  1.00  0.00     0.016 C 
ENDROOT
BRANCH   1  24
HETATM   24  C2  UNL     1      -1.557  51.567 -22.589  1.00  0.00    -0.008 C 
HETATM   25  C1  UNL     1      -0.273  51.736 -21.762  1.00  0.00     0.011 C 
BRANCH  24  26
HETATM   26  C3  UNL     1      -1.244  50.782 -23.891  1.00  0.00     0.031 C 
BRANCH  26  27
HETATM   27  C4  UNL     1      -0.655  51.629 -24.985  1.00  0.00    -0.027 C 
HETATM   28  C5  UNL     1       0.384  51.258 -25.754  1.00  0.00     0.009 C 
BRANCH  28  29
HETATM   29  C6  UNL     1       1.020  52.065 -26.874  1.00  0.00     0.106 C 
HETATM   30  C7  UNL     1       0.274  51.754 -28.178  1.00  0.00     0.053 C 
HETATM   31  C8  UNL     1       2.500  51.693 -27.048  1.00  0.00     0.053 C 
BRANCH  29  32
HETATM   32  O1  UNL     1       0.871  53.488 -26.679  1.00  0.00    -0.229 OA
BRANCH  32  33
HETATM   33  O2  UNL     1      -0.099  53.988 -27.651  1.00  0.00    -0.249 OA
HETATM   34  H15 UNL     1      -0.728  54.346 -27.000  1.00  0.00     0.253 HD
ENDBRANCH  32  33
ENDBRANCH  29  32
ENDBRANCH  28  29
ENDBRANCH  26  27
ENDBRANCH  24  26
ENDBRANCH   1  24
BRANCH   2  35
HETATM   35  O3  UNL     1      -2.153  50.583 -19.374  1.00  0.00    -0.395 OA
HETATM   36  H18 UNL     1      -1.592  51.373 -19.423  1.00  0.00     0.210 HD
ENDBRANCH   2  35
TORSDOF 7
ENDMDL
MODEL 8
REMARK minimizedAffinity -8.69612694
REMARK  7 active torsions:
REMARK  status: ('A' for Active; 'I' for Inactive)
REMARK    1  A    between atoms: C2_2  and  C3_3 
REMARK    2  A    between atoms: C2_2  and  C9_11 
REMARK    3  A    between atoms: C3_3  and  C4_4 
REMARK    4  A    between atoms: C5_5  and  C6_6 
REMARK    5  A    between atoms: C6_6  and  O1_9 
REMARK    6  A    between atoms: O1_9  and  O2_10 
REMARK    7  A    between atoms: C10_12  and  O3_13 
ROOT
HETATM    1  C9  UNL     1      -0.908  51.939 -20.215  1.00  0.00     0.028 C 
HETATM    2  C10 UNL     1       0.089  51.418 -19.128  1.00  0.00     0.124 C 
HETATM    3  C11 UNL     1      -0.490  50.108 -18.556  1.00  0.00     0.046 C 
HETATM    4  C12 UNL     1      -1.961  50.100 -19.017  1.00  0.00    -0.010 C 
HETATM    5  C13 UNL     1      -2.755  51.001 -18.016  1.00  0.00     0.021 C 
HETATM    6  C14 UNL     1      -2.694  48.759 -19.035  1.00  0.00    -0.070 C 
HETATM    7  C15 UNL     1      -2.461  47.809 -18.105  1.00  0.00    -0.022 C 
HETATM    8  C16 UNL     1      -3.212  46.510 -18.002  1.00  0.00     0.034 C 
HETATM    9  C17 UNL     1      -4.100  46.257 -19.232  1.00  0.00     0.013 C 
HETATM   10  C18 UNL     1      -4.914  44.924 -19.225  1.00  0.00     0.018 C 
HETATM   11  C19 UNL     1      -3.969  43.723 -19.007  1.00  0.00     0.023 C 
HETATM   12  C20 UNL     1      -6.031  44.853 -18.176  1.00  0.00     0.023 C 
HETATM   13  C21 UNL     1      -5.561  44.755 -20.612  1.00  0.00     0.135 C 
HETATM   14  O4  UNL     1      -6.053  43.685 -20.977  1.00  0.00    -0.297 OA
HETATM   15  C22 UNL     1      -5.562  45.952 -21.540  1.00  0.00     0.080 C 
HETATM   16  C23 UNL     1      -5.920  47.208 -20.759  1.00  0.00     0.017 C 
HETATM   17  C24 UNL     1      -4.902  47.557 -19.633  1.00  0.00    -0.031 C 
HETATM   18  C25 UNL     1      -5.708  48.183 -18.463  1.00  0.00     0.016 C 
HETATM   19  C26 UNL     1      -3.792  48.586 -20.108  1.00  0.00     0.024 C 
HETATM   20  C27 UNL     1      -4.319  49.947 -20.625  1.00  0.00     0.010 C 
HETATM   21  C28 UNL     1      -3.232  50.975 -21.023  1.00  0.00     0.011 C 
HETATM   22  C29 UNL     1      -1.821  50.684 -20.467  1.00  0.00    -0.026 C 
HETATM   23  C30 UNL     1      -1.072  49.727 -21.450  1.00  0.00     0.016 C 
ENDROOT
BRANCH   1  24
HETATM   24  C2  UNL     1      -0.186  52.598 -21.442  1.00  0.00    -0.008 C 
HETATM   25  C1  UNL     1       1.306  52.232 -21.482  1.00  0.00     0.011 C 
BRANCH  24  26
HETATM   26  C3  UNL     1      -0.862  52.194 -22.780  1.00  0.00     0.031 C 
BRANCH  26  27
HETATM   27  C4  UNL     1      -0.032  52.499 -23.996  1.00  0.00    -0.027 C 
HETATM   28  C5  UNL     1      -0.137  51.846 -25.167  1.00  0.00     0.009 C 
BRANCH  28  29
HETATM   29  C6  UNL     1       0.669  52.108 -26.429  1.00  0.00     0.106 C 
HETATM   30  C7  UNL     1      -0.082  51.491 -27.618  1.00  0.00     0.053 C 
HETATM   31  C8  UNL     1       2.061  51.468 -26.336  1.00  0.00     0.053 C 
BRANCH  29  32
HETATM   32  O1  UNL     1       0.772  53.516 -26.733  1.00  0.00    -0.229 OA
BRANCH  32  33
HETATM   33  O2  UNL     1      -0.490  53.954 -27.327  1.00  0.00    -0.249 OA
HETATM   34  H15 UNL     1      -0.692  54.632 -26.658  1.00  0.00     0.253 HD
ENDBRANCH  32  33
ENDBRANCH  29  32
ENDBRANCH  28  29
ENDBRANCH  26  27
ENDBRANCH  24  26
ENDBRANCH   1  24
BRANCH   2  35
HETATM   35  O3  UNL     1       0.204  52.352 -18.058  1.00  0.00    -0.395 OA
HETATM   36  H18 UNL     1       0.539  53.192 -18.411  1.00  0.00     0.210 HD
ENDBRANCH   2  35
TORSDOF 7
ENDMDL
MODEL 9
REMARK minimizedAffinity -8.67369747
REMARK  7 active torsions:
REMARK  status: ('A' for Active; 'I' for Inactive)
REMARK    1  A    between atoms: C2_2  and  C3_3 
REMARK    2  A    between atoms: C2_2  and  C9_11 
REMARK    3  A    between atoms: C3_3  and  C4_4 
REMARK    4  A    between atoms: C5_5  and  C6_6 
REMARK    5  A    between atoms: C6_6  and  O1_9 
REMARK    6  A    between atoms: O1_9  and  O2_10 
REMARK    7  A    between atoms: C10_12  and  O3_13 
ROOT
HETATM    1  C9  UNL     1      -2.915  49.289 -17.913  1.00  0.00     0.028 C 
HETATM    2  C10 UNL     1      -3.922  48.131 -18.213  1.00  0.00     0.124 C 
HETATM    3  C11 UNL     1      -4.191  48.130 -19.732  1.00  0.00     0.046 C 
HETATM    4  C12 UNL     1      -3.666  49.495 -20.220  1.00  0.00    -0.010 C 
HETATM    5  C13 UNL     1      -4.788  50.543 -19.925  1.00  0.00     0.021 C 
HETATM    6  C14 UNL     1      -3.343  49.644 -21.706  1.00  0.00    -0.070 C 
HETATM    7  C15 UNL     1      -4.074  49.026 -22.657  1.00  0.00    -0.022 C 
HETATM    8  C16 UNL     1      -3.878  49.203 -24.138  1.00  0.00     0.034 C 
HETATM    9  C17 UNL     1      -2.580  49.963 -24.461  1.00  0.00     0.013 C 
HETATM   10  C18 UNL     1      -2.280  50.189 -25.977  1.00  0.00     0.018 C 
HETATM   11  C19 UNL     1      -2.298  48.841 -26.730  1.00  0.00     0.023 C 
HETATM   12  C20 UNL     1      -3.238  51.151 -26.691  1.00  0.00     0.023 C 
HETATM   13  C21 UNL     1      -0.858  50.765 -26.099  1.00  0.00     0.135 C 
HETATM   14  O4  UNL     1      -0.262  50.811 -27.177  1.00  0.00    -0.297 OA
HETATM   15  C22 UNL     1      -0.190  51.268 -24.835  1.00  0.00     0.080 C 
HETATM   16  C23 UNL     1      -1.189  52.062 -24.007  1.00  0.00     0.017 C 
HETATM   17  C24 UNL     1      -2.410  51.224 -23.526  1.00  0.00    -0.031 C 
HETATM   18  C25 UNL     1      -3.642  52.169 -23.516  1.00  0.00     0.016 C 
HETATM   19  C26 UNL     1      -2.206  50.623 -22.072  1.00  0.00     0.024 C 
HETATM   20  C27 UNL     1      -1.948  51.659 -20.950  1.00  0.00     0.010 C 
HETATM   21  C28 UNL     1      -1.818  51.077 -19.521  1.00  0.00     0.011 C 
HETATM   22  C29 UNL     1      -2.372  49.646 -19.346  1.00  0.00    -0.026 C 
HETATM   23  C30 UNL     1      -1.254  48.616 -19.711  1.00  0.00     0.016 C 
ENDROOT
BRANCH   1  24
HETATM   24  C2  UNL     1      -1.882  48.926 -16.790  1.00  0.00    -0.008 C 
HETATM   25  C1  UNL     1      -2.030  47.465 -16.338  1.00  0.00     0.011 C 
BRANCH  24  26
HETATM   26  C3  UNL     1      -0.425  49.187 -17.256  1.00  0.00     0.031 C 
BRANCH  26  27
HETATM   27  C4  UNL     1       0.210  50.393 -16.621  1.00  0.00    -0.027 C 
HETATM   28  C5  UNL     1       0.986  50.352 -15.523  1.00  0.00     0.009 C 
BRANCH  28  29
HETATM   29  C6  UNL     1       1.655  51.532 -14.838  1.00  0.00     0.106 C 
HETATM   30  C7  UNL     1       3.049  51.720 -15.454  1.00  0.00     0.053 C 
HETATM   31  C8  UNL     1       1.809  51.279 -13.332  1.00  0.00     0.053 C 
BRANCH  29  32
HETATM   32  O1  UNL     1       0.960  52.774 -15.079  1.00  0.00    -0.229 OA
BRANCH  32  33
HETATM   33  O2  UNL     1       1.566  53.424 -16.242  1.00  0.00    -0.249 OA
HETATM   34  H15 UNL     1       0.755  53.454 -16.780  1.00  0.00     0.253 HD
ENDBRANCH  32  33
ENDBRANCH  29  32
ENDBRANCH  28  29
ENDBRANCH  26  27
ENDBRANCH  24  26
ENDBRANCH   1  24
BRANCH   2  35
HETATM   35  O3  UNL     1      -5.162  48.354 -17.547  1.00  0.00    -0.395 OA
HETATM   36  H18 UNL     1      -5.002  48.387 -16.591  1.00  0.00     0.210 HD
ENDBRANCH   2  35
TORSDOF 7
ENDMDL
