MODEL 1
REMARK minimizedAffinity -6.08820915
REMARK CNNscore 0.7986058
REMARK CNNaffinity 7.15239334
REMARK  3 active torsions:
REMARK  status: ('A' for Active; 'I' for Inactive)
REMARK    1  A    between atoms: C4_4  and  C5_5 
REMARK    2  A    between atoms: C5_5  and  C7_7 
REMARK    3  A    between atoms: C7_7  and  O1_10 
ROOT
HETATM    1  C1  UNL     1     -15.237 -13.616  25.821  1.00  0.00     0.010 C 
HETATM    2  C2  UNL     1     -13.907 -13.466  26.554  1.00  0.00    -0.009 C 
HETATM    3  C3  UNL     1     -13.311 -14.837  26.899  1.00  0.00     0.037 C 
HETATM    4  C4  UNL     1     -11.875 -14.692  27.428  1.00  0.00     0.129 C 
HETATM    5  O2  UNL     1     -11.735 -13.452  28.151  1.00  0.00    -0.380 OA
HETATM    6  C10 UNL     1     -12.887 -13.013  28.853  1.00  0.00     0.128 C 
HETATM    7  C11 UNL     1     -12.553 -11.696  29.581  1.00  0.00     0.042 C 
HETATM    8  C12 UNL     1     -13.786 -10.796  29.361  1.00  0.00    -0.030 C 
HETATM    9  C13 UNL     1     -14.858 -11.237  30.407  1.00  0.00     0.016 C 
HETATM   10  C14 UNL     1     -13.501  -9.277  29.478  1.00  0.00     0.004 C 
HETATM   11  C15 UNL     1     -13.196  -8.814  30.908  1.00  0.00     0.007 C 
HETATM   12  C16 UNL     1     -12.855  -7.330  30.927  1.00  0.00     0.007 C 
HETATM   13  C17 UNL     1     -14.100  -6.504  30.603  1.00  0.00     0.010 C 
HETATM   14  C18 UNL     1     -13.855  -4.961  30.553  1.00  0.00     0.018 C 
HETATM   15  C19 UNL     1     -12.599  -4.553  29.771  1.00  0.00     0.023 C 
HETATM   16  C20 UNL     1     -13.764  -4.400  31.986  1.00  0.00     0.023 C 
HETATM   17  C21 UNL     1     -15.064  -4.280  29.892  1.00  0.00     0.135 C 
HETATM   18  O3  UNL     1     -14.981  -3.133  29.431  1.00  0.00    -0.297 OA
HETATM   19  C22 UNL     1     -16.376  -5.019  29.912  1.00  0.00     0.080 C 
HETATM   20  C23 UNL     1     -16.259  -6.404  29.285  1.00  0.00     0.018 C 
HETATM   21  C24 UNL     1     -14.853  -6.987  29.360  1.00  0.00    -0.026 A 
HETATM   22  C25 UNL     1     -14.112  -7.187  28.062  1.00  0.00     0.021 A 
HETATM   23  C26 UNL     1     -14.601  -8.419  28.807  1.00  0.00    -0.027 A 
HETATM   24  C27 UNL     1     -15.788  -9.163  28.179  1.00  0.00     0.011 C 
HETATM   25  C28 UNL     1     -15.524 -10.550  27.562  1.00  0.00     0.011 C 
HETATM   26  C29 UNL     1     -14.143 -11.140  27.872  1.00  0.00    -0.030 C 
HETATM   27  C30 UNL     1     -13.140 -10.571  26.822  1.00  0.00     0.016 C 
HETATM   28  C31 UNL     1     -14.060 -12.696  27.883  1.00  0.00     0.027 C 
ENDROOT
BRANCH   4  29
HETATM   29  C5  UNL     1     -10.716 -14.691  26.369  1.00  0.00     0.044 C 
HETATM   30  C6  UNL     1     -10.495 -13.219  25.937  1.00  0.00     0.015 C 
BRANCH  29  31
HETATM   31  C7  UNL     1      -9.365 -15.381  26.784  1.00  0.00     0.056 C 
HETATM   32  C8  UNL     1      -8.248 -14.359  27.069  1.00  0.00     0.045 C 
HETATM   33  C9  UNL     1      -9.490 -16.244  28.060  1.00  0.00     0.045 C 
BRANCH  31  34
HETATM   34  O1  UNL     1      -8.942 -16.286  25.763  1.00  0.00    -0.390 OA
HETATM   35  H18 UNL     1      -8.447 -15.798  25.082  1.00  0.00     0.210 HD
ENDBRANCH  31  34
ENDBRANCH  29  31
ENDBRANCH   4  29
TORSDOF 3
ENDMDL
MODEL 2
REMARK minimizedAffinity -10.2302675
REMARK CNNscore 0.578562796
REMARK CNNaffinity 7.28136683
REMARK  3 active torsions:
REMARK  status: ('A' for Active; 'I' for Inactive)
REMARK    1  A    between atoms: C4_4  and  C5_5 
REMARK    2  A    between atoms: C5_5  and  C7_7 
REMARK    3  A    between atoms: C7_7  and  O1_10 
ROOT
HETATM    1  C1  UNL     1      -4.700   9.747  15.972  1.00  0.00     0.010 C 
HETATM    2  C2  UNL     1      -5.017   8.491  15.164  1.00  0.00    -0.009 C 
HETATM    3  C3  UNL     1      -6.096   7.649  15.857  1.00  0.00     0.037 C 
HETATM    4  C4  UNL     1      -6.576   6.512  14.939  1.00  0.00     0.129 C 
HETATM    5  O2  UNL     1      -5.492   6.059  14.102  1.00  0.00    -0.380 OA
HETATM    6  C10 UNL     1      -4.198   6.119  14.681  1.00  0.00     0.128 C 
HETATM    7  C11 UNL     1      -3.174   5.580  13.662  1.00  0.00     0.042 C 
HETATM    8  C12 UNL     1      -1.976   6.547  13.753  1.00  0.00    -0.030 C 
HETATM    9  C13 UNL     1      -1.139   6.113  14.998  1.00  0.00     0.016 C 
HETATM   10  C14 UNL     1      -1.086   6.587  12.485  1.00  0.00     0.004 C 
HETATM   11  C15 UNL     1      -0.267   5.308  12.264  1.00  0.00     0.007 C 
HETATM   12  C16 UNL     1       0.520   5.397  10.964  1.00  0.00     0.007 C 
HETATM   13  C17 UNL     1       1.627   6.444  11.093  1.00  0.00     0.010 C 
HETATM   14  C18 UNL     1       2.475   6.650   9.796  1.00  0.00     0.018 C 
HETATM   15  C19 UNL     1       1.638   6.763   8.514  1.00  0.00     0.023 C 
HETATM   16  C20 UNL     1       3.483   5.494   9.643  1.00  0.00     0.023 C 
HETATM   17  C21 UNL     1       3.302   7.938   9.934  1.00  0.00     0.135 C 
HETATM   18  O3  UNL     1       3.785   8.500   8.941  1.00  0.00    -0.297 OA
HETATM   19  C22 UNL     1       3.585   8.438  11.326  1.00  0.00     0.080 C 
HETATM   20  C23 UNL     1       2.304   8.655  12.125  1.00  0.00     0.018 C 
HETATM   21  C24 UNL     1       1.144   7.783  11.658  1.00  0.00    -0.026 A 
HETATM   22  C25 UNL     1      -0.043   8.477  11.040  1.00  0.00     0.021 A 
HETATM   23  C26 UNL     1      -0.210   7.861  12.421  1.00  0.00    -0.027 A 
HETATM   24  C27 UNL     1      -0.316   8.847  13.593  1.00  0.00     0.011 C 
HETATM   25  C28 UNL     1      -1.678   8.981  14.300  1.00  0.00     0.011 C 
HETATM   26  C29 UNL     1      -2.715   7.922  13.907  1.00  0.00    -0.030 C 
HETATM   27  C30 UNL     1      -3.428   8.417  12.612  1.00  0.00     0.016 C 
HETATM   28  C31 UNL     1      -3.780   7.584  14.993  1.00  0.00     0.027 C 
ENDROOT
BRANCH   4  29
HETATM   29  C5  UNL     1      -7.757   6.833  13.957  1.00  0.00     0.044 C 
HETATM   30  C6  UNL     1      -7.809   5.684  12.917  1.00  0.00     0.015 C 
BRANCH  29  31
HETATM   31  C7  UNL     1      -9.169   7.099  14.596  1.00  0.00     0.056 C 
HETATM   32  C8  UNL     1      -9.360   8.573  15.002  1.00  0.00     0.045 C 
HETATM   33  C9  UNL     1     -10.340   6.764  13.646  1.00  0.00     0.045 C 
BRANCH  31  34
HETATM   34  O1  UNL     1      -9.360   6.256  15.734  1.00  0.00    -0.390 OA
HETATM   35  H18 UNL     1      -8.961   6.675  16.517  1.00  0.00     0.210 HD
ENDBRANCH  31  34
ENDBRANCH  29  31
ENDBRANCH   4  29
TORSDOF 3
ENDMDL
MODEL 3
REMARK minimizedAffinity -9.21053886
REMARK CNNscore 0.561794639
REMARK CNNaffinity 6.96579742
REMARK  3 active torsions:
REMARK  status: ('A' for Active; 'I' for Inactive)
REMARK    1  A    between atoms: C4_4  and  C5_5 
REMARK    2  A    between atoms: C5_5  and  C7_7 
REMARK    3  A    between atoms: C7_7  and  O1_10 
ROOT
HETATM    1  C1  UNL     1      -1.768   4.892  12.076  1.00  0.00     0.010 C 
HETATM    2  C2  UNL     1      -0.752   5.982  11.745  1.00  0.00    -0.009 C 
HETATM    3  C3  UNL     1       0.471   5.396  11.029  1.00  0.00     0.037 C 
HETATM    4  C4  UNL     1       1.381   6.515  10.496  1.00  0.00     0.129 C 
HETATM    5  O2  UNL     1       1.325   7.660  11.371  1.00  0.00    -0.380 OA
HETATM    6  C10 UNL     1       1.140   7.375  12.749  1.00  0.00     0.128 C 
HETATM    7  C11 UNL     1       1.127   8.703  13.531  1.00  0.00     0.042 C 
HETATM    8  C12 UNL     1      -0.019   8.551  14.552  1.00  0.00    -0.030 C 
HETATM    9  C13 UNL     1       0.548   7.720  15.746  1.00  0.00     0.016 C 
HETATM   10  C14 UNL     1      -0.613   9.892  15.055  1.00  0.00     0.004 C 
HETATM   11  C15 UNL     1       0.333  10.684  15.966  1.00  0.00     0.007 C 
HETATM   12  C16 UNL     1      -0.292  12.017  16.354  1.00  0.00     0.007 C 
HETATM   13  C17 UNL     1      -1.482  11.784  17.286  1.00  0.00     0.010 C 
HETATM   14  C18 UNL     1      -2.229  13.088  17.717  1.00  0.00     0.018 C 
HETATM   15  C19 UNL     1      -2.507  14.059  16.560  1.00  0.00     0.023 C 
HETATM   16  C20 UNL     1      -1.421  13.817  18.808  1.00  0.00     0.023 C 
HETATM   17  C21 UNL     1      -3.578  12.710  18.349  1.00  0.00     0.135 C 
HETATM   18  O3  UNL     1      -4.490  13.541  18.460  1.00  0.00    -0.297 OA
HETATM   19  C22 UNL     1      -3.716  11.322  18.916  1.00  0.00     0.080 C 
HETATM   20  C23 UNL     1      -3.407  10.249  17.878  1.00  0.00     0.018 C 
HETATM   21  C24 UNL     1      -2.464  10.724  16.778  1.00  0.00    -0.026 A 
HETATM   22  C25 UNL     1      -3.018  10.820  15.380  1.00  0.00     0.021 A 
HETATM   23  C26 UNL     1      -2.017   9.715  15.682  1.00  0.00    -0.027 A 
HETATM   24  C27 UNL     1      -2.584   8.289  15.748  1.00  0.00     0.011 C 
HETATM   25  C28 UNL     1      -2.204   7.311  14.620  1.00  0.00     0.011 C 
HETATM   26  C29 UNL     1      -1.093   7.805  13.686  1.00  0.00    -0.030 C 
HETATM   27  C30 UNL     1      -1.758   8.688  12.586  1.00  0.00     0.016 C 
HETATM   28  C31 UNL     1      -0.232   6.694  13.012  1.00  0.00     0.027 C 
ENDROOT
BRANCH   4  29
HETATM   29  C5  UNL     1       1.072   7.070   9.061  1.00  0.00     0.044 C 
HETATM   30  C6  UNL     1       0.366   8.438   9.244  1.00  0.00     0.015 C 
BRANCH  29  31
HETATM   31  C7  UNL     1       2.277   7.171   8.056  1.00  0.00     0.056 C 
HETATM   32  C8  UNL     1       1.833   7.011   6.589  1.00  0.00     0.045 C 
HETATM   33  C9  UNL     1       3.020   8.524   8.131  1.00  0.00     0.045 C 
BRANCH  31  34
HETATM   34  O1  UNL     1       3.264   6.186   8.371  1.00  0.00    -0.390 OA
HETATM   35  H18 UNL     1       3.024   5.342   7.950  1.00  0.00     0.210 HD
ENDBRANCH  31  34
ENDBRANCH  29  31
ENDBRANCH   4  29
TORSDOF 3
ENDMDL
MODEL 4
REMARK minimizedAffinity -8.62210655
REMARK CNNscore 0.542390168
REMARK CNNaffinity 7.05254173
REMARK  3 active torsions:
REMARK  status: ('A' for Active; 'I' for Inactive)
REMARK    1  A    between atoms: C4_4  and  C5_5 
REMARK    2  A    between atoms: C5_5  and  C7_7 
REMARK    3  A    between atoms: C7_7  and  O1_10 
ROOT
HETATM    1  C1  UNL     1      -4.315   4.073  12.172  1.00  0.00     0.010 C 
HETATM    2  C2  UNL     1      -4.052   5.282  13.067  1.00  0.00    -0.009 C 
HETATM    3  C3  UNL     1      -2.698   5.155  13.778  1.00  0.00     0.037 C 
HETATM    4  C4  UNL     1      -2.332   6.466  14.494  1.00  0.00     0.129 C 
HETATM    5  O2  UNL     1      -3.526   7.127  14.961  1.00  0.00    -0.380 OA
HETATM    6  C10 UNL     1      -4.588   6.274  15.360  1.00  0.00     0.128 C 
HETATM    7  C11 UNL     1      -5.764   7.143  15.848  1.00  0.00     0.042 C 
HETATM    8  C12 UNL     1      -7.022   6.481  15.249  1.00  0.00    -0.030 C 
HETATM    9  C13 UNL     1      -7.379   5.274  16.173  1.00  0.00     0.016 C 
HETATM   10  C14 UNL     1      -8.237   7.430  15.098  1.00  0.00     0.004 C 
HETATM   11  C15 UNL     1      -8.871   7.841  16.434  1.00  0.00     0.007 C 
HETATM   12  C16 UNL     1     -10.006   8.829  16.204  1.00  0.00     0.007 C 
HETATM   13  C17 UNL     1     -11.179   8.128  15.518  1.00  0.00     0.010 C 
HETATM   14  C18 UNL     1     -12.390   9.062  15.195  1.00  0.00     0.018 C 
HETATM   15  C19 UNL     1     -11.991  10.403  14.562  1.00  0.00     0.023 C 
HETATM   16  C20 UNL     1     -13.201   9.328  16.478  1.00  0.00     0.023 C 
HETATM   17  C21 UNL     1     -13.334   8.342  14.219  1.00  0.00     0.135 C 
HETATM   18  O3  UNL     1     -14.169   8.971  13.553  1.00  0.00    -0.297 OA
HETATM   19  C22 UNL     1     -13.275   6.838  14.175  1.00  0.00     0.080 C 
HETATM   20  C23 UNL     1     -11.869   6.332  13.872  1.00  0.00     0.018 C 
HETATM   21  C24 UNL     1     -10.772   7.302  14.294  1.00  0.00    -0.026 A 
HETATM   22  C25 UNL     1      -9.943   7.932  13.204  1.00  0.00     0.021 A 
HETATM   23  C26 UNL     1      -9.285   6.890  14.095  1.00  0.00    -0.027 A 
HETATM   24  C27 UNL     1      -9.001   5.527  13.446  1.00  0.00     0.011 C 
HETATM   25  C28 UNL     1      -7.531   5.150  13.178  1.00  0.00     0.011 C 
HETATM   26  C29 UNL     1      -6.499   6.082  13.825  1.00  0.00    -0.030 C 
HETATM   27  C30 UNL     1      -6.282   7.288  12.859  1.00  0.00     0.016 C 
HETATM   28  C31 UNL     1      -5.124   5.434  14.167  1.00  0.00     0.027 C 
ENDROOT
BRANCH   4  29
HETATM   29  C5  UNL     1      -1.555   7.546  13.662  1.00  0.00     0.044 C 
HETATM   30  C6  UNL     1      -1.205   6.904  12.295  1.00  0.00     0.015 C 
BRANCH  29  31
HETATM   31  C7  UNL     1      -2.247   8.947  13.482  1.00  0.00     0.056 C 
HETATM   32  C8  UNL     1      -3.608   8.841  12.767  1.00  0.00     0.045 C 
HETATM   33  C9  UNL     1      -2.524   9.665  14.822  1.00  0.00     0.045 C 
BRANCH  31  34
HETATM   34  O1  UNL     1      -1.389   9.830  12.757  1.00  0.00    -0.390 OA
HETATM   35  H18 UNL     1      -1.507   9.685  11.802  1.00  0.00     0.210 HD
ENDBRANCH  31  34
ENDBRANCH  29  31
ENDBRANCH   4  29
TORSDOF 3
ENDMDL
MODEL 5
REMARK minimizedAffinity -6.33216095
REMARK CNNscore 0.527167857
REMARK CNNaffinity 7.13048553
REMARK  3 active torsions:
REMARK  status: ('A' for Active; 'I' for Inactive)
REMARK    1  A    between atoms: C4_4  and  C5_5 
REMARK    2  A    between atoms: C5_5  and  C7_7 
REMARK    3  A    between atoms: C7_7  and  O1_10 
ROOT
HETATM    1  C1  UNL     1      -0.353   3.037  11.713  1.00  0.00     0.010 C 
HETATM    2  C2  UNL     1      -0.340   4.553  11.535  1.00  0.00    -0.009 C 
HETATM    3  C3  UNL     1       1.095   5.079  11.405  1.00  0.00     0.037 C 
HETATM    4  C4  UNL     1       1.100   6.563  10.999  1.00  0.00     0.129 C 
HETATM    5  O2  UNL     1      -0.048   7.233  11.559  1.00  0.00    -0.380 OA
HETATM    6  C10 UNL     1      -0.488   6.756  12.821  1.00  0.00     0.128 C 
HETATM    7  C11 UNL     1      -1.698   7.596  13.274  1.00  0.00     0.042 C 
HETATM    8  C12 UNL     1      -2.695   6.574  13.857  1.00  0.00    -0.030 C 
HETATM    9  C13 UNL     1      -2.221   6.261  15.312  1.00  0.00     0.016 C 
HETATM   10  C14 UNL     1      -4.172   7.043  13.853  1.00  0.00     0.004 C 
HETATM   11  C15 UNL     1      -4.466   8.168  14.854  1.00  0.00     0.007 C 
HETATM   12  C16 UNL     1      -5.914   8.622  14.736  1.00  0.00     0.007 C 
HETATM   13  C17 UNL     1      -6.850   7.521  15.239  1.00  0.00     0.010 C 
HETATM   14  C18 UNL     1      -8.370   7.865  15.124  1.00  0.00     0.018 C 
HETATM   15  C19 UNL     1      -8.772   8.475  13.774  1.00  0.00     0.023 C 
HETATM   16  C20 UNL     1      -8.774   8.829  16.256  1.00  0.00     0.023 C 
HETATM   17  C21 UNL     1      -9.192   6.582  15.326  1.00  0.00     0.135 C 
HETATM   18  O3  UNL     1     -10.373   6.512  14.956  1.00  0.00    -0.297 OA
HETATM   19  C22 UNL     1      -8.543   5.450  16.077  1.00  0.00     0.080 C 
HETATM   20  C23 UNL     1      -7.225   5.025  15.438  1.00  0.00     0.018 C 
HETATM   21  C24 UNL     1      -6.546   6.140  14.650  1.00  0.00    -0.026 A 
HETATM   22  C25 UNL     1      -6.432   5.967  13.158  1.00  0.00     0.021 A 
HETATM   23  C26 UNL     1      -5.165   5.863  13.992  1.00  0.00    -0.027 A 
HETATM   24  C27 UNL     1      -4.568   4.456  14.144  1.00  0.00     0.011 C 
HETATM   25  C28 UNL     1      -3.237   4.157  13.428  1.00  0.00     0.011 C 
HETATM   26  C29 UNL     1      -2.529   5.386  12.845  1.00  0.00    -0.030 C 
HETATM   27  C30 UNL     1      -3.136   5.655  11.434  1.00  0.00     0.016 C 
HETATM   28  C31 UNL     1      -0.978   5.284  12.736  1.00  0.00     0.027 C 
ENDROOT
BRANCH   4  29
HETATM   29  C5  UNL     1       1.066   6.888   9.464  1.00  0.00     0.044 C 
HETATM   30  C6  UNL     1       0.264   8.203   9.294  1.00  0.00     0.015 C 
BRANCH  29  31
HETATM   31  C7  UNL     1       2.448   6.952   8.715  1.00  0.00     0.056 C 
HETATM   32  C8  UNL     1       2.502   8.095   7.683  1.00  0.00     0.045 C 
HETATM   33  C9  UNL     1       3.645   7.179   9.665  1.00  0.00     0.045 C 
BRANCH  31  34
HETATM   34  O1  UNL     1       2.716   5.706   8.070  1.00  0.00    -0.390 OA
HETATM   35  H18 UNL     1       2.280   5.691   7.200  1.00  0.00     0.210 HD
ENDBRANCH  31  34
ENDBRANCH  29  31
ENDBRANCH   4  29
TORSDOF 3
ENDMDL
MODEL 6
REMARK minimizedAffinity -6.29560471
REMARK CNNscore 0.509945214
REMARK CNNaffinity 6.15490484
REMARK  3 active torsions:
REMARK  status: ('A' for Active; 'I' for Inactive)
REMARK    1  A    between atoms: C4_4  and  C5_5 
REMARK    2  A    between atoms: C5_5  and  C7_7 
REMARK    3  A    between atoms: C7_7  and  O1_10 
ROOT
HETATM    1  C1  UNL     1     -14.868  11.518  21.231  1.00  0.00     0.010 C 
HETATM    2  C2  UNL     1     -14.450  10.449  20.224  1.00  0.00    -0.009 C 
HETATM    3  C3  UNL     1     -14.900  10.822  18.806  1.00  0.00     0.037 C 
HETATM    4  C4  UNL     1     -14.285   9.868  17.769  1.00  0.00     0.129 C 
HETATM    5  O2  UNL     1     -14.127   8.552  18.337  1.00  0.00    -0.380 OA
HETATM    6  C10 UNL     1     -15.110   8.166  19.284  1.00  0.00     0.128 C 
HETATM    7  C11 UNL     1     -14.800   6.735  19.765  1.00  0.00     0.042 C 
HETATM    8  C12 UNL     1     -15.033   6.769  21.289  1.00  0.00    -0.030 C 
HETATM    9  C13 UNL     1     -16.573   6.634  21.513  1.00  0.00     0.016 C 
HETATM   10  C14 UNL     1     -14.270   5.676  22.080  1.00  0.00     0.004 C 
HETATM   11  C15 UNL     1     -14.807   4.257  21.849  1.00  0.00     0.007 C 
HETATM   12  C16 UNL     1     -13.960   3.237  22.598  1.00  0.00     0.007 C 
HETATM   13  C17 UNL     1     -14.166   3.395  24.106  1.00  0.00     0.010 C 
HETATM   14  C18 UNL     1     -13.308   2.422  24.979  1.00  0.00     0.018 C 
HETATM   15  C19 UNL     1     -11.840   2.323  24.543  1.00  0.00     0.023 C 
HETATM   16  C20 UNL     1     -13.938   1.015  24.963  1.00  0.00     0.023 C 
HETATM   17  C21 UNL     1     -13.336   2.900  26.439  1.00  0.00     0.135 C 
HETATM   18  O3  UNL     1     -12.486   2.517  27.255  1.00  0.00    -0.297 OA
HETATM   19  C22 UNL     1     -14.489   3.769  26.866  1.00  0.00     0.080 C 
HETATM   20  C23 UNL     1     -14.612   5.017  25.998  1.00  0.00     0.018 C 
HETATM   21  C24 UNL     1     -14.038   4.840  24.597  1.00  0.00    -0.026 A 
HETATM   22  C25 UNL     1     -12.821   5.653  24.236  1.00  0.00     0.021 A 
HETATM   23  C26 UNL     1     -14.146   6.016  23.585  1.00  0.00    -0.027 A 
HETATM   24  C27 UNL     1     -14.802   7.318  24.068  1.00  0.00     0.011 C 
HETATM   25  C28 UNL     1     -14.842   8.510  23.091  1.00  0.00     0.011 C 
HETATM   26  C29 UNL     1     -14.440   8.175  21.650  1.00  0.00    -0.030 C 
HETATM   27  C30 UNL     1     -12.885   8.258  21.563  1.00  0.00     0.016 C 
HETATM   28  C31 UNL     1     -15.073   9.074  20.546  1.00  0.00     0.027 C 
ENDROOT
BRANCH   4  29
HETATM   29  C5  UNL     1     -12.875  10.247  17.193  1.00  0.00     0.044 C 
HETATM   30  C6  UNL     1     -11.826   9.864  18.267  1.00  0.00     0.015 C 
BRANCH  29  31
HETATM   31  C7  UNL     1     -12.497   9.663  15.782  1.00  0.00     0.056 C 
HETATM   32  C8  UNL     1     -13.608   9.886  14.738  1.00  0.00     0.045 C 
HETATM   33  C9  UNL     1     -11.219  10.295  15.185  1.00  0.00     0.045 C 
BRANCH  31  34
HETATM   34  O1  UNL     1     -12.208   8.268  15.888  1.00  0.00    -0.390 OA
HETATM   35  H18 UNL     1     -13.037   7.761  15.840  1.00  0.00     0.210 HD
ENDBRANCH  31  34
ENDBRANCH  29  31
ENDBRANCH   4  29
TORSDOF 3
ENDMDL
MODEL 7
REMARK minimizedAffinity -6.3696084
REMARK CNNscore 0.489307463
REMARK CNNaffinity 6.4922328
REMARK  3 active torsions:
REMARK  status: ('A' for Active; 'I' for Inactive)
REMARK    1  A    between atoms: C4_4  and  C5_5 
REMARK    2  A    between atoms: C5_5  and  C7_7 
REMARK    3  A    between atoms: C7_7  and  O1_10 
ROOT
HETATM    1  C1  UNL     1     -14.158   4.537  22.432  1.00  0.00     0.010 C 
HETATM    2  C2  UNL     1     -14.014   5.124  23.834  1.00  0.00    -0.009 C 
HETATM    3  C3  UNL     1     -15.003   4.471  24.808  1.00  0.00     0.037 C 
HETATM    4  C4  UNL     1     -14.704   4.894  26.256  1.00  0.00     0.129 C 
HETATM    5  O2  UNL     1     -14.183   6.239  26.283  1.00  0.00    -0.380 OA
HETATM    6  C10 UNL     1     -14.687   7.116  25.287  1.00  0.00     0.128 C 
HETATM    7  C11 UNL     1     -14.044   8.503  25.479  1.00  0.00     0.042 C 
HETATM    8  C12 UNL     1     -13.696   8.980  24.054  1.00  0.00    -0.030 C 
HETATM    9  C13 UNL     1     -15.012   9.547  23.433  1.00  0.00     0.016 C 
HETATM   10  C14 UNL     1     -12.563  10.036  23.989  1.00  0.00     0.004 C 
HETATM   11  C15 UNL     1     -12.966  11.409  24.542  1.00  0.00     0.007 C 
HETATM   12  C16 UNL     1     -11.781  12.365  24.513  1.00  0.00     0.007 C 
HETATM   13  C17 UNL     1     -11.428  12.715  23.067  1.00  0.00     0.010 C 
HETATM   14  C18 UNL     1     -10.193  13.662  22.915  1.00  0.00     0.018 C 
HETATM   15  C19 UNL     1      -8.992  13.265  23.785  1.00  0.00     0.023 C 
HETATM   16  C20 UNL     1     -10.603  15.110  23.246  1.00  0.00     0.023 C 
HETATM   17  C21 UNL     1      -9.735  13.659  21.448  1.00  0.00     0.135 C 
HETATM   18  O3  UNL     1      -8.601  14.045  21.130  1.00  0.00    -0.297 OA
HETATM   19  C22 UNL     1     -10.745  13.264  20.403  1.00  0.00     0.080 C 
HETATM   20  C23 UNL     1     -11.337  11.886  20.676  1.00  0.00     0.018 C 
HETATM   21  C24 UNL     1     -11.308  11.495  22.149  1.00  0.00    -0.026 A 
HETATM   22  C25 UNL     1     -10.425  10.340  22.545  1.00  0.00     0.021 A 
HETATM   23  C26 UNL     1     -11.931  10.136  22.579  1.00  0.00    -0.027 A 
HETATM   24  C27 UNL     1     -12.517   9.237  21.481  1.00  0.00     0.011 C 
HETATM   25  C28 UNL     1     -13.066   7.858  21.895  1.00  0.00     0.011 C 
HETATM   26  C29 UNL     1     -13.190   7.643  23.408  1.00  0.00    -0.030 C 
HETATM   27  C30 UNL     1     -11.803   7.159  23.932  1.00  0.00     0.016 C 
HETATM   28  C31 UNL     1     -14.296   6.641  23.859  1.00  0.00     0.027 C 
ENDROOT
BRANCH   4  29
HETATM   29  C5  UNL     1     -13.669   4.029  27.058  1.00  0.00     0.044 C 
HETATM   30  C6  UNL     1     -13.729   4.499  28.534  1.00  0.00     0.015 C 
BRANCH  29  31
HETATM   31  C7  UNL     1     -13.799   2.466  26.943  1.00  0.00     0.056 C 
HETATM   32  C8  UNL     1     -13.108   1.912  25.681  1.00  0.00     0.045 C 
HETATM   33  C9  UNL     1     -13.170   1.713  28.137  1.00  0.00     0.045 C 
BRANCH  31  34
HETATM   34  O1  UNL     1     -15.176   2.085  26.946  1.00  0.00    -0.390 OA
HETATM   35  H18 UNL     1     -15.532   2.150  26.042  1.00  0.00     0.210 HD
ENDBRANCH  31  34
ENDBRANCH  29  31
ENDBRANCH   4  29
TORSDOF 3
ENDMDL
MODEL 8
REMARK minimizedAffinity -6.67689323
REMARK CNNscore 0.476493418
REMARK CNNaffinity 6.5337882
REMARK  3 active torsions:
REMARK  status: ('A' for Active; 'I' for Inactive)
REMARK    1  A    between atoms: C4_4  and  C5_5 
REMARK    2  A    between atoms: C5_5  and  C7_7 
REMARK    3  A    between atoms: C7_7  and  O1_10 
ROOT
HETATM    1  C1  UNL     1     -16.907 -10.690  22.599  1.00  0.00     0.010 C 
HETATM    2  C2  UNL     1     -15.418 -10.907  22.852  1.00  0.00    -0.009 C 
HETATM    3  C3  UNL     1     -14.935 -12.214  22.210  1.00  0.00     0.037 C 
HETATM    4  C4  UNL     1     -13.402 -12.318  22.268  1.00  0.00     0.129 C 
HETATM    5  O2  UNL     1     -12.906 -11.674  23.460  1.00  0.00    -0.380 OA
HETATM    6  C10 UNL     1     -13.750 -11.745  24.598  1.00  0.00     0.128 C 
HETATM    7  C11 UNL     1     -13.057 -11.031  25.774  1.00  0.00     0.042 C 
HETATM    8  C12 UNL     1     -14.173 -10.214  26.457  1.00  0.00    -0.030 C 
HETATM    9  C13 UNL     1     -14.961 -11.204  27.372  1.00  0.00     0.016 C 
HETATM   10  C14 UNL     1     -13.670  -8.998  27.275  1.00  0.00     0.004 C 
HETATM   11  C15 UNL     1     -12.922  -9.383  28.558  1.00  0.00     0.007 C 
HETATM   12  C16 UNL     1     -12.397  -8.140  29.263  1.00  0.00     0.007 C 
HETATM   13  C17 UNL     1     -13.564  -7.328  29.828  1.00  0.00     0.010 C 
HETATM   14  C18 UNL     1     -13.142  -6.002  30.540  1.00  0.00     0.018 C 
HETATM   15  C19 UNL     1     -12.110  -5.175  29.760  1.00  0.00     0.023 C 
HETATM   16  C20 UNL     1     -12.584  -6.317  31.942  1.00  0.00     0.023 C 
HETATM   17  C21 UNL     1     -14.387  -5.125  30.750  1.00  0.00     0.135 C 
HETATM   18  O3  UNL     1     -14.286  -3.911  30.975  1.00  0.00    -0.297 OA
HETATM   19  C22 UNL     1     -15.727  -5.812  30.769  1.00  0.00     0.080 C 
HETATM   20  C23 UNL     1     -15.972  -6.618  29.498  1.00  0.00     0.018 C 
HETATM   21  C24 UNL     1     -14.689  -7.082  28.818  1.00  0.00    -0.026 A 
HETATM   22  C25 UNL     1     -14.371  -6.504  27.463  1.00  0.00     0.021 A 
HETATM   23  C26 UNL     1     -14.791  -7.963  27.540  1.00  0.00    -0.027 A 
HETATM   24  C27 UNL     1     -16.193  -8.292  27.007  1.00  0.00     0.011 C 
HETATM   25  C28 UNL     1     -16.294  -9.100  25.698  1.00  0.00     0.011 C 
HETATM   26  C29 UNL     1     -14.971  -9.700  25.208  1.00  0.00    -0.030 C 
HETATM   27  C30 UNL     1     -14.234  -8.604  24.380  1.00  0.00     0.016 C 
HETATM   28  C31 UNL     1     -15.094 -11.001  24.359  1.00  0.00     0.027 C 
ENDROOT
BRANCH   4  29
HETATM   29  C5  UNL     1     -12.593 -11.684  21.082  1.00  0.00     0.044 C 
HETATM   30  C6  UNL     1     -13.483 -10.575  20.466  1.00  0.00     0.015 C 
BRANCH  29  31
HETATM   31  C7  UNL     1     -11.147 -11.154  21.403  1.00  0.00     0.056 C 
HETATM   32  C8  UNL     1     -10.256 -12.236  22.044  1.00  0.00     0.045 C 
HETATM   33  C9  UNL     1     -10.388 -10.663  20.151  1.00  0.00     0.045 C 
BRANCH  31  34
HETATM   34  O1  UNL     1     -11.221 -10.017  22.264  1.00  0.00    -0.390 OA
HETATM   35  H18 UNL     1     -11.283 -10.313  23.189  1.00  0.00     0.210 HD
ENDBRANCH  31  34
ENDBRANCH  29  31
ENDBRANCH   4  29
TORSDOF 3
ENDMDL
MODEL 9
REMARK minimizedAffinity -6.5014286
REMARK CNNscore 0.445089698
REMARK CNNaffinity 6.43559647
REMARK  3 active torsions:
REMARK  status: ('A' for Active; 'I' for Inactive)
REMARK    1  A    between atoms: C4_4  and  C5_5 
REMARK    2  A    between atoms: C5_5  and  C7_7 
REMARK    3  A    between atoms: C7_7  and  O1_10 
ROOT
HETATM    1  C1  UNL     1     -17.383   6.193  23.748  1.00  0.00     0.010 C 
HETATM    2  C2  UNL     1     -15.919   5.760  23.738  1.00  0.00    -0.009 C 
HETATM    3  C3  UNL     1     -15.578   4.945  24.992  1.00  0.00     0.037 C 
HETATM    4  C4  UNL     1     -14.178   4.319  24.873  1.00  0.00     0.129 C 
HETATM    5  O2  UNL     1     -13.312   5.182  24.108  1.00  0.00    -0.380 OA
HETATM    6  C10 UNL     1     -13.551   6.574  24.244  1.00  0.00     0.128 C 
HETATM    7  C11 UNL     1     -12.527   7.338  23.381  1.00  0.00     0.042 C 
HETATM    8  C12 UNL     1     -13.339   8.459  22.700  1.00  0.00    -0.030 C 
HETATM    9  C13 UNL     1     -13.488   9.608  23.747  1.00  0.00     0.016 C 
HETATM   10  C14 UNL     1     -12.717   8.996  21.387  1.00  0.00     0.004 C 
HETATM   11  C15 UNL     1     -11.433   9.809  21.598  1.00  0.00     0.007 C 
HETATM   12  C16 UNL     1     -10.845  10.235  20.260  1.00  0.00     0.007 C 
HETATM   13  C17 UNL     1     -11.753  11.272  19.596  1.00  0.00     0.010 C 
HETATM   14  C18 UNL     1     -11.265  11.751  18.191  1.00  0.00     0.018 C 
HETATM   15  C19 UNL     1     -10.816  10.613  17.264  1.00  0.00     0.023 C 
HETATM   16  C20 UNL     1     -10.108  12.757  18.354  1.00  0.00     0.023 C 
HETATM   17  C21 UNL     1     -12.407  12.506  17.492  1.00  0.00     0.135 C 
HETATM   18  O3  UNL     1     -12.400  12.687  16.266  1.00  0.00    -0.297 OA
HETATM   19  C22 UNL     1     -13.484  13.100  18.361  1.00  0.00     0.080 C 
HETATM   20  C23 UNL     1     -14.137  12.052  19.255  1.00  0.00     0.018 C 
HETATM   21  C24 UNL     1     -13.229  10.867  19.564  1.00  0.00    -0.026 A 
HETATM   22  C25 UNL     1     -13.628   9.522  19.012  1.00  0.00     0.021 A 
HETATM   23  C26 UNL     1     -13.748   9.747  20.511  1.00  0.00    -0.027 A 
HETATM   24  C27 UNL     1     -15.175   9.881  21.062  1.00  0.00     0.011 C 
HETATM   25  C28 UNL     1     -15.718   8.736  21.938  1.00  0.00     0.011 C 
HETATM   26  C29 UNL     1     -14.671   7.700  22.367  1.00  0.00    -0.030 C 
HETATM   27  C30 UNL     1     -14.545   6.654  21.218  1.00  0.00     0.016 C 
HETATM   28  C31 UNL     1     -14.958   6.967  23.711  1.00  0.00     0.027 C 
ENDROOT
BRANCH   4  29
HETATM   29  C5  UNL     1     -14.077   2.911  24.188  1.00  0.00     0.044 C 
HETATM   30  C6  UNL     1     -13.667   3.150  22.713  1.00  0.00     0.015 C 
BRANCH  29  31
HETATM   31  C7  UNL     1     -13.152   1.842  24.879  1.00  0.00     0.056 C 
HETATM   32  C8  UNL     1     -11.687   1.945  24.412  1.00  0.00     0.045 C 
HETATM   33  C9  UNL     1     -13.118   1.972  26.419  1.00  0.00     0.045 C 
BRANCH  31  34
HETATM   34  O1  UNL     1     -13.648   0.526  24.628  1.00  0.00    -0.390 OA
HETATM   35  H18 UNL     1     -13.314   0.213  23.769  1.00  0.00     0.210 HD
ENDBRANCH  31  34
ENDBRANCH  29  31
ENDBRANCH   4  29
TORSDOF 3
ENDMDL
