MODEL 1
REMARK minimizedAffinity -8.26639462
REMARK CNNscore 0.698711693
REMARK CNNaffinity 6.71395254
REMARK  10 active torsions:
REMARK  status: ('A' for Active; 'I' for Inactive)
REMARK    1  A    between atoms: N1_6  and  O1_8 
REMARK    2  A    between atoms: O1_8  and  C6_9 
REMARK    3  A    between atoms: C6_9  and  C7_10 
REMARK       I    between atoms: C7_10  and  N2_12 
REMARK    4  A    between atoms: N2_12  and  C8_13 
REMARK    5  A    between atoms: C8_13  and  C9_14 
REMARK    6  A    between atoms: C20_27  and  O3_28 
REMARK    7  A    between atoms: C27_35  and  O4_36 
REMARK    8  A    between atoms: C27_35  and  C28_37 
REMARK    9  A    between atoms: C28_37  and  C29_39 
REMARK   10  A    between atoms: C29_39  and  O6_40 
ROOT
HETATM    1  C1  UNL     1      -9.315  48.508 -31.357  1.00  0.00     0.020 C 
HETATM    2  C2  UNL     1      -8.714  47.099 -31.131  1.00  0.00    -0.014 C 
HETATM    3  C3  UNL     1      -8.886  46.720 -29.637  1.00  0.00     0.020 C 
HETATM    4  C4  UNL     1      -8.103  47.614 -28.680  1.00  0.00     0.060 C 
HETATM    5  C5  UNL     1      -6.668  47.849 -29.107  1.00  0.00     0.032 C 
HETATM    6  N1  UNL     1      -5.876  48.351 -28.206  1.00  0.00    -0.271 N 
ATOM      7  H1  UNL     1      -6.163  48.568 -27.251  1.00  0.00     0.194 HD
HETATM    8  C14 UNL     1      -6.288  47.495 -30.503  1.00  0.00     0.030 C 
HETATM    9  C15 UNL     1      -7.205  47.137 -31.420  1.00  0.00    -0.069 C 
HETATM   10  C16 UNL     1      -6.730  46.649 -32.770  1.00  0.00     0.035 C 
HETATM   11  C17 UNL     1      -7.719  46.923 -33.893  1.00  0.00     0.010 C 
HETATM   12  C18 UNL     1      -9.152  46.440 -33.589  1.00  0.00    -0.002 C 
HETATM   13  C19 UNL     1      -9.372  46.035 -32.101  1.00  0.00     0.031 C 
HETATM   14  C20 UNL     1     -10.873  45.722 -31.893  1.00  0.00     0.124 C 
HETATM   15  C21 UNL     1     -11.358  44.634 -32.865  1.00  0.00     0.045 C 
HETATM   16  C22 UNL     1     -11.099  44.929 -34.365  1.00  0.00     0.001 C 
HETATM   17  C23 UNL     1     -12.098  46.006 -34.825  1.00  0.00     0.019 C 
HETATM   18  C24 UNL     1      -9.636  45.374 -34.591  1.00  0.00     0.002 C 
HETATM   19  C25 UNL     1      -8.827  44.066 -34.607  1.00  0.00     0.009 C 
HETATM   20  C26 UNL     1      -9.813  42.948 -34.963  1.00  0.00     0.047 C 
HETATM   21  C27 UNL     1     -11.174  43.624 -35.220  1.00  0.00     0.128 C 
ENDROOT
BRANCH   6  22
HETATM   22  O1  UNL     1      -4.579  48.559 -28.703  1.00  0.00    -0.271 OA
BRANCH  22  23
HETATM   23  C6  UNL     1      -3.660  48.421 -27.633  1.00  0.00     0.303 C 
BRANCH  23  24
HETATM   24  C7  UNL     1      -3.356  49.763 -26.971  1.00  0.00     0.244 C 
HETATM   25  O2  UNL     1      -3.676  50.052 -25.822  1.00  0.00    -0.271 OA
HETATM   26  N2  UNL     1      -2.668  50.634 -27.799  1.00  0.00    -0.355 N 
HETATM   27  H10 UNL     1      -2.601  50.416 -28.784  1.00  0.00     0.162 HD
BRANCH  26  28
HETATM   28  C8  UNL     1      -2.365  51.987 -27.390  1.00  0.00     0.161 C 
BRANCH  28  29
HETATM   29  C9  UNL     1      -0.918  52.122 -26.998  1.00  0.00    -0.038 A 
HETATM   30  C10 UNL     1       0.094  51.780 -27.901  1.00  0.00     0.025 A 
HETATM   31  C11 UNL     1       1.415  51.902 -27.500  1.00  0.00     0.088 A 
HETATM   32  N3  UNL     1       1.791  52.333 -26.275  1.00  0.00    -0.375 N 
HETATM   33  C12 UNL     1       0.800  52.651 -25.416  1.00  0.00     0.088 A 
ATOM     34  H3  UNL     1       2.773  52.414 -26.014  1.00  0.00     0.164 HD
HETATM   35  C13 UNL     1      -0.551  52.559 -25.722  1.00  0.00     0.025 A 
ENDBRANCH  28  29
ENDBRANCH  26  28
ENDBRANCH  23  24
ENDBRANCH  22  23
ENDBRANCH   6  22
BRANCH  14  36
HETATM   36  O3  UNL     1     -11.106  45.216 -30.582  1.00  0.00    -0.395 OA
HETATM   37  H25 UNL     1     -12.063  45.057 -30.492  1.00  0.00     0.210 HD
ENDBRANCH  14  36
BRANCH  21  38
HETATM   38  O4  UNL     1     -12.222  42.775 -34.759  1.00  0.00    -0.381 OA
HETATM   39  H36 UNL     1     -12.002  41.856 -34.998  1.00  0.00     0.211 HD
ENDBRANCH  21  38
BRANCH  21  40
HETATM   40  C28 UNL     1     -11.346  43.882 -36.740  1.00  0.00     0.184 C 
HETATM   41  O5  UNL     1     -12.346  44.426 -37.219  1.00  0.00    -0.292 OA
BRANCH  40  42
HETATM   42  C29 UNL     1     -10.213  43.436 -37.662  1.00  0.00     0.245 C 
BRANCH  42  43
HETATM   43  O6  UNL     1      -9.477  44.547 -38.158  1.00  0.00    -0.393 OA
HETATM   44  H39 UNL     1      -9.634  45.282 -37.531  1.00  0.00     0.209 HD
ENDBRANCH  42  43
ENDBRANCH  40  42
ENDBRANCH  21  40
TORSDOF 10
ENDMDL
MODEL 2
REMARK minimizedAffinity -7.99987459
REMARK CNNscore 0.620621979
REMARK CNNaffinity 6.05840921
REMARK  10 active torsions:
REMARK  status: ('A' for Active; 'I' for Inactive)
REMARK    1  A    between atoms: N1_6  and  O1_8 
REMARK    2  A    between atoms: O1_8  and  C6_9 
REMARK    3  A    between atoms: C6_9  and  C7_10 
REMARK       I    between atoms: C7_10  and  N2_12 
REMARK    4  A    between atoms: N2_12  and  C8_13 
REMARK    5  A    between atoms: C8_13  and  C9_14 
REMARK    6  A    between atoms: C20_27  and  O3_28 
REMARK    7  A    between atoms: C27_35  and  O4_36 
REMARK    8  A    between atoms: C27_35  and  C28_37 
REMARK    9  A    between atoms: C28_37  and  C29_39 
REMARK   10  A    between atoms: C29_39  and  O6_40 
ROOT
HETATM    1  C1  UNL     1     -11.981  45.222 -25.951  1.00  0.00     0.020 C 
HETATM    2  C2  UNL     1     -12.570  46.242 -26.957  1.00  0.00    -0.014 C 
HETATM    3  C3  UNL     1     -13.343  47.329 -26.165  1.00  0.00     0.020 C 
HETATM    4  C4  UNL     1     -14.563  46.798 -25.419  1.00  0.00     0.060 C 
HETATM    5  C5  UNL     1     -15.440  45.891 -26.258  1.00  0.00     0.032 C 
HETATM    6  N1  UNL     1     -16.626  45.642 -25.787  1.00  0.00    -0.271 N 
ATOM      7  H1  UNL     1     -16.988  46.033 -24.917  1.00  0.00     0.194 HD
HETATM    8  C14 UNL     1     -14.880  45.362 -27.533  1.00  0.00     0.030 C 
HETATM    9  C15 UNL     1     -13.586  45.533 -27.866  1.00  0.00    -0.069 C 
HETATM   10  C16 UNL     1     -13.127  45.100 -29.239  1.00  0.00     0.035 C 
HETATM   11  C17 UNL     1     -11.662  44.691 -29.284  1.00  0.00     0.010 C 
HETATM   12  C18 UNL     1     -10.708  45.736 -28.672  1.00  0.00    -0.002 C 
HETATM   13  C19 UNL     1     -11.438  46.858 -27.875  1.00  0.00     0.031 C 
HETATM   14  C20 UNL     1     -10.373  47.745 -27.186  1.00  0.00     0.124 C 
HETATM   15  C21 UNL     1      -9.376  48.317 -28.207  1.00  0.00     0.045 C 
HETATM   16  C22 UNL     1      -8.667  47.264 -29.097  1.00  0.00     0.001 C 
HETATM   17  C23 UNL     1      -7.614  46.538 -28.240  1.00  0.00     0.019 C 
HETATM   18  C24 UNL     1      -9.693  46.276 -29.698  1.00  0.00     0.002 C 
HETATM   19  C25 UNL     1     -10.300  47.024 -30.897  1.00  0.00     0.009 C 
HETATM   20  C26 UNL     1      -9.283  48.098 -31.301  1.00  0.00     0.047 C 
HETATM   21  C27 UNL     1      -8.062  47.920 -30.379  1.00  0.00     0.128 C 
ENDROOT
BRANCH   6  22
HETATM   22  O1  UNL     1     -17.350  44.772 -26.618  1.00  0.00    -0.271 OA
BRANCH  22  23
HETATM   23  C6  UNL     1     -18.713  45.158 -26.594  1.00  0.00     0.303 C 
BRANCH  23  24
HETATM   24  C7  UNL     1     -19.125  45.699 -25.227  1.00  0.00     0.244 C 
HETATM   25  O2  UNL     1     -19.501  46.850 -25.027  1.00  0.00    -0.271 OA
HETATM   26  N2  UNL     1     -19.040  44.753 -24.219  1.00  0.00    -0.355 N 
HETATM   27  H10 UNL     1     -18.549  43.889 -24.405  1.00  0.00     0.162 HD
BRANCH  26  28
HETATM   28  C8  UNL     1     -19.301  45.092 -22.839  1.00  0.00     0.161 C 
BRANCH  28  29
HETATM   29  C9  UNL     1     -20.136  44.034 -22.170  1.00  0.00    -0.038 A 
HETATM   30  C10 UNL     1     -21.190  43.425 -22.859  1.00  0.00     0.025 A 
HETATM   31  C11 UNL     1     -21.948  42.466 -22.205  1.00  0.00     0.088 A 
HETATM   32  N3  UNL     1     -21.733  42.081 -20.928  1.00  0.00    -0.375 N 
HETATM   33  C12 UNL     1     -20.716  42.685 -20.278  1.00  0.00     0.088 A 
ATOM     34  H3  UNL     1     -22.308  41.369 -20.479  1.00  0.00     0.164 HD
HETATM   35  C13 UNL     1     -19.903  43.658 -20.844  1.00  0.00     0.025 A 
ENDBRANCH  28  29
ENDBRANCH  26  28
ENDBRANCH  23  24
ENDBRANCH  22  23
ENDBRANCH   6  22
BRANCH  14  36
HETATM   36  O3  UNL     1     -10.983  48.867 -26.555  1.00  0.00    -0.395 OA
HETATM   37  H25 UNL     1     -10.280  49.380 -26.118  1.00  0.00     0.210 HD
ENDBRANCH  14  36
BRANCH  21  38
HETATM   38  O4  UNL     1      -7.501  49.195 -30.079  1.00  0.00    -0.381 OA
HETATM   39  H36 UNL     1      -7.513  49.735 -30.891  1.00  0.00     0.211 HD
ENDBRANCH  21  38
BRANCH  21  40
HETATM   40  C28 UNL     1      -7.000  47.039 -31.089  1.00  0.00     0.184 C 
HETATM   41  O5  UNL     1      -7.168  45.836 -31.313  1.00  0.00    -0.292 OA
BRANCH  40  42
HETATM   42  C29 UNL     1      -5.701  47.716 -31.522  1.00  0.00     0.245 C 
BRANCH  42  43
HETATM   43  O6  UNL     1      -4.596  47.267 -30.747  1.00  0.00    -0.393 OA
HETATM   44  H39 UNL     1      -4.855  46.397 -30.379  1.00  0.00     0.209 HD
ENDBRANCH  42  43
ENDBRANCH  40  42
ENDBRANCH  21  40
TORSDOF 10
ENDMDL
MODEL 3
REMARK minimizedAffinity -8.58215046
REMARK CNNscore 0.595423341
REMARK CNNaffinity 6.77131081
REMARK  10 active torsions:
REMARK  status: ('A' for Active; 'I' for Inactive)
REMARK    1  A    between atoms: N1_6  and  O1_8 
REMARK    2  A    between atoms: O1_8  and  C6_9 
REMARK    3  A    between atoms: C6_9  and  C7_10 
REMARK       I    between atoms: C7_10  and  N2_12 
REMARK    4  A    between atoms: N2_12  and  C8_13 
REMARK    5  A    between atoms: C8_13  and  C9_14 
REMARK    6  A    between atoms: C20_27  and  O3_28 
REMARK    7  A    between atoms: C27_35  and  O4_36 
REMARK    8  A    between atoms: C27_35  and  C28_37 
REMARK    9  A    between atoms: C28_37  and  C29_39 
REMARK   10  A    between atoms: C29_39  and  O6_40 
ROOT
HETATM    1  C1  UNL     1      -4.357  51.796 -24.750  1.00  0.00     0.020 C 
HETATM    2  C2  UNL     1      -3.154  50.832 -24.906  1.00  0.00    -0.014 C 
HETATM    3  C3  UNL     1      -2.154  51.449 -25.918  1.00  0.00     0.020 C 
HETATM    4  C4  UNL     1      -2.710  51.579 -27.333  1.00  0.00     0.060 C 
HETATM    5  C5  UNL     1      -3.411  50.330 -27.826  1.00  0.00     0.032 C 
HETATM    6  N1  UNL     1      -3.648  50.271 -29.103  1.00  0.00    -0.271 N 
ATOM      7  H1  UNL     1      -3.374  50.995 -29.768  1.00  0.00     0.194 HD
HETATM    8  C14 UNL     1      -3.771  49.289 -26.824  1.00  0.00     0.030 C 
HETATM    9  C15 UNL     1      -3.641  49.501 -25.501  1.00  0.00    -0.069 C 
HETATM   10  C16 UNL     1      -3.884  48.349 -24.553  1.00  0.00     0.035 C 
HETATM   11  C17 UNL     1      -4.381  48.789 -23.183  1.00  0.00     0.010 C 
HETATM   12  C18 UNL     1      -3.513  49.884 -22.531  1.00  0.00    -0.002 C 
HETATM   13  C19 UNL     1      -2.481  50.526 -23.507  1.00  0.00     0.031 C 
HETATM   14  C20 UNL     1      -1.789  51.706 -22.782  1.00  0.00     0.124 C 
HETATM   15  C21 UNL     1      -1.134  51.249 -21.468  1.00  0.00     0.045 C 
HETATM   16  C22 UNL     1      -2.082  50.525 -20.477  1.00  0.00     0.001 C 
HETATM   17  C23 UNL     1      -3.004  51.577 -19.835  1.00  0.00     0.019 C 
HETATM   18  C24 UNL     1      -2.890  49.423 -21.200  1.00  0.00     0.002 C 
HETATM   19  C25 UNL     1      -1.923  48.231 -21.299  1.00  0.00     0.009 C 
HETATM   20  C26 UNL     1      -0.873  48.428 -20.201  1.00  0.00     0.047 C 
HETATM   21  C27 UNL     1      -1.277  49.697 -19.425  1.00  0.00     0.128 C 
ENDROOT
BRANCH   6  22
HETATM   22  O1  UNL     1      -4.325  49.093 -29.458  1.00  0.00    -0.271 OA
BRANCH  22  23
HETATM   23  C6  UNL     1      -4.955  49.297 -30.712  1.00  0.00     0.303 C 
BRANCH  23  24
HETATM   24  C7  UNL     1      -6.165  48.384 -30.893  1.00  0.00     0.244 C 
HETATM   25  O2  UNL     1      -7.317  48.786 -31.021  1.00  0.00    -0.271 OA
HETATM   26  N2  UNL     1      -5.834  47.039 -30.906  1.00  0.00    -0.355 N 
HETATM   27  H10 UNL     1      -4.908  46.764 -30.609  1.00  0.00     0.162 HD
BRANCH  26  28
HETATM   28  C8  UNL     1      -6.848  46.011 -30.978  1.00  0.00     0.161 C 
BRANCH  28  29
HETATM   29  C9  UNL     1      -6.273  44.718 -31.489  1.00  0.00    -0.038 A 
HETATM   30  C10 UNL     1      -5.042  44.705 -32.153  1.00  0.00     0.025 A 
HETATM   31  C11 UNL     1      -4.552  43.498 -32.624  1.00  0.00     0.088 A 
HETATM   32  N3  UNL     1      -5.196  42.319 -32.482  1.00  0.00    -0.375 N 
HETATM   33  C12 UNL     1      -6.386  42.353 -31.846  1.00  0.00     0.088 A 
ATOM     34  H3  UNL     1      -4.805  41.447 -32.839  1.00  0.00     0.164 HD
HETATM   35  C13 UNL     1      -6.962  43.511 -31.342  1.00  0.00     0.025 A 
ENDBRANCH  28  29
ENDBRANCH  26  28
ENDBRANCH  23  24
ENDBRANCH  22  23
ENDBRANCH   6  22
BRANCH  14  36
HETATM   36  O3  UNL     1      -0.740  52.244 -23.582  1.00  0.00    -0.395 OA
HETATM   37  H25 UNL     1      -0.352  52.993 -23.097  1.00  0.00     0.210 HD
ENDBRANCH  14  36
BRANCH  21  38
HETATM   38  O4  UNL     1      -0.106  50.399 -19.016  1.00  0.00    -0.381 OA
HETATM   39  H36 UNL     1       0.554  49.748 -18.715  1.00  0.00     0.211 HD
ENDBRANCH  21  38
BRANCH  21  40
HETATM   40  C28 UNL     1      -2.107  49.299 -18.176  1.00  0.00     0.184 C 
HETATM   41  O5  UNL     1      -2.450  50.113 -17.312  1.00  0.00    -0.292 OA
BRANCH  40  42
HETATM   42  C29 UNL     1      -2.505  47.832 -18.035  1.00  0.00     0.245 C 
BRANCH  42  43
HETATM   43  O6  UNL     1      -3.885  47.637 -18.319  1.00  0.00    -0.393 OA
HETATM   44  H39 UNL     1      -4.161  48.397 -18.871  1.00  0.00     0.209 HD
ENDBRANCH  42  43
ENDBRANCH  40  42
ENDBRANCH  21  40
TORSDOF 10
ENDMDL
MODEL 4
REMARK minimizedAffinity -7.73029232
REMARK CNNscore 0.583844006
REMARK CNNaffinity 6.90417528
REMARK  10 active torsions:
REMARK  status: ('A' for Active; 'I' for Inactive)
REMARK    1  A    between atoms: N1_6  and  O1_8 
REMARK    2  A    between atoms: O1_8  and  C6_9 
REMARK    3  A    between atoms: C6_9  and  C7_10 
REMARK       I    between atoms: C7_10  and  N2_12 
REMARK    4  A    between atoms: N2_12  and  C8_13 
REMARK    5  A    between atoms: C8_13  and  C9_14 
REMARK    6  A    between atoms: C20_27  and  O3_28 
REMARK    7  A    between atoms: C27_35  and  O4_36 
REMARK    8  A    between atoms: C27_35  and  C28_37 
REMARK    9  A    between atoms: C28_37  and  C29_39 
REMARK   10  A    between atoms: C29_39  and  O6_40 
ROOT
HETATM    1  C1  UNL     1      -0.276  49.260 -16.600  1.00  0.00     0.020 C 
HETATM    2  C2  UNL     1      -0.663  50.755 -16.472  1.00  0.00    -0.014 C 
HETATM    3  C3  UNL     1      -1.888  51.029 -17.381  1.00  0.00     0.020 C 
HETATM    4  C4  UNL     1      -1.605  50.846 -18.870  1.00  0.00     0.060 C 
HETATM    5  C5  UNL     1      -0.323  51.509 -19.329  1.00  0.00     0.032 C 
HETATM    6  N1  UNL     1      -0.172  51.639 -20.613  1.00  0.00    -0.271 N 
ATOM      7  H1  UNL     1      -0.864  51.343 -21.302  1.00  0.00     0.194 HD
HETATM    8  C14 UNL     1       0.648  51.947 -18.288  1.00  0.00     0.030 C 
HETATM    9  C15 UNL     1       0.492  51.626 -16.990  1.00  0.00    -0.069 C 
HETATM   10  C16 UNL     1       1.435  52.230 -15.974  1.00  0.00     0.035 C 
HETATM   11  C17 UNL     1       1.644  51.353 -14.749  1.00  0.00     0.010 C 
HETATM   12  C18 UNL     1       0.331  50.881 -14.092  1.00  0.00    -0.002 C 
HETATM   13  C19 UNL     1      -0.933  51.148 -14.963  1.00  0.00     0.031 C 
HETATM   14  C20 UNL     1      -2.153  50.494 -14.270  1.00  0.00     0.124 C 
HETATM   15  C21 UNL     1      -2.324  51.011 -12.833  1.00  0.00     0.045 C 
HETATM   16  C22 UNL     1      -1.076  50.856 -11.925  1.00  0.00     0.001 C 
HETATM   17  C23 UNL     1      -0.939  49.371 -11.542  1.00  0.00     0.019 C 
HETATM   18  C24 UNL     1       0.190  51.380 -12.641  1.00  0.00     0.002 C 
HETATM   19  C25 UNL     1       0.132  52.908 -12.469  1.00  0.00     0.009 C 
HETATM   20  C26 UNL     1      -0.760  53.176 -11.252  1.00  0.00     0.047 C 
HETATM   21  C27 UNL     1      -1.158  51.800 -10.683  1.00  0.00     0.128 C 
ENDROOT
BRANCH   6  22
HETATM   22  O1  UNL     1       1.056  52.236 -20.941  1.00  0.00    -0.271 OA
BRANCH  22  23
HETATM   23  C6  UNL     1       0.798  53.473 -21.582  1.00  0.00     0.303 C 
BRANCH  23  24
HETATM   24  C7  UNL     1       0.741  53.324 -23.100  1.00  0.00     0.244 C 
HETATM   25  O2  UNL     1       1.178  54.154 -23.891  1.00  0.00    -0.271 OA
HETATM   26  N2  UNL     1       0.148  52.141 -23.508  1.00  0.00    -0.355 N 
HETATM   27  H10 UNL     1      -0.358  51.592 -22.827  1.00  0.00     0.162 HD
BRANCH  26  28
HETATM   28  C8  UNL     1      -0.082  51.852 -24.906  1.00  0.00     0.161 C 
BRANCH  28  29
HETATM   29  C9  UNL     1      -1.162  50.818 -25.075  1.00  0.00    -0.038 A 
HETATM   30  C10 UNL     1      -1.852  50.327 -23.961  1.00  0.00     0.025 A 
HETATM   31  C11 UNL     1      -2.828  49.364 -24.153  1.00  0.00     0.088 A 
HETATM   32  N3  UNL     1      -3.158  48.859 -25.363  1.00  0.00    -0.375 N 
HETATM   33  C12 UNL     1      -2.477  49.339 -26.424  1.00  0.00     0.088 A 
ATOM     34  H3  UNL     1      -3.885  48.152 -25.468  1.00  0.00     0.164 HD
HETATM   35  C13 UNL     1      -1.480  50.301 -26.334  1.00  0.00     0.025 A 
ENDBRANCH  28  29
ENDBRANCH  26  28
ENDBRANCH  23  24
ENDBRANCH  22  23
ENDBRANCH   6  22
BRANCH  14  36
HETATM   36  O3  UNL     1      -3.359  50.823 -14.956  1.00  0.00    -0.395 OA
HETATM   37  H25 UNL     1      -4.091  50.373 -14.499  1.00  0.00     0.210 HD
ENDBRANCH  14  36
BRANCH  21  38
HETATM   38  O4  UNL     1      -2.490  51.861 -10.179  1.00  0.00    -0.381 OA
HETATM   39  H36 UNL     1      -2.605  52.710  -9.716  1.00  0.00     0.211 HD
ENDBRANCH  21  38
BRANCH  21  40
HETATM   40  C28 UNL     1      -0.186  51.412  -9.538  1.00  0.00     0.184 C 
HETATM   41  O5  UNL     1       1.043  51.460  -9.657  1.00  0.00    -0.292 OA
BRANCH  40  42
HETATM   42  C29 UNL     1      -0.802  50.957  -8.217  1.00  0.00     0.245 C 
BRANCH  42  43
HETATM   43  O6  UNL     1      -0.280  49.700  -7.804  1.00  0.00    -0.393 OA
HETATM   44  H39 UNL     1       0.582  49.600  -8.256  1.00  0.00     0.209 HD
ENDBRANCH  42  43
ENDBRANCH  40  42
ENDBRANCH  21  40
TORSDOF 10
ENDMDL
MODEL 5
REMARK minimizedAffinity -8.93668556
REMARK CNNscore 0.531294584
REMARK CNNaffinity 7.11363077
REMARK  10 active torsions:
REMARK  status: ('A' for Active; 'I' for Inactive)
REMARK    1  A    between atoms: N1_6  and  O1_8 
REMARK    2  A    between atoms: O1_8  and  C6_9 
REMARK    3  A    between atoms: C6_9  and  C7_10 
REMARK       I    between atoms: C7_10  and  N2_12 
REMARK    4  A    between atoms: N2_12  and  C8_13 
REMARK    5  A    between atoms: C8_13  and  C9_14 
REMARK    6  A    between atoms: C20_27  and  O3_28 
REMARK    7  A    between atoms: C27_35  and  O4_36 
REMARK    8  A    between atoms: C27_35  and  C28_37 
REMARK    9  A    between atoms: C28_37  and  C29_39 
REMARK   10  A    between atoms: C29_39  and  O6_40 
ROOT
HETATM    1  C1  UNL     1      -4.294  51.719 -24.442  1.00  0.00     0.020 C 
HETATM    2  C2  UNL     1      -3.036  50.840 -24.653  1.00  0.00    -0.014 C 
HETATM    3  C3  UNL     1      -2.097  51.552 -25.661  1.00  0.00     0.020 C 
HETATM    4  C4  UNL     1      -2.689  51.693 -27.061  1.00  0.00     0.060 C 
HETATM    5  C5  UNL     1      -3.321  50.419 -27.584  1.00  0.00     0.032 C 
HETATM    6  N1  UNL     1      -3.579  50.387 -28.857  1.00  0.00    -0.271 N 
ATOM      7  H1  UNL     1      -3.365  51.148 -29.502  1.00  0.00     0.194 HD
HETATM    8  C14 UNL     1      -3.594  49.325 -26.611  1.00  0.00     0.030 C 
HETATM    9  C15 UNL     1      -3.450  49.501 -25.284  1.00  0.00    -0.069 C 
HETATM   10  C16 UNL     1      -3.601  48.305 -24.371  1.00  0.00     0.035 C 
HETATM   11  C17 UNL     1      -4.097  48.667 -22.979  1.00  0.00     0.010 C 
HETATM   12  C18 UNL     1      -3.286  49.793 -22.306  1.00  0.00    -0.002 C 
HETATM   13  C19 UNL     1      -2.317  50.531 -23.277  1.00  0.00     0.031 C 
HETATM   14  C20 UNL     1      -1.685  51.728 -22.525  1.00  0.00     0.124 C 
HETATM   15  C21 UNL     1      -0.976  51.271 -21.240  1.00  0.00     0.045 C 
HETATM   16  C22 UNL     1      -1.856  50.456 -20.258  1.00  0.00     0.001 C 
HETATM   17  C23 UNL     1      -2.829  51.425 -19.563  1.00  0.00     0.019 C 
HETATM   18  C24 UNL     1      -2.609  49.329 -21.002  1.00  0.00     0.002 C 
HETATM   19  C25 UNL     1      -1.571  48.204 -21.160  1.00  0.00     0.009 C 
HETATM   20  C26 UNL     1      -0.513  48.432 -20.075  1.00  0.00     0.047 C 
HETATM   21  C27 UNL     1      -0.979  49.646 -19.250  1.00  0.00     0.128 C 
ENDROOT
BRANCH   6  22
HETATM   22  O1  UNL     1      -4.188  49.181 -29.240  1.00  0.00    -0.271 OA
BRANCH  22  23
HETATM   23  C6  UNL     1      -4.749  48.575 -28.088  1.00  0.00     0.303 C 
BRANCH  23  24
HETATM   24  C7  UNL     1      -6.107  47.945 -28.384  1.00  0.00     0.244 C 
HETATM   25  O2  UNL     1      -6.648  47.106 -27.670  1.00  0.00    -0.271 OA
HETATM   26  N2  UNL     1      -6.686  48.422 -29.549  1.00  0.00    -0.355 N 
HETATM   27  H10 UNL     1      -6.117  48.962 -30.187  1.00  0.00     0.162 HD
BRANCH  26  28
HETATM   28  C8  UNL     1      -7.931  47.885 -30.050  1.00  0.00     0.161 C 
BRANCH  28  29
HETATM   29  C9  UNL     1      -7.775  47.382 -31.459  1.00  0.00    -0.038 A 
HETATM   30  C10 UNL     1      -7.083  46.193 -31.713  1.00  0.00     0.025 A 
HETATM   31  C11 UNL     1      -6.945  45.768 -33.025  1.00  0.00     0.088 A 
HETATM   32  N3  UNL     1      -7.441  46.440 -34.087  1.00  0.00    -0.375 N 
HETATM   33  C12 UNL     1      -8.099  47.588 -33.823  1.00  0.00     0.088 A 
ATOM     34  H3  UNL     1      -7.324  46.097 -35.040  1.00  0.00     0.164 HD
HETATM   35  C13 UNL     1      -8.286  48.097 -32.545  1.00  0.00     0.025 A 
ENDBRANCH  28  29
ENDBRANCH  26  28
ENDBRANCH  23  24
ENDBRANCH  22  23
ENDBRANCH   6  22
BRANCH  14  36
HETATM   36  O3  UNL     1      -0.688  52.357 -23.326  1.00  0.00    -0.395 OA
HETATM   37  H25 UNL     1      -0.338  53.114 -22.823  1.00  0.00     0.210 HD
ENDBRANCH  14  36
BRANCH  21  38
HETATM   38  O4  UNL     1       0.153  50.407 -18.838  1.00  0.00    -0.381 OA
HETATM   39  H36 UNL     1       0.859  49.789 -18.572  1.00  0.00     0.211 HD
ENDBRANCH  21  38
BRANCH  21  40
HETATM   40  C28 UNL     1      -1.757  49.155 -18.000  1.00  0.00     0.184 C 
HETATM   41  O5  UNL     1      -2.858  48.599 -18.071  1.00  0.00    -0.292 OA
BRANCH  40  42
HETATM   42  C29 UNL     1      -1.108  49.379 -16.636  1.00  0.00     0.245 C 
BRANCH  42  43
HETATM   43  O6  UNL     1       0.039  48.557 -16.463  1.00  0.00    -0.393 OA
HETATM   44  H39 UNL     1       0.343  48.319 -17.363  1.00  0.00     0.209 HD
ENDBRANCH  42  43
ENDBRANCH  40  42
ENDBRANCH  21  40
TORSDOF 10
ENDMDL
MODEL 6
REMARK minimizedAffinity -8.87919521
REMARK CNNscore 0.477700323
REMARK CNNaffinity 7.35655451
REMARK  10 active torsions:
REMARK  status: ('A' for Active; 'I' for Inactive)
REMARK    1  A    between atoms: N1_6  and  O1_8 
REMARK    2  A    between atoms: O1_8  and  C6_9 
REMARK    3  A    between atoms: C6_9  and  C7_10 
REMARK       I    between atoms: C7_10  and  N2_12 
REMARK    4  A    between atoms: N2_12  and  C8_13 
REMARK    5  A    between atoms: C8_13  and  C9_14 
REMARK    6  A    between atoms: C20_27  and  O3_28 
REMARK    7  A    between atoms: C27_35  and  O4_36 
REMARK    8  A    between atoms: C27_35  and  C28_37 
REMARK    9  A    between atoms: C28_37  and  C29_39 
REMARK   10  A    between atoms: C29_39  and  O6_40 
ROOT
HETATM    1  C1  UNL     1      -1.773  52.190 -18.722  1.00  0.00     0.020 C 
HETATM    2  C2  UNL     1      -0.544  51.271 -18.932  1.00  0.00    -0.014 C 
HETATM    3  C3  UNL     1       0.386  51.920 -19.989  1.00  0.00     0.020 C 
HETATM    4  C4  UNL     1      -0.239  52.025 -21.378  1.00  0.00     0.060 C 
HETATM    5  C5  UNL     1      -0.916  50.750 -21.836  1.00  0.00     0.032 C 
HETATM    6  N1  UNL     1      -1.209  50.678 -23.101  1.00  0.00    -0.271 N 
ATOM      7  H1  UNL     1      -0.992  51.409 -23.779  1.00  0.00     0.194 HD
HETATM    8  C14 UNL     1      -1.192  49.700 -20.816  1.00  0.00     0.030 C 
HETATM    9  C15 UNL     1      -1.009  49.921 -19.501  1.00  0.00    -0.069 C 
HETATM   10  C16 UNL     1      -1.166  48.764 -18.541  1.00  0.00     0.035 C 
HETATM   11  C17 UNL     1      -1.616  49.190 -17.151  1.00  0.00     0.010 C 
HETATM   12  C18 UNL     1      -0.759  50.318 -16.541  1.00  0.00    -0.002 C 
HETATM   13  C19 UNL     1       0.203  50.994 -17.564  1.00  0.00     0.031 C 
HETATM   14  C20 UNL     1       0.884  52.200 -16.874  1.00  0.00     0.124 C 
HETATM   15  C21 UNL     1       1.615  51.772 -15.591  1.00  0.00     0.045 C 
HETATM   16  C22 UNL     1       0.740  51.017 -14.556  1.00  0.00     0.001 C 
HETATM   17  C23 UNL     1      -0.189  52.038 -13.874  1.00  0.00     0.019 C 
HETATM   18  C24 UNL     1      -0.060  49.884 -15.239  1.00  0.00     0.002 C 
HETATM   19  C25 UNL     1       0.944  48.727 -15.380  1.00  0.00     0.009 C 
HETATM   20  C26 UNL     1       2.036  48.967 -14.332  1.00  0.00     0.047 C 
HETATM   21  C27 UNL     1       1.622  50.223 -13.541  1.00  0.00     0.128 C 
ENDROOT
BRANCH   6  22
HETATM   22  O1  UNL     1      -1.858  49.475 -23.423  1.00  0.00    -0.271 OA
BRANCH  22  23
HETATM   23  C6  UNL     1      -3.021  49.779 -24.174  1.00  0.00     0.303 C 
BRANCH  23  24
HETATM   24  C7  UNL     1      -2.708  49.952 -25.658  1.00  0.00     0.244 C 
HETATM   25  O2  UNL     1      -3.245  49.309 -26.555  1.00  0.00    -0.271 OA
HETATM   26  N2  UNL     1      -1.750  50.923 -25.902  1.00  0.00    -0.355 N 
HETATM   27  H10 UNL     1      -1.212  51.280 -25.125  1.00  0.00     0.162 HD
BRANCH  26  28
HETATM   28  C8  UNL     1      -1.251  51.174 -27.235  1.00  0.00     0.161 C 
BRANCH  28  29
HETATM   29  C9  UNL     1       0.241  51.373 -27.225  1.00  0.00    -0.038 A 
HETATM   30  C10 UNL     1       0.967  51.219 -26.040  1.00  0.00     0.025 A 
HETATM   31  C11 UNL     1       2.337  51.425 -26.066  1.00  0.00     0.088 A 
HETATM   32  N3  UNL     1       3.023  51.773 -27.177  1.00  0.00    -0.375 N 
HETATM   33  C12 UNL     1       2.304  51.924 -28.309  1.00  0.00     0.088 A 
ATOM     34  H3  UNL     1       4.033  51.914 -27.161  1.00  0.00     0.164 HD
HETATM   35  C13 UNL     1       0.930  51.743 -28.384  1.00  0.00     0.025 A 
ENDBRANCH  28  29
ENDBRANCH  26  28
ENDBRANCH  23  24
ENDBRANCH  22  23
ENDBRANCH   6  22
BRANCH  14  36
HETATM   36  O3  UNL     1       1.875  52.773 -17.722  1.00  0.00    -0.395 OA
HETATM   37  H25 UNL     1       2.258  53.538 -17.257  1.00  0.00     0.210 HD
ENDBRANCH  14  36
BRANCH  21  38
HETATM   38  O4  UNL     1       2.784  50.967 -13.187  1.00  0.00    -0.381 OA
HETATM   39  H36 UNL     1       3.480  50.341 -12.916  1.00  0.00     0.211 HD
ENDBRANCH  21  38
BRANCH  21  40
HETATM   40  C28 UNL     1       0.866  49.799 -12.254  1.00  0.00     0.184 C 
HETATM   41  O5  UNL     1       0.017  48.900 -12.241  1.00  0.00    -0.292 OA
BRANCH  40  42
HETATM   42  C29 UNL     1       1.205  50.539 -10.963  1.00  0.00     0.245 C 
BRANCH  42  43
HETATM   43  O6  UNL     1       0.307  50.197  -9.914  1.00  0.00    -0.393 OA
HETATM   44  H39 UNL     1      -0.077  49.330 -10.155  1.00  0.00     0.209 HD
ENDBRANCH  42  43
ENDBRANCH  40  42
ENDBRANCH  21  40
TORSDOF 10
ENDMDL
MODEL 7
REMARK minimizedAffinity -7.78052187
REMARK CNNscore 0.431368649
REMARK CNNaffinity 5.6916461
REMARK  10 active torsions:
REMARK  status: ('A' for Active; 'I' for Inactive)
REMARK    1  A    between atoms: N1_6  and  O1_8 
REMARK    2  A    between atoms: O1_8  and  C6_9 
REMARK    3  A    between atoms: C6_9  and  C7_10 
REMARK       I    between atoms: C7_10  and  N2_12 
REMARK    4  A    between atoms: N2_12  and  C8_13 
REMARK    5  A    between atoms: C8_13  and  C9_14 
REMARK    6  A    between atoms: C20_27  and  O3_28 
REMARK    7  A    between atoms: C27_35  and  O4_36 
REMARK    8  A    between atoms: C27_35  and  C28_37 
REMARK    9  A    between atoms: C28_37  and  C29_39 
REMARK   10  A    between atoms: C29_39  and  O6_40 
ROOT
HETATM    1  C1  UNL     1     -10.865  43.577 -30.490  1.00  0.00     0.020 C 
HETATM    2  C2  UNL     1     -10.603  44.822 -29.607  1.00  0.00    -0.014 C 
HETATM    3  C3  UNL     1     -10.636  44.389 -28.118  1.00  0.00     0.020 C 
HETATM    4  C4  UNL     1     -12.000  43.886 -27.653  1.00  0.00     0.060 C 
HETATM    5  C5  UNL     1     -13.151  44.777 -28.073  1.00  0.00     0.032 C 
HETATM    6  N1  UNL     1     -14.286  44.569 -27.475  1.00  0.00    -0.271 N 
ATOM      7  H1  UNL     1     -14.427  43.869 -26.746  1.00  0.00     0.194 HD
HETATM    8  C14 UNL     1     -12.894  45.800 -29.124  1.00  0.00     0.030 C 
HETATM    9  C15 UNL     1     -11.736  45.839 -29.811  1.00  0.00    -0.069 C 
HETATM   10  C16 UNL     1     -11.490  46.995 -30.754  1.00  0.00     0.035 C 
HETATM   11  C17 UNL     1     -10.580  46.638 -31.920  1.00  0.00     0.010 C 
HETATM   12  C18 UNL     1      -9.260  45.966 -31.492  1.00  0.00    -0.002 C 
HETATM   13  C19 UNL     1      -9.239  45.524 -29.998  1.00  0.00     0.031 C 
HETATM   14  C20 UNL     1      -7.935  44.730 -29.739  1.00  0.00     0.124 C 
HETATM   15  C21 UNL     1      -6.694  45.555 -30.113  1.00  0.00     0.045 C 
HETATM   16  C22 UNL     1      -6.680  46.102 -31.564  1.00  0.00     0.001 C 
HETATM   17  C23 UNL     1      -6.383  44.931 -32.518  1.00  0.00     0.019 C 
HETATM   18  C24 UNL     1      -8.023  46.788 -31.903  1.00  0.00     0.002 C 
HETATM   19  C25 UNL     1      -7.918  48.187 -31.271  1.00  0.00     0.009 C 
HETATM   20  C26 UNL     1      -6.423  48.482 -31.110  1.00  0.00     0.047 C 
HETATM   21  C27 UNL     1      -5.668  47.282 -31.715  1.00  0.00     0.128 C 
ENDROOT
BRANCH   6  22
HETATM   22  O1  UNL     1     -15.295  45.421 -27.951  1.00  0.00    -0.271 OA
BRANCH  22  23
HETATM   23  C6  UNL     1     -16.553  44.853 -27.627  1.00  0.00     0.303 C 
BRANCH  23  24
HETATM   24  C7  UNL     1     -16.943  43.747 -28.604  1.00  0.00     0.244 C 
HETATM   25  O2  UNL     1     -16.337  42.686 -28.721  1.00  0.00    -0.271 OA
HETATM   26  N2  UNL     1     -18.067  44.054 -29.353  1.00  0.00    -0.355 N 
HETATM   27  H10 UNL     1     -18.406  45.006 -29.351  1.00  0.00     0.162 HD
BRANCH  26  28
HETATM   28  C8  UNL     1     -18.545  43.174 -30.396  1.00  0.00     0.161 C 
BRANCH  28  29
HETATM   29  C9  UNL     1     -20.047  43.092 -30.388  1.00  0.00    -0.038 A 
HETATM   30  C10 UNL     1     -20.723  42.609 -29.263  1.00  0.00     0.025 A 
HETATM   31  C11 UNL     1     -22.106  42.531 -29.297  1.00  0.00     0.088 A 
HETATM   32  N3  UNL     1     -22.852  42.894 -30.364  1.00  0.00    -0.375 N 
HETATM   33  C12 UNL     1     -22.182  43.351 -31.443  1.00  0.00     0.088 A 
ATOM     34  H3  UNL     1     -23.869  42.827 -30.355  1.00  0.00     0.164 HD
HETATM   35  C13 UNL     1     -20.799  43.462 -31.506  1.00  0.00     0.025 A 
ENDBRANCH  28  29
ENDBRANCH  26  28
ENDBRANCH  23  24
ENDBRANCH  22  23
ENDBRANCH   6  22
BRANCH  14  36
HETATM   36  O3  UNL     1      -7.803  44.418 -28.355  1.00  0.00    -0.395 OA
HETATM   37  H25 UNL     1      -6.984  43.902 -28.245  1.00  0.00     0.210 HD
ENDBRANCH  14  36
BRANCH  21  38
HETATM   38  O4  UNL     1      -4.484  47.036 -30.961  1.00  0.00    -0.381 OA
HETATM   39  H36 UNL     1      -4.079  47.893 -30.734  1.00  0.00     0.211 HD
ENDBRANCH  21  38
BRANCH  21  40
HETATM   40  C28 UNL     1      -5.290  47.597 -33.187  1.00  0.00     0.184 C 
HETATM   41  O5  UNL     1      -6.124  47.920 -34.039  1.00  0.00    -0.292 OA
BRANCH  40  42
HETATM   42  C29 UNL     1      -3.815  47.497 -33.570  1.00  0.00     0.245 C 
BRANCH  42  43
HETATM   43  O6  UNL     1      -3.358  48.689 -34.197  1.00  0.00    -0.393 OA
HETATM   44  H39 UNL     1      -3.972  49.398 -33.917  1.00  0.00     0.209 HD
ENDBRANCH  42  43
ENDBRANCH  40  42
ENDBRANCH  21  40
TORSDOF 10
ENDMDL
MODEL 8
REMARK minimizedAffinity -8.09148312
REMARK CNNscore 0.423841894
REMARK CNNaffinity 7.13013029
REMARK  10 active torsions:
REMARK  status: ('A' for Active; 'I' for Inactive)
REMARK    1  A    between atoms: N1_6  and  O1_8 
REMARK    2  A    between atoms: O1_8  and  C6_9 
REMARK    3  A    between atoms: C6_9  and  C7_10 
REMARK       I    between atoms: C7_10  and  N2_12 
REMARK    4  A    between atoms: N2_12  and  C8_13 
REMARK    5  A    between atoms: C8_13  and  C9_14 
REMARK    6  A    between atoms: C20_27  and  O3_28 
REMARK    7  A    between atoms: C27_35  and  O4_36 
REMARK    8  A    between atoms: C27_35  and  C28_37 
REMARK    9  A    between atoms: C28_37  and  C29_39 
REMARK   10  A    between atoms: C29_39  and  O6_40 
ROOT
HETATM    1  C1  UNL     1      -1.873  48.534 -19.286  1.00  0.00     0.020 C 
HETATM    2  C2  UNL     1      -2.386  49.784 -18.528  1.00  0.00    -0.014 C 
HETATM    3  C3  UNL     1      -3.920  49.657 -18.346  1.00  0.00     0.020 C 
HETATM    4  C4  UNL     1      -4.701  49.673 -19.657  1.00  0.00     0.060 C 
HETATM    5  C5  UNL     1      -4.271  50.773 -20.606  1.00  0.00     0.032 C 
HETATM    6  N1  UNL     1      -5.073  51.022 -21.597  1.00  0.00    -0.271 N 
ATOM      7  H1  UNL     1      -5.959  50.540 -21.749  1.00  0.00     0.194 HD
HETATM    8  C14 UNL     1      -2.981  51.467 -20.331  1.00  0.00     0.030 C 
HETATM    9  C15 UNL     1      -2.131  51.037 -19.381  1.00  0.00    -0.069 C 
HETATM   10  C16 UNL     1      -0.915  51.876 -19.060  1.00  0.00     0.035 C 
HETATM   11  C17 UNL     1       0.263  51.061 -18.548  1.00  0.00     0.010 C 
HETATM   12  C18 UNL     1      -0.096  50.117 -17.383  1.00  0.00    -0.002 C 
HETATM   13  C19 UNL     1      -1.629  49.967 -17.150  1.00  0.00     0.031 C 
HETATM   14  C20 UNL     1      -1.858  48.884 -16.068  1.00  0.00     0.124 C 
HETATM   15  C21 UNL     1      -1.109  49.223 -14.770  1.00  0.00     0.045 C 
HETATM   16  C22 UNL     1       0.414  49.469 -14.933  1.00  0.00     0.001 C 
HETATM   17  C23 UNL     1       1.100  48.110 -15.161  1.00  0.00     0.019 C 
HETATM   18  C24 UNL     1       0.687  50.448 -16.098  1.00  0.00     0.002 C 
HETATM   19  C25 UNL     1       0.426  51.843 -15.504  1.00  0.00     0.009 C 
HETATM   20  C26 UNL     1       0.578  51.707 -13.985  1.00  0.00     0.047 C 
HETATM   21  C27 UNL     1       0.996  50.249 -13.712  1.00  0.00     0.128 C 
ENDROOT
BRANCH   6  22
HETATM   22  O1  UNL     1      -4.576  52.034 -22.435  1.00  0.00    -0.271 OA
BRANCH  22  23
HETATM   23  C6  UNL     1      -4.915  51.717 -23.774  1.00  0.00     0.303 C 
BRANCH  23  24
HETATM   24  C7  UNL     1      -3.879  50.799 -24.417  1.00  0.00     0.244 C 
HETATM   25  O2  UNL     1      -3.512  49.730 -23.938  1.00  0.00    -0.271 OA
HETATM   26  N2  UNL     1      -3.388  51.289 -25.616  1.00  0.00    -0.355 N 
HETATM   27  H10 UNL     1      -3.581  52.250 -25.863  1.00  0.00     0.162 HD
BRANCH  26  28
HETATM   28  C8  UNL     1      -2.334  50.611 -26.337  1.00  0.00     0.161 C 
BRANCH  28  29
HETATM   29  C9  UNL     1      -1.015  51.311 -26.151  1.00  0.00    -0.038 A 
HETATM   30  C10 UNL     1      -0.966  52.591 -25.588  1.00  0.00     0.025 A 
HETATM   31  C11 UNL     1       0.265  53.211 -25.447  1.00  0.00     0.088 A 
HETATM   32  N3  UNL     1       1.435  52.652 -25.827  1.00  0.00    -0.375 N 
HETATM   33  C12 UNL     1       1.367  51.420 -26.375  1.00  0.00     0.088 A 
ATOM     34  H3  UNL     1       2.325  53.135 -25.706  1.00  0.00     0.164 HD
HETATM   35  C13 UNL     1       0.183  50.719 -26.561  1.00  0.00     0.025 A 
ENDBRANCH  28  29
ENDBRANCH  26  28
ENDBRANCH  23  24
ENDBRANCH  22  23
ENDBRANCH   6  22
BRANCH  14  36
HETATM   36  O3  UNL     1      -3.238  48.802 -15.721  1.00  0.00    -0.395 OA
HETATM   37  H25 UNL     1      -3.335  48.096 -15.058  1.00  0.00     0.210 HD
ENDBRANCH  14  36
BRANCH  21  38
HETATM   38  O4  UNL     1       0.402  49.803 -12.495  1.00  0.00    -0.381 OA
HETATM   39  H36 UNL     1       0.450  50.528 -11.846  1.00  0.00     0.211 HD
ENDBRANCH  21  38
BRANCH  21  40
HETATM   40  C28 UNL     1       2.541  50.165 -13.596  1.00  0.00     0.184 C 
HETATM   41  O5  UNL     1       3.304  50.768 -14.359  1.00  0.00    -0.292 OA
BRANCH  40  42
HETATM   42  C29 UNL     1       3.117  49.296 -12.481  1.00  0.00     0.245 C 
BRANCH  42  43
HETATM   43  O6  UNL     1       3.068  49.960 -11.225  1.00  0.00    -0.393 OA
HETATM   44  H39 UNL     1       2.372  50.643 -11.303  1.00  0.00     0.209 HD
ENDBRANCH  42  43
ENDBRANCH  40  42
ENDBRANCH  21  40
TORSDOF 10
ENDMDL
MODEL 9
REMARK minimizedAffinity -8.06909657
REMARK CNNscore 0.412456453
REMARK CNNaffinity 5.7436986
REMARK  10 active torsions:
REMARK  status: ('A' for Active; 'I' for Inactive)
REMARK    1  A    between atoms: N1_6  and  O1_8 
REMARK    2  A    between atoms: O1_8  and  C6_9 
REMARK    3  A    between atoms: C6_9  and  C7_10 
REMARK       I    between atoms: C7_10  and  N2_12 
REMARK    4  A    between atoms: N2_12  and  C8_13 
REMARK    5  A    between atoms: C8_13  and  C9_14 
REMARK    6  A    between atoms: C20_27  and  O3_28 
REMARK    7  A    between atoms: C27_35  and  O4_36 
REMARK    8  A    between atoms: C27_35  and  C28_37 
REMARK    9  A    between atoms: C28_37  and  C29_39 
REMARK   10  A    between atoms: C29_39  and  O6_40 
ROOT
HETATM    1  C1  UNL     1     -10.826  45.020 -26.703  1.00  0.00     0.020 C 
HETATM    2  C2  UNL     1     -11.036  46.542 -26.898  1.00  0.00    -0.014 C 
HETATM    3  C3  UNL     1     -11.022  47.226 -25.507  1.00  0.00     0.020 C 
HETATM    4  C4  UNL     1     -12.176  46.806 -24.601  1.00  0.00     0.060 C 
HETATM    5  C5  UNL     1     -13.524  46.817 -25.292  1.00  0.00     0.032 C 
HETATM    6  N1  UNL     1     -14.567  46.753 -24.518  1.00  0.00    -0.271 N 
ATOM      7  H1  UNL     1     -14.520  46.717 -23.499  1.00  0.00     0.194 HD
HETATM    8  C14 UNL     1     -13.546  46.895 -26.779  1.00  0.00     0.030 C 
HETATM    9  C15 UNL     1     -12.423  46.790 -27.513  1.00  0.00    -0.069 C 
HETATM   10  C16 UNL     1     -12.504  47.028 -29.004  1.00  0.00     0.035 C 
HETATM   11  C17 UNL     1     -11.455  46.260 -29.795  1.00  0.00     0.010 C 
HETATM   12  C18 UNL     1     -10.019  46.452 -29.269  1.00  0.00    -0.002 C 
HETATM   13  C19 UNL     1      -9.951  47.149 -27.877  1.00  0.00     0.031 C 
HETATM   14  C20 UNL     1      -8.480  47.141 -27.395  1.00  0.00     0.124 C 
HETATM   15  C21 UNL     1      -7.551  47.810 -28.420  1.00  0.00     0.045 C 
HETATM   16  C22 UNL     1      -7.623  47.224 -29.854  1.00  0.00     0.001 C 
HETATM   17  C23 UNL     1      -6.903  45.863 -29.856  1.00  0.00     0.019 C 
HETATM   18  C24 UNL     1      -9.091  47.094 -30.319  1.00  0.00     0.002 C 
HETATM   19  C25 UNL     1      -9.484  48.511 -30.773  1.00  0.00     0.009 C 
HETATM   20  C26 UNL     1      -8.178  49.242 -31.101  1.00  0.00     0.047 C 
HETATM   21  C27 UNL     1      -7.039  48.223 -30.904  1.00  0.00     0.128 C 
ENDROOT
BRANCH   6  22
HETATM   22  O1  UNL     1     -15.765  46.740 -25.250  1.00  0.00    -0.271 OA
BRANCH  22  23
HETATM   23  C6  UNL     1     -16.846  46.900 -24.346  1.00  0.00     0.303 C 
BRANCH  23  24
HETATM   24  C7  UNL     1     -18.179  46.524 -24.986  1.00  0.00     0.244 C 
HETATM   25  O2  UNL     1     -19.202  47.197 -24.892  1.00  0.00    -0.271 OA
HETATM   26  N2  UNL     1     -18.125  45.340 -25.702  1.00  0.00    -0.355 N 
HETATM   27  H10 UNL     1     -17.320  44.740 -25.587  1.00  0.00     0.162 HD
BRANCH  26  28
HETATM   28  C8  UNL     1     -19.306  44.767 -26.308  1.00  0.00     0.161 C 
BRANCH  28  29
HETATM   29  C9  UNL     1     -18.959  44.019 -27.566  1.00  0.00    -0.038 A 
HETATM   30  C10 UNL     1     -17.664  44.079 -28.092  1.00  0.00     0.025 A 
HETATM   31  C11 UNL     1     -17.386  43.391 -29.261  1.00  0.00     0.088 A 
HETATM   32  N3  UNL     1     -18.299  42.658 -29.937  1.00  0.00    -0.375 N 
HETATM   33  C12 UNL     1     -19.544  42.618 -29.419  1.00  0.00     0.088 A 
ATOM     34  H3  UNL     1     -18.059  42.161 -30.794  1.00  0.00     0.164 HD
HETATM   35  C13 UNL     1     -19.922  43.275 -28.256  1.00  0.00     0.025 A 
ENDBRANCH  28  29
ENDBRANCH  26  28
ENDBRANCH  23  24
ENDBRANCH  22  23
ENDBRANCH   6  22
BRANCH  14  36
HETATM   36  O3  UNL     1      -8.341  47.885 -26.188  1.00  0.00    -0.395 OA
HETATM   37  H25 UNL     1      -7.409  47.832 -25.913  1.00  0.00     0.210 HD
ENDBRANCH  14  36
BRANCH  21  38
HETATM   38  O4  UNL     1      -5.890  48.888 -30.388  1.00  0.00    -0.381 OA
HETATM   39  H36 UNL     1      -5.799  49.745 -30.843  1.00  0.00     0.211 HD
ENDBRANCH  21  38
BRANCH  21  40
HETATM   40  C28 UNL     1      -6.690  47.565 -32.265  1.00  0.00     0.184 C 
HETATM   41  O5  UNL     1      -7.505  46.905 -32.919  1.00  0.00    -0.292 OA
BRANCH  40  42
HETATM   42  C29 UNL     1      -5.274  47.761 -32.799  1.00  0.00     0.245 C 
BRANCH  42  43
HETATM   43  O6  UNL     1      -4.824  46.619 -33.516  1.00  0.00    -0.393 OA
HETATM   44  H39 UNL     1      -5.628  46.139 -33.800  1.00  0.00     0.209 HD
ENDBRANCH  42  43
ENDBRANCH  40  42
ENDBRANCH  21  40
TORSDOF 10
ENDMDL
