MODEL 1
REMARK minimizedAffinity -9.63328075
REMARK  6 active torsions:
REMARK  status: ('A' for Active; 'I' for Inactive)
REMARK    1  A    between atoms: O1_2  and  C2_3 
REMARK    2  A    between atoms: C9_12  and  C10_13 
REMARK    3  A    between atoms: C13_16  and  O4_17 
REMARK    4  A    between atoms: O4_17  and  C14_18 
REMARK    5  A    between atoms: C14_18  and  C15_19 
REMARK       I    between atoms: C15_19  and  N1_21 
REMARK    6  A    between atoms: N1_21  and  C16_22 
ROOT
HETATM    1  C10 UNL     1      -6.322   5.749  13.390  1.00  0.00    -0.020 A 
HETATM    2  C11 UNL     1      -6.148   4.394  13.074  1.00  0.00     0.015 A 
HETATM    3  C12 UNL     1      -4.873   3.874  12.818  1.00  0.00     0.037 A 
HETATM    4  C13 UNL     1      -3.753   4.702  12.874  1.00  0.00     0.069 A 
HETATM    5  C23 UNL     1      -3.921   6.052  13.186  1.00  0.00     0.037 A 
HETATM    6  C24 UNL     1      -5.192   6.574  13.442  1.00  0.00     0.015 A 
ENDROOT
BRANCH   4   7
HETATM    7  O4  UNL     1      -2.460   4.326  12.644  1.00  0.00    -0.342 OA
BRANCH   7   8
HETATM    8  C14 UNL     1      -1.480   5.362  12.624  1.00  0.00     0.278 C 
BRANCH   8   9
HETATM    9  C15 UNL     1      -0.426   5.085  11.552  1.00  0.00     0.242 C 
HETATM   10  O5  UNL     1      -0.209   3.954  11.128  1.00  0.00    -0.271 OA
HETATM   11  N1  UNL     1       0.217   6.213  11.085  1.00  0.00    -0.354 N 
HETATM   12  H11 UNL     1       0.097   7.049  11.650  1.00  0.00     0.162 HD
BRANCH  11  13
HETATM   13  C16 UNL     1       1.333   6.139  10.151  1.00  0.00     0.089 C 
HETATM   14  C17 UNL     1       2.651   5.861  10.884  1.00  0.00     0.051 C 
HETATM   15  C18 UNL     1       3.834   6.557  10.224  1.00  0.00     0.171 C 
HETATM   16  O6  UNL     1       3.689   6.547   8.809  1.00  0.00    -0.381 OA
HETATM   17  C19 UNL     1       2.596   7.342   8.319  1.00  0.00     0.055 C 
HETATM   18  C20 UNL     1       2.135   6.667   7.022  1.00  0.00     0.045 C 
HETATM   19  C21 UNL     1       3.119   8.745   7.989  1.00  0.00     0.045 C 
HETATM   20  C22 UNL     1       1.433   7.424   9.330  1.00  0.00     0.062 C 
ENDBRANCH  11  13
ENDBRANCH   8   9
ENDBRANCH   7   8
ENDBRANCH   4   7
BRANCH   1  21
HETATM   21  C9  UNL     1      -7.664   6.299  13.668  1.00  0.00     0.051 A 
HETATM   22  C8  UNL     1      -8.807   6.014  12.750  1.00  0.00     0.299 A 
HETATM   23  O2  UNL     1     -10.033   6.578  13.083  1.00  0.00    -0.271 OA
HETATM   24  O3  UNL     1      -8.682   5.317  11.748  1.00  0.00    -0.259 OA
HETATM   25  C7  UNL     1     -10.211   7.392  14.223  1.00  0.00     0.123 A 
HETATM   26  C2  UNL     1     -11.488   7.914  14.471  1.00  0.00     0.102 A 
HETATM   27  C6  UNL     1      -9.131   7.654  15.061  1.00  0.00     0.002 A 
HETATM   28  C3  UNL     1     -11.667   8.721  15.596  1.00  0.00     0.040 A 
HETATM   29  C4  UNL     1     -10.589   8.993  16.447  1.00  0.00     0.004 A 
HETATM   30  C5  UNL     1      -9.324   8.463  16.182  1.00  0.00     0.014 A 
HETATM   31  C25 UNL     1      -7.831   7.081  14.747  1.00  0.00     0.032 A 
BRANCH  26  32
HETATM   32  O1  UNL     1     -12.463   7.582  13.571  1.00  0.00    -0.353 OA
HETATM   33  C1  UNL     1     -13.375   6.558  13.943  1.00  0.00     0.210 C 
ENDBRANCH  26  32
ENDBRANCH   1  21
TORSDOF 6
ENDMDL
MODEL 2
REMARK minimizedAffinity -9.19439983
REMARK  6 active torsions:
REMARK  status: ('A' for Active; 'I' for Inactive)
REMARK    1  A    between atoms: O1_2  and  C2_3 
REMARK    2  A    between atoms: C9_12  and  C10_13 
REMARK    3  A    between atoms: C13_16  and  O4_17 
REMARK    4  A    between atoms: O4_17  and  C14_18 
REMARK    5  A    between atoms: C14_18  and  C15_19 
REMARK       I    between atoms: C15_19  and  N1_21 
REMARK    6  A    between atoms: N1_21  and  C16_22 
ROOT
HETATM    1  C10 UNL     1      -6.455   6.016  13.621  1.00  0.00    -0.020 A 
HETATM    2  C11 UNL     1      -6.362   4.647  13.328  1.00  0.00     0.015 A 
HETATM    3  C12 UNL     1      -5.144   4.077  12.935  1.00  0.00     0.037 A 
HETATM    4  C13 UNL     1      -4.002   4.869  12.826  1.00  0.00     0.069 A 
HETATM    5  C23 UNL     1      -4.090   6.232  13.115  1.00  0.00     0.037 A 
HETATM    6  C24 UNL     1      -5.304   6.803  13.508  1.00  0.00     0.015 A 
ENDROOT
BRANCH   4   7
HETATM    7  O4  UNL     1      -2.759   4.444  12.452  1.00  0.00    -0.342 OA
BRANCH   7   8
HETATM    8  C14 UNL     1      -1.702   5.400  12.520  1.00  0.00     0.278 C 
BRANCH   8   9
HETATM    9  C15 UNL     1      -0.661   5.127  11.434  1.00  0.00     0.242 C 
HETATM   10  O5  UNL     1      -0.573   4.039  10.873  1.00  0.00    -0.271 OA
HETATM   11  N1  UNL     1       0.130   6.214  11.122  1.00  0.00    -0.354 N 
HETATM   12  H11 UNL     1       0.098   6.982  11.787  1.00  0.00     0.162 HD
BRANCH  11  13
HETATM   13  C16 UNL     1       1.254   6.117  10.201  1.00  0.00     0.089 C 
HETATM   14  C17 UNL     1       2.565   5.854  10.952  1.00  0.00     0.051 C 
HETATM   15  C18 UNL     1       3.754   6.533  10.287  1.00  0.00     0.171 C 
HETATM   16  O6  UNL     1       3.623   6.490   8.871  1.00  0.00    -0.381 OA
HETATM   17  C19 UNL     1       2.536   7.274   8.353  1.00  0.00     0.055 C 
HETATM   18  C20 UNL     1       2.085   6.569   7.067  1.00  0.00     0.045 C 
HETATM   19  C21 UNL     1       3.064   8.668   7.995  1.00  0.00     0.045 C 
HETATM   20  C22 UNL     1       1.363   7.381   9.350  1.00  0.00     0.062 C 
ENDBRANCH  11  13
ENDBRANCH   8   9
ENDBRANCH   7   8
ENDBRANCH   4   7
BRANCH   1  21
HETATM   21  C9  UNL     1      -7.736   6.617  14.044  1.00  0.00     0.051 A 
HETATM   22  C8  UNL     1      -7.839   7.355  15.337  1.00  0.00     0.299 A 
HETATM   23  O2  UNL     1      -9.085   7.881  15.660  1.00  0.00    -0.271 OA
HETATM   24  O3  UNL     1      -6.878   7.498  16.087  1.00  0.00    -0.259 OA
HETATM   25  C7  UNL     1     -10.214   7.729  14.827  1.00  0.00     0.123 A 
HETATM   26  C2  UNL     1     -11.425   8.297  15.244  1.00  0.00     0.102 A 
HETATM   27  C6  UNL     1     -10.100   7.029  13.629  1.00  0.00     0.002 A 
HETATM   28  C3  UNL     1     -12.544   8.147  14.422  1.00  0.00     0.040 A 
HETATM   29  C4  UNL     1     -12.444   7.444  13.216  1.00  0.00     0.004 A 
HETATM   30  C5  UNL     1     -11.227   6.886  12.819  1.00  0.00     0.014 A 
HETATM   31  C25 UNL     1      -8.813   6.464  13.255  1.00  0.00     0.032 A 
BRANCH  26  32
HETATM   32  O1  UNL     1     -11.405   8.959  16.441  1.00  0.00    -0.353 OA
HETATM   33  C1  UNL     1     -12.516   9.791  16.747  1.00  0.00     0.210 C 
ENDBRANCH  26  32
ENDBRANCH   1  21
TORSDOF 6
ENDMDL
MODEL 3
REMARK minimizedAffinity -9.13987827
REMARK  6 active torsions:
REMARK  status: ('A' for Active; 'I' for Inactive)
REMARK    1  A    between atoms: O1_2  and  C2_3 
REMARK    2  A    between atoms: C9_12  and  C10_13 
REMARK    3  A    between atoms: C13_16  and  O4_17 
REMARK    4  A    between atoms: O4_17  and  C14_18 
REMARK    5  A    between atoms: C14_18  and  C15_19 
REMARK       I    between atoms: C15_19  and  N1_21 
REMARK    6  A    between atoms: N1_21  and  C16_22 
ROOT
HETATM    1  C10 UNL     1      -6.584   5.105  13.184  1.00  0.00    -0.020 A 
HETATM    2  C11 UNL     1      -6.678   3.881  12.507  1.00  0.00     0.015 A 
HETATM    3  C12 UNL     1      -5.532   3.129  12.219  1.00  0.00     0.037 A 
HETATM    4  C13 UNL     1      -4.274   3.592  12.604  1.00  0.00     0.069 A 
HETATM    5  C23 UNL     1      -4.176   4.811  13.276  1.00  0.00     0.037 A 
HETATM    6  C24 UNL     1      -5.318   5.564  13.564  1.00  0.00     0.015 A 
ENDROOT
BRANCH   4   7
HETATM    7  O4  UNL     1      -3.082   2.963  12.384  1.00  0.00    -0.342 OA
BRANCH   7   8
HETATM    8  C14 UNL     1      -2.492   3.129  11.095  1.00  0.00     0.278 C 
BRANCH   8   9
HETATM    9  C15 UNL     1      -0.989   3.376  11.220  1.00  0.00     0.242 C 
HETATM   10  O5  UNL     1      -0.180   2.456  11.289  1.00  0.00    -0.271 OA
HETATM   11  N1  UNL     1      -0.631   4.709  11.207  1.00  0.00    -0.354 N 
HETATM   12  H11 UNL     1      -1.393   5.366  11.351  1.00  0.00     0.162 HD
BRANCH  11  13
HETATM   13  C16 UNL     1       0.739   5.146  11.435  1.00  0.00     0.089 C 
HETATM   14  C17 UNL     1       0.883   5.827  12.803  1.00  0.00     0.051 C 
HETATM   15  C18 UNL     1       1.901   6.959  12.777  1.00  0.00     0.171 C 
HETATM   16  O6  UNL     1       2.995   6.624  11.932  1.00  0.00    -0.381 OA
HETATM   17  C19 UNL     1       2.660   6.526  10.538  1.00  0.00     0.055 C 
HETATM   18  C20 UNL     1       3.632   5.499   9.944  1.00  0.00     0.045 C 
HETATM   19  C21 UNL     1       2.911   7.887   9.877  1.00  0.00     0.045 C 
HETATM   20  C22 UNL     1       1.199   6.080  10.317  1.00  0.00     0.062 C 
ENDBRANCH  11  13
ENDBRANCH   8   9
ENDBRANCH   7   8
ENDBRANCH   4   7
BRANCH   1  21
HETATM   21  C9  UNL     1      -7.792   5.896  13.495  1.00  0.00     0.051 A 
HETATM   22  C8  UNL     1      -8.888   6.037  12.491  1.00  0.00     0.299 A 
HETATM   23  O2  UNL     1      -9.983   6.807  12.865  1.00  0.00    -0.271 OA
HETATM   24  O3  UNL     1      -8.835   5.505  11.386  1.00  0.00    -0.259 OA
HETATM   25  C7  UNL     1     -10.075   7.441  14.122  1.00  0.00     0.123 A 
HETATM   26  C2  UNL     1     -11.222   8.195  14.402  1.00  0.00     0.102 A 
HETATM   27  C6  UNL     1      -9.038   7.304  15.042  1.00  0.00     0.002 A 
HETATM   28  C3  UNL     1     -11.314   8.824  15.645  1.00  0.00     0.040 A 
HETATM   29  C4  UNL     1     -10.279   8.697  16.579  1.00  0.00     0.004 A 
HETATM   30  C5  UNL     1      -9.144   7.940  16.280  1.00  0.00     0.014 A 
HETATM   31  C25 UNL     1      -7.875   6.507  14.689  1.00  0.00     0.032 A 
BRANCH  26  32
HETATM   32  O1  UNL     1     -12.167   8.250  13.415  1.00  0.00    -0.353 OA
HETATM   33  C1  UNL     1     -12.298   9.472  12.702  1.00  0.00     0.210 C 
ENDBRANCH  26  32
ENDBRANCH   1  21
TORSDOF 6
ENDMDL
MODEL 4
REMARK minimizedAffinity -9.10062218
REMARK  6 active torsions:
REMARK  status: ('A' for Active; 'I' for Inactive)
REMARK    1  A    between atoms: O1_2  and  C2_3 
REMARK    2  A    between atoms: C9_12  and  C10_13 
REMARK    3  A    between atoms: C13_16  and  O4_17 
REMARK    4  A    between atoms: O4_17  and  C14_18 
REMARK    5  A    between atoms: C14_18  and  C15_19 
REMARK       I    between atoms: C15_19  and  N1_21 
REMARK    6  A    between atoms: N1_21  and  C16_22 
ROOT
HETATM    1  C10 UNL     1      -3.193   4.820  12.567  1.00  0.00    -0.020 A 
HETATM    2  C11 UNL     1      -3.911   5.778  13.299  1.00  0.00     0.015 A 
HETATM    3  C12 UNL     1      -5.234   5.538  13.692  1.00  0.00     0.037 A 
HETATM    4  C13 UNL     1      -5.859   4.338  13.358  1.00  0.00     0.069 A 
HETATM    5  C23 UNL     1      -5.150   3.383  12.627  1.00  0.00     0.037 A 
HETATM    6  C24 UNL     1      -3.829   3.619  12.234  1.00  0.00     0.015 A 
ENDROOT
BRANCH   4   7
HETATM    7  O4  UNL     1      -7.139   3.980  13.674  1.00  0.00    -0.342 OA
BRANCH   7   8
HETATM    8  C14 UNL     1      -8.096   4.006  12.616  1.00  0.00     0.278 C 
BRANCH   8   9
HETATM    9  C15 UNL     1      -8.788   5.368  12.551  1.00  0.00     0.242 C 
HETATM   10  O5  UNL     1      -8.949   5.968  11.492  1.00  0.00    -0.271 OA
HETATM   11  N1  UNL     1      -9.243   5.831  13.768  1.00  0.00    -0.354 N 
HETATM   12  H11 UNL     1      -8.874   5.349  14.584  1.00  0.00     0.162 HD
BRANCH  11  13
HETATM   13  C16 UNL     1      -9.819   7.159  13.927  1.00  0.00     0.089 C 
HETATM   14  C17 UNL     1      -9.369   7.805  15.244  1.00  0.00     0.051 C 
HETATM   15  C18 UNL     1     -10.456   8.679  15.856  1.00  0.00     0.171 C 
HETATM   16  O6  UNL     1     -11.176   9.361  14.837  1.00  0.00    -0.381 OA
HETATM   17  C19 UNL     1     -11.961   8.504  13.990  1.00  0.00     0.055 C 
HETATM   18  C20 UNL     1     -12.020   9.204  12.626  1.00  0.00     0.045 C 
HETATM   19  C21 UNL     1     -13.380   8.414  14.564  1.00  0.00     0.045 C 
HETATM   20  C22 UNL     1     -11.344   7.097  13.851  1.00  0.00     0.062 C 
ENDBRANCH  11  13
ENDBRANCH   8   9
ENDBRANCH   7   8
ENDBRANCH   4   7
BRANCH   1  21
HETATM   21  C9  UNL     1      -1.796   5.067  12.158  1.00  0.00     0.051 A 
HETATM   22  C8  UNL     1      -1.192   4.310  11.022  1.00  0.00     0.299 A 
HETATM   23  O2  UNL     1       0.132   4.600  10.711  1.00  0.00    -0.271 OA
HETATM   24  O3  UNL     1      -1.822   3.471  10.387  1.00  0.00    -0.259 OA
HETATM   25  C7  UNL     1       0.890   5.552  11.425  1.00  0.00     0.123 A 
HETATM   26  C2  UNL     1       2.217   5.772  11.032  1.00  0.00     0.102 A 
HETATM   27  C6  UNL     1       0.311   6.242  12.487  1.00  0.00     0.002 A 
HETATM   28  C3  UNL     1       2.970   6.712  11.737  1.00  0.00     0.040 A 
HETATM   29  C4  UNL     1       2.401   7.411  12.809  1.00  0.00     0.004 A 
HETATM   30  C5  UNL     1       1.076   7.178  13.184  1.00  0.00     0.014 A 
HETATM   31  C25 UNL     1      -1.072   5.967  12.843  1.00  0.00     0.032 A 
BRANCH  26  32
HETATM   32  O1  UNL     1       2.667   5.030   9.974  1.00  0.00    -0.353 OA
HETATM   33  C1  UNL     1       2.989   5.727   8.778  1.00  0.00     0.210 C 
ENDBRANCH  26  32
ENDBRANCH   1  21
TORSDOF 6
ENDMDL
MODEL 5
REMARK minimizedAffinity -9.04699421
REMARK  6 active torsions:
REMARK  status: ('A' for Active; 'I' for Inactive)
REMARK    1  A    between atoms: O1_2  and  C2_3 
REMARK    2  A    between atoms: C9_12  and  C10_13 
REMARK    3  A    between atoms: C13_16  and  O4_17 
REMARK    4  A    between atoms: O4_17  and  C14_18 
REMARK    5  A    between atoms: C14_18  and  C15_19 
REMARK       I    between atoms: C15_19  and  N1_21 
REMARK    6  A    between atoms: N1_21  and  C16_22 
ROOT
HETATM    1  C10 UNL     1      -2.591   6.270  13.686  1.00  0.00    -0.020 A 
HETATM    2  C11 UNL     1      -2.427   7.482  13.000  1.00  0.00     0.015 A 
HETATM    3  C12 UNL     1      -1.334   8.316  13.266  1.00  0.00     0.037 A 
HETATM    4  C13 UNL     1      -0.389   7.950  14.223  1.00  0.00     0.069 A 
HETATM    5  C23 UNL     1      -0.549   6.746  14.910  1.00  0.00     0.037 A 
HETATM    6  C24 UNL     1      -1.639   5.911  14.647  1.00  0.00     0.015 A 
ENDROOT
BRANCH   4   7
HETATM    7  O4  UNL     1       0.717   8.669  14.580  1.00  0.00    -0.342 OA
BRANCH   7   8
HETATM    8  C14 UNL     1       1.986   8.091  14.281  1.00  0.00     0.278 C 
BRANCH   8   9
HETATM    9  C15 UNL     1       2.189   7.993  12.769  1.00  0.00     0.242 C 
HETATM   10  O5  UNL     1       2.749   8.877  12.127  1.00  0.00    -0.271 OA
HETATM   11  N1  UNL     1       1.726   6.819  12.210  1.00  0.00    -0.354 N 
HETATM   12  H11 UNL     1       1.109   6.269  12.801  1.00  0.00     0.162 HD
BRANCH  11  13
HETATM   13  C16 UNL     1       1.721   6.594  10.771  1.00  0.00     0.089 C 
HETATM   14  C17 UNL     1       2.650   5.435  10.388  1.00  0.00     0.051 C 
HETATM   15  C18 UNL     1       3.324   5.660   9.041  1.00  0.00     0.171 C 
HETATM   16  O6  UNL     1       2.428   6.297   8.138  1.00  0.00    -0.381 OA
HETATM   17  C19 UNL     1       2.082   7.645   8.499  1.00  0.00     0.055 C 
HETATM   18  C20 UNL     1       0.669   7.877   7.949  1.00  0.00     0.045 C 
HETATM   19  C21 UNL     1       3.051   8.604   7.797  1.00  0.00     0.045 C 
HETATM   20  C22 UNL     1       2.113   7.869  10.025  1.00  0.00     0.062 C 
ENDBRANCH  11  13
ENDBRANCH   8   9
ENDBRANCH   7   8
ENDBRANCH   4   7
BRANCH   1  21
HETATM   21  C9  UNL     1      -3.739   5.385  13.402  1.00  0.00     0.051 A 
HETATM   22  C8  UNL     1      -5.083   5.674  13.983  1.00  0.00     0.299 A 
HETATM   23  O2  UNL     1      -6.104   4.784  13.671  1.00  0.00    -0.271 OA
HETATM   24  O3  UNL     1      -5.290   6.646  14.703  1.00  0.00    -0.259 OA
HETATM   25  C7  UNL     1      -5.902   3.650  12.854  1.00  0.00     0.123 A 
HETATM   26  C2  UNL     1      -6.997   2.814  12.599  1.00  0.00     0.102 A 
HETATM   27  C6  UNL     1      -4.639   3.393  12.329  1.00  0.00     0.002 A 
HETATM   28  C3  UNL     1      -6.800   1.692  11.793  1.00  0.00     0.040 A 
HETATM   29  C4  UNL     1      -5.534   1.420  11.260  1.00  0.00     0.004 A 
HETATM   30  C5  UNL     1      -4.456   2.267  11.526  1.00  0.00     0.014 A 
HETATM   31  C25 UNL     1      -3.544   4.301  12.633  1.00  0.00     0.032 A 
BRANCH  26  32
HETATM   32  O1  UNL     1      -8.185   3.177  13.174  1.00  0.00    -0.353 OA
HETATM   33  C1  UNL     1      -8.748   4.422  12.781  1.00  0.00     0.210 C 
ENDBRANCH  26  32
ENDBRANCH   1  21
TORSDOF 6
ENDMDL
MODEL 6
REMARK minimizedAffinity -8.98042107
REMARK  6 active torsions:
REMARK  status: ('A' for Active; 'I' for Inactive)
REMARK    1  A    between atoms: O1_2  and  C2_3 
REMARK    2  A    between atoms: C9_12  and  C10_13 
REMARK    3  A    between atoms: C13_16  and  O4_17 
REMARK    4  A    between atoms: O4_17  and  C14_18 
REMARK    5  A    between atoms: C14_18  and  C15_19 
REMARK       I    between atoms: C15_19  and  N1_21 
REMARK    6  A    between atoms: N1_21  and  C16_22 
ROOT
HETATM    1  C10 UNL     1      -3.424   5.107  12.622  1.00  0.00    -0.020 A 
HETATM    2  C11 UNL     1      -4.077   3.870  12.519  1.00  0.00     0.015 A 
HETATM    3  C12 UNL     1      -5.418   3.731  12.902  1.00  0.00     0.037 A 
HETATM    4  C13 UNL     1      -6.123   4.827  13.395  1.00  0.00     0.069 A 
HETATM    5  C23 UNL     1      -5.477   6.060  13.501  1.00  0.00     0.037 A 
HETATM    6  C24 UNL     1      -4.140   6.202  13.120  1.00  0.00     0.015 A 
ENDROOT
BRANCH   4   7
HETATM    7  O4  UNL     1      -7.427   4.829  13.805  1.00  0.00    -0.342 OA
BRANCH   7   8
HETATM    8  C14 UNL     1      -8.424   4.875  12.785  1.00  0.00     0.278 C 
BRANCH   8   9
HETATM    9  C15 UNL     1      -9.384   6.039  13.025  1.00  0.00     0.242 C 
HETATM   10  O5  UNL     1      -9.927   6.638  12.101  1.00  0.00    -0.271 OA
HETATM   11  N1  UNL     1      -9.611   6.322  14.356  1.00  0.00    -0.354 N 
HETATM   12  H11 UNL     1      -8.957   5.898  15.009  1.00  0.00     0.162 HD
BRANCH  11  13
HETATM   13  C16 UNL     1     -10.400   7.469  14.783  1.00  0.00     0.089 C 
HETATM   14  C17 UNL     1     -11.374   7.911  13.684  1.00  0.00     0.051 C 
HETATM   15  C18 UNL     1     -11.575   9.421  13.668  1.00  0.00     0.171 C 
HETATM   16  O6  UNL     1     -11.581   9.935  14.995  1.00  0.00    -0.381 OA
HETATM   17  C19 UNL     1     -10.319   9.835  15.674  1.00  0.00     0.055 C 
HETATM   18  C20 UNL     1     -10.654   9.700  17.165  1.00  0.00     0.045 C 
HETATM   19  C21 UNL     1      -9.540  11.138  15.457  1.00  0.00     0.045 C 
HETATM   20  C22 UNL     1      -9.490   8.625  15.195  1.00  0.00     0.062 C 
ENDBRANCH  11  13
ENDBRANCH   8   9
ENDBRANCH   7   8
ENDBRANCH   4   7
BRANCH   1  21
HETATM   21  C9  UNL     1      -2.013   5.258  12.212  1.00  0.00     0.051 A 
HETATM   22  C8  UNL     1      -1.442   4.406  11.127  1.00  0.00     0.299 A 
HETATM   23  O2  UNL     1      -0.104   4.609  10.811  1.00  0.00    -0.271 OA
HETATM   24  O3  UNL     1      -2.111   3.565  10.535  1.00  0.00    -0.259 OA
HETATM   25  C7  UNL     1       0.699   5.561  11.476  1.00  0.00     0.123 A 
HETATM   26  C2  UNL     1       2.038   5.688  11.084  1.00  0.00     0.102 A 
HETATM   27  C6  UNL     1       0.150   6.339  12.492  1.00  0.00     0.002 A 
HETATM   28  C3  UNL     1       2.835   6.628  11.741  1.00  0.00     0.040 A 
HETATM   29  C4  UNL     1       2.296   7.416  12.765  1.00  0.00     0.004 A 
HETATM   30  C5  UNL     1       0.959   7.273  13.141  1.00  0.00     0.014 A 
HETATM   31  C25 UNL     1      -1.248   6.157  12.851  1.00  0.00     0.032 A 
BRANCH  26  32
HETATM   32  O1  UNL     1       2.455   4.865  10.073  1.00  0.00    -0.353 OA
HETATM   33  C1  UNL     1       3.309   5.424   9.084  1.00  0.00     0.210 C 
ENDBRANCH  26  32
ENDBRANCH   1  21
TORSDOF 6
ENDMDL
MODEL 7
REMARK minimizedAffinity -8.92302322
REMARK  6 active torsions:
REMARK  status: ('A' for Active; 'I' for Inactive)
REMARK    1  A    between atoms: O1_2  and  C2_3 
REMARK    2  A    between atoms: C9_12  and  C10_13 
REMARK    3  A    between atoms: C13_16  and  O4_17 
REMARK    4  A    between atoms: O4_17  and  C14_18 
REMARK    5  A    between atoms: C14_18  and  C15_19 
REMARK       I    between atoms: C15_19  and  N1_21 
REMARK    6  A    between atoms: N1_21  and  C16_22 
ROOT
HETATM    1  C10 UNL     1      -1.683   4.990  12.031  1.00  0.00    -0.020 A 
HETATM    2  C11 UNL     1      -1.058   6.183  11.639  1.00  0.00     0.015 A 
HETATM    3  C12 UNL     1       0.269   6.186  11.191  1.00  0.00     0.037 A 
HETATM    4  C13 UNL     1       0.992   4.995  11.131  1.00  0.00     0.069 A 
HETATM    5  C23 UNL     1       0.375   3.805  11.522  1.00  0.00     0.037 A 
HETATM    6  C24 UNL     1      -0.949   3.799  11.969  1.00  0.00     0.015 A 
ENDROOT
BRANCH   4   7
HETATM    7  O4  UNL     1       2.287   4.858  10.718  1.00  0.00    -0.342 OA
BRANCH   7   8
HETATM    8  C14 UNL     1       2.860   5.959  10.015  1.00  0.00     0.278 C 
BRANCH   8   9
HETATM    9  C15 UNL     1       3.934   6.639  10.864  1.00  0.00     0.242 C 
HETATM   10  O5  UNL     1       3.767   6.882  12.055  1.00  0.00    -0.271 OA
HETATM   11  N1  UNL     1       5.104   6.912  10.185  1.00  0.00    -0.354 N 
HETATM   12  H11 UNL     1       5.044   6.851   9.172  1.00  0.00     0.162 HD
BRANCH  11  13
HETATM   13  C16 UNL     1       6.195   7.662  10.790  1.00  0.00     0.089 C 
HETATM   14  C17 UNL     1       6.943   6.814  11.827  1.00  0.00     0.051 C 
HETATM   15  C18 UNL     1       7.446   7.649  12.997  1.00  0.00     0.171 C 
HETATM   16  O6  UNL     1       7.882   8.925  12.545  1.00  0.00    -0.381 OA
HETATM   17  C19 UNL     1       6.831   9.767  12.041  1.00  0.00     0.055 C 
HETATM   18  C20 UNL     1       7.484  10.665  10.983  1.00  0.00     0.045 C 
HETATM   19  C21 UNL     1       6.315  10.645  13.187  1.00  0.00     0.045 C 
HETATM   20  C22 UNL     1       5.676   8.953  11.422  1.00  0.00     0.062 C 
ENDBRANCH  11  13
ENDBRANCH   8   9
ENDBRANCH   7   8
ENDBRANCH   4   7
BRANCH   1  21
HETATM   21  C9  UNL     1      -3.085   4.983  12.496  1.00  0.00     0.051 A 
HETATM   22  C8  UNL     1      -3.602   6.081  13.365  1.00  0.00     0.299 A 
HETATM   23  O2  UNL     1      -4.931   5.990  13.763  1.00  0.00    -0.271 OA
HETATM   24  O3  UNL     1      -2.899   7.023  13.717  1.00  0.00    -0.259 OA
HETATM   25  C7  UNL     1      -5.767   4.917  13.385  1.00  0.00     0.123 A 
HETATM   26  C2  UNL     1      -7.092   4.919  13.840  1.00  0.00     0.102 A 
HETATM   27  C6  UNL     1      -5.263   3.899  12.581  1.00  0.00     0.002 A 
HETATM   28  C3  UNL     1      -7.921   3.858  13.468  1.00  0.00     0.040 A 
HETATM   29  C4  UNL     1      -7.427   2.826  12.662  1.00  0.00     0.004 A 
HETATM   30  C5  UNL     1      -6.102   2.844  12.219  1.00  0.00     0.014 A 
HETATM   31  C25 UNL     1      -3.877   3.958  12.143  1.00  0.00     0.032 A 
BRANCH  26  32
HETATM   32  O1  UNL     1      -7.464   5.977  14.622  1.00  0.00    -0.353 OA
HETATM   33  C1  UNL     1      -7.791   5.705  15.978  1.00  0.00     0.210 C 
ENDBRANCH  26  32
ENDBRANCH   1  21
TORSDOF 6
ENDMDL
MODEL 8
REMARK minimizedAffinity -8.90031815
REMARK  6 active torsions:
REMARK  status: ('A' for Active; 'I' for Inactive)
REMARK    1  A    between atoms: O1_2  and  C2_3 
REMARK    2  A    between atoms: C9_12  and  C10_13 
REMARK    3  A    between atoms: C13_16  and  O4_17 
REMARK    4  A    between atoms: O4_17  and  C14_18 
REMARK    5  A    between atoms: C14_18  and  C15_19 
REMARK       I    between atoms: C15_19  and  N1_21 
REMARK    6  A    between atoms: N1_21  and  C16_22 
ROOT
HETATM    1  C10 UNL     1      -1.266   4.860  11.731  1.00  0.00    -0.020 A 
HETATM    2  C11 UNL     1      -2.200   5.312  12.675  1.00  0.00     0.015 A 
HETATM    3  C12 UNL     1      -3.399   4.619  12.888  1.00  0.00     0.037 A 
HETATM    4  C13 UNL     1      -3.681   3.465  12.158  1.00  0.00     0.069 A 
HETATM    5  C23 UNL     1      -2.756   3.013  11.216  1.00  0.00     0.037 A 
HETATM    6  C24 UNL     1      -1.559   3.702  11.002  1.00  0.00     0.015 A 
ENDROOT
BRANCH   4   7
HETATM    7  O4  UNL     1      -4.809   2.700  12.264  1.00  0.00    -0.342 OA
BRANCH   7   8
HETATM    8  C14 UNL     1      -5.989   3.201  11.637  1.00  0.00     0.278 C 
BRANCH   8   9
HETATM    9  C15 UNL     1      -7.006   3.649  12.687  1.00  0.00     0.242 C 
HETATM   10  O5  UNL     1      -7.739   2.853  13.266  1.00  0.00    -0.271 OA
HETATM   11  N1  UNL     1      -6.992   5.004  12.947  1.00  0.00    -0.354 N 
HETATM   12  H11 UNL     1      -6.493   5.573  12.267  1.00  0.00     0.162 HD
BRANCH  11  13
HETATM   13  C16 UNL     1      -7.966   5.636  13.825  1.00  0.00     0.089 C 
HETATM   14  C17 UNL     1      -9.317   5.811  13.120  1.00  0.00     0.051 C 
HETATM   15  C18 UNL     1     -10.033   7.082  13.557  1.00  0.00     0.171 C 
HETATM   16  O6  UNL     1      -9.818   7.322  14.942  1.00  0.00    -0.381 OA
HETATM   17  C19 UNL     1      -8.459   7.642  15.285  1.00  0.00     0.055 C 
HETATM   18  C20 UNL     1      -8.259   7.137  16.720  1.00  0.00     0.045 C 
HETATM   19  C21 UNL     1      -8.296   9.166  15.268  1.00  0.00     0.045 C 
HETATM   20  C22 UNL     1      -7.444   6.980  14.331  1.00  0.00     0.062 C 
ENDBRANCH  11  13
ENDBRANCH   8   9
ENDBRANCH   7   8
ENDBRANCH   4   7
BRANCH   1  21
HETATM   21  C9  UNL     1       0.002   5.584  11.510  1.00  0.00     0.051 A 
HETATM   22  C8  UNL     1       0.972   5.776  12.629  1.00  0.00     0.299 A 
HETATM   23  O2  UNL     1       2.136   6.477  12.334  1.00  0.00    -0.271 OA
HETATM   24  O3  UNL     1       0.764   5.342  13.757  1.00  0.00    -0.259 OA
HETATM   25  C7  UNL     1       2.405   7.000  11.051  1.00  0.00     0.123 A 
HETATM   26  C2  UNL     1       3.608   7.692  10.856  1.00  0.00     0.102 A 
HETATM   27  C6  UNL     1       1.484   6.818  10.023  1.00  0.00     0.002 A 
HETATM   28  C3  UNL     1       3.877   8.211   9.588  1.00  0.00     0.040 A 
HETATM   29  C4  UNL     1       2.958   8.037   8.546  1.00  0.00     0.004 A 
HETATM   30  C5  UNL     1       1.765   7.343   8.761  1.00  0.00     0.014 A 
HETATM   31  C25 UNL     1       0.254   6.089  10.292  1.00  0.00     0.032 A 
BRANCH  26  32
HETATM   32  O1  UNL     1       4.428   7.801  11.947  1.00  0.00    -0.353 OA
HETATM   33  C1  UNL     1       5.579   6.970  11.985  1.00  0.00     0.210 C 
ENDBRANCH  26  32
ENDBRANCH   1  21
TORSDOF 6
ENDMDL
MODEL 9
REMARK minimizedAffinity -8.88916206
REMARK  6 active torsions:
REMARK  status: ('A' for Active; 'I' for Inactive)
REMARK    1  A    between atoms: O1_2  and  C2_3 
REMARK    2  A    between atoms: C9_12  and  C10_13 
REMARK    3  A    between atoms: C13_16  and  O4_17 
REMARK    4  A    between atoms: O4_17  and  C14_18 
REMARK    5  A    between atoms: C14_18  and  C15_19 
REMARK       I    between atoms: C15_19  and  N1_21 
REMARK    6  A    between atoms: N1_21  and  C16_22 
ROOT
HETATM    1  C10 UNL     1     -10.691   7.609  14.166  1.00  0.00    -0.020 A 
HETATM    2  C11 UNL     1     -10.328   8.723  14.936  1.00  0.00     0.015 A 
HETATM    3  C12 UNL     1      -8.998   8.921  15.330  1.00  0.00     0.037 A 
HETATM    4  C13 UNL     1      -8.013   8.007  14.960  1.00  0.00     0.069 A 
HETATM    5  C23 UNL     1      -8.370   6.895  14.195  1.00  0.00     0.037 A 
HETATM    6  C24 UNL     1      -9.696   6.695  13.800  1.00  0.00     0.015 A 
ENDROOT
BRANCH   4   7
HETATM    7  O4  UNL     1      -6.686   8.079  15.278  1.00  0.00    -0.342 OA
BRANCH   7   8
HETATM    8  C14 UNL     1      -6.013   6.844  15.518  1.00  0.00     0.278 C 
BRANCH   8   9
HETATM    9  C15 UNL     1      -5.494   6.252  14.207  1.00  0.00     0.242 C 
HETATM   10  O5  UNL     1      -4.730   6.868  13.470  1.00  0.00    -0.271 OA
HETATM   11  N1  UNL     1      -5.927   4.966  13.956  1.00  0.00    -0.354 N 
HETATM   12  H11 UNL     1      -6.705   4.648  14.529  1.00  0.00     0.162 HD
BRANCH  11  13
HETATM   13  C16 UNL     1      -5.637   4.280  12.705  1.00  0.00     0.089 C 
HETATM   14  C17 UNL     1      -6.765   3.309  12.331  1.00  0.00     0.051 C 
HETATM   15  C18 UNL     1      -6.241   2.063  11.630  1.00  0.00     0.171 C 
HETATM   16  O6  UNL     1      -5.156   2.395  10.772  1.00  0.00    -0.381 OA
HETATM   17  C19 UNL     1      -3.973   2.840  11.457  1.00  0.00     0.055 C 
HETATM   18  C20 UNL     1      -3.269   3.805  10.495  1.00  0.00     0.045 C 
HETATM   19  C21 UNL     1      -3.063   1.630  11.700  1.00  0.00     0.045 C 
HETATM   20  C22 UNL     1      -4.300   3.546  12.790  1.00  0.00     0.062 C 
ENDBRANCH  11  13
ENDBRANCH   8   9
ENDBRANCH   7   8
ENDBRANCH   4   7
BRANCH   1  21
HETATM   21  C9  UNL     1     -12.091   7.402  13.743  1.00  0.00     0.051 A 
HETATM   22  C8  UNL     1     -12.696   8.251  12.674  1.00  0.00     0.299 A 
HETATM   23  O2  UNL     1     -14.022   7.993  12.345  1.00  0.00    -0.271 OA
HETATM   24  O3  UNL     1     -12.064   9.137  12.107  1.00  0.00    -0.259 OA
HETATM   25  C7  UNL     1     -14.782   6.990  12.983  1.00  0.00     0.123 A 
HETATM   26  C2  UNL     1     -16.111   6.808  12.579  1.00  0.00     0.102 A 
HETATM   27  C6  UNL     1     -14.203   6.214  13.984  1.00  0.00     0.002 A 
HETATM   28  C3  UNL     1     -16.867   5.817  13.208  1.00  0.00     0.040 A 
HETATM   29  C4  UNL     1     -16.297   5.031  14.218  1.00  0.00     0.004 A 
HETATM   30  C5  UNL     1     -14.970   5.228  14.605  1.00  0.00     0.014 A 
HETATM   31  C25 UNL     1     -12.817   6.453  14.356  1.00  0.00     0.032 A 
BRANCH  26  32
HETATM   32  O1  UNL     1     -16.561   7.635  11.585  1.00  0.00    -0.353 OA
HETATM   33  C1  UNL     1     -17.705   8.430  11.863  1.00  0.00     0.210 C 
ENDBRANCH  26  32
ENDBRANCH   1  21
TORSDOF 6
ENDMDL
