MODEL 1
REMARK minimizedAffinity -8.02742481
REMARK CNNscore 0.776530027
REMARK CNNaffinity 6.99223709
REMARK  6 active torsions:
REMARK  status: ('A' for Active; 'I' for Inactive)
REMARK    1  A    between atoms: C5_5  and  C6_6 
REMARK    2  A    between atoms: C6_6  and  C7_7 
REMARK    3  A    between atoms: C13_15  and  O3_16 
REMARK    4  A    between atoms: C24_28  and  C25_29 
REMARK    5  A    between atoms: C25_29  and  O5_30 
REMARK    6  A    between atoms: C25_29  and  C26_31 
ROOT
HETATM    1  C6  UNL     1      -1.625  52.832  -8.771  1.00  0.00     0.033 C 
ENDROOT
BRANCH   1   2
HETATM    2  C5  UNL     1      -1.556  53.379 -10.226  1.00  0.00    -0.002 C 
HETATM    3  C4  UNL     1      -2.769  54.276 -10.564  1.00  0.00     0.010 C 
HETATM    4  C3  UNL     1      -4.084  53.495 -10.565  1.00  0.00     0.034 C 
HETATM    5  C2  UNL     1      -3.879  52.069 -11.030  1.00  0.00    -0.082 C 
HETATM    6  C1  UNL     1      -4.615  51.074 -10.508  1.00  0.00     0.015 C 
HETATM    7  C24 UNL     1      -2.762  51.921 -12.074  1.00  0.00     0.054 C 
HETATM    8  C21 UNL     1      -1.375  52.261 -11.363  1.00  0.00    -0.034 C 
HETATM    9  C22 UNL     1      -0.396  52.865 -12.406  1.00  0.00     0.016 C 
HETATM   10  C23 UNL     1      -0.700  50.995 -10.798  1.00  0.00     0.016 C 
BRANCH   7  11
HETATM   11  C25 UNL     1      -2.834  50.596 -12.916  1.00  0.00     0.150 C 
BRANCH  11  12
HETATM   12  O5  UNL     1      -4.053  49.913 -12.596  1.00  0.00    -0.391 OA
HETATM   13  H39 UNL     1      -4.099  49.115 -13.146  1.00  0.00     0.210 HD
ENDBRANCH  11  12
BRANCH  11  14
HETATM   14  C26 UNL     1      -2.898  50.786 -14.403  1.00  0.00     0.018 C 
HETATM   15  C27 UNL     1      -2.574  49.876 -15.335  1.00  0.00     0.018 C 
HETATM   16  C28 UNL     1      -2.115  48.476 -15.191  1.00  0.00     0.071 C 
HETATM   17  C30 UNL     1      -2.680  50.166 -16.786  1.00  0.00     0.289 C 
HETATM   18  C29 UNL     1      -2.537  47.904 -16.522  1.00  0.00     0.183 C 
HETATM   19  O6  UNL     1      -2.523  48.989 -17.452  1.00  0.00    -0.317 OA
HETATM   20  O7  UNL     1      -2.855  51.255 -17.294  1.00  0.00    -0.260 OA
ENDBRANCH  11  14
ENDBRANCH   7  11
ENDBRANCH   1   2
BRANCH   1  21
HETATM   21  C7  UNL     1      -0.814  53.630  -7.782  1.00  0.00    -0.021 C 
HETATM   22  C8  UNL     1       0.529  53.682  -7.689  1.00  0.00    -0.060 C 
HETATM   23  C9  UNL     1       1.208  54.521  -6.638  1.00  0.00     0.041 C 
HETATM   24  C12 UNL     1       1.503  52.977  -8.595  1.00  0.00     0.205 C 
HETATM   25  C10 UNL     1       2.217  55.448  -7.309  1.00  0.00     0.076 C 
HETATM   26  C11 UNL     1       3.179  54.652  -8.211  1.00  0.00     0.199 C 
HETATM   27  O1  UNL     1       2.405  53.920  -9.177  1.00  0.00    -0.348 OA
HETATM   28  O2  UNL     1       3.933  53.725  -7.384  1.00  0.00    -0.313 OA
HETATM   29  C16 UNL     1       4.184  55.583  -8.995  1.00  0.00     0.115 C 
HETATM   30  C13 UNL     1       5.346  53.817  -7.630  1.00  0.00     0.196 C 
HETATM   31  C14 UNL     1       5.586  53.525  -9.116  1.00  0.00     0.075 C 
HETATM   32  C18 UNL     1       5.827  55.264  -7.267  1.00  0.00     0.111 C 
HETATM   33  C15 UNL     1       5.040  54.697  -9.930  1.00  0.00     0.049 C 
HETATM   34  O4  UNL     1       5.084  56.235  -8.053  1.00  0.00    -0.359 OA
HETATM   35  C19 UNL     1       7.321  55.485  -7.556  1.00  0.00     0.051 C 
HETATM   36  C20 UNL     1       5.594  55.588  -5.783  1.00  0.00     0.051 C 
HETATM   37  C17 UNL     1       3.510  56.682  -9.816  1.00  0.00     0.052 C 
BRANCH  30  38
HETATM   38  O3  UNL     1       5.982  52.816  -6.861  1.00  0.00    -0.363 OA
HETATM   39  H17 UNL     1       5.540  52.853  -5.996  1.00  0.00     0.213 HD
ENDBRANCH  30  38
ENDBRANCH   1  21
TORSDOF 6
ENDMDL
MODEL 2
REMARK minimizedAffinity -7.85353422
REMARK CNNscore 0.745327353
REMARK CNNaffinity 7.13630342
REMARK  6 active torsions:
REMARK  status: ('A' for Active; 'I' for Inactive)
REMARK    1  A    between atoms: C5_5  and  C6_6 
REMARK    2  A    between atoms: C6_6  and  C7_7 
REMARK    3  A    between atoms: C13_15  and  O3_16 
REMARK    4  A    between atoms: C24_28  and  C25_29 
REMARK    5  A    between atoms: C25_29  and  O5_30 
REMARK    6  A    between atoms: C25_29  and  C26_31 
ROOT
HETATM    1  C6  UNL     1       4.230  55.226 -10.509  1.00  0.00     0.033 C 
ENDROOT
BRANCH   1   2
HETATM    2  C5  UNL     1       5.248  55.392  -9.344  1.00  0.00    -0.002 C 
HETATM    3  C4  UNL     1       6.133  54.138  -9.167  1.00  0.00     0.010 C 
HETATM    4  C3  UNL     1       5.324  52.915  -8.730  1.00  0.00     0.034 C 
HETATM    5  C2  UNL     1       4.161  53.310  -7.847  1.00  0.00    -0.082 C 
HETATM    6  C1  UNL     1       3.005  52.627  -7.904  1.00  0.00     0.015 C 
HETATM    7  C24 UNL     1       4.447  54.540  -6.972  1.00  0.00     0.054 C 
HETATM    8  C21 UNL     1       4.603  55.804  -7.933  1.00  0.00    -0.034 C 
HETATM    9  C22 UNL     1       5.585  56.821  -7.292  1.00  0.00     0.016 C 
HETATM   10  C23 UNL     1       3.261  56.539  -8.127  1.00  0.00     0.016 C 
BRANCH   7  11
HETATM   11  C25 UNL     1       3.491  54.690  -5.734  1.00  0.00     0.150 C 
BRANCH  11  12
HETATM   12  O5  UNL     1       4.128  55.525  -4.758  1.00  0.00    -0.391 OA
HETATM   13  H39 UNL     1       3.514  55.635  -4.015  1.00  0.00     0.210 HD
ENDBRANCH  11  12
BRANCH  11  14
HETATM   14  C26 UNL     1       2.186  55.377  -6.011  1.00  0.00     0.018 C 
HETATM   15  C27 UNL     1       1.052  55.243  -5.307  1.00  0.00     0.018 C 
HETATM   16  C28 UNL     1       0.765  54.450  -4.090  1.00  0.00     0.071 C 
HETATM   17  C30 UNL     1      -0.186  55.976  -5.666  1.00  0.00     0.289 C 
HETATM   18  C29 UNL     1      -0.407  55.216  -3.527  1.00  0.00     0.183 C 
HETATM   19  O6  UNL     1      -1.066  55.824  -4.639  1.00  0.00    -0.317 OA
HETATM   20  O7  UNL     1      -0.391  56.588  -6.696  1.00  0.00    -0.260 OA
ENDBRANCH  11  14
ENDBRANCH   7  11
ENDBRANCH   1   2
BRANCH   1  21
HETATM   21  C7  UNL     1       2.818  55.602 -10.142  1.00  0.00    -0.021 C 
HETATM   22  C8  UNL     1       1.689  54.951 -10.484  1.00  0.00    -0.060 C 
HETATM   23  C9  UNL     1       0.335  55.450 -10.050  1.00  0.00     0.041 C 
HETATM   24  C12 UNL     1       1.615  53.674 -11.277  1.00  0.00     0.205 C 
HETATM   25  C10 UNL     1      -0.415  54.323  -9.348  1.00  0.00     0.076 C 
HETATM   26  C11 UNL     1      -0.452  53.058 -10.225  1.00  0.00     0.199 C 
HETATM   27  O1  UNL     1       0.898  52.680 -10.544  1.00  0.00    -0.348 OA
HETATM   28  O2  UNL     1      -1.178  53.359 -11.447  1.00  0.00    -0.313 OA
HETATM   29  C16 UNL     1      -1.143  51.837  -9.500  1.00  0.00     0.115 C 
HETATM   30  C13 UNL     1      -2.199  52.384 -11.716  1.00  0.00     0.196 C 
HETATM   31  C14 UNL     1      -1.524  51.012 -11.820  1.00  0.00     0.075 C 
HETATM   32  C18 UNL     1      -3.236  52.402 -10.541  1.00  0.00     0.111 C 
HETATM   33  C15 UNL     1      -1.049  50.604 -10.427  1.00  0.00     0.049 C 
HETATM   34  O4  UNL     1      -2.554  52.129  -9.287  1.00  0.00    -0.359 OA
HETATM   35  C19 UNL     1      -4.340  51.346 -10.704  1.00  0.00     0.051 C 
HETATM   36  C20 UNL     1      -3.925  53.770 -10.409  1.00  0.00     0.051 C 
HETATM   37  C17 UNL     1      -0.538  51.494  -8.138  1.00  0.00     0.052 C 
BRANCH  30  38
HETATM   38  O3  UNL     1      -2.778  52.703 -12.966  1.00  0.00    -0.363 OA
HETATM   39  H17 UNL     1      -2.888  53.668 -12.947  1.00  0.00     0.213 HD
ENDBRANCH  30  38
ENDBRANCH   1  21
TORSDOF 6
ENDMDL
MODEL 3
REMARK minimizedAffinity -8.9974165
REMARK CNNscore 0.576719344
REMARK CNNaffinity 6.71111631
REMARK  6 active torsions:
REMARK  status: ('A' for Active; 'I' for Inactive)
REMARK    1  A    between atoms: C5_5  and  C6_6 
REMARK    2  A    between atoms: C6_6  and  C7_7 
REMARK    3  A    between atoms: C13_15  and  O3_16 
REMARK    4  A    between atoms: C24_28  and  C25_29 
REMARK    5  A    between atoms: C25_29  and  O5_30 
REMARK    6  A    between atoms: C25_29  and  C26_31 
ROOT
HETATM    1  C6  UNL     1      -5.786  48.173 -23.637  1.00  0.00     0.033 C 
ENDROOT
BRANCH   1   2
HETATM    2  C5  UNL     1      -5.147  49.515 -24.096  1.00  0.00    -0.002 C 
HETATM    3  C4  UNL     1      -4.037  49.296 -25.149  1.00  0.00     0.010 C 
HETATM    4  C3  UNL     1      -2.839  48.536 -24.578  1.00  0.00     0.034 C 
HETATM    5  C2  UNL     1      -2.621  48.867 -23.117  1.00  0.00    -0.082 C 
HETATM    6  C1  UNL     1      -2.163  47.928 -22.271  1.00  0.00     0.015 C 
HETATM    7  C24 UNL     1      -3.012  50.307 -22.750  1.00  0.00     0.054 C 
HETATM    8  C21 UNL     1      -4.594  50.444 -22.910  1.00  0.00    -0.034 C 
HETATM    9  C22 UNL     1      -4.947  51.903 -23.308  1.00  0.00     0.016 C 
HETATM   10  C23 UNL     1      -5.326  50.152 -21.585  1.00  0.00     0.016 C 
BRANCH   7  11
HETATM   11  C25 UNL     1      -2.374  50.830 -21.413  1.00  0.00     0.150 C 
BRANCH  11  12
HETATM   12  O5  UNL     1      -1.948  49.704 -20.635  1.00  0.00    -0.391 OA
HETATM   13  H39 UNL     1      -1.528  50.044 -19.828  1.00  0.00     0.210 HD
ENDBRANCH  11  12
BRANCH  11  14
HETATM   14  C26 UNL     1      -1.133  51.657 -21.577  1.00  0.00     0.018 C 
HETATM   15  C27 UNL     1      -0.467  52.292 -20.600  1.00  0.00     0.018 C 
HETATM   16  C28 UNL     1      -0.718  52.342 -19.142  1.00  0.00     0.071 C 
HETATM   17  C30 UNL     1       0.759  53.081 -20.871  1.00  0.00     0.289 C 
HETATM   18  C29 UNL     1       0.665  52.662 -18.631  1.00  0.00     0.183 C 
HETATM   19  O6  UNL     1       1.325  53.386 -19.671  1.00  0.00    -0.317 OA
HETATM   20  O7  UNL     1       1.178  53.415 -21.962  1.00  0.00    -0.260 OA
ENDBRANCH  11  14
ENDBRANCH   7  11
ENDBRANCH   1   2
BRANCH   1  21
HETATM   21  C7  UNL     1      -7.255  48.058 -23.954  1.00  0.00    -0.021 C 
HETATM   22  C8  UNL     1      -7.819  48.004 -25.176  1.00  0.00    -0.060 C 
HETATM   23  C9  UNL     1      -9.313  47.899 -25.344  1.00  0.00     0.041 C 
HETATM   24  C12 UNL     1      -7.081  48.004 -26.488  1.00  0.00     0.205 C 
HETATM   25  C10 UNL     1      -9.635  46.707 -26.240  1.00  0.00     0.076 C 
HETATM   26  C11 UNL     1      -8.848  46.784 -27.562  1.00  0.00     0.199 C 
HETATM   27  O1  UNL     1      -7.444  46.856 -27.257  1.00  0.00    -0.348 OA
HETATM   28  O2  UNL     1      -9.256  47.980 -28.278  1.00  0.00    -0.313 OA
HETATM   29  C16 UNL     1      -9.084  45.523 -28.482  1.00  0.00     0.115 C 
HETATM   30  C13 UNL     1      -9.603  47.694 -29.642  1.00  0.00     0.196 C 
HETATM   31  C14 UNL     1      -8.382  47.057 -30.316  1.00  0.00     0.075 C 
HETATM   32  C18 UNL     1     -10.819  46.704 -29.656  1.00  0.00     0.111 C 
HETATM   33  C15 UNL     1      -8.186  45.659 -29.733  1.00  0.00     0.049 C 
HETATM   34  O4  UNL     1     -10.469  45.496 -28.928  1.00  0.00    -0.359 OA
HETATM   35  C19 UNL     1     -11.229  46.284 -31.076  1.00  0.00     0.051 C 
HETATM   36  C20 UNL     1     -12.058  47.314 -28.981  1.00  0.00     0.051 C 
HETATM   37  C17 UNL     1      -8.799  44.186 -27.797  1.00  0.00     0.052 C 
BRANCH  30  38
HETATM   38  O3  UNL     1      -9.886  48.923 -30.281  1.00  0.00    -0.363 OA
HETATM   39  H17 UNL     1     -10.422  49.416 -29.637  1.00  0.00     0.213 HD
ENDBRANCH  30  38
ENDBRANCH   1  21
TORSDOF 6
ENDMDL
MODEL 4
REMARK minimizedAffinity -8.27406025
REMARK CNNscore 0.571144104
REMARK CNNaffinity 6.20527792
REMARK  6 active torsions:
REMARK  status: ('A' for Active; 'I' for Inactive)
REMARK    1  A    between atoms: C5_5  and  C6_6 
REMARK    2  A    between atoms: C6_6  and  C7_7 
REMARK    3  A    between atoms: C13_15  and  O3_16 
REMARK    4  A    between atoms: C24_28  and  C25_29 
REMARK    5  A    between atoms: C25_29  and  O5_30 
REMARK    6  A    between atoms: C25_29  and  C26_31 
ROOT
HETATM    1  C6  UNL     1     -11.052  44.782 -26.811  1.00  0.00     0.033 C 
ENDROOT
BRANCH   1   2
HETATM    2  C5  UNL     1     -12.076  45.812 -27.367  1.00  0.00    -0.002 C 
HETATM    3  C4  UNL     1     -12.054  47.136 -26.570  1.00  0.00     0.010 C 
HETATM    4  C3  UNL     1     -12.523  46.949 -25.126  1.00  0.00     0.034 C 
HETATM    5  C2  UNL     1     -13.579  45.870 -25.023  1.00  0.00    -0.082 C 
HETATM    6  C1  UNL     1     -13.638  45.083 -23.936  1.00  0.00     0.015 C 
HETATM    7  C24 UNL     1     -14.479  45.775 -26.264  1.00  0.00     0.054 C 
HETATM    8  C21 UNL     1     -13.584  45.275 -27.486  1.00  0.00    -0.034 C 
HETATM    9  C22 UNL     1     -14.145  45.861 -28.810  1.00  0.00     0.016 C 
HETATM   10  C23 UNL     1     -13.619  43.740 -27.626  1.00  0.00     0.016 C 
BRANCH   7  11
HETATM   11  C25 UNL     1     -15.843  45.034 -26.019  1.00  0.00     0.150 C 
BRANCH  11  12
HETATM   12  O5  UNL     1     -15.656  44.055 -24.988  1.00  0.00    -0.391 OA
HETATM   13  H39 UNL     1     -16.513  43.628 -24.825  1.00  0.00     0.210 HD
ENDBRANCH  11  12
BRANCH  11  14
HETATM   14  C26 UNL     1     -16.959  45.898 -25.509  1.00  0.00     0.018 C 
HETATM   15  C27 UNL     1     -18.195  45.489 -25.184  1.00  0.00     0.018 C 
HETATM   16  C28 UNL     1     -18.792  44.135 -25.194  1.00  0.00     0.071 C 
HETATM   17  C30 UNL     1     -19.225  46.430 -24.681  1.00  0.00     0.289 C 
HETATM   18  C29 UNL     1     -19.896  44.308 -24.180  1.00  0.00     0.183 C 
HETATM   19  O6  UNL     1     -20.267  45.687 -24.216  1.00  0.00    -0.317 OA
HETATM   20  O7  UNL     1     -19.166  47.644 -24.697  1.00  0.00    -0.260 OA
ENDBRANCH  11  14
ENDBRANCH   7  11
ENDBRANCH   1   2
BRANCH   1  21
HETATM   21  C7  UNL     1      -9.613  45.181 -27.017  1.00  0.00    -0.021 C 
HETATM   22  C8  UNL     1      -8.976  45.339 -28.194  1.00  0.00    -0.060 C 
HETATM   23  C9  UNL     1      -7.523  45.735 -28.249  1.00  0.00     0.041 C 
HETATM   24  C12 UNL     1      -9.594  45.188 -29.558  1.00  0.00     0.205 C 
HETATM   25  C10 UNL     1      -7.371  46.963 -29.142  1.00  0.00     0.076 C 
HETATM   26  C11 UNL     1      -8.021  46.726 -30.518  1.00  0.00     0.199 C 
HETATM   27  O1  UNL     1      -9.403  46.381 -30.320  1.00  0.00    -0.348 OA
HETATM   28  O2  UNL     1      -7.332  45.630 -31.177  1.00  0.00    -0.313 OA
HETATM   29  C16 UNL     1      -7.965  48.004 -31.443  1.00  0.00     0.115 C 
HETATM   30  C13 UNL     1      -6.940  45.972 -32.516  1.00  0.00     0.196 C 
HETATM   31  C14 UNL     1      -8.206  46.353 -33.294  1.00  0.00     0.075 C 
HETATM   32  C18 UNL     1      -5.945  47.181 -32.457  1.00  0.00     0.111 C 
HETATM   33  C15 UNL     1      -8.717  47.688 -32.756  1.00  0.00     0.049 C 
HETATM   34  O4  UNL     1      -6.580  48.301 -31.783  1.00  0.00    -0.359 OA
HETATM   35  C19 UNL     1      -5.514  47.667 -33.850  1.00  0.00     0.051 C 
HETATM   36  C20 UNL     1      -4.667  46.831 -31.677  1.00  0.00     0.051 C 
HETATM   37  C17 UNL     1      -8.558  49.263 -30.810  1.00  0.00     0.052 C 
BRANCH  30  38
HETATM   38  O3  UNL     1      -6.373  44.820 -33.106  1.00  0.00    -0.363 OA
HETATM   39  H17 UNL     1      -5.804  44.444 -32.413  1.00  0.00     0.213 HD
ENDBRANCH  30  38
ENDBRANCH   1  21
TORSDOF 6
ENDMDL
MODEL 5
REMARK minimizedAffinity -9.77878571
REMARK CNNscore 0.534933507
REMARK CNNaffinity 6.52931738
REMARK  6 active torsions:
REMARK  status: ('A' for Active; 'I' for Inactive)
REMARK    1  A    between atoms: C5_5  and  C6_6 
REMARK    2  A    between atoms: C6_6  and  C7_7 
REMARK    3  A    between atoms: C13_15  and  O3_16 
REMARK    4  A    between atoms: C24_28  and  C25_29 
REMARK    5  A    between atoms: C25_29  and  O5_30 
REMARK    6  A    between atoms: C25_29  and  C26_31 
ROOT
HETATM    1  C6  UNL     1      -2.301  50.538 -16.364  1.00  0.00     0.033 C 
ENDROOT
BRANCH   1   2
HETATM    2  C5  UNL     1      -1.407  49.575 -17.197  1.00  0.00    -0.002 C 
HETATM    3  C4  UNL     1       0.084  49.688 -16.807  1.00  0.00     0.010 C 
HETATM    4  C3  UNL     1       0.669  51.061 -17.146  1.00  0.00     0.034 C 
HETATM    5  C2  UNL     1       0.032  51.640 -18.391  1.00  0.00    -0.082 C 
HETATM    6  C1  UNL     1      -0.159  52.966 -18.500  1.00  0.00     0.015 C 
HETATM    7  C24 UNL     1      -0.379  50.576 -19.420  1.00  0.00     0.054 C 
HETATM    8  C21 UNL     1      -1.563  49.712 -18.789  1.00  0.00    -0.034 C 
HETATM    9  C22 UNL     1      -1.502  48.266 -19.352  1.00  0.00     0.016 C 
HETATM   10  C23 UNL     1      -2.945  50.280 -19.167  1.00  0.00     0.016 C 
BRANCH   7  11
HETATM   11  C25 UNL     1      -0.587  51.129 -20.875  1.00  0.00     0.150 C 
BRANCH  11  12
HETATM   12  O5  UNL     1      -1.958  51.517 -21.029  1.00  0.00    -0.391 OA
HETATM   13  H39 UNL     1      -2.064  51.886 -21.921  1.00  0.00     0.210 HD
ENDBRANCH  11  12
BRANCH  11  14
HETATM   14  C26 UNL     1       0.187  52.372 -21.205  1.00  0.00     0.018 C 
HETATM   15  C27 UNL     1       0.486  52.820 -22.434  1.00  0.00     0.018 C 
HETATM   16  C28 UNL     1       0.136  52.276 -23.765  1.00  0.00     0.071 C 
HETATM   17  C30 UNL     1       1.255  54.069 -22.648  1.00  0.00     0.289 C 
HETATM   18  C29 UNL     1       0.227  53.523 -24.610  1.00  0.00     0.183 C 
HETATM   19  O6  UNL     1       1.180  54.376 -23.972  1.00  0.00    -0.317 OA
HETATM   20  O7  UNL     1       1.861  54.700 -21.804  1.00  0.00    -0.260 OA
ENDBRANCH  11  14
ENDBRANCH   7  11
ENDBRANCH   1   2
BRANCH   1  21
HETATM   21  C7  UNL     1      -2.654  50.010 -14.997  1.00  0.00    -0.021 C 
HETATM   22  C8  UNL     1      -2.180  50.443 -13.812  1.00  0.00    -0.060 C 
HETATM   23  C9  UNL     1      -2.617  49.810 -12.517  1.00  0.00     0.041 C 
HETATM   24  C12 UNL     1      -1.223  51.587 -13.611  1.00  0.00     0.205 C 
HETATM   25  C10 UNL     1      -3.132  50.895 -11.576  1.00  0.00     0.076 C 
HETATM   26  C11 UNL     1      -2.095  52.023 -11.418  1.00  0.00     0.199 C 
HETATM   27  O1  UNL     1      -1.787  52.550 -12.720  1.00  0.00    -0.348 OA
HETATM   28  O2  UNL     1      -0.893  51.470 -10.817  1.00  0.00    -0.313 OA
HETATM   29  C16 UNL     1      -2.623  53.211 -10.523  1.00  0.00     0.115 C 
HETATM   30  C13 UNL     1      -0.454  52.245  -9.689  1.00  0.00     0.196 C 
HETATM   31  C14 UNL     1      -0.200  53.678 -10.173  1.00  0.00     0.075 C 
HETATM   32  C18 UNL     1      -1.576  52.223  -8.595  1.00  0.00     0.111 C 
HETATM   33  C15 UNL     1      -1.546  54.320 -10.501  1.00  0.00     0.049 C 
HETATM   34  O4  UNL     1      -2.811  52.746  -9.155  1.00  0.00    -0.359 OA
HETATM   35  C19 UNL     1      -1.228  53.080  -7.368  1.00  0.00     0.051 C 
HETATM   36  C20 UNL     1      -1.857  50.797  -8.095  1.00  0.00     0.051 C 
HETATM   37  C17 UNL     1      -3.953  53.804 -10.989  1.00  0.00     0.052 C 
BRANCH  30  38
HETATM   38  O3  UNL     1       0.767  51.694  -9.238  1.00  0.00    -0.363 OA
HETATM   39  H17 UNL     1       0.625  50.732  -9.262  1.00  0.00     0.213 HD
ENDBRANCH  30  38
ENDBRANCH   1  21
TORSDOF 6
ENDMDL
MODEL 6
REMARK minimizedAffinity -9.90943909
REMARK CNNscore 0.4920955
REMARK CNNaffinity 6.42352247
REMARK  6 active torsions:
REMARK  status: ('A' for Active; 'I' for Inactive)
REMARK    1  A    between atoms: C5_5  and  C6_6 
REMARK    2  A    between atoms: C6_6  and  C7_7 
REMARK    3  A    between atoms: C13_15  and  O3_16 
REMARK    4  A    between atoms: C24_28  and  C25_29 
REMARK    5  A    between atoms: C25_29  and  O5_30 
REMARK    6  A    between atoms: C25_29  and  C26_31 
ROOT
HETATM    1  C6  UNL     1      -5.619  48.974 -24.354  1.00  0.00     0.033 C 
ENDROOT
BRANCH   1   2
HETATM    2  C5  UNL     1      -4.713  48.549 -23.162  1.00  0.00    -0.002 C 
HETATM    3  C4  UNL     1      -5.351  48.896 -21.798  1.00  0.00     0.010 C 
HETATM    4  C3  UNL     1      -5.487  50.406 -21.591  1.00  0.00     0.034 C 
HETATM    5  C2  UNL     1      -4.356  51.159 -22.257  1.00  0.00    -0.082 C 
HETATM    6  C1  UNL     1      -4.575  52.370 -22.797  1.00  0.00     0.015 C 
HETATM    7  C24 UNL     1      -3.030  50.384 -22.271  1.00  0.00     0.054 C 
HETATM    8  C21 UNL     1      -3.211  49.113 -23.217  1.00  0.00    -0.034 C 
HETATM    9  C22 UNL     1      -2.301  47.960 -22.712  1.00  0.00     0.016 C 
HETATM   10  C23 UNL     1      -2.783  49.418 -24.667  1.00  0.00     0.016 C 
BRANCH   7  11
HETATM   11  C25 UNL     1      -1.759  51.280 -22.502  1.00  0.00     0.150 C 
BRANCH  11  12
HETATM   12  O5  UNL     1      -2.113  52.366 -23.367  1.00  0.00    -0.391 OA
HETATM   13  H39 UNL     1      -1.328  52.928 -23.474  1.00  0.00     0.210 HD
ENDBRANCH  11  12
BRANCH  11  14
HETATM   14  C26 UNL     1      -1.216  51.949 -21.273  1.00  0.00     0.018 C 
HETATM   15  C27 UNL     1      -0.085  52.667 -21.194  1.00  0.00     0.018 C 
HETATM   16  C28 UNL     1       0.899  53.027 -22.240  1.00  0.00     0.071 C 
HETATM   17  C30 UNL     1       0.360  53.293 -19.925  1.00  0.00     0.289 C 
HETATM   18  C29 UNL     1       1.501  54.274 -21.640  1.00  0.00     0.183 C 
HETATM   19  O6  UNL     1       1.385  54.139 -20.222  1.00  0.00    -0.317 OA
HETATM   20  O7  UNL     1      -0.090  53.080 -18.817  1.00  0.00    -0.260 OA
ENDBRANCH  11  14
ENDBRANCH   7  11
ENDBRANCH   1   2
BRANCH   1  21
HETATM   21  C7  UNL     1      -4.984  48.764 -25.705  1.00  0.00    -0.021 C 
HETATM   22  C8  UNL     1      -5.437  47.977 -26.701  1.00  0.00    -0.060 C 
HETATM   23  C9  UNL     1      -4.690  47.856 -28.003  1.00  0.00     0.041 C 
HETATM   24  C12 UNL     1      -6.709  47.172 -26.679  1.00  0.00     0.205 C 
HETATM   25  C10 UNL     1      -5.640  48.159 -29.158  1.00  0.00     0.076 C 
HETATM   26  C11 UNL     1      -6.910  47.293 -29.067  1.00  0.00     0.199 C 
HETATM   27  O1  UNL     1      -7.533  47.523 -27.792  1.00  0.00    -0.348 OA
HETATM   28  O2  UNL     1      -6.529  45.896 -29.182  1.00  0.00    -0.313 OA
HETATM   29  C16 UNL     1      -7.960  47.639 -30.194  1.00  0.00     0.115 C 
HETATM   30  C13 UNL     1      -7.316  45.207 -30.168  1.00  0.00     0.196 C 
HETATM   31  C14 UNL     1      -8.790  45.328 -29.762  1.00  0.00     0.075 C 
HETATM   32  C18 UNL     1      -7.071  45.873 -31.565  1.00  0.00     0.111 C 
HETATM   33  C15 UNL     1      -9.224  46.779 -29.960  1.00  0.00     0.049 C 
HETATM   34  O4  UNL     1      -7.415  47.284 -31.497  1.00  0.00    -0.359 OA
HETATM   35  C19 UNL     1      -7.921  45.246 -32.682  1.00  0.00     0.051 C 
HETATM   36  C20 UNL     1      -5.599  45.772 -31.995  1.00  0.00     0.051 C 
HETATM   37  C17 UNL     1      -8.355  49.115 -30.251  1.00  0.00     0.052 C 
BRANCH  30  38
HETATM   38  O3  UNL     1      -6.946  43.843 -30.136  1.00  0.00    -0.363 OA
HETATM   39  H17 UNL     1      -5.977  43.853 -30.071  1.00  0.00     0.213 HD
ENDBRANCH  30  38
ENDBRANCH   1  21
TORSDOF 6
ENDMDL
MODEL 7
REMARK minimizedAffinity -9.59505558
REMARK CNNscore 0.479895741
REMARK CNNaffinity 6.02180815
REMARK  6 active torsions:
REMARK  status: ('A' for Active; 'I' for Inactive)
REMARK    1  A    between atoms: C5_5  and  C6_6 
REMARK    2  A    between atoms: C6_6  and  C7_7 
REMARK    3  A    between atoms: C13_15  and  O3_16 
REMARK    4  A    between atoms: C24_28  and  C25_29 
REMARK    5  A    between atoms: C25_29  and  O5_30 
REMARK    6  A    between atoms: C25_29  and  C26_31 
ROOT
HETATM    1  C6  UNL     1      -5.508  48.091 -23.571  1.00  0.00     0.033 C 
ENDROOT
BRANCH   1   2
HETATM    2  C5  UNL     1      -4.514  47.933 -22.385  1.00  0.00    -0.002 C 
HETATM    3  C4  UNL     1      -5.120  48.433 -21.054  1.00  0.00     0.010 C 
HETATM    4  C3  UNL     1      -5.384  49.940 -21.067  1.00  0.00     0.034 C 
HETATM    5  C2  UNL     1      -4.358  50.672 -21.904  1.00  0.00    -0.082 C 
HETATM    6  C1  UNL     1      -4.710  51.762 -22.606  1.00  0.00     0.015 C 
HETATM    7  C24 UNL     1      -2.968  50.018 -21.878  1.00  0.00     0.054 C 
HETATM    8  C21 UNL     1      -3.074  48.605 -22.611  1.00  0.00    -0.034 C 
HETATM    9  C22 UNL     1      -2.041  47.624 -21.993  1.00  0.00     0.016 C 
HETATM   10  C23 UNL     1      -2.741  48.716 -24.113  1.00  0.00     0.016 C 
BRANCH   7  11
HETATM   11  C25 UNL     1      -1.796  50.970 -22.315  1.00  0.00     0.150 C 
BRANCH  11  12
HETATM   12  O5  UNL     1      -2.286  51.876 -23.312  1.00  0.00    -0.391 OA
HETATM   13  H39 UNL     1      -1.562  52.478 -23.548  1.00  0.00     0.210 HD
ENDBRANCH  11  12
BRANCH  11  14
HETATM   14  C26 UNL     1      -1.261  51.864 -21.235  1.00  0.00     0.018 C 
HETATM   15  C27 UNL     1      -0.140  52.599 -21.294  1.00  0.00     0.018 C 
HETATM   16  C28 UNL     1       0.838  52.771 -22.392  1.00  0.00     0.071 C 
HETATM   17  C30 UNL     1       0.296  53.457 -20.167  1.00  0.00     0.289 C 
HETATM   18  C29 UNL     1       1.423  54.116 -22.037  1.00  0.00     0.183 C 
HETATM   19  O6  UNL     1       1.309  54.246 -20.619  1.00  0.00    -0.317 OA
HETATM   20  O7  UNL     1      -0.151  53.449 -19.037  1.00  0.00    -0.260 OA
ENDBRANCH  11  14
ENDBRANCH   7  11
ENDBRANCH   1   2
BRANCH   1  21
HETATM   21  C7  UNL     1      -6.906  47.623 -23.260  1.00  0.00    -0.021 C 
HETATM   22  C8  UNL     1      -7.978  47.666 -24.077  1.00  0.00    -0.060 C 
HETATM   23  C9  UNL     1      -9.326  47.168 -23.625  1.00  0.00     0.041 C 
HETATM   24  C12 UNL     1      -7.982  48.160 -25.499  1.00  0.00     0.205 C 
HETATM   25  C10 UNL     1      -9.850  46.152 -24.636  1.00  0.00     0.076 C 
HETATM   26  C11 UNL     1      -9.828  46.733 -26.062  1.00  0.00     0.199 C 
HETATM   27  O1  UNL     1      -8.486  47.146 -26.370  1.00  0.00    -0.348 OA
HETATM   28  O2  UNL     1     -10.717  47.881 -26.110  1.00  0.00    -0.313 OA
HETATM   29  C16 UNL     1     -10.279  45.683 -27.151  1.00  0.00     0.115 C 
HETATM   30  C13 UNL     1     -11.634  47.802 -27.213  1.00  0.00     0.196 C 
HETATM   31  C14 UNL     1     -10.811  47.708 -28.503  1.00  0.00     0.075 C 
HETATM   32  C18 UNL     1     -12.528  46.527 -27.034  1.00  0.00     0.111 C 
HETATM   33  C15 UNL     1     -10.138  46.338 -28.545  1.00  0.00     0.049 C 
HETATM   34  O4  UNL     1     -11.682  45.348 -26.956  1.00  0.00    -0.359 OA
HETATM   35  C19 UNL     1     -13.505  46.316 -28.202  1.00  0.00     0.051 C 
HETATM   36  C20 UNL     1     -13.361  46.591 -25.744  1.00  0.00     0.051 C 
HETATM   37  C17 UNL     1      -9.490  44.374 -27.124  1.00  0.00     0.052 C 
BRANCH  30  38
HETATM   38  O3  UNL     1     -12.383  49.001 -27.237  1.00  0.00    -0.363 OA
HETATM   39  H17 UNL     1     -12.608  49.168 -26.306  1.00  0.00     0.213 HD
ENDBRANCH  30  38
ENDBRANCH   1  21
TORSDOF 6
ENDMDL
MODEL 8
REMARK minimizedAffinity -9.79416752
REMARK CNNscore 0.446144849
REMARK CNNaffinity 6.79171944
REMARK  6 active torsions:
REMARK  status: ('A' for Active; 'I' for Inactive)
REMARK    1  A    between atoms: C5_5  and  C6_6 
REMARK    2  A    between atoms: C6_6  and  C7_7 
REMARK    3  A    between atoms: C13_15  and  O3_16 
REMARK    4  A    between atoms: C24_28  and  C25_29 
REMARK    5  A    between atoms: C25_29  and  O5_30 
REMARK    6  A    between atoms: C25_29  and  C26_31 
ROOT
HETATM    1  C6  UNL     1      -5.092  47.930 -23.333  1.00  0.00     0.033 C 
ENDROOT
BRANCH   1   2
HETATM    2  C5  UNL     1      -4.980  48.948 -22.162  1.00  0.00    -0.002 C 
HETATM    3  C4  UNL     1      -5.950  50.138 -22.337  1.00  0.00     0.010 C 
HETATM    4  C3  UNL     1      -5.602  50.994 -23.557  1.00  0.00     0.034 C 
HETATM    5  C2  UNL     1      -4.109  51.025 -23.802  1.00  0.00    -0.082 C 
HETATM    6  C1  UNL     1      -3.630  51.082 -25.056  1.00  0.00     0.015 C 
HETATM    7  C24 UNL     1      -3.276  50.940 -22.514  1.00  0.00     0.054 C 
HETATM    8  C21 UNL     1      -3.498  49.495 -21.877  1.00  0.00    -0.034 C 
HETATM    9  C22 UNL     1      -3.364  49.586 -20.333  1.00  0.00     0.016 C 
HETATM   10  C23 UNL     1      -2.432  48.491 -22.360  1.00  0.00     0.016 C 
BRANCH   7  11
HETATM   11  C25 UNL     1      -1.795  51.441 -22.668  1.00  0.00     0.150 C 
BRANCH  11  12
HETATM   12  O5  UNL     1      -1.778  52.564 -23.558  1.00  0.00    -0.391 OA
HETATM   13  H39 UNL     1      -0.863  52.882 -23.617  1.00  0.00     0.210 HD
ENDBRANCH  11  12
BRANCH  11  14
HETATM   14  C26 UNL     1      -1.159  51.957 -21.410  1.00  0.00     0.018 C 
HETATM   15  C27 UNL     1      -0.020  52.662 -21.326  1.00  0.00     0.018 C 
HETATM   16  C28 UNL     1       0.888  53.148 -22.390  1.00  0.00     0.071 C 
HETATM   17  C30 UNL     1       0.519  53.130 -20.027  1.00  0.00     0.289 C 
HETATM   18  C29 UNL     1       1.541  54.314 -21.688  1.00  0.00     0.183 C 
HETATM   19  O6  UNL     1       1.526  54.008 -20.293  1.00  0.00    -0.317 OA
HETATM   20  O7  UNL     1       0.148  52.783 -18.923  1.00  0.00    -0.260 OA
ENDBRANCH  11  14
ENDBRANCH   7  11
ENDBRANCH   1   2
BRANCH   1  21
HETATM   21  C7  UNL     1      -6.505  47.697 -23.803  1.00  0.00    -0.021 C 
HETATM   22  C8  UNL     1      -6.987  47.886 -25.047  1.00  0.00    -0.060 C 
HETATM   23  C9  UNL     1      -8.434  47.619 -25.374  1.00  0.00     0.041 C 
HETATM   24  C12 UNL     1      -6.190  48.332 -26.243  1.00  0.00     0.205 C 
HETATM   25  C10 UNL     1      -8.513  46.670 -26.566  1.00  0.00     0.076 C 
HETATM   26  C11 UNL     1      -7.679  47.200 -27.747  1.00  0.00     0.199 C 
HETATM   27  O1  UNL     1      -6.324  47.386 -27.305  1.00  0.00    -0.348 OA
HETATM   28  O2  UNL     1      -8.234  48.472 -28.175  1.00  0.00    -0.313 OA
HETATM   29  C16 UNL     1      -7.661  46.204 -28.971  1.00  0.00     0.115 C 
HETATM   30  C13 UNL     1      -8.458  48.507 -29.594  1.00  0.00     0.196 C 
HETATM   31  C14 UNL     1      -7.117  48.247 -30.289  1.00  0.00     0.075 C 
HETATM   32  C18 UNL     1      -9.498  47.395 -29.968  1.00  0.00     0.111 C 
HETATM   33  C15 UNL     1      -6.731  46.788 -30.060  1.00  0.00     0.049 C 
HETATM   34  O4  UNL     1      -8.999  46.100 -29.537  1.00  0.00    -0.359 OA
HETATM   35  C19 UNL     1      -9.760  47.307 -31.480  1.00  0.00     0.051 C 
HETATM   36  C20 UNL     1     -10.853  47.626 -29.280  1.00  0.00     0.051 C 
HETATM   37  C17 UNL     1      -7.204  44.788 -28.620  1.00  0.00     0.052 C 
BRANCH  30  38
HETATM   38  O3  UNL     1      -8.900  49.808 -29.928  1.00  0.00    -0.363 OA
HETATM   39  H17 UNL     1      -9.540  50.035 -29.233  1.00  0.00     0.213 HD
ENDBRANCH  30  38
ENDBRANCH   1  21
TORSDOF 6
ENDMDL
MODEL 9
REMARK minimizedAffinity -8.37988091
REMARK CNNscore 0.423737288
REMARK CNNaffinity 6.68412447
REMARK  6 active torsions:
REMARK  status: ('A' for Active; 'I' for Inactive)
REMARK    1  A    between atoms: C5_5  and  C6_6 
REMARK    2  A    between atoms: C6_6  and  C7_7 
REMARK    3  A    between atoms: C13_15  and  O3_16 
REMARK    4  A    between atoms: C24_28  and  C25_29 
REMARK    5  A    between atoms: C25_29  and  O5_30 
REMARK    6  A    between atoms: C25_29  and  C26_31 
ROOT
HETATM    1  C6  UNL     1       0.729  49.940 -15.758  1.00  0.00     0.033 C 
ENDROOT
BRANCH   1   2
HETATM    2  C5  UNL     1       0.641  51.365 -15.140  1.00  0.00    -0.002 C 
HETATM    3  C4  UNL     1       1.645  52.341 -15.795  1.00  0.00     0.010 C 
HETATM    4  C3  UNL     1       3.098  51.948 -15.519  1.00  0.00     0.034 C 
HETATM    5  C2  UNL     1       3.247  51.305 -14.157  1.00  0.00    -0.082 C 
HETATM    6  C1  UNL     1       4.147  50.326 -13.965  1.00  0.00     0.015 C 
HETATM    7  C24 UNL     1       2.265  51.854 -13.110  1.00  0.00     0.054 C 
HETATM    8  C21 UNL     1       0.791  51.424 -13.543  1.00  0.00    -0.034 C 
HETATM    9  C22 UNL     1      -0.223  52.494 -13.056  1.00  0.00     0.016 C 
HETATM   10  C23 UNL     1       0.375  50.087 -12.896  1.00  0.00     0.016 C 
BRANCH   7  11
HETATM   11  C25 UNL     1       2.687  51.583 -11.622  1.00  0.00     0.150 C 
BRANCH  11  12
HETATM   12  O5  UNL     1       3.478  50.388 -11.578  1.00  0.00    -0.391 OA
HETATM   13  H39 UNL     1       3.758  50.251 -10.658  1.00  0.00     0.210 HD
ENDBRANCH  11  12
BRANCH  11  14
HETATM   14  C26 UNL     1       3.567  52.630 -11.005  1.00  0.00     0.018 C 
HETATM   15  C27 UNL     1       3.183  53.846 -10.587  1.00  0.00     0.018 C 
HETATM   16  C28 UNL     1       1.844  54.478 -10.575  1.00  0.00     0.071 C 
HETATM   17  C30 UNL     1       4.138  54.806  -9.983  1.00  0.00     0.289 C 
HETATM   18  C29 UNL     1       2.023  55.490  -9.471  1.00  0.00     0.183 C 
HETATM   19  O6  UNL     1       3.411  55.826  -9.448  1.00  0.00    -0.317 OA
HETATM   20  O7  UNL     1       5.350  54.716  -9.980  1.00  0.00    -0.260 OA
ENDBRANCH  11  14
ENDBRANCH   7  11
ENDBRANCH   1   2
BRANCH   1  21
HETATM   21  C7  UNL     1      -0.612  49.342 -16.099  1.00  0.00    -0.021 C 
HETATM   22  C8  UNL     1      -1.379  49.626 -17.171  1.00  0.00    -0.060 C 
HETATM   23  C9  UNL     1      -2.710  48.953 -17.380  1.00  0.00     0.041 C 
HETATM   24  C12 UNL     1      -1.024  50.579 -18.280  1.00  0.00     0.205 C 
HETATM   25  C10 UNL     1      -2.745  48.330 -18.772  1.00  0.00     0.076 C 
HETATM   26  C11 UNL     1      -2.378  49.369 -19.848  1.00  0.00     0.199 C 
HETATM   27  O1  UNL     1      -1.083  49.911 -19.541  1.00  0.00    -0.348 OA
HETATM   28  O2  UNL     1      -3.371  50.429 -19.829  1.00  0.00    -0.313 OA
HETATM   29  C16 UNL     1      -2.315  48.744 -21.297  1.00  0.00     0.115 C 
HETATM   30  C13 UNL     1      -3.887  50.702 -21.142  1.00  0.00     0.196 C 
HETATM   31  C14 UNL     1      -2.707  51.090 -22.041  1.00  0.00     0.075 C 
HETATM   32  C18 UNL     1      -4.593  49.412 -21.685  1.00  0.00     0.111 C 
HETATM   33  C15 UNL     1      -1.857  49.845 -22.281  1.00  0.00     0.049 C 
HETATM   34  O4  UNL     1      -3.645  48.311 -21.701  1.00  0.00    -0.359 OA
HETATM   35  C19 UNL     1      -5.126  49.582 -23.116  1.00  0.00     0.051 C 
HETATM   36  C20 UNL     1      -5.778  48.996 -20.799  1.00  0.00     0.051 C 
HETATM   37  C17 UNL     1      -1.386  47.536 -21.418  1.00  0.00     0.052 C 
BRANCH  30  38
HETATM   38  O3  UNL     1      -4.762  51.807 -21.038  1.00  0.00    -0.363 OA
HETATM   39  H17 UNL     1      -5.282  51.635 -20.235  1.00  0.00     0.213 HD
ENDBRANCH  30  38
ENDBRANCH   1  21
TORSDOF 6
ENDMDL
