MODEL 1
REMARK minimizedAffinity -9.67708778
REMARK  9 active torsions:
REMARK  status: ('A' for Active; 'I' for Inactive)
REMARK    1  A    between atoms: C5_5  and  O1_6 
REMARK    2  A    between atoms: C8_9  and  C9_10 
REMARK    3  A    between atoms: C19_20  and  C20_21 
REMARK    4  A    between atoms: C20_21  and  C22_23 
REMARK    5  A    between atoms: C23_24  and  C24_25 
REMARK    6  A    between atoms: C24_25  and  O2_27 
REMARK    7  A    between atoms: C24_25  and  C26_28 
REMARK    8  A    between atoms: C26_28  and  C28_30 
REMARK    9  A    between atoms: C28_30  and  O3_31 
ROOT
HETATM    1  C9  UNL     1      -7.790   5.760  12.659  1.00  0.00     0.004 C 
HETATM    2  C10 UNL     1      -7.062   4.639  12.853  1.00  0.00    -0.075 C 
HETATM    3  C11 UNL     1      -7.591   3.325  13.368  1.00  0.00     0.034 C 
HETATM    4  C12 UNL     1      -7.228   2.192  12.415  1.00  0.00     0.005 C 
HETATM    5  C13 UNL     1      -5.714   2.074  12.273  1.00  0.00     0.010 C 
HETATM    6  C14 UNL     1      -5.027   3.376  11.775  1.00  0.00    -0.032 C 
HETATM    7  C15 UNL     1      -5.300   3.561  10.269  1.00  0.00     0.016 C 
HETATM    8  C16 UNL     1      -5.582   4.648  12.505  1.00  0.00     0.023 C 
HETATM    9  C17 UNL     1      -4.646   4.843  13.691  1.00  0.00     0.010 C 
HETATM   10  C18 UNL     1      -3.291   4.608  13.038  1.00  0.00     0.007 C 
HETATM   11  C19 UNL     1      -3.496   3.330  12.197  1.00  0.00     0.002 C 
ENDROOT
BRANCH  11  12
HETATM   12  C20 UNL     1      -2.430   3.092  11.090  1.00  0.00     0.009 C 
HETATM   13  C21 UNL     1      -1.909   1.646  11.132  1.00  0.00     0.014 C 
BRANCH  12  14
HETATM   14  C22 UNL     1      -1.302   4.115  11.160  1.00  0.00    -0.023 C 
HETATM   15  C23 UNL     1      -1.290   5.290  11.816  1.00  0.00     0.007 C 
BRANCH  15  16
HETATM   16  C24 UNL     1      -0.149   6.297  11.887  1.00  0.00     0.077 C 
HETATM   17  C25 UNL     1      -0.322   7.367  12.974  1.00  0.00     0.051 C 
BRANCH  16  18
HETATM   18  O2  UNL     1       0.999   5.532  12.301  1.00  0.00    -0.386 OA
HETATM   19  H37 UNL     1       1.134   4.819  11.657  1.00  0.00     0.211 HD
ENDBRANCH  16  18
BRANCH  16  20
HETATM   20  C26 UNL     1       0.146   6.878  10.466  1.00  0.00     0.043 C 
HETATM   21  C27 UNL     1       1.482   6.385   9.887  1.00  0.00     0.015 C 
BRANCH  20  22
HETATM   22  C28 UNL     1       0.059   8.411  10.375  1.00  0.00     0.171 C 
BRANCH  22  23
HETATM   23  O3  UNL     1      -0.035   8.858   9.031  1.00  0.00    -0.400 OA
HETATM   24  H44 UNL     1      -0.068   9.830   9.053  1.00  0.00     0.209 HD
ENDBRANCH  22  23
ENDBRANCH  20  22
ENDBRANCH  16  20
ENDBRANCH  15  16
ENDBRANCH  12  14
ENDBRANCH  11  12
BRANCH   1  25
HETATM   25  C8  UNL     1      -9.208   5.946  12.900  1.00  0.00     0.008 C 
HETATM   26  C7  UNL     1      -9.771   6.578  13.951  1.00  0.00    -0.050 C 
HETATM   27  C2  UNL     1      -9.056   7.173  15.074  1.00  0.00    -0.061 C 
HETATM   28  C6  UNL     1     -11.276   6.795  14.008  1.00  0.00     0.070 C 
HETATM   29  C1  UNL     1      -8.274   6.452  15.892  1.00  0.00     0.019 C 
HETATM   30  C3  UNL     1      -9.341   8.633  15.342  1.00  0.00     0.041 C 
HETATM   31  C4  UNL     1     -10.526   9.179  14.537  1.00  0.00     0.036 C 
HETATM   32  C5  UNL     1     -11.693   8.190  14.519  1.00  0.00     0.122 C 
BRANCH  32  33
HETATM   33  O1  UNL     1     -12.236   8.070  15.837  1.00  0.00    -0.395 OA
HETATM   34  H8  UNL     1     -12.513   8.957  16.123  1.00  0.00     0.210 HD
ENDBRANCH  32  33
ENDBRANCH   1  25
TORSDOF 9
ENDMDL
MODEL 2
REMARK minimizedAffinity -9.02291203
REMARK  9 active torsions:
REMARK  status: ('A' for Active; 'I' for Inactive)
REMARK    1  A    between atoms: C5_5  and  O1_6 
REMARK    2  A    between atoms: C8_9  and  C9_10 
REMARK    3  A    between atoms: C19_20  and  C20_21 
REMARK    4  A    between atoms: C20_21  and  C22_23 
REMARK    5  A    between atoms: C23_24  and  C24_25 
REMARK    6  A    between atoms: C24_25  and  O2_27 
REMARK    7  A    between atoms: C24_25  and  C26_28 
REMARK    8  A    between atoms: C26_28  and  C28_30 
REMARK    9  A    between atoms: C28_30  and  O3_31 
ROOT
HETATM    1  C9  UNL     1      -5.448   6.815  13.618  1.00  0.00     0.004 C 
HETATM    2  C10 UNL     1      -4.387   5.980  13.578  1.00  0.00    -0.075 C 
HETATM    3  C11 UNL     1      -4.403   4.563  13.067  1.00  0.00     0.034 C 
HETATM    4  C12 UNL     1      -3.326   4.365  12.005  1.00  0.00     0.005 C 
HETATM    5  C13 UNL     1      -1.943   4.649  12.583  1.00  0.00     0.010 C 
HETATM    6  C14 UNL     1      -1.794   6.077  13.178  1.00  0.00    -0.032 C 
HETATM    7  C15 UNL     1      -1.686   7.105  12.034  1.00  0.00     0.016 C 
HETATM    8  C16 UNL     1      -3.032   6.482  14.049  1.00  0.00     0.023 C 
HETATM    9  C17 UNL     1      -2.651   6.067  15.465  1.00  0.00     0.010 C 
HETATM   10  C18 UNL     1      -1.210   6.550  15.536  1.00  0.00     0.007 C 
HETATM   11  C19 UNL     1      -0.586   6.067  14.210  1.00  0.00     0.002 C 
ENDROOT
BRANCH  11  12
HETATM   12  C20 UNL     1       0.738   6.777  13.807  1.00  0.00     0.009 C 
HETATM   13  C21 UNL     1       0.580   8.306  13.867  1.00  0.00     0.014 C 
BRANCH  12  14
HETATM   14  C22 UNL     1       1.247   6.301  12.451  1.00  0.00    -0.023 C 
HETATM   15  C23 UNL     1       1.798   7.037  11.468  1.00  0.00     0.007 C 
BRANCH  15  16
HETATM   16  C24 UNL     1       2.313   6.545  10.122  1.00  0.00     0.077 C 
HETATM   17  C25 UNL     1       3.843   6.497  10.014  1.00  0.00     0.051 C 
BRANCH  16  18
HETATM   18  O2  UNL     1       1.894   5.169  10.043  1.00  0.00    -0.386 OA
HETATM   19  H37 UNL     1       0.929   5.142  10.136  1.00  0.00     0.211 HD
ENDBRANCH  16  18
BRANCH  16  20
HETATM   20  C26 UNL     1       1.619   7.328   8.961  1.00  0.00     0.043 C 
HETATM   21  C27 UNL     1       2.620   8.074   8.063  1.00  0.00     0.015 C 
BRANCH  20  22
HETATM   22  C28 UNL     1       0.501   8.281   9.417  1.00  0.00     0.171 C 
BRANCH  22  23
HETATM   23  O3  UNL     1       0.009   9.072   8.346  1.00  0.00    -0.400 OA
HETATM   24  H44 UNL     1      -0.677   9.657   8.712  1.00  0.00     0.209 HD
ENDBRANCH  22  23
ENDBRANCH  20  22
ENDBRANCH  16  20
ENDBRANCH  15  16
ENDBRANCH  12  14
ENDBRANCH  11  12
BRANCH   1  25
HETATM   25  C8  UNL     1      -6.807   6.539  13.193  1.00  0.00     0.008 C 
HETATM   26  C7  UNL     1      -7.900   6.471  13.980  1.00  0.00    -0.050 C 
HETATM   27  C2  UNL     1      -7.922   6.631  15.429  1.00  0.00    -0.061 C 
HETATM   28  C6  UNL     1      -9.282   6.285  13.371  1.00  0.00     0.070 C 
HETATM   29  C1  UNL     1      -7.245   5.816  16.253  1.00  0.00     0.019 C 
HETATM   30  C3  UNL     1      -8.851   7.696  15.964  1.00  0.00     0.041 C 
HETATM   31  C4  UNL     1      -9.802   8.262  14.904  1.00  0.00     0.036 C 
HETATM   32  C5  UNL     1     -10.379   7.154  14.022  1.00  0.00     0.122 C 
BRANCH  32  33
HETATM   33  O1  UNL     1     -11.240   6.322  14.805  1.00  0.00    -0.395 OA
HETATM   34  H8  UNL     1     -11.935   6.889  15.182  1.00  0.00     0.210 HD
ENDBRANCH  32  33
ENDBRANCH   1  25
TORSDOF 9
ENDMDL
MODEL 3
REMARK minimizedAffinity -8.91756248
REMARK  9 active torsions:
REMARK  status: ('A' for Active; 'I' for Inactive)
REMARK    1  A    between atoms: C5_5  and  O1_6 
REMARK    2  A    between atoms: C8_9  and  C9_10 
REMARK    3  A    between atoms: C19_20  and  C20_21 
REMARK    4  A    between atoms: C20_21  and  C22_23 
REMARK    5  A    between atoms: C23_24  and  C24_25 
REMARK    6  A    between atoms: C24_25  and  O2_27 
REMARK    7  A    between atoms: C24_25  and  C26_28 
REMARK    8  A    between atoms: C26_28  and  C28_30 
REMARK    9  A    between atoms: C28_30  and  O3_31 
ROOT
HETATM    1  C9  UNL     1       0.522   5.315  11.083  1.00  0.00     0.004 C 
HETATM    2  C10 UNL     1      -0.052   5.627  12.264  1.00  0.00    -0.075 C 
HETATM    3  C11 UNL     1       0.682   5.917  13.548  1.00  0.00     0.034 C 
HETATM    4  C12 UNL     1       0.245   7.260  14.123  1.00  0.00     0.005 C 
HETATM    5  C13 UNL     1      -1.251   7.256  14.419  1.00  0.00     0.010 C 
HETATM    6  C14 UNL     1      -2.134   6.938  13.181  1.00  0.00    -0.032 C 
HETATM    7  C15 UNL     1      -2.175   8.164  12.247  1.00  0.00     0.016 C 
HETATM    8  C16 UNL     1      -1.565   5.739  12.346  1.00  0.00     0.023 C 
HETATM    9  C17 UNL     1      -2.269   4.514  12.915  1.00  0.00     0.010 C 
HETATM   10  C18 UNL     1      -3.697   5.025  13.037  1.00  0.00     0.007 C 
HETATM   11  C19 UNL     1      -3.545   6.414  13.691  1.00  0.00     0.002 C 
ENDROOT
BRANCH  11  12
HETATM   12  C20 UNL     1      -4.779   7.350  13.545  1.00  0.00     0.009 C 
HETATM   13  C21 UNL     1      -4.607   8.621  14.395  1.00  0.00     0.014 C 
BRANCH  12  14
HETATM   14  C22 UNL     1      -6.082   6.621  13.852  1.00  0.00    -0.023 C 
HETATM   15  C23 UNL     1      -6.578   5.524  13.251  1.00  0.00     0.007 C 
BRANCH  15  16
HETATM   16  C24 UNL     1      -7.878   4.799  13.577  1.00  0.00     0.077 C 
HETATM   17  C25 UNL     1      -7.905   3.329  13.137  1.00  0.00     0.051 C 
BRANCH  16  18
HETATM   18  O2  UNL     1      -7.929   4.755  15.016  1.00  0.00    -0.386 OA
HETATM   19  H37 UNL     1      -7.885   5.666  15.347  1.00  0.00     0.211 HD
ENDBRANCH  16  18
BRANCH  16  20
HETATM   20  C26 UNL     1      -9.101   5.635  13.077  1.00  0.00     0.043 C 
HETATM   21  C27 UNL     1      -8.948   6.099  11.619  1.00  0.00     0.015 C 
BRANCH  20  22
HETATM   22  C28 UNL     1      -9.467   6.826  13.979  1.00  0.00     0.171 C 
BRANCH  22  23
HETATM   23  O3  UNL     1     -10.329   6.441  15.040  1.00  0.00    -0.400 OA
HETATM   24  H44 UNL     1     -10.529   7.243  15.553  1.00  0.00     0.209 HD
ENDBRANCH  22  23
ENDBRANCH  20  22
ENDBRANCH  16  20
ENDBRANCH  15  16
ENDBRANCH  12  14
ENDBRANCH  11  12
BRANCH   1  25
HETATM   25  C8  UNL     1       1.937   5.188  10.793  1.00  0.00     0.008 C 
HETATM   26  C7  UNL     1       2.823   6.194  10.641  1.00  0.00    -0.050 C 
HETATM   27  C2  UNL     1       2.518   7.619  10.706  1.00  0.00    -0.061 C 
HETATM   28  C6  UNL     1       4.304   5.900  10.452  1.00  0.00     0.070 C 
HETATM   29  C1  UNL     1       1.660   8.210   9.861  1.00  0.00     0.019 C 
HETATM   30  C3  UNL     1       3.319   8.422  11.705  1.00  0.00     0.041 C 
HETATM   31  C4  UNL     1       4.494   7.644  12.309  1.00  0.00     0.036 C 
HETATM   32  C5  UNL     1       5.239   6.840  11.242  1.00  0.00     0.122 C 
BRANCH  32  33
HETATM   33  O1  UNL     1       5.887   7.736  10.335  1.00  0.00    -0.395 OA
HETATM   34  H8  UNL     1       6.487   8.298  10.855  1.00  0.00     0.210 HD
ENDBRANCH  32  33
ENDBRANCH   1  25
TORSDOF 9
ENDMDL
MODEL 4
REMARK minimizedAffinity -8.83824825
REMARK  9 active torsions:
REMARK  status: ('A' for Active; 'I' for Inactive)
REMARK    1  A    between atoms: C5_5  and  O1_6 
REMARK    2  A    between atoms: C8_9  and  C9_10 
REMARK    3  A    between atoms: C19_20  and  C20_21 
REMARK    4  A    between atoms: C20_21  and  C22_23 
REMARK    5  A    between atoms: C23_24  and  C24_25 
REMARK    6  A    between atoms: C24_25  and  O2_27 
REMARK    7  A    between atoms: C24_25  and  C26_28 
REMARK    8  A    between atoms: C26_28  and  C28_30 
REMARK    9  A    between atoms: C28_30  and  O3_31 
ROOT
HETATM    1  C9  UNL     1      -0.624   6.877  11.522  1.00  0.00     0.004 C 
HETATM    2  C10 UNL     1      -1.196   6.141  12.498  1.00  0.00    -0.075 C 
HETATM    3  C11 UNL     1      -0.647   5.945  13.888  1.00  0.00     0.034 C 
HETATM    4  C12 UNL     1      -1.693   6.314  14.934  1.00  0.00     0.005 C 
HETATM    5  C13 UNL     1      -2.935   5.440  14.784  1.00  0.00     0.010 C 
HETATM    6  C14 UNL     1      -3.592   5.521  13.378  1.00  0.00    -0.032 C 
HETATM    7  C15 UNL     1      -4.341   6.861  13.234  1.00  0.00     0.016 C 
HETATM    8  C16 UNL     1      -2.528   5.460  12.228  1.00  0.00     0.023 C 
HETATM    9  C17 UNL     1      -2.432   3.980  11.880  1.00  0.00     0.010 C 
HETATM   10  C18 UNL     1      -3.902   3.584  11.870  1.00  0.00     0.007 C 
HETATM   11  C19 UNL     1      -4.470   4.216  13.158  1.00  0.00     0.002 C 
ENDROOT
BRANCH  11  12
HETATM   12  C20 UNL     1      -6.019   4.350  13.198  1.00  0.00     0.009 C 
HETATM   13  C21 UNL     1      -6.625   4.132  11.801  1.00  0.00     0.014 C 
BRANCH  12  14
HETATM   14  C22 UNL     1      -6.458   5.671  13.819  1.00  0.00    -0.023 C 
HETATM   15  C23 UNL     1      -7.520   5.901  14.613  1.00  0.00     0.007 C 
BRANCH  15  16
HETATM   16  C24 UNL     1      -7.939   7.226  15.237  1.00  0.00     0.077 C 
HETATM   17  C25 UNL     1      -7.890   7.241  16.771  1.00  0.00     0.051 C 
BRANCH  16  18
HETATM   18  O2  UNL     1      -6.929   8.167  14.825  1.00  0.00    -0.386 OA
HETATM   19  H37 UNL     1      -6.900   8.173  13.856  1.00  0.00     0.211 HD
ENDBRANCH  16  18
BRANCH  16  20
HETATM   20  C26 UNL     1      -9.306   7.693  14.640  1.00  0.00     0.043 C 
HETATM   21  C27 UNL     1     -10.243   8.296  15.699  1.00  0.00     0.015 C 
BRANCH  20  22
HETATM   22  C28 UNL     1     -10.045   6.617  13.826  1.00  0.00     0.171 C 
BRANCH  22  23
HETATM   23  O3  UNL     1     -11.336   6.350  14.351  1.00  0.00    -0.400 OA
HETATM   24  H44 UNL     1     -11.733   5.653  13.800  1.00  0.00     0.209 HD
ENDBRANCH  22  23
ENDBRANCH  20  22
ENDBRANCH  16  20
ENDBRANCH  15  16
ENDBRANCH  12  14
ENDBRANCH  11  12
BRANCH   1  25
HETATM   25  C8  UNL     1       0.619   7.621  11.589  1.00  0.00     0.008 C 
HETATM   26  C7  UNL     1       1.809   7.252  11.070  1.00  0.00    -0.050 C 
HETATM   27  C2  UNL     1       2.084   6.005  10.365  1.00  0.00    -0.061 C 
HETATM   28  C6  UNL     1       3.002   8.194  11.122  1.00  0.00     0.070 C 
HETATM   29  C1  UNL     1       1.932   4.803  10.942  1.00  0.00     0.019 C 
HETATM   30  C3  UNL     1       2.672   6.144   8.979  1.00  0.00     0.041 C 
HETATM   31  C4  UNL     1       3.110   7.575   8.645  1.00  0.00     0.036 C 
HETATM   32  C5  UNL     1       3.836   8.226   9.824  1.00  0.00     0.122 C 
BRANCH  32  33
HETATM   33  O1  UNL     1       5.082   7.558  10.044  1.00  0.00    -0.395 OA
HETATM   34  H8  UNL     1       5.596   7.615   9.221  1.00  0.00     0.210 HD
ENDBRANCH  32  33
ENDBRANCH   1  25
TORSDOF 9
ENDMDL
MODEL 5
REMARK minimizedAffinity -8.80936813
REMARK  9 active torsions:
REMARK  status: ('A' for Active; 'I' for Inactive)
REMARK    1  A    between atoms: C5_5  and  O1_6 
REMARK    2  A    between atoms: C8_9  and  C9_10 
REMARK    3  A    between atoms: C19_20  and  C20_21 
REMARK    4  A    between atoms: C20_21  and  C22_23 
REMARK    5  A    between atoms: C23_24  and  C24_25 
REMARK    6  A    between atoms: C24_25  and  O2_27 
REMARK    7  A    between atoms: C24_25  and  C26_28 
REMARK    8  A    between atoms: C26_28  and  C28_30 
REMARK    9  A    between atoms: C28_30  and  O3_31 
ROOT
HETATM    1  C9  UNL     1      -2.400   6.363  12.861  1.00  0.00     0.004 C 
HETATM    2  C10 UNL     1      -3.394   5.924  13.662  1.00  0.00    -0.075 C 
HETATM    3  C11 UNL     1      -3.343   5.848  15.166  1.00  0.00     0.034 C 
HETATM    4  C12 UNL     1      -4.530   6.583  15.780  1.00  0.00     0.005 C 
HETATM    5  C13 UNL     1      -5.844   5.964  15.315  1.00  0.00     0.010 C 
HETATM    6  C14 UNL     1      -6.018   5.948  13.771  1.00  0.00    -0.032 C 
HETATM    7  C15 UNL     1      -6.345   7.370  13.273  1.00  0.00     0.016 C 
HETATM    8  C16 UNL     1      -4.710   5.490  13.038  1.00  0.00     0.023 C 
HETATM    9  C17 UNL     1      -4.876   3.985  12.873  1.00  0.00     0.010 C 
HETATM   10  C18 UNL     1      -6.327   3.895  12.424  1.00  0.00     0.007 C 
HETATM   11  C19 UNL     1      -7.080   4.827  13.397  1.00  0.00     0.002 C 
ENDROOT
BRANCH  11  12
HETATM   12  C20 UNL     1      -8.492   5.274  12.922  1.00  0.00     0.009 C 
HETATM   13  C21 UNL     1      -8.513   5.498  11.400  1.00  0.00     0.014 C 
BRANCH  12  14
HETATM   14  C22 UNL     1      -8.990   6.491  13.692  1.00  0.00    -0.023 C 
HETATM   15  C23 UNL     1     -10.255   6.933  13.814  1.00  0.00     0.007 C 
BRANCH  15  16
HETATM   16  C24 UNL     1     -10.740   8.146  14.598  1.00  0.00     0.077 C 
HETATM   17  C25 UNL     1     -11.493   9.182  13.753  1.00  0.00     0.051 C 
BRANCH  16  18
HETATM   18  O2  UNL     1     -11.725   7.629  15.513  1.00  0.00    -0.386 OA
HETATM   19  H37 UNL     1     -11.303   6.944  16.055  1.00  0.00     0.211 HD
ENDBRANCH  16  18
BRANCH  16  20
HETATM   20  C26 UNL     1      -9.567   8.745  15.442  1.00  0.00     0.043 C 
HETATM   21  C27 UNL     1      -9.192   7.868  16.647  1.00  0.00     0.015 C 
BRANCH  20  22
HETATM   22  C28 UNL     1      -9.787  10.200  15.890  1.00  0.00     0.171 C 
BRANCH  22  23
HETATM   23  O3  UNL     1      -8.898  11.095  15.239  1.00  0.00    -0.400 OA
HETATM   24  H44 UNL     1      -9.083  11.986  15.583  1.00  0.00     0.209 HD
ENDBRANCH  22  23
ENDBRANCH  20  22
ENDBRANCH  16  20
ENDBRANCH  15  16
ENDBRANCH  12  14
ENDBRANCH  11  12
BRANCH   1  25
HETATM   25  C8  UNL     1      -1.090   6.844  13.259  1.00  0.00     0.008 C 
HETATM   26  C7  UNL     1       0.094   6.510  12.706  1.00  0.00    -0.050 C 
HETATM   27  C2  UNL     1       0.290   5.567  11.611  1.00  0.00    -0.061 C 
HETATM   28  C6  UNL     1       1.379   7.186  13.160  1.00  0.00     0.070 C 
HETATM   29  C1  UNL     1      -0.063   4.274  11.702  1.00  0.00     0.019 C 
HETATM   30  C3  UNL     1       1.028   6.097  10.404  1.00  0.00     0.041 C 
HETATM   31  C4  UNL     1       1.666   7.472  10.637  1.00  0.00     0.036 C 
HETATM   32  C5  UNL     1       2.339   7.551  12.008  1.00  0.00     0.122 C 
BRANCH  32  33
HETATM   33  O1  UNL     1       3.468   6.672  12.036  1.00  0.00    -0.395 OA
HETATM   34  H8  UNL     1       4.067   6.939  11.318  1.00  0.00     0.210 HD
ENDBRANCH  32  33
ENDBRANCH   1  25
TORSDOF 9
ENDMDL
MODEL 6
REMARK minimizedAffinity -8.78534603
REMARK  9 active torsions:
REMARK  status: ('A' for Active; 'I' for Inactive)
REMARK    1  A    between atoms: C5_5  and  O1_6 
REMARK    2  A    between atoms: C8_9  and  C9_10 
REMARK    3  A    between atoms: C19_20  and  C20_21 
REMARK    4  A    between atoms: C20_21  and  C22_23 
REMARK    5  A    between atoms: C23_24  and  C24_25 
REMARK    6  A    between atoms: C24_25  and  O2_27 
REMARK    7  A    between atoms: C24_25  and  C26_28 
REMARK    8  A    between atoms: C26_28  and  C28_30 
REMARK    9  A    between atoms: C28_30  and  O3_31 
ROOT
HETATM    1  C9  UNL     1      -6.310   6.149  13.293  1.00  0.00     0.004 C 
HETATM    2  C10 UNL     1      -7.162   6.214  14.338  1.00  0.00    -0.075 C 
HETATM    3  C11 UNL     1      -6.972   5.537  15.672  1.00  0.00     0.034 C 
HETATM    4  C12 UNL     1      -7.086   6.549  16.807  1.00  0.00     0.005 C 
HETATM    5  C13 UNL     1      -8.459   7.212  16.799  1.00  0.00     0.010 C 
HETATM    6  C14 UNL     1      -8.804   7.927  15.464  1.00  0.00    -0.032 C 
HETATM    7  C15 UNL     1      -8.008   9.244  15.363  1.00  0.00     0.016 C 
HETATM    8  C16 UNL     1      -8.420   7.058  14.217  1.00  0.00     0.023 C 
HETATM    9  C17 UNL     1      -9.687   6.277  13.895  1.00  0.00     0.010 C 
HETATM   10  C18 UNL     1     -10.746   7.362  14.039  1.00  0.00     0.007 C 
HETATM   11  C19 UNL     1     -10.383   8.068  15.361  1.00  0.00     0.002 C 
ENDROOT
BRANCH  11  12
HETATM   12  C20 UNL     1     -11.014   9.477  15.551  1.00  0.00     0.009 C 
HETATM   13  C21 UNL     1     -11.037   9.873  17.037  1.00  0.00     0.014 C 
BRANCH  12  14
HETATM   14  C22 UNL     1     -12.392   9.572  14.906  1.00  0.00    -0.023 C 
HETATM   15  C23 UNL     1     -12.699   9.513  13.597  1.00  0.00     0.007 C 
BRANCH  15  16
HETATM   16  C24 UNL     1     -14.084   9.597  12.968  1.00  0.00     0.077 C 
HETATM   17  C25 UNL     1     -14.905  10.815  13.414  1.00  0.00     0.051 C 
BRANCH  16  18
HETATM   18  O2  UNL     1     -13.843   9.808  11.563  1.00  0.00    -0.386 OA
HETATM   19  H37 UNL     1     -13.299   9.074  11.237  1.00  0.00     0.211 HD
ENDBRANCH  16  18
BRANCH  16  20
HETATM   20  C26 UNL     1     -14.832   8.233  13.129  1.00  0.00     0.043 C 
HETATM   21  C27 UNL     1     -13.950   7.026  12.773  1.00  0.00     0.015 C 
BRANCH  20  22
HETATM   22  C28 UNL     1     -16.173   8.152  12.379  1.00  0.00     0.171 C 
BRANCH  22  23
HETATM   23  O3  UNL     1     -16.023   8.425  10.994  1.00  0.00    -0.400 OA
HETATM   24  H44 UNL     1     -16.907   8.373  10.592  1.00  0.00     0.209 HD
ENDBRANCH  22  23
ENDBRANCH  20  22
ENDBRANCH  16  20
ENDBRANCH  15  16
ENDBRANCH  12  14
ENDBRANCH  11  12
BRANCH   1  25
HETATM   25  C8  UNL     1      -5.053   5.427  13.220  1.00  0.00     0.008 C 
HETATM   26  C7  UNL     1      -4.838   4.242  12.613  1.00  0.00    -0.050 C 
HETATM   27  C2  UNL     1      -5.846   3.434  11.935  1.00  0.00    -0.061 C 
HETATM   28  C6  UNL     1      -3.435   3.662  12.521  1.00  0.00     0.070 C 
HETATM   29  C1  UNL     1      -6.922   2.944  12.570  1.00  0.00     0.019 C 
HETATM   30  C3  UNL     1      -5.547   3.072  10.499  1.00  0.00     0.041 C 
HETATM   31  C4  UNL     1      -4.114   3.410  10.071  1.00  0.00     0.036 C 
HETATM   32  C5  UNL     1      -3.103   3.028  11.154  1.00  0.00     0.122 C 
BRANCH  32  33
HETATM   33  O1  UNL     1      -3.064   1.604  11.289  1.00  0.00    -0.395 OA
HETATM   34  H8  UNL     1      -2.829   1.233  10.421  1.00  0.00     0.210 HD
ENDBRANCH  32  33
ENDBRANCH   1  25
TORSDOF 9
ENDMDL
MODEL 7
REMARK minimizedAffinity -8.64618778
REMARK  9 active torsions:
REMARK  status: ('A' for Active; 'I' for Inactive)
REMARK    1  A    between atoms: C5_5  and  O1_6 
REMARK    2  A    between atoms: C8_9  and  C9_10 
REMARK    3  A    between atoms: C19_20  and  C20_21 
REMARK    4  A    between atoms: C20_21  and  C22_23 
REMARK    5  A    between atoms: C23_24  and  C24_25 
REMARK    6  A    between atoms: C24_25  and  O2_27 
REMARK    7  A    between atoms: C24_25  and  C26_28 
REMARK    8  A    between atoms: C26_28  and  C28_30 
REMARK    9  A    between atoms: C28_30  and  O3_31 
ROOT
HETATM    1  C9  UNL     1       1.672   7.386  12.048  1.00  0.00     0.004 C 
HETATM    2  C10 UNL     1       0.388   6.986  11.929  1.00  0.00    -0.075 C 
HETATM    3  C11 UNL     1      -0.100   5.844  11.075  1.00  0.00     0.034 C 
HETATM    4  C12 UNL     1      -0.923   4.867  11.907  1.00  0.00     0.005 C 
HETATM    5  C13 UNL     1      -2.137   5.565  12.511  1.00  0.00     0.010 C 
HETATM    6  C14 UNL     1      -1.779   6.790  13.398  1.00  0.00    -0.032 C 
HETATM    7  C15 UNL     1      -1.208   6.303  14.745  1.00  0.00     0.016 C 
HETATM    8  C16 UNL     1      -0.687   7.697  12.733  1.00  0.00     0.023 C 
HETATM    9  C17 UNL     1      -1.481   8.741  11.959  1.00  0.00     0.010 C 
HETATM   10  C18 UNL     1      -2.562   9.098  12.970  1.00  0.00     0.007 C 
HETATM   11  C19 UNL     1      -3.055   7.732  13.492  1.00  0.00     0.002 C 
ENDROOT
BRANCH  11  12
HETATM   12  C20 UNL     1      -3.840   7.784  14.834  1.00  0.00     0.009 C 
HETATM   13  C21 UNL     1      -2.968   7.286  15.999  1.00  0.00     0.014 C 
BRANCH  12  14
HETATM   14  C22 UNL     1      -5.166   7.038  14.744  1.00  0.00    -0.023 C 
HETATM   15  C23 UNL     1      -5.436   5.909  14.064  1.00  0.00     0.007 C 
BRANCH  15  16
HETATM   16  C24 UNL     1      -6.765   5.167  13.993  1.00  0.00     0.077 C 
HETATM   17  C25 UNL     1      -7.523   5.108  15.325  1.00  0.00     0.051 C 
BRANCH  16  18
HETATM   18  O2  UNL     1      -7.594   5.968  13.130  1.00  0.00    -0.386 OA
HETATM   19  H37 UNL     1      -7.141   6.060  12.277  1.00  0.00     0.211 HD
ENDBRANCH  16  18
BRANCH  16  20
HETATM   20  C26 UNL     1      -6.567   3.773  13.313  1.00  0.00     0.043 C 
HETATM   21  C27 UNL     1      -5.432   3.772  12.276  1.00  0.00     0.015 C 
BRANCH  20  22
HETATM   22  C28 UNL     1      -7.847   3.178  12.701  1.00  0.00     0.171 C 
BRANCH  22  23
HETATM   23  O3  UNL     1      -7.833   1.759  12.718  1.00  0.00    -0.400 OA
HETATM   24  H44 UNL     1      -8.659   1.457  12.304  1.00  0.00     0.209 HD
ENDBRANCH  22  23
ENDBRANCH  20  22
ENDBRANCH  16  20
ENDBRANCH  15  16
ENDBRANCH  12  14
ENDBRANCH  11  12
BRANCH   1  25
HETATM   25  C8  UNL     1       2.838   6.825  11.393  1.00  0.00     0.008 C 
HETATM   26  C7  UNL     1       4.117   7.233  11.533  1.00  0.00    -0.050 C 
HETATM   27  C2  UNL     1       4.573   8.349  12.354  1.00  0.00    -0.061 C 
HETATM   28  C6  UNL     1       5.251   6.469  10.866  1.00  0.00     0.070 C 
HETATM   29  C1  UNL     1       4.165   9.610  12.144  1.00  0.00     0.019 C 
HETATM   30  C3  UNL     1       5.631   8.025  13.384  1.00  0.00     0.041 C 
HETATM   31  C4  UNL     1       6.226   6.621  13.223  1.00  0.00     0.036 C 
HETATM   32  C5  UNL     1       6.501   6.296  11.753  1.00  0.00     0.122 C 
BRANCH  32  33
HETATM   33  O1  UNL     1       7.549   7.140  11.267  1.00  0.00    -0.395 OA
HETATM   34  H8  UNL     1       8.330   6.993  11.827  1.00  0.00     0.210 HD
ENDBRANCH  32  33
ENDBRANCH   1  25
TORSDOF 9
ENDMDL
MODEL 8
REMARK minimizedAffinity -8.60921478
REMARK  9 active torsions:
REMARK  status: ('A' for Active; 'I' for Inactive)
REMARK    1  A    between atoms: C5_5  and  O1_6 
REMARK    2  A    between atoms: C8_9  and  C9_10 
REMARK    3  A    between atoms: C19_20  and  C20_21 
REMARK    4  A    between atoms: C20_21  and  C22_23 
REMARK    5  A    between atoms: C23_24  and  C24_25 
REMARK    6  A    between atoms: C24_25  and  O2_27 
REMARK    7  A    between atoms: C24_25  and  C26_28 
REMARK    8  A    between atoms: C26_28  and  C28_30 
REMARK    9  A    between atoms: C28_30  and  O3_31 
ROOT
HETATM    1  C9  UNL     1      -4.549   7.976  13.283  1.00  0.00     0.004 C 
HETATM    2  C10 UNL     1      -3.440   8.522  13.825  1.00  0.00    -0.075 C 
HETATM    3  C11 UNL     1      -3.414   9.516  14.958  1.00  0.00     0.034 C 
HETATM    4  C12 UNL     1      -2.505   9.025  16.080  1.00  0.00     0.005 C 
HETATM    5  C13 UNL     1      -1.078   8.840  15.573  1.00  0.00     0.010 C 
HETATM    6  C14 UNL     1      -0.960   7.857  14.376  1.00  0.00    -0.032 C 
HETATM    7  C15 UNL     1      -1.122   6.409  14.878  1.00  0.00     0.016 C 
HETATM    8  C16 UNL     1      -2.076   8.102  13.302  1.00  0.00     0.023 C 
HETATM    9  C17 UNL     1      -1.444   9.071  12.312  1.00  0.00     0.010 C 
HETATM   10  C18 UNL     1      -0.056   8.466  12.154  1.00  0.00     0.007 C 
HETATM   11  C19 UNL     1       0.391   8.169  13.601  1.00  0.00     0.002 C 
ENDROOT
BRANCH  11  12
HETATM   12  C20 UNL     1       1.569   7.161  13.732  1.00  0.00     0.009 C 
HETATM   13  C21 UNL     1       2.429   7.480  14.967  1.00  0.00     0.014 C 
BRANCH  12  14
HETATM   14  C22 UNL     1       2.397   7.088  12.454  1.00  0.00    -0.023 C 
HETATM   15  C23 UNL     1       2.311   6.182  11.463  1.00  0.00     0.007 C 
BRANCH  15  16
HETATM   16  C24 UNL     1       3.138   6.128  10.184  1.00  0.00     0.077 C 
HETATM   17  C25 UNL     1       4.483   6.862  10.275  1.00  0.00     0.051 C 
BRANCH  16  18
HETATM   18  O2  UNL     1       3.484   4.740  10.021  1.00  0.00    -0.386 OA
HETATM   19  H37 UNL     1       2.662   4.226   9.988  1.00  0.00     0.211 HD
ENDBRANCH  16  18
BRANCH  16  20
HETATM   20  C26 UNL     1       2.264   6.554   8.960  1.00  0.00     0.043 C 
HETATM   21  C27 UNL     1       2.737   5.920   7.641  1.00  0.00     0.015 C 
BRANCH  20  22
HETATM   22  C28 UNL     1       2.104   8.075   8.792  1.00  0.00     0.171 C 
BRANCH  22  23
HETATM   23  O3  UNL     1       2.710   8.542   7.596  1.00  0.00    -0.400 OA
HETATM   24  H44 UNL     1       2.584   9.506   7.567  1.00  0.00     0.209 HD
ENDBRANCH  22  23
ENDBRANCH  20  22
ENDBRANCH  16  20
ENDBRANCH  15  16
ENDBRANCH  12  14
ENDBRANCH  11  12
BRANCH   1  25
HETATM   25  C8  UNL     1      -5.930   8.221  13.656  1.00  0.00     0.008 C 
HETATM   26  C7  UNL     1      -6.756   7.368  14.295  1.00  0.00    -0.050 C 
HETATM   27  C2  UNL     1      -6.428   6.008  14.709  1.00  0.00    -0.061 C 
HETATM   28  C6  UNL     1      -8.148   7.811  14.722  1.00  0.00     0.070 C 
HETATM   29  C1  UNL     1      -6.077   5.054  13.831  1.00  0.00     0.019 C 
HETATM   30  C3  UNL     1      -6.624   5.696  16.174  1.00  0.00     0.041 C 
HETATM   31  C4  UNL     1      -7.373   6.796  16.935  1.00  0.00     0.036 C 
HETATM   32  C5  UNL     1      -8.559   7.326  16.128  1.00  0.00     0.122 C 
BRANCH  32  33
HETATM   33  O1  UNL     1      -9.548   6.299  16.004  1.00  0.00    -0.395 OA
HETATM   34  H8  UNL     1      -9.807   6.030  16.902  1.00  0.00     0.210 HD
ENDBRANCH  32  33
ENDBRANCH   1  25
TORSDOF 9
ENDMDL
MODEL 9
REMARK minimizedAffinity -8.51552486
REMARK  9 active torsions:
REMARK  status: ('A' for Active; 'I' for Inactive)
REMARK    1  A    between atoms: C5_5  and  O1_6 
REMARK    2  A    between atoms: C8_9  and  C9_10 
REMARK    3  A    between atoms: C19_20  and  C20_21 
REMARK    4  A    between atoms: C20_21  and  C22_23 
REMARK    5  A    between atoms: C23_24  and  C24_25 
REMARK    6  A    between atoms: C24_25  and  O2_27 
REMARK    7  A    between atoms: C24_25  and  C26_28 
REMARK    8  A    between atoms: C26_28  and  C28_30 
REMARK    9  A    between atoms: C28_30  and  O3_31 
ROOT
HETATM    1  C9  UNL     1      -5.381   7.114  13.716  1.00  0.00     0.004 C 
HETATM    2  C10 UNL     1      -4.238   6.396  13.696  1.00  0.00    -0.075 C 
HETATM    3  C11 UNL     1      -4.113   4.953  13.278  1.00  0.00     0.034 C 
HETATM    4  C12 UNL     1      -3.049   4.799  12.197  1.00  0.00     0.005 C 
HETATM    5  C13 UNL     1      -1.691   5.267  12.709  1.00  0.00     0.010 C 
HETATM    6  C14 UNL     1      -1.681   6.740  13.204  1.00  0.00    -0.032 C 
HETATM    7  C15 UNL     1      -1.715   7.693  11.993  1.00  0.00     0.016 C 
HETATM    8  C16 UNL     1      -2.934   7.070  14.088  1.00  0.00     0.023 C 
HETATM    9  C17 UNL     1      -2.474   6.796  15.514  1.00  0.00     0.010 C 
HETATM   10  C18 UNL     1      -1.092   7.433  15.505  1.00  0.00     0.007 C 
HETATM   11  C19 UNL     1      -0.453   6.929  14.194  1.00  0.00     0.002 C 
ENDROOT
BRANCH  11  12
HETATM   12  C20 UNL     1       0.775   7.747  13.702  1.00  0.00     0.009 C 
HETATM   13  C21 UNL     1       0.610   9.239  14.037  1.00  0.00     0.014 C 
BRANCH  12  14
HETATM   14  C22 UNL     1       1.055   7.514  12.222  1.00  0.00    -0.023 C 
HETATM   15  C23 UNL     1       2.176   7.804  11.536  1.00  0.00     0.007 C 
BRANCH  15  16
HETATM   16  C24 UNL     1       2.446   7.554  10.058  1.00  0.00     0.077 C 
HETATM   17  C25 UNL     1       1.311   8.000   9.127  1.00  0.00     0.051 C 
BRANCH  16  18
HETATM   18  O2  UNL     1       3.554   8.414   9.730  1.00  0.00    -0.386 OA
HETATM   19  H37 UNL     1       4.293   8.190  10.316  1.00  0.00     0.211 HD
ENDBRANCH  16  18
BRANCH  16  20
HETATM   20  C26 UNL     1       2.904   6.075   9.837  1.00  0.00     0.043 C 
HETATM   21  C27 UNL     1       2.800   5.632   8.369  1.00  0.00     0.015 C 
BRANCH  20  22
HETATM   22  C28 UNL     1       2.208   5.052  10.752  1.00  0.00     0.171 C 
BRANCH  22  23
HETATM   23  O3  UNL     1       2.442   3.718  10.329  1.00  0.00    -0.400 OA
HETATM   24  H44 UNL     1       1.961   3.133  10.940  1.00  0.00     0.209 HD
ENDBRANCH  22  23
ENDBRANCH  20  22
ENDBRANCH  16  20
ENDBRANCH  15  16
ENDBRANCH  12  14
ENDBRANCH  11  12
BRANCH   1  25
HETATM   25  C8  UNL     1      -6.713   6.666  13.354  1.00  0.00     0.008 C 
HETATM   26  C7  UNL     1      -7.801   6.642  14.153  1.00  0.00    -0.050 C 
HETATM   27  C2  UNL     1      -7.839   7.035  15.557  1.00  0.00    -0.061 C 
HETATM   28  C6  UNL     1      -9.162   6.252  13.596  1.00  0.00     0.070 C 
HETATM   29  C1  UNL     1      -7.102   6.421  16.496  1.00  0.00     0.019 C 
HETATM   30  C3  UNL     1      -8.851   8.097  15.920  1.00  0.00     0.041 C 
HETATM   31  C4  UNL     1      -9.840   8.406  14.790  1.00  0.00     0.036 C 
HETATM   32  C5  UNL     1     -10.326   7.126  14.107  1.00  0.00     0.122 C 
BRANCH  32  33
HETATM   33  O1  UNL     1     -11.121   6.369  15.024  1.00  0.00    -0.395 OA
HETATM   34  H8  UNL     1     -11.859   6.934  15.310  1.00  0.00     0.210 HD
ENDBRANCH  32  33
ENDBRANCH   1  25
TORSDOF 9
ENDMDL
