MODEL 1
REMARK minimizedAffinity -7.92122746
REMARK  6 active torsions:
REMARK  status: ('A' for Active; 'I' for Inactive)
REMARK    1  A    between atoms: C4_5  and  N2_6 
REMARK       I    between atoms: N2_6  and  C5_7 
REMARK    2  A    between atoms: C5_7  and  C6_9 
REMARK    3  A    between atoms: C6_9  and  O3_11 
REMARK    4  A    between atoms: C8_14  and  N3_15 
REMARK       I    between atoms: N3_15  and  C9_16 
REMARK    5  A    between atoms: C9_16  and  C10_18 
REMARK    6  A    between atoms: C10_18  and  O6_20 
ROOT
HETATM    1  N1  UNL     1      -8.563   2.902  12.737  1.00  0.00    -0.191 NA
HETATM    2  C1  UNL     1      -7.504   3.371  12.809  1.00  0.00     0.099 C 
HETATM    3  C2  UNL     1      -6.194   3.952  12.895  1.00  0.00     0.049 A 
HETATM    4  C3  UNL     1      -6.006   5.143  13.607  1.00  0.00     0.054 A 
HETATM    5  C4  UNL     1      -4.737   5.720  13.701  1.00  0.00     0.060 A 
HETATM    6  C7  UNL     1      -3.652   5.077  13.065  1.00  0.00     0.087 A 
HETATM    7 CL1  UNL     1      -2.061   5.781  13.171  1.00  0.00    -0.079 Cl
HETATM    8  C8  UNL     1      -3.830   3.875  12.344  1.00  0.00     0.060 A 
HETATM    9  C11 UNL     1      -5.111   3.323  12.269  1.00  0.00     0.054 A 
ENDROOT
BRANCH   5  10
HETATM   10  N2  UNL     1      -4.491   6.919  14.405  1.00  0.00    -0.316 N 
HETATM   11  C5  UNL     1      -4.610   8.222  13.956  1.00  0.00     0.319 C 
HETATM   12  O1  UNL     1      -4.955   8.602  12.848  1.00  0.00    -0.261 OA
HETATM   13  H2  UNL     1      -4.185   6.830  15.374  1.00  0.00     0.169 HD
BRANCH  11  14
HETATM   14  C6  UNL     1      -4.242   9.263  15.054  1.00  0.00     0.237 C 
HETATM   15  O2  UNL     1      -3.905  10.413  14.868  1.00  0.00    -0.643 OA
BRANCH  14  16
HETATM   16  O3  UNL     1      -4.337   8.742  16.293  1.00  0.00    -0.769 OA
HETATM   17  H3  UNL     1      -4.082   9.495  16.872  1.00  0.00     0.168 HD
ENDBRANCH  14  16
ENDBRANCH  11  14
ENDBRANCH   5  10
BRANCH   8  18
HETATM   18  N3  UNL     1      -2.703   3.281  11.731  1.00  0.00    -0.316 N 
HETATM   19  C9  UNL     1      -2.473   1.943  11.471  1.00  0.00     0.319 C 
HETATM   20  O4  UNL     1      -3.199   0.995  11.721  1.00  0.00    -0.261 OA
HETATM   21  H4  UNL     1      -1.958   3.915  11.438  1.00  0.00     0.169 HD
BRANCH  19  22
HETATM   22  C10 UNL     1      -1.099   1.733  10.779  1.00  0.00     0.237 C 
HETATM   23  O5  UNL     1      -0.060   2.161  11.251  1.00  0.00    -0.643 OA
BRANCH  22  24
HETATM   24  O6  UNL     1      -1.153   1.052   9.635  1.00  0.00    -0.769 OA
HETATM   25  H5  UNL     1      -0.231   0.996   9.313  1.00  0.00     0.168 HD
ENDBRANCH  22  24
ENDBRANCH  19  22
ENDBRANCH   8  18
TORSDOF 6
ENDMDL
MODEL 2
REMARK minimizedAffinity -7.43833494
REMARK  6 active torsions:
REMARK  status: ('A' for Active; 'I' for Inactive)
REMARK    1  A    between atoms: C4_5  and  N2_6 
REMARK       I    between atoms: N2_6  and  C5_7 
REMARK    2  A    between atoms: C5_7  and  C6_9 
REMARK    3  A    between atoms: C6_9  and  O3_11 
REMARK    4  A    between atoms: C8_14  and  N3_15 
REMARK       I    between atoms: N3_15  and  C9_16 
REMARK    5  A    between atoms: C9_16  and  C10_18 
REMARK    6  A    between atoms: C10_18  and  O6_20 
ROOT
HETATM    1  N1  UNL     1      -8.700   3.227  12.811  1.00  0.00    -0.191 NA
HETATM    2  C1  UNL     1      -7.610   3.611  12.926  1.00  0.00     0.099 C 
HETATM    3  C2  UNL     1      -6.264   4.087  13.069  1.00  0.00     0.049 A 
HETATM    4  C3  UNL     1      -5.202   3.343  12.539  1.00  0.00     0.054 A 
HETATM    5  C4  UNL     1      -3.886   3.794  12.670  1.00  0.00     0.060 A 
HETATM    6  C7  UNL     1      -3.652   5.011  13.346  1.00  0.00     0.087 A 
HETATM    7 CL1  UNL     1      -2.016   5.590  13.520  1.00  0.00    -0.079 Cl
HETATM    8  C8  UNL     1      -4.714   5.770  13.885  1.00  0.00     0.060 A 
HETATM    9  C11 UNL     1      -6.019   5.293  13.738  1.00  0.00     0.054 A 
ENDROOT
BRANCH   5  10
HETATM   10  N2  UNL     1      -2.779   3.084  12.156  1.00  0.00    -0.316 N 
HETATM   11  C5  UNL     1      -2.338   3.006  10.847  1.00  0.00     0.319 C 
HETATM   12  O1  UNL     1      -2.821   3.542   9.863  1.00  0.00    -0.261 OA
HETATM   13  H2  UNL     1      -2.221   2.553  12.825  1.00  0.00     0.169 HD
BRANCH  11  14
HETATM   14  C6  UNL     1      -1.071   2.111  10.701  1.00  0.00     0.237 C 
HETATM   15  O2  UNL     1      -0.054   2.198  11.354  1.00  0.00    -0.643 OA
BRANCH  14  16
HETATM   16  O3  UNL     1      -1.219   1.185   9.734  1.00  0.00    -0.769 OA
HETATM   17  H3  UNL     1      -0.362   0.703   9.754  1.00  0.00     0.168 HD
ENDBRANCH  14  16
ENDBRANCH  11  14
ENDBRANCH   5  10
BRANCH   8  18
HETATM   18  N3  UNL     1      -4.412   6.980  14.550  1.00  0.00    -0.316 N 
HETATM   19  C9  UNL     1      -4.515   8.273  14.069  1.00  0.00     0.319 C 
HETATM   20  O4  UNL     1      -4.889   8.634  12.965  1.00  0.00    -0.261 OA
HETATM   21  H4  UNL     1      -4.075   6.900  15.510  1.00  0.00     0.169 HD
BRANCH  19  22
HETATM   22  C10 UNL     1      -4.078   9.307  15.141  1.00  0.00     0.237 C 
HETATM   23  O5  UNL     1      -3.203   9.071  15.955  1.00  0.00    -0.643 OA
BRANCH  22  24
HETATM   24  O6  UNL     1      -4.736  10.465  15.094  1.00  0.00    -0.769 OA
HETATM   25  H5  UNL     1      -4.365  11.014  15.814  1.00  0.00     0.168 HD
ENDBRANCH  22  24
ENDBRANCH  19  22
ENDBRANCH   8  18
TORSDOF 6
ENDMDL
MODEL 3
REMARK minimizedAffinity -7.22437191
REMARK  6 active torsions:
REMARK  status: ('A' for Active; 'I' for Inactive)
REMARK    1  A    between atoms: C4_5  and  N2_6 
REMARK       I    between atoms: N2_6  and  C5_7 
REMARK    2  A    between atoms: C5_7  and  C6_9 
REMARK    3  A    between atoms: C6_9  and  O3_11 
REMARK    4  A    between atoms: C8_14  and  N3_15 
REMARK       I    between atoms: N3_15  and  C9_16 
REMARK    5  A    between atoms: C9_16  and  C10_18 
REMARK    6  A    between atoms: C10_18  and  O6_20 
ROOT
HETATM    1  N1  UNL     1      -0.042   2.196  11.223  1.00  0.00    -0.191 NA
HETATM    2  C1  UNL     1      -0.849   2.938  11.603  1.00  0.00     0.099 C 
HETATM    3  C2  UNL     1      -1.846   3.858  12.072  1.00  0.00     0.049 A 
HETATM    4  C3  UNL     1      -3.162   3.420  12.265  1.00  0.00     0.054 A 
HETATM    5  C4  UNL     1      -4.144   4.303  12.721  1.00  0.00     0.060 A 
HETATM    6  C7  UNL     1      -3.780   5.643  12.983  1.00  0.00     0.087 A 
HETATM    7 CL1  UNL     1      -4.991   6.760  13.553  1.00  0.00    -0.079 Cl
HETATM    8  C8  UNL     1      -2.456   6.096  12.792  1.00  0.00     0.060 A 
HETATM    9  C11 UNL     1      -1.498   5.189  12.335  1.00  0.00     0.054 A 
ENDROOT
BRANCH   5  10
HETATM   10  N2  UNL     1      -5.485   3.915  12.932  1.00  0.00    -0.316 N 
HETATM   11  C5  UNL     1      -6.277   3.093  12.151  1.00  0.00     0.319 C 
HETATM   12  O1  UNL     1      -5.973   2.531  11.111  1.00  0.00    -0.261 OA
HETATM   13  H2  UNL     1      -5.945   4.281  13.766  1.00  0.00     0.169 HD
BRANCH  11  14
HETATM   14  C6  UNL     1      -7.708   2.916  12.740  1.00  0.00     0.237 C 
HETATM   15  O2  UNL     1      -8.382   3.781  13.258  1.00  0.00    -0.643 OA
BRANCH  14  16
HETATM   16  O3  UNL     1      -8.152   1.651  12.613  1.00  0.00    -0.769 OA
HETATM   17  H3  UNL     1      -9.047   1.686  13.018  1.00  0.00     0.168 HD
ENDBRANCH  14  16
ENDBRANCH  11  14
ENDBRANCH   5  10
BRANCH   8  18
HETATM   18  N3  UNL     1      -2.157   7.448  13.073  1.00  0.00    -0.316 N 
HETATM   19  C9  UNL     1      -1.257   7.956  13.992  1.00  0.00     0.319 C 
HETATM   20  O4  UNL     1      -0.533   7.336  14.753  1.00  0.00    -0.261 OA
HETATM   21  H4  UNL     1      -2.666   8.149  12.532  1.00  0.00     0.169 HD
BRANCH  19  22
HETATM   22  C10 UNL     1      -1.247   9.509  13.970  1.00  0.00     0.237 C 
HETATM   23  O5  UNL     1      -1.216  10.174  14.990  1.00  0.00    -0.643 OA
BRANCH  22  24
HETATM   24  O6  UNL     1      -1.276  10.045  12.750  1.00  0.00    -0.769 OA
HETATM   25  H5  UNL     1      -1.267  11.014  12.883  1.00  0.00     0.168 HD
ENDBRANCH  22  24
ENDBRANCH  19  22
ENDBRANCH   8  18
TORSDOF 6
ENDMDL
MODEL 4
REMARK minimizedAffinity -7.18392229
REMARK  6 active torsions:
REMARK  status: ('A' for Active; 'I' for Inactive)
REMARK    1  A    between atoms: C4_5  and  N2_6 
REMARK       I    between atoms: N2_6  and  C5_7 
REMARK    2  A    between atoms: C5_7  and  C6_9 
REMARK    3  A    between atoms: C6_9  and  O3_11 
REMARK    4  A    between atoms: C8_14  and  N3_15 
REMARK       I    between atoms: N3_15  and  C9_16 
REMARK    5  A    between atoms: C9_16  and  C10_18 
REMARK    6  A    between atoms: C10_18  and  O6_20 
ROOT
HETATM    1  N1  UNL     1      -0.690   0.622  10.189  1.00  0.00    -0.191 NA
HETATM    2  C1  UNL     1      -1.197   1.543  10.681  1.00  0.00     0.099 C 
HETATM    3  C2  UNL     1      -1.825   2.681  11.290  1.00  0.00     0.049 A 
HETATM    4  C3  UNL     1      -1.089   3.855  11.495  1.00  0.00     0.054 A 
HETATM    5  C4  UNL     1      -1.687   4.971  12.087  1.00  0.00     0.060 A 
HETATM    6  C7  UNL     1      -3.043   4.889  12.471  1.00  0.00     0.087 A 
HETATM    7 CL1  UNL     1      -3.807   6.271  13.211  1.00  0.00    -0.079 Cl
HETATM    8  C8  UNL     1      -3.795   3.710  12.269  1.00  0.00     0.060 A 
HETATM    9  C11 UNL     1      -3.169   2.611  11.676  1.00  0.00     0.054 A 
ENDROOT
BRANCH   5  10
HETATM   10  N2  UNL     1      -0.993   6.179  12.317  1.00  0.00    -0.316 N 
HETATM   11  C5  UNL     1      -0.233   6.919  11.430  1.00  0.00     0.319 C 
HETATM   12  O1  UNL     1      -0.006   6.674  10.256  1.00  0.00    -0.261 OA
HETATM   13  H2  UNL     1      -1.050   6.571  13.258  1.00  0.00     0.169 HD
BRANCH  11  14
HETATM   14  C6  UNL     1       0.368   8.198  12.086  1.00  0.00     0.237 C 
HETATM   15  O2  UNL     1       1.510   8.338  12.468  1.00  0.00    -0.643 OA
BRANCH  14  16
HETATM   16  O3  UNL     1      -0.545   9.183  12.196  1.00  0.00    -0.769 OA
HETATM   17  H3  UNL     1      -0.038   9.911  12.618  1.00  0.00     0.168 HD
ENDBRANCH  14  16
ENDBRANCH  11  14
ENDBRANCH   5  10
BRANCH   8  18
HETATM   18  N3  UNL     1      -5.148   3.693  12.676  1.00  0.00    -0.316 N 
HETATM   19  C9  UNL     1      -6.165   2.861  12.243  1.00  0.00     0.319 C 
HETATM   20  O4  UNL     1      -6.100   1.968  11.415  1.00  0.00    -0.261 OA
HETATM   21  H4  UNL     1      -5.420   4.379  13.382  1.00  0.00     0.169 HD
BRANCH  19  22
HETATM   22  C10 UNL     1      -7.503   3.190  12.958  1.00  0.00     0.237 C 
HETATM   23  O5  UNL     1      -7.594   4.068  13.798  1.00  0.00    -0.643 OA
BRANCH  22  24
HETATM   24  O6  UNL     1      -8.534   2.434  12.578  1.00  0.00    -0.769 OA
HETATM   25  H5  UNL     1      -9.300   2.744  13.101  1.00  0.00     0.168 HD
ENDBRANCH  22  24
ENDBRANCH  19  22
ENDBRANCH   8  18
TORSDOF 6
ENDMDL
MODEL 5
REMARK minimizedAffinity -7.15875864
REMARK  6 active torsions:
REMARK  status: ('A' for Active; 'I' for Inactive)
REMARK    1  A    between atoms: C4_5  and  N2_6 
REMARK       I    between atoms: N2_6  and  C5_7 
REMARK    2  A    between atoms: C5_7  and  C6_9 
REMARK    3  A    between atoms: C6_9  and  O3_11 
REMARK    4  A    between atoms: C8_14  and  N3_15 
REMARK       I    between atoms: N3_15  and  C9_16 
REMARK    5  A    between atoms: C9_16  and  C10_18 
REMARK    6  A    between atoms: C10_18  and  O6_20 
ROOT
HETATM    1  N1  UNL     1      -0.393   0.846  10.618  1.00  0.00    -0.191 NA
HETATM    2  C1  UNL     1      -0.990   1.754  11.025  1.00  0.00     0.099 C 
HETATM    3  C2  UNL     1      -1.728   2.879  11.527  1.00  0.00     0.049 A 
HETATM    4  C3  UNL     1      -3.085   2.736  11.841  1.00  0.00     0.054 A 
HETATM    5  C4  UNL     1      -3.816   3.822  12.331  1.00  0.00     0.060 A 
HETATM    6  C7  UNL     1      -3.158   5.060  12.501  1.00  0.00     0.087 A 
HETATM    7 CL1  UNL     1      -4.054   6.425  13.112  1.00  0.00    -0.079 Cl
HETATM    8  C8  UNL     1      -1.790   5.215  12.188  1.00  0.00     0.060 A 
HETATM    9  C11 UNL     1      -1.086   4.112  11.700  1.00  0.00     0.054 A 
ENDROOT
BRANCH   5  10
HETATM   10  N2  UNL     1      -5.186   3.734  12.664  1.00  0.00    -0.316 N 
HETATM   11  C5  UNL     1      -6.159   2.925  12.105  1.00  0.00     0.319 C 
HETATM   12  O1  UNL     1      -6.027   2.115  11.202  1.00  0.00    -0.261 OA
HETATM   13  H2  UNL     1      -5.518   4.342  13.414  1.00  0.00     0.169 HD
BRANCH  11  14
HETATM   14  C6  UNL     1      -7.555   3.136  12.763  1.00  0.00     0.237 C 
HETATM   15  O2  UNL     1      -7.939   4.141  13.321  1.00  0.00    -0.643 OA
BRANCH  14  16
HETATM   16  O3  UNL     1      -8.335   2.044  12.648  1.00  0.00    -0.769 OA
HETATM   17  H3  UNL     1      -9.166   2.315  13.098  1.00  0.00     0.168 HD
ENDBRANCH  14  16
ENDBRANCH  11  14
ENDBRANCH   5  10
BRANCH   8  18
HETATM   18  N3  UNL     1      -1.191   6.480  12.382  1.00  0.00    -0.316 N 
HETATM   19  C9  UNL     1      -0.394   7.196  11.507  1.00  0.00     0.319 C 
HETATM   20  O4  UNL     1      -0.041   6.878  10.384  1.00  0.00    -0.261 OA
HETATM   21  H4  UNL     1      -1.365   6.933  13.280  1.00  0.00     0.169 HD
BRANCH  19  22
HETATM   22  C10 UNL     1       0.051   8.547  12.130  1.00  0.00     0.237 C 
HETATM   23  O5  UNL     1      -0.489   9.019  13.115  1.00  0.00    -0.643 OA
BRANCH  22  24
HETATM   24  O6  UNL     1       1.065   9.140  11.500  1.00  0.00    -0.769 OA
HETATM   25  H5  UNL     1       1.238   9.968  11.991  1.00  0.00     0.168 HD
ENDBRANCH  22  24
ENDBRANCH  19  22
ENDBRANCH   8  18
TORSDOF 6
ENDMDL
MODEL 6
REMARK minimizedAffinity -7.15790129
REMARK  6 active torsions:
REMARK  status: ('A' for Active; 'I' for Inactive)
REMARK    1  A    between atoms: C4_5  and  N2_6 
REMARK       I    between atoms: N2_6  and  C5_7 
REMARK    2  A    between atoms: C5_7  and  C6_9 
REMARK    3  A    between atoms: C6_9  and  O3_11 
REMARK    4  A    between atoms: C8_14  and  N3_15 
REMARK       I    between atoms: N3_15  and  C9_16 
REMARK    5  A    between atoms: C9_16  and  C10_18 
REMARK    6  A    between atoms: C10_18  and  O6_20 
ROOT
HETATM    1  N1  UNL     1      -8.112   2.890  13.078  1.00  0.00    -0.191 NA
HETATM    2  C1  UNL     1      -7.026   3.205  12.816  1.00  0.00     0.099 C 
HETATM    3  C2  UNL     1      -5.683   3.597  12.495  1.00  0.00     0.049 A 
HETATM    4  C3  UNL     1      -4.832   2.694  11.846  1.00  0.00     0.054 A 
HETATM    5  C4  UNL     1      -3.522   3.061  11.526  1.00  0.00     0.060 A 
HETATM    6  C7  UNL     1      -3.078   4.356  11.871  1.00  0.00     0.087 A 
HETATM    7 CL1  UNL     1      -1.447   4.832  11.481  1.00  0.00    -0.079 Cl
HETATM    8  C8  UNL     1      -3.928   5.275  12.527  1.00  0.00     0.060 A 
HETATM    9  C11 UNL     1      -5.232   4.879  12.833  1.00  0.00     0.054 A 
ENDROOT
BRANCH   5  10
HETATM   10  N2  UNL     1      -2.622   2.191  10.872  1.00  0.00    -0.316 N 
HETATM   11  C5  UNL     1      -1.316   1.889  11.211  1.00  0.00     0.319 C 
HETATM   12  O1  UNL     1      -0.671   2.317  12.155  1.00  0.00    -0.261 OA
HETATM   13  H2  UNL     1      -2.966   1.716  10.037  1.00  0.00     0.169 HD
BRANCH  11  14
HETATM   14  C6  UNL     1      -0.666   0.876  10.222  1.00  0.00     0.237 C 
HETATM   15  O2  UNL     1      -0.810   0.858   9.018  1.00  0.00    -0.643 OA
BRANCH  14  16
HETATM   16  O3  UNL     1       0.110  -0.023  10.859  1.00  0.00    -0.769 OA
HETATM   17  H3  UNL     1       0.447  -0.585  10.127  1.00  0.00     0.168 HD
ENDBRANCH  14  16
ENDBRANCH  11  14
ENDBRANCH   5  10
BRANCH   8  18
HETATM   18  N3  UNL     1      -3.423   6.556  12.844  1.00  0.00    -0.316 N 
HETATM   19  C9  UNL     1      -3.161   7.091  14.092  1.00  0.00     0.319 C 
HETATM   20  O4  UNL     1      -3.316   6.563  15.181  1.00  0.00    -0.261 OA
HETATM   21  H4  UNL     1      -3.220   7.173  12.056  1.00  0.00     0.169 HD
BRANCH  19  22
HETATM   22  C10 UNL     1      -2.611   8.539  13.978  1.00  0.00     0.237 C 
HETATM   23  O5  UNL     1      -3.032   9.451  14.666  1.00  0.00    -0.643 OA
BRANCH  22  24
HETATM   24  O6  UNL     1      -1.646   8.694  13.071  1.00  0.00    -0.769 OA
HETATM   25  H5  UNL     1      -1.397   9.640  13.105  1.00  0.00     0.168 HD
ENDBRANCH  22  24
ENDBRANCH  19  22
ENDBRANCH   8  18
TORSDOF 6
ENDMDL
MODEL 7
REMARK minimizedAffinity -7.13288403
REMARK  6 active torsions:
REMARK  status: ('A' for Active; 'I' for Inactive)
REMARK    1  A    between atoms: C4_5  and  N2_6 
REMARK       I    between atoms: N2_6  and  C5_7 
REMARK    2  A    between atoms: C5_7  and  C6_9 
REMARK    3  A    between atoms: C6_9  and  O3_11 
REMARK    4  A    between atoms: C8_14  and  N3_15 
REMARK       I    between atoms: N3_15  and  C9_16 
REMARK    5  A    between atoms: C9_16  and  C10_18 
REMARK    6  A    between atoms: C10_18  and  O6_20 
ROOT
HETATM    1  N1  UNL     1      -5.972   1.245  11.010  1.00  0.00    -0.191 NA
HETATM    2  C1  UNL     1      -5.844   2.226  11.617  1.00  0.00     0.099 C 
HETATM    3  C2  UNL     1      -5.688   3.438  12.370  1.00  0.00     0.049 A 
HETATM    4  C3  UNL     1      -4.409   3.856  12.760  1.00  0.00     0.054 A 
HETATM    5  C4  UNL     1      -4.241   5.034  13.492  1.00  0.00     0.060 A 
HETATM    6  C7  UNL     1      -5.385   5.791  13.828  1.00  0.00     0.087 A 
HETATM    7 CL1  UNL     1      -5.196   7.264  14.740  1.00  0.00    -0.079 Cl
HETATM    8  C8  UNL     1      -6.679   5.380  13.439  1.00  0.00     0.060 A 
HETATM    9  C11 UNL     1      -6.815   4.197  12.709  1.00  0.00     0.054 A 
ENDROOT
BRANCH   5  10
HETATM   10  N2  UNL     1      -2.976   5.501  13.911  1.00  0.00    -0.316 N 
HETATM   11  C5  UNL     1      -1.809   5.603  13.177  1.00  0.00     0.319 C 
HETATM   12  O1  UNL     1      -1.635   5.308  12.005  1.00  0.00    -0.261 OA
HETATM   13  H2  UNL     1      -2.897   5.807  14.881  1.00  0.00     0.169 HD
BRANCH  11  14
HETATM   14  C6  UNL     1      -0.627   6.171  14.018  1.00  0.00     0.237 C 
HETATM   15  O2  UNL     1       0.164   7.018  13.662  1.00  0.00    -0.643 OA
BRANCH  14  16
HETATM   16  O3  UNL     1      -0.563   5.607  15.240  1.00  0.00    -0.769 OA
HETATM   17  H3  UNL     1       0.212   6.051  15.650  1.00  0.00     0.168 HD
ENDBRANCH  14  16
ENDBRANCH  11  14
ENDBRANCH   5  10
BRANCH   8  18
HETATM   18  N3  UNL     1      -7.783   6.183  13.807  1.00  0.00    -0.316 N 
HETATM   19  C9  UNL     1      -8.425   6.253  15.029  1.00  0.00     0.319 C 
HETATM   20  O4  UNL     1      -8.170   5.628  16.046  1.00  0.00    -0.261 OA
HETATM   21  H4  UNL     1      -8.160   6.797  13.083  1.00  0.00     0.169 HD
BRANCH  19  22
HETATM   22  C10 UNL     1      -9.594   7.274  14.992  1.00  0.00     0.237 C 
HETATM   23  O5  UNL     1      -9.408   8.473  14.892  1.00  0.00    -0.643 OA
BRANCH  22  24
HETATM   24  O6  UNL     1     -10.808   6.728  15.080  1.00  0.00    -0.769 OA
HETATM   25  H5  UNL     1     -11.440   7.475  15.045  1.00  0.00     0.168 HD
ENDBRANCH  22  24
ENDBRANCH  19  22
ENDBRANCH   8  18
TORSDOF 6
ENDMDL
MODEL 8
REMARK minimizedAffinity -7.11562204
REMARK  6 active torsions:
REMARK  status: ('A' for Active; 'I' for Inactive)
REMARK    1  A    between atoms: C4_5  and  N2_6 
REMARK       I    between atoms: N2_6  and  C5_7 
REMARK    2  A    between atoms: C5_7  and  C6_9 
REMARK    3  A    between atoms: C6_9  and  O3_11 
REMARK    4  A    between atoms: C8_14  and  N3_15 
REMARK       I    between atoms: N3_15  and  C9_16 
REMARK    5  A    between atoms: C9_16  and  C10_18 
REMARK    6  A    between atoms: C10_18  and  O6_20 
ROOT
HETATM    1  N1  UNL     1      -0.018   1.617  11.043  1.00  0.00    -0.191 NA
HETATM    2  C1  UNL     1      -0.755   2.439  11.401  1.00  0.00     0.099 C 
HETATM    3  C2  UNL     1      -1.668   3.454  11.845  1.00  0.00     0.049 A 
HETATM    4  C3  UNL     1      -1.230   4.779  11.965  1.00  0.00     0.054 A 
HETATM    5  C4  UNL     1      -2.106   5.778  12.396  1.00  0.00     0.060 A 
HETATM    6  C7  UNL     1      -3.437   5.423  12.707  1.00  0.00     0.087 A 
HETATM    7 CL1  UNL     1      -4.546   6.656  13.246  1.00  0.00    -0.079 Cl
HETATM    8  C8  UNL     1      -3.890   4.090  12.590  1.00  0.00     0.060 A 
HETATM    9  C11 UNL     1      -2.990   3.114  12.157  1.00  0.00     0.054 A 
ENDROOT
BRANCH   5  10
HETATM   10  N2  UNL     1      -1.718   7.129  12.535  1.00  0.00    -0.316 N 
HETATM   11  C5  UNL     1      -2.411   8.168  13.129  1.00  0.00     0.319 C 
HETATM   12  O1  UNL     1      -3.508   8.126  13.661  1.00  0.00    -0.261 OA
HETATM   13  H2  UNL     1      -0.809   7.389  12.150  1.00  0.00     0.169 HD
BRANCH  11  14
HETATM   14  C6  UNL     1      -1.626   9.513  13.071  1.00  0.00     0.237 C 
HETATM   15  O2  UNL     1      -1.945  10.552  13.609  1.00  0.00    -0.643 OA
BRANCH  14  16
HETATM   16  O3  UNL     1      -0.505   9.409  12.331  1.00  0.00    -0.769 OA
HETATM   17  H3  UNL     1      -0.121  10.312  12.382  1.00  0.00     0.168 HD
ENDBRANCH  14  16
ENDBRANCH  11  14
ENDBRANCH   5  10
BRANCH   8  18
HETATM   18  N3  UNL     1      -5.234   3.802  12.916  1.00  0.00    -0.316 N 
HETATM   19  C9  UNL     1      -6.202   3.210  12.124  1.00  0.00     0.319 C 
HETATM   20  O4  UNL     1      -6.091   2.816  10.975  1.00  0.00    -0.261 OA
HETATM   21  H4  UNL     1      -5.540   4.058  13.856  1.00  0.00     0.169 HD
BRANCH  19  22
HETATM   22  C10 UNL     1      -7.549   3.082  12.885  1.00  0.00     0.237 C 
HETATM   23  O5  UNL     1      -7.967   3.958  13.622  1.00  0.00    -0.643 OA
BRANCH  22  24
HETATM   24  O6  UNL     1      -8.203   1.941  12.664  1.00  0.00    -0.769 OA
HETATM   25  H5  UNL     1      -9.021   1.994  13.198  1.00  0.00     0.168 HD
ENDBRANCH  22  24
ENDBRANCH  19  22
ENDBRANCH   8  18
TORSDOF 6
ENDMDL
MODEL 9
REMARK minimizedAffinity -7.11466122
REMARK  6 active torsions:
REMARK  status: ('A' for Active; 'I' for Inactive)
REMARK    1  A    between atoms: C4_5  and  N2_6 
REMARK       I    between atoms: N2_6  and  C5_7 
REMARK    2  A    between atoms: C5_7  and  C6_9 
REMARK    3  A    between atoms: C6_9  and  O3_11 
REMARK    4  A    between atoms: C8_14  and  N3_15 
REMARK       I    between atoms: N3_15  and  C9_16 
REMARK    5  A    between atoms: C9_16  and  C10_18 
REMARK    6  A    between atoms: C10_18  and  O6_20 
ROOT
HETATM    1  N1  UNL     1      -6.088   1.893  11.329  1.00  0.00    -0.191 NA
HETATM    2  C1  UNL     1      -6.260   2.838  11.982  1.00  0.00     0.099 C 
HETATM    3  C2  UNL     1      -6.471   4.007  12.788  1.00  0.00     0.049 A 
HETATM    4  C3  UNL     1      -7.773   4.469  13.015  1.00  0.00     0.054 A 
HETATM    5  C4  UNL     1      -7.995   5.605  13.798  1.00  0.00     0.060 A 
HETATM    6  C7  UNL     1      -6.881   6.273  14.352  1.00  0.00     0.087 A 
HETATM    7 CL1  UNL     1      -7.137   7.692  15.332  1.00  0.00    -0.079 Cl
HETATM    8  C8  UNL     1      -5.563   5.815  14.130  1.00  0.00     0.060 A 
HETATM    9  C11 UNL     1      -5.374   4.677  13.343  1.00  0.00     0.054 A 
ENDROOT
BRANCH   5  10
HETATM   10  N2  UNL     1      -9.285   6.115  14.059  1.00  0.00    -0.316 N 
HETATM   11  C5  UNL     1     -10.196   6.652  13.167  1.00  0.00     0.319 C 
HETATM   12  O1  UNL     1     -10.067   6.795  11.962  1.00  0.00    -0.261 OA
HETATM   13  H2  UNL     1      -9.603   6.091  15.029  1.00  0.00     0.169 HD
BRANCH  11  14
HETATM   14  C6  UNL     1     -11.514   7.102  13.866  1.00  0.00     0.237 C 
HETATM   15  O2  UNL     1     -12.069   8.171  13.729  1.00  0.00    -0.643 OA
BRANCH  14  16
HETATM   16  O3  UNL     1     -12.006   6.144  14.676  1.00  0.00    -0.769 OA
HETATM   17  H3  UNL     1     -12.820   6.557  15.041  1.00  0.00     0.168 HD
ENDBRANCH  14  16
ENDBRANCH  11  14
ENDBRANCH   5  10
BRANCH   8  18
HETATM   18  N3  UNL     1      -4.492   6.528  14.714  1.00  0.00    -0.316 N 
HETATM   19  C9  UNL     1      -3.163   6.157  14.809  1.00  0.00     0.319 C 
HETATM   20  O4  UNL     1      -2.642   5.130  14.407  1.00  0.00    -0.261 OA
HETATM   21  H4  UNL     1      -4.718   7.438  15.121  1.00  0.00     0.169 HD
BRANCH  19  22
HETATM   22  C10 UNL     1      -2.325   7.246  15.532  1.00  0.00     0.237 C 
HETATM   23  O5  UNL     1      -1.437   7.863  14.971  1.00  0.00    -0.643 OA
BRANCH  22  24
HETATM   24  O6  UNL     1      -2.659   7.445  16.807  1.00  0.00    -0.769 OA
HETATM   25  H5  UNL     1      -2.060   8.146  17.134  1.00  0.00     0.168 HD
ENDBRANCH  22  24
ENDBRANCH  19  22
ENDBRANCH   8  18
TORSDOF 6
ENDMDL
