MODEL 1
REMARK minimizedAffinity -8.53102303
REMARK CNNscore 0.342345715
REMARK CNNaffinity 7.13818359
REMARK  9 active torsions:
REMARK  status: ('A' for Active; 'I' for Inactive)
REMARK    1  A    between atoms: C13_13  and  S1_14 
REMARK    2  A    between atoms: C22_26  and  C23_27 
REMARK    3  A    between atoms: C23_27  and  O4_28 
REMARK    4  A    between atoms: C29_34  and  O5_35 
REMARK    5  A    between atoms: C41_48  and  C42_49 
REMARK    6  A    between atoms: C41_48  and  N1_58 
REMARK    7  A    between atoms: C42_49  and  C43_50 
REMARK    8  A    between atoms: C43_50  and  C44_51 
REMARK    9  A    between atoms: C44_51  and  O7_52 
REMARK       I    between atoms: C50_60  and  N2_61 
REMARK       I    between atoms: C50_60  and  N3_62 
ROOT
HETATM    1  C1  UNL     1     -16.373  46.203 -21.395  1.00  0.00     0.010 C 
HETATM    2  C2  UNL     1     -15.609  45.454 -22.487  1.00  0.00    -0.010 C 
HETATM    3  C3  UNL     1     -14.139  45.324 -22.066  1.00  0.00     0.009 C 
HETATM    4  C4  UNL     1     -13.307  44.704 -23.186  1.00  0.00     0.039 C 
HETATM    5  C5  UNL     1     -13.364  45.583 -24.404  1.00  0.00    -0.049 C 
HETATM    6  C6  UNL     1     -12.413  45.462 -25.410  1.00  0.00     0.044 C 
HETATM    7  C7  UNL     1     -12.544  46.212 -26.580  1.00  0.00     0.072 C 
HETATM    8  C8  UNL     1     -13.495  47.233 -26.655  1.00  0.00     0.037 C 
HETATM    9  C9  UNL     1     -14.469  47.338 -25.669  1.00  0.00     0.011 C 
HETATM   10  C10 UNL     1     -14.471  46.439 -24.589  1.00  0.00    -0.047 C 
HETATM   11  C11 UNL     1     -15.806  46.130 -23.874  1.00  0.00     0.024 C 
HETATM   12  C12 UNL     1     -16.518  45.195 -24.892  1.00  0.00     0.033 C 
HETATM   13  C13 UNL     1     -17.867  44.510 -24.624  1.00  0.00     0.139 C 
HETATM   14  C14 UNL     1     -17.992  43.258 -25.577  1.00  0.00     0.037 C 
HETATM   15  C15 UNL     1     -19.149  42.326 -25.256  1.00  0.00    -0.014 C 
HETATM   16  C16 UNL     1     -20.068  41.990 -26.186  1.00  0.00    -0.050 C 
HETATM   17  C17 UNL     1     -20.056  42.690 -27.512  1.00  0.00     0.042 C 
HETATM   18  C18 UNL     1     -18.626  42.545 -28.027  1.00  0.00    -0.001 C 
HETATM   19  C19 UNL     1     -18.122  41.065 -28.036  1.00  0.00     0.037 C 
HETATM   20  C20 UNL     1     -19.208  39.955 -28.019  1.00  0.00     0.123 C 
HETATM   21  C21 UNL     1     -18.581  38.613 -28.464  1.00  0.00     0.039 C 
HETATM   22  C22 UNL     1     -19.622  37.508 -28.808  1.00  0.00     0.023 C 
HETATM   23  C24 UNL     1     -19.878  36.514 -27.647  1.00  0.00     0.101 C 
HETATM   24  C25 UNL     1     -20.626  37.109 -26.546  1.00  0.00    -0.101 C 
HETATM   25  C26 UNL     1     -21.145  37.755 -25.673  1.00  0.00    -0.066 C 
HETATM   26  C27 UNL     1     -21.603  38.731 -24.739  1.00  0.00     0.029 A 
HETATM   27  C28 UNL     1     -22.285  38.282 -23.601  1.00  0.00     0.057 A 
HETATM   28  C29 UNL     1     -22.769  39.196 -22.675  1.00  0.00     0.067 A 
HETATM   29  C30 UNL     1     -22.596  40.560 -22.868  1.00  0.00     0.037 A 
HETATM   30  C31 UNL     1     -21.923  41.019 -24.008  1.00  0.00     0.014 A 
HETATM   31  C32 UNL     1     -21.391  40.116 -24.953  1.00  0.00    -0.006 A 
HETATM   32  C33 UNL     1     -20.728  40.641 -26.229  1.00  0.00     0.185 C 
HETATM   33  O6  UNL     1     -19.675  39.760 -26.678  1.00  0.00    -0.371 OA
HETATM   34  C34 UNL     1     -17.782  43.514 -27.135  1.00  0.00     0.031 C 
HETATM   35  C35 UNL     1     -16.333  43.616 -27.619  1.00  0.00     0.051 A 
HETATM   36  C36 UNL     1     -15.958  44.702 -28.423  1.00  0.00     0.004 A 
HETATM   37  C37 UNL     1     -14.609  44.961 -28.700  1.00  0.00     0.008 A 
HETATM   38  C38 UNL     1     -13.591  44.143 -28.169  1.00  0.00    -0.003 A 
HETATM   39  C39 UNL     1     -13.988  42.990 -27.474  1.00  0.00     0.114 A 
HETATM   40  C40 UNL     1     -15.335  42.726 -27.210  1.00  0.00     0.064 A 
HETATM   41  C41 UNL     1     -12.079  44.550 -28.257  1.00  0.00     0.169 C 
HETATM   42  O8  UNL     1     -11.852  45.914 -27.727  1.00  0.00    -0.316 OA
HETATM   43 NA1  UNL     1     -15.964  42.737 -27.332  1.00  0.00    -0.401 Na
ATOM     44  HA1 UNL     1     -16.475  41.904 -27.036  1.00  0.00     0.155 HD
ENDROOT
BRANCH  41  45
HETATM   45  C42 UNL     1     -11.734  44.687 -29.768  1.00  0.00     0.070 C 
BRANCH  45  46
HETATM   46  C43 UNL     1     -11.367  46.111 -30.236  1.00  0.00     0.043 C 
BRANCH  46  47
HETATM   47  C44 UNL     1      -9.870  46.307 -30.567  1.00  0.00     0.058 C 
HETATM   48  C45 UNL     1      -9.744  46.702 -32.059  1.00  0.00     0.038 C 
HETATM   49  C46 UNL     1      -8.494  47.537 -32.324  1.00  0.00     0.003 C 
HETATM   50  C47 UNL     1      -8.528  48.853 -31.542  1.00  0.00     0.000 C 
HETATM   51  C48 UNL     1      -9.253  48.738 -30.199  1.00  0.00     0.003 C 
HETATM   52  C49 UNL     1      -9.162  47.325 -29.648  1.00  0.00     0.038 C 
BRANCH  47  53
HETATM   53  O7  UNL     1      -9.185  45.062 -30.389  1.00  0.00    -0.390 OA
HETATM   54  H46 UNL     1      -9.836  44.339 -30.508  1.00  0.00     0.210 HD
ENDBRANCH  47  53
ENDBRANCH  46  47
ENDBRANCH  45  46
ENDBRANCH  41  45
BRANCH  41  55
HETATM   55  N1  UNL     1     -11.252  43.536 -27.577  1.00  0.00    -0.336 N 
HETATM   56  C50 UNL     1     -10.040  43.535 -27.233  1.00  0.00     0.124 C 
HETATM   57  N2  UNL     1      -9.547  42.439 -26.623  1.00  0.00    -0.279 NA
HETATM   58  N3  UNL     1      -9.056  44.459 -27.341  1.00  0.00    -0.279 NA
HETATM   59  H57 UNL     1     -10.277  41.756 -26.442  1.00  0.00     0.126 HD
HETATM   60  H58 UNL     1      -8.961  42.603 -25.808  1.00  0.00     0.126 HD
HETATM   61  H59 UNL     1      -9.234  45.258 -26.729  1.00  0.00     0.126 HD
HETATM   62  H60 UNL     1      -8.162  44.058 -27.084  1.00  0.00     0.126 HD
ATOM     63  H1  UNL     1     -11.753  42.679 -27.342  1.00  0.00     0.165 HD
ENDBRANCH  41  55
BRANCH  13  64
HETATM   64  S1  UNL     1     -19.247  45.654 -24.726  1.00  0.00     0.106 S 
HETATM   65  O1  UNL     1     -20.352  45.000 -24.033  1.00  0.00    -0.595 OA
HETATM   66  O2  UNL     1     -19.451  45.808 -26.171  1.00  0.00    -0.595 OA
HETATM   67  O3  UNL     1     -18.769  46.876 -24.083  1.00  0.00    -0.595 OA
ENDBRANCH  13  64
BRANCH  22  68
HETATM   68  C23 UNL     1     -19.126  36.694 -30.020  1.00  0.00     0.169 C 
BRANCH  68  69
HETATM   69  O4  UNL     1     -18.578  37.539 -31.028  1.00  0.00    -0.400 OA
HETATM   70  H29 UNL     1     -17.847  38.052 -30.635  1.00  0.00     0.209 HD
ENDBRANCH  68  69
ENDBRANCH  22  68
BRANCH  28  71
HETATM   71  O5  UNL     1     -23.428  38.706 -21.584  1.00  0.00    -0.361 OA
HETATM   72  H33 UNL     1     -23.709  39.463 -21.044  1.00  0.00     0.217 HD
ENDBRANCH  28  71
TORSDOF 9
ENDMDL
MODEL 2
REMARK minimizedAffinity -8.07532024
REMARK CNNscore 0.19305864
REMARK CNNaffinity 7.06547499
REMARK  9 active torsions:
REMARK  status: ('A' for Active; 'I' for Inactive)
REMARK    1  A    between atoms: C13_13  and  S1_14 
REMARK    2  A    between atoms: C22_26  and  C23_27 
REMARK    3  A    between atoms: C23_27  and  O4_28 
REMARK    4  A    between atoms: C29_34  and  O5_35 
REMARK    5  A    between atoms: C41_48  and  C42_49 
REMARK    6  A    between atoms: C41_48  and  N1_58 
REMARK    7  A    between atoms: C42_49  and  C43_50 
REMARK    8  A    between atoms: C43_50  and  C44_51 
REMARK    9  A    between atoms: C44_51  and  O7_52 
REMARK       I    between atoms: C50_60  and  N2_61 
REMARK       I    between atoms: C50_60  and  N3_62 
ROOT
HETATM    1  C1  UNL     1       7.199  55.137  -3.772  1.00  0.00     0.010 C 
HETATM    2  C2  UNL     1       5.965  54.632  -4.517  1.00  0.00    -0.010 C 
HETATM    3  C3  UNL     1       6.300  53.292  -5.186  1.00  0.00     0.009 C 
HETATM    4  C4  UNL     1       5.140  52.814  -6.057  1.00  0.00     0.039 C 
HETATM    5  C5  UNL     1       4.876  53.820  -7.142  1.00  0.00    -0.049 C 
HETATM    6  C6  UNL     1       4.154  53.465  -8.275  1.00  0.00     0.044 C 
HETATM    7  C7  UNL     1       3.827  54.439  -9.220  1.00  0.00     0.072 C 
HETATM    8  C8  UNL     1       4.401  55.711  -9.143  1.00  0.00     0.037 C 
HETATM    9  C9  UNL     1       5.096  56.082  -7.999  1.00  0.00     0.011 C 
HETATM   10  C10 UNL     1       5.243  55.168  -6.942  1.00  0.00    -0.047 C 
HETATM   11  C11 UNL     1       5.425  55.706  -5.505  1.00  0.00     0.024 C 
HETATM   12  C12 UNL     1       3.988  56.176  -5.142  1.00  0.00     0.033 C 
HETATM   13  C13 UNL     1       3.589  56.715  -3.759  1.00  0.00     0.139 C 
HETATM   14  C14 UNL     1       2.028  56.553  -3.590  1.00  0.00     0.037 C 
HETATM   15  C15 UNL     1       1.512  56.800  -2.181  1.00  0.00    -0.014 C 
HETATM   16  C16 UNL     1       0.535  57.697  -1.931  1.00  0.00    -0.050 C 
HETATM   17  C17 UNL     1       0.075  58.604  -3.033  1.00  0.00     0.042 C 
HETATM   18  C18 UNL     1      -0.272  57.675  -4.195  1.00  0.00    -0.001 C 
HETATM   19  C19 UNL     1      -1.263  56.534  -3.795  1.00  0.00     0.037 C 
HETATM   20  C20 UNL     1      -2.114  56.760  -2.516  1.00  0.00     0.123 C 
HETATM   21  C21 UNL     1      -3.310  55.780  -2.512  1.00  0.00     0.039 C 
HETATM   22  C22 UNL     1      -4.412  56.126  -1.468  1.00  0.00     0.023 C 
HETATM   23  C24 UNL     1      -4.295  55.318  -0.151  1.00  0.00     0.101 C 
HETATM   24  C25 UNL     1      -3.158  55.728   0.666  1.00  0.00    -0.101 C 
HETATM   25  C26 UNL     1      -2.130  56.088   1.178  1.00  0.00    -0.066 C 
HETATM   26  C27 UNL     1      -0.824  56.549   1.519  1.00  0.00     0.029 A 
HETATM   27  C28 UNL     1      -0.380  56.351   2.833  1.00  0.00     0.057 A 
HETATM   28  C29 UNL     1       0.875  56.802   3.219  1.00  0.00     0.067 A 
HETATM   29  C30 UNL     1       1.698  57.462   2.316  1.00  0.00     0.037 A 
HETATM   30  C31 UNL     1       1.260  57.672   1.002  1.00  0.00     0.014 A 
HETATM   31  C32 UNL     1       0.003  57.198   0.569  1.00  0.00    -0.006 A 
HETATM   32  C33 UNL     1      -0.489  57.507  -0.848  1.00  0.00     0.185 C 
HETATM   33  O6  UNL     1      -1.331  56.450  -1.356  1.00  0.00    -0.371 OA
HETATM   34  C34 UNL     1       1.111  57.178  -4.733  1.00  0.00     0.031 C 
HETATM   35  C35 UNL     1       0.959  56.350  -6.011  1.00  0.00     0.051 A 
HETATM   36  C36 UNL     1       1.170  56.969  -7.252  1.00  0.00     0.004 A 
HETATM   37  C37 UNL     1       1.267  56.212  -8.427  1.00  0.00     0.008 A 
HETATM   38  C38 UNL     1       1.165  54.806  -8.393  1.00  0.00    -0.003 A 
HETATM   39  C39 UNL     1       0.828  54.215  -7.166  1.00  0.00     0.114 A 
HETATM   40  C40 UNL     1       0.719  54.973  -5.997  1.00  0.00     0.064 A 
HETATM   41  C41 UNL     1       1.514  53.925  -9.643  1.00  0.00     0.169 C 
HETATM   42  O8  UNL     1       2.860  54.244 -10.174  1.00  0.00    -0.316 OA
HETATM   43 NA1  UNL     1       0.585  55.499  -5.656  1.00  0.00    -0.401 Na
ATOM     44  HA1 UNL     1       0.175  55.324  -4.738  1.00  0.00     0.155 HD
ENDROOT
BRANCH  41  45
HETATM   45  C42 UNL     1       0.559  54.368 -10.789  1.00  0.00     0.070 C 
BRANCH  45  46
HETATM   46  C43 UNL     1      -0.875  54.733 -10.351  1.00  0.00     0.043 C 
BRANCH  46  47
HETATM   47  C44 UNL     1      -1.847  53.534 -10.288  1.00  0.00     0.058 C 
HETATM   48  C45 UNL     1      -3.287  54.056 -10.518  1.00  0.00     0.038 C 
HETATM   49  C46 UNL     1      -4.190  52.986 -11.126  1.00  0.00     0.003 C 
HETATM   50  C47 UNL     1      -3.679  52.541 -12.499  1.00  0.00     0.000 C 
HETATM   51  C48 UNL     1      -2.155  52.592 -12.621  1.00  0.00     0.003 C 
HETATM   52  C49 UNL     1      -1.492  52.396 -11.268  1.00  0.00     0.038 C 
BRANCH  47  53
HETATM   53  O7  UNL     1      -1.799  52.962  -8.976  1.00  0.00    -0.390 OA
HETATM   54  H46 UNL     1      -1.513  53.661  -8.351  1.00  0.00     0.210 HD
ENDBRANCH  47  53
ENDBRANCH  46  47
ENDBRANCH  45  46
ENDBRANCH  41  45
BRANCH  41  55
HETATM   55  N1  UNL     1       1.367  52.498  -9.301  1.00  0.00    -0.336 N 
HETATM   56  C50 UNL     1       1.728  51.450  -9.900  1.00  0.00     0.124 C 
HETATM   57  N2  UNL     1       1.441  50.260  -9.339  1.00  0.00    -0.279 NA
HETATM   58  N3  UNL     1       2.395  51.242 -11.060  1.00  0.00    -0.279 NA
HETATM   59  H57 UNL     1       1.020  50.375  -8.422  1.00  0.00     0.126 HD
HETATM   60  H58 UNL     1       2.190  49.571  -9.336  1.00  0.00     0.126 HD
HETATM   61  H59 UNL     1       3.370  51.539 -10.981  1.00  0.00     0.126 HD
HETATM   62  H60 UNL     1       2.385  50.259 -11.305  1.00  0.00     0.126 HD
ATOM     63  H1  UNL     1       0.884  52.330  -8.419  1.00  0.00     0.165 HD
ENDBRANCH  41  55
BRANCH  13  64
HETATM   64  S1  UNL     1       4.193  58.382  -3.476  1.00  0.00     0.106 S 
HETATM   65  O1  UNL     1       5.596  58.364  -3.874  1.00  0.00    -0.595 OA
HETATM   66  O2  UNL     1       3.980  58.577  -2.037  1.00  0.00    -0.595 OA
HETATM   67  O3  UNL     1       3.341  59.235  -4.301  1.00  0.00    -0.595 OA
ENDBRANCH  13  64
BRANCH  22  68
HETATM   68  C23 UNL     1      -5.801  55.836  -2.072  1.00  0.00     0.169 C 
BRANCH  68  69
HETATM   69  O4  UNL     1      -5.696  55.219  -3.352  1.00  0.00    -0.400 OA
HETATM   70  H29 UNL     1      -5.185  54.394  -3.253  1.00  0.00     0.209 HD
ENDBRANCH  68  69
ENDBRANCH  22  68
BRANCH  28  71
HETATM   71  O5  UNL     1       1.258  56.586   4.511  1.00  0.00    -0.361 OA
HETATM   72  H33 UNL     1       2.145  56.965   4.623  1.00  0.00     0.217 HD
ENDBRANCH  28  71
TORSDOF 9
ENDMDL
MODEL 3
REMARK minimizedAffinity -9.43664169
REMARK CNNscore 0.164397731
REMARK CNNaffinity 6.66468573
REMARK  9 active torsions:
REMARK  status: ('A' for Active; 'I' for Inactive)
REMARK    1  A    between atoms: C13_13  and  S1_14 
REMARK    2  A    between atoms: C22_26  and  C23_27 
REMARK    3  A    between atoms: C23_27  and  O4_28 
REMARK    4  A    between atoms: C29_34  and  O5_35 
REMARK    5  A    between atoms: C41_48  and  C42_49 
REMARK    6  A    between atoms: C41_48  and  N1_58 
REMARK    7  A    between atoms: C42_49  and  C43_50 
REMARK    8  A    between atoms: C43_50  and  C44_51 
REMARK    9  A    between atoms: C44_51  and  O7_52 
REMARK       I    between atoms: C50_60  and  N2_61 
REMARK       I    between atoms: C50_60  and  N3_62 
ROOT
HETATM    1  C1  UNL     1     -12.961  43.238 -14.660  1.00  0.00     0.010 C 
HETATM    2  C2  UNL     1     -11.991  43.329 -15.838  1.00  0.00    -0.010 C 
HETATM    3  C3  UNL     1     -10.953  42.206 -15.718  1.00  0.00     0.009 C 
HETATM    4  C4  UNL     1      -9.881  42.338 -16.797  1.00  0.00     0.039 C 
HETATM    5  C5  UNL     1      -9.165  43.650 -16.638  1.00  0.00    -0.049 C 
HETATM    6  C6  UNL     1      -7.922  43.853 -17.226  1.00  0.00     0.044 C 
HETATM    7  C7  UNL     1      -7.321  45.111 -17.157  1.00  0.00     0.072 C 
HETATM    8  C8  UNL     1      -7.855  46.098 -16.324  1.00  0.00     0.037 C 
HETATM    9  C9  UNL     1      -9.112  45.914 -15.760  1.00  0.00     0.011 C 
HETATM   10  C10 UNL     1      -9.822  44.727 -16.006  1.00  0.00    -0.047 C 
HETATM   11  C11 UNL     1     -11.366  44.750 -15.943  1.00  0.00     0.024 C 
HETATM   12  C12 UNL     1     -11.741  45.466 -17.271  1.00  0.00     0.033 C 
HETATM   13  C13 UNL     1     -13.186  45.665 -17.757  1.00  0.00     0.139 C 
HETATM   14  C14 UNL     1     -13.163  45.892 -19.318  1.00  0.00     0.037 C 
HETATM   15  C15 UNL     1     -14.527  45.846 -19.987  1.00  0.00    -0.014 C 
HETATM   16  C16 UNL     1     -14.974  46.862 -20.756  1.00  0.00    -0.050 C 
HETATM   17  C17 UNL     1     -14.192  48.141 -20.806  1.00  0.00     0.042 C 
HETATM   18  C18 UNL     1     -12.767  47.723 -21.162  1.00  0.00    -0.001 C 
HETATM   19  C19 UNL     1     -12.690  46.831 -22.443  1.00  0.00     0.037 C 
HETATM   20  C20 UNL     1     -13.898  46.896 -23.417  1.00  0.00     0.123 C 
HETATM   21  C21 UNL     1     -13.483  46.323 -24.792  1.00  0.00     0.039 C 
HETATM   22  C22 UNL     1     -14.487  46.634 -25.940  1.00  0.00     0.023 C 
HETATM   23  C24 UNL     1     -15.474  45.476 -26.233  1.00  0.00     0.101 C 
HETATM   24  C25 UNL     1     -16.472  45.303 -25.182  1.00  0.00    -0.101 C 
HETATM   25  C26 UNL     1     -17.157  45.204 -24.198  1.00  0.00    -0.066 C 
HETATM   26  C27 UNL     1     -17.737  45.170 -22.895  1.00  0.00     0.029 A 
HETATM   27  C28 UNL     1     -18.947  44.484 -22.732  1.00  0.00     0.057 A 
HETATM   28  C29 UNL     1     -19.561  44.442 -21.488  1.00  0.00     0.067 A 
HETATM   29  C30 UNL     1     -18.994  45.087 -20.396  1.00  0.00     0.037 A 
HETATM   30  C31 UNL     1     -17.789  45.783 -20.552  1.00  0.00     0.014 A 
HETATM   31  C32 UNL     1     -17.122  45.818 -21.795  1.00  0.00    -0.006 A 
HETATM   32  C33 UNL     1     -15.847  46.650 -21.961  1.00  0.00     0.185 C 
HETATM   33  O6  UNL     1     -14.954  46.059 -22.930  1.00  0.00    -0.371 OA
HETATM   34  C34 UNL     1     -12.213  47.049 -19.864  1.00  0.00     0.031 C 
HETATM   35  C35 UNL     1     -10.727  46.706 -19.990  1.00  0.00     0.051 A 
HETATM   36  C36 UNL     1      -9.777  47.579 -19.440  1.00  0.00     0.004 A 
HETATM   37  C37 UNL     1      -8.432  47.202 -19.330  1.00  0.00     0.008 A 
HETATM   38  C38 UNL     1      -7.999  45.931 -19.759  1.00  0.00    -0.003 A 
HETATM   39  C39 UNL     1      -8.934  45.122 -20.422  1.00  0.00     0.114 A 
HETATM   40  C40 UNL     1     -10.272  45.504 -20.544  1.00  0.00     0.064 A 
HETATM   41  C41 UNL     1      -6.564  45.395 -19.423  1.00  0.00     0.169 C 
HETATM   42  O8  UNL     1      -6.279  45.476 -17.972  1.00  0.00    -0.316 OA
HETATM   43 NA1  UNL     1     -10.754  45.924 -20.605  1.00  0.00    -0.401 Na
ATOM     44  HA1 UNL     1     -11.528  45.606 -21.191  1.00  0.00     0.155 HD
ENDROOT
BRANCH  41  45
HETATM   45  C42 UNL     1      -5.548  46.396 -20.047  1.00  0.00     0.070 C 
BRANCH  45  46
HETATM   46  C43 UNL     1      -4.639  47.130 -19.040  1.00  0.00     0.043 C 
BRANCH  46  47
HETATM   47  C44 UNL     1      -3.731  48.209 -19.669  1.00  0.00     0.058 C 
HETATM   48  C45 UNL     1      -2.350  48.160 -18.969  1.00  0.00     0.038 C 
HETATM   49  C46 UNL     1      -1.230  48.651 -19.883  1.00  0.00     0.003 C 
HETATM   50  C47 UNL     1      -1.102  47.770 -21.129  1.00  0.00     0.000 C 
HETATM   51  C48 UNL     1      -2.438  47.185 -21.594  1.00  0.00     0.003 C 
HETATM   52  C49 UNL     1      -3.595  48.088 -21.202  1.00  0.00     0.038 C 
BRANCH  47  53
HETATM   53  O7  UNL     1      -4.297  49.501 -19.418  1.00  0.00    -0.390 OA
HETATM   54  H46 UNL     1      -4.847  49.438 -18.610  1.00  0.00     0.210 HD
ENDBRANCH  47  53
ENDBRANCH  46  47
ENDBRANCH  45  46
ENDBRANCH  41  45
BRANCH  41  55
HETATM   55  N1  UNL     1      -6.409  44.027 -19.953  1.00  0.00    -0.336 N 
HETATM   56  C50 UNL     1      -5.471  43.191 -19.857  1.00  0.00     0.124 C 
HETATM   57  N2  UNL     1      -5.610  41.998 -20.467  1.00  0.00    -0.279 NA
HETATM   58  N3  UNL     1      -4.273  43.226 -19.225  1.00  0.00    -0.279 NA
HETATM   59  H57 UNL     1      -6.534  41.897 -20.877  1.00  0.00     0.126 HD
HETATM   60  H58 UNL     1      -5.338  41.181 -19.925  1.00  0.00     0.126 HD
HETATM   61  H59 UNL     1      -4.394  43.215 -18.210  1.00  0.00     0.126 HD
HETATM   62  H60 UNL     1      -3.711  42.424 -19.484  1.00  0.00     0.126 HD
ATOM     63  H1  UNL     1      -7.207  43.698 -20.496  1.00  0.00     0.165 HD
ENDBRANCH  41  55
BRANCH  13  64
HETATM   64  S1  UNL     1     -14.045  46.945 -16.837  1.00  0.00     0.106 S 
HETATM   65  O1  UNL     1     -15.275  47.203 -17.578  1.00  0.00    -0.595 OA
HETATM   66  O2  UNL     1     -13.093  48.062 -16.845  1.00  0.00    -0.595 OA
HETATM   67  O3  UNL     1     -14.249  46.377 -15.506  1.00  0.00    -0.595 OA
ENDBRANCH  13  64
BRANCH  22  68
HETATM   68  C23 UNL     1     -13.708  46.924 -27.240  1.00  0.00     0.169 C 
BRANCH  68  69
HETATM   69  O4  UNL     1     -12.974  48.142 -27.148  1.00  0.00    -0.400 OA
HETATM   70  H29 UNL     1     -12.365  48.077 -26.389  1.00  0.00     0.209 HD
ENDBRANCH  68  69
ENDBRANCH  22  68
BRANCH  28  71
HETATM   71  O5  UNL     1     -20.740  43.762 -21.384  1.00  0.00    -0.361 OA
HETATM   72  H33 UNL     1     -21.042  43.834 -20.464  1.00  0.00     0.217 HD
ENDBRANCH  28  71
TORSDOF 9
ENDMDL
MODEL 4
REMARK minimizedAffinity -8.42195129
REMARK CNNscore 0.151564926
REMARK CNNaffinity 6.95787001
REMARK  9 active torsions:
REMARK  status: ('A' for Active; 'I' for Inactive)
REMARK    1  A    between atoms: C13_13  and  S1_14 
REMARK    2  A    between atoms: C22_26  and  C23_27 
REMARK    3  A    between atoms: C23_27  and  O4_28 
REMARK    4  A    between atoms: C29_34  and  O5_35 
REMARK    5  A    between atoms: C41_48  and  C42_49 
REMARK    6  A    between atoms: C41_48  and  N1_58 
REMARK    7  A    between atoms: C42_49  and  C43_50 
REMARK    8  A    between atoms: C43_50  and  C44_51 
REMARK    9  A    between atoms: C44_51  and  O7_52 
REMARK       I    between atoms: C50_60  and  N2_61 
REMARK       I    between atoms: C50_60  and  N3_62 
ROOT
HETATM    1  C1  UNL     1       7.686  55.082  -5.534  1.00  0.00     0.010 C 
HETATM    2  C2  UNL     1       6.451  54.397  -6.117  1.00  0.00    -0.010 C 
HETATM    3  C3  UNL     1       6.879  53.091  -6.799  1.00  0.00     0.009 C 
HETATM    4  C4  UNL     1       5.699  52.439  -7.515  1.00  0.00     0.039 C 
HETATM    5  C5  UNL     1       5.178  53.368  -8.577  1.00  0.00    -0.049 C 
HETATM    6  C6  UNL     1       4.381  52.886  -9.609  1.00  0.00     0.044 C 
HETATM    7  C7  UNL     1       3.820  53.779 -10.523  1.00  0.00     0.072 C 
HETATM    8  C8  UNL     1       4.226  55.116 -10.537  1.00  0.00     0.037 C 
HETATM    9  C9  UNL     1       4.995  55.611  -9.491  1.00  0.00     0.011 C 
HETATM   10  C10 UNL     1       5.385  54.758  -8.445  1.00  0.00    -0.047 C 
HETATM   11  C11 UNL     1       5.662  55.361  -7.050  1.00  0.00     0.024 C 
HETATM   12  C12 UNL     1       4.228  55.652  -6.523  1.00  0.00     0.033 C 
HETATM   13  C13 UNL     1       3.926  56.179  -5.112  1.00  0.00     0.139 C 
HETATM   14  C14 UNL     1       2.432  55.823  -4.753  1.00  0.00     0.037 C 
HETATM   15  C15 UNL     1       2.056  56.046  -3.297  1.00  0.00    -0.014 C 
HETATM   16  C16 UNL     1       1.006  56.818  -2.945  1.00  0.00    -0.050 C 
HETATM   17  C17 UNL     1       0.303  57.621  -3.999  1.00  0.00     0.042 C 
HETATM   18  C18 UNL     1      -0.051  56.618  -5.094  1.00  0.00    -0.001 C 
HETATM   19  C19 UNL     1      -0.829  55.373  -4.560  1.00  0.00     0.037 C 
HETATM   20  C20 UNL     1      -1.547  55.528  -3.191  1.00  0.00     0.123 C 
HETATM   21  C21 UNL     1      -2.594  54.402  -3.027  1.00  0.00     0.039 C 
HETATM   22  C22 UNL     1      -3.602  54.636  -1.863  1.00  0.00     0.023 C 
HETATM   23  C24 UNL     1      -3.225  53.893  -0.557  1.00  0.00     0.101 C 
HETATM   24  C25 UNL     1      -2.064  54.472   0.110  1.00  0.00    -0.101 C 
HETATM   25  C26 UNL     1      -1.041  54.978   0.488  1.00  0.00    -0.066 C 
HETATM   26  C27 UNL     1       0.225  55.615   0.662  1.00  0.00     0.029 A 
HETATM   27  C28 UNL     1       0.841  55.518   1.916  1.00  0.00     0.057 A 
HETATM   28  C29 UNL     1       2.062  56.140   2.140  1.00  0.00     0.067 A 
HETATM   29  C30 UNL     1       2.680  56.871   1.133  1.00  0.00     0.037 A 
HETATM   30  C31 UNL     1       2.066  56.980  -0.121  1.00  0.00     0.014 A 
HETATM   31  C32 UNL     1       0.841  56.334  -0.391  1.00  0.00    -0.006 A 
HETATM   32  C33 UNL     1       0.150  56.532  -1.743  1.00  0.00     0.185 C 
HETATM   33  O6  UNL     1      -0.599  55.359  -2.129  1.00  0.00    -0.371 OA
HETATM   34  C34 UNL     1       1.312  56.287  -5.787  1.00  0.00     0.031 C 
HETATM   35  C35 UNL     1       1.122  55.406  -7.024  1.00  0.00     0.051 A 
HETATM   36  C36 UNL     1       1.102  56.007  -8.292  1.00  0.00     0.004 A 
HETATM   37  C37 UNL     1       1.159  55.231  -9.457  1.00  0.00     0.008 A 
HETATM   38  C38 UNL     1       1.249  53.826  -9.388  1.00  0.00    -0.003 A 
HETATM   39  C39 UNL     1       1.139  53.236  -8.119  1.00  0.00     0.114 A 
HETATM   40  C40 UNL     1       1.068  54.010  -6.958  1.00  0.00     0.064 A 
HETATM   41  C41 UNL     1       1.562  52.958 -10.656  1.00  0.00     0.169 C 
HETATM   42  O8  UNL     1       2.782  53.431 -11.351  1.00  0.00    -0.316 OA
HETATM   43 NA1  UNL     1       0.908  54.526  -6.613  1.00  0.00    -0.401 Na
ATOM     44  HA1 UNL     1       0.635  54.329  -5.649  1.00  0.00     0.155 HD
ENDROOT
BRANCH  41  45
HETATM   45  C42 UNL     1       0.429  53.236 -11.686  1.00  0.00     0.070 C 
BRANCH  45  46
HETATM   46  C43 UNL     1      -1.002  53.244 -11.108  1.00  0.00     0.043 C 
BRANCH  46  47
HETATM   47  C44 UNL     1      -2.024  52.422 -11.924  1.00  0.00     0.058 C 
HETATM   48  C45 UNL     1      -1.936  50.942 -11.476  1.00  0.00     0.038 C 
HETATM   49  C46 UNL     1      -3.257  50.206 -11.679  1.00  0.00     0.003 C 
HETATM   50  C47 UNL     1      -4.377  50.831 -10.844  1.00  0.00     0.000 C 
HETATM   51  C48 UNL     1      -4.221  52.343 -10.662  1.00  0.00     0.003 C 
HETATM   52  C49 UNL     1      -3.468  52.959 -11.828  1.00  0.00     0.038 C 
BRANCH  47  53
HETATM   53  O7  UNL     1      -1.668  52.476 -13.311  1.00  0.00    -0.390 OA
HETATM   54  H46 UNL     1      -0.704  52.645 -13.369  1.00  0.00     0.210 HD
ENDBRANCH  47  53
ENDBRANCH  46  47
ENDBRANCH  45  46
ENDBRANCH  41  45
BRANCH  41  55
HETATM   55  N1  UNL     1       1.645  51.536 -10.275  1.00  0.00    -0.336 N 
HETATM   56  C50 UNL     1       2.066  50.524 -10.898  1.00  0.00     0.124 C 
HETATM   57  N2  UNL     1       2.007  49.325 -10.286  1.00  0.00    -0.279 NA
HETATM   58  N3  UNL     1       2.609  50.365 -12.128  1.00  0.00    -0.279 NA
HETATM   59  H57 UNL     1       1.689  49.414  -9.325  1.00  0.00     0.126 HD
HETATM   60  H58 UNL     1       2.835  48.738 -10.365  1.00  0.00     0.126 HD
HETATM   61  H59 UNL     1       3.539  50.787 -12.176  1.00  0.00     0.126 HD
HETATM   62  H60 UNL     1       2.698  49.381 -12.354  1.00  0.00     0.126 HD
ATOM     63  H1  UNL     1       1.299  51.335  -9.337  1.00  0.00     0.165 HD
ENDBRANCH  41  55
BRANCH  13  64
HETATM   64  S1  UNL     1       4.334  57.919  -4.931  1.00  0.00     0.106 S 
HETATM   65  O1  UNL     1       4.253  58.194  -3.501  1.00  0.00    -0.595 OA
HETATM   66  O2  UNL     1       3.304  58.591  -5.731  1.00  0.00    -0.595 OA
HETATM   67  O3  UNL     1       5.675  58.050  -5.497  1.00  0.00    -0.595 OA
ENDBRANCH  13  64
BRANCH  22  68
HETATM   68  C23 UNL     1      -5.002  54.150  -2.291  1.00  0.00     0.169 C 
BRANCH  68  69
HETATM   69  O4  UNL     1      -5.116  54.067  -3.709  1.00  0.00    -0.400 OA
HETATM   70  H29 UNL     1      -4.426  53.461  -4.037  1.00  0.00     0.209 HD
ENDBRANCH  68  69
ENDBRANCH  22  68
BRANCH  28  71
HETATM   71  O5  UNL     1       2.619  56.017   3.380  1.00  0.00    -0.361 OA
HETATM   72  H33 UNL     1       3.456  56.510   3.378  1.00  0.00     0.217 HD
ENDBRANCH  28  71
TORSDOF 9
ENDMDL
MODEL 5
REMARK minimizedAffinity -10.2245541
REMARK CNNscore 0.134279594
REMARK CNNaffinity 6.72331619
REMARK  9 active torsions:
REMARK  status: ('A' for Active; 'I' for Inactive)
REMARK    1  A    between atoms: C13_13  and  S1_14 
REMARK    2  A    between atoms: C22_26  and  C23_27 
REMARK    3  A    between atoms: C23_27  and  O4_28 
REMARK    4  A    between atoms: C29_34  and  O5_35 
REMARK    5  A    between atoms: C41_48  and  C42_49 
REMARK    6  A    between atoms: C41_48  and  N1_58 
REMARK    7  A    between atoms: C42_49  and  C43_50 
REMARK    8  A    between atoms: C43_50  and  C44_51 
REMARK    9  A    between atoms: C44_51  and  O7_52 
REMARK       I    between atoms: C50_60  and  N2_61 
REMARK       I    between atoms: C50_60  and  N3_62 
ROOT
HETATM    1  C1  UNL     1     -10.489  41.015 -32.648  1.00  0.00     0.010 C 
HETATM    2  C2  UNL     1     -10.546  42.350 -31.906  1.00  0.00    -0.010 C 
HETATM    3  C3  UNL     1      -9.941  43.442 -32.797  1.00  0.00     0.009 C 
HETATM    4  C4  UNL     1      -9.850  44.768 -32.045  1.00  0.00     0.039 C 
HETATM    5  C5  UNL     1      -8.963  44.607 -30.843  1.00  0.00    -0.049 C 
HETATM    6  C6  UNL     1      -8.411  45.719 -30.217  1.00  0.00     0.044 C 
HETATM    7  C7  UNL     1      -7.678  45.556 -29.040  1.00  0.00     0.072 C 
HETATM    8  C8  UNL     1      -7.317  44.277 -28.609  1.00  0.00     0.037 C 
HETATM    9  C9  UNL     1      -7.891  43.163 -29.210  1.00  0.00     0.011 C 
HETATM   10  C10 UNL     1      -8.806  43.329 -30.263  1.00  0.00    -0.047 C 
HETATM   11  C11 UNL     1      -9.877  42.243 -30.505  1.00  0.00     0.024 C 
HETATM   12  C12 UNL     1     -10.882  42.504 -29.348  1.00  0.00     0.033 C 
HETATM   13  C13 UNL     1     -12.208  41.746 -29.179  1.00  0.00     0.139 C 
HETATM   14  C14 UNL     1     -13.177  42.621 -28.293  1.00  0.00     0.037 C 
HETATM   15  C15 UNL     1     -14.615  42.132 -28.248  1.00  0.00    -0.014 C 
HETATM   16  C16 UNL     1     -15.242  41.879 -27.080  1.00  0.00    -0.050 C 
HETATM   17  C17 UNL     1     -14.452  41.902 -25.805  1.00  0.00     0.042 C 
HETATM   18  C18 UNL     1     -13.740  43.253 -25.803  1.00  0.00    -0.001 C 
HETATM   19  C19 UNL     1     -14.708  44.459 -26.023  1.00  0.00     0.037 C 
HETATM   20  C20 UNL     1     -16.213  44.215 -25.725  1.00  0.00     0.123 C 
HETATM   21  C21 UNL     1     -16.935  45.574 -25.570  1.00  0.00     0.039 C 
HETATM   22  C22 UNL     1     -18.357  45.470 -24.945  1.00  0.00     0.023 C 
HETATM   23  C24 UNL     1     -19.497  45.467 -25.994  1.00  0.00     0.101 C 
HETATM   24  C25 UNL     1     -19.561  44.225 -26.758  1.00  0.00    -0.101 C 
HETATM   25  C26 UNL     1     -19.427  43.204 -27.380  1.00  0.00    -0.066 C 
HETATM   26  C27 UNL     1     -18.994  42.031 -28.067  1.00  0.00     0.029 A 
HETATM   27  C28 UNL     1     -19.900  41.403 -28.931  1.00  0.00     0.057 A 
HETATM   28  C29 UNL     1     -19.532  40.247 -29.604  1.00  0.00     0.067 A 
HETATM   29  C30 UNL     1     -18.271  39.692 -29.423  1.00  0.00     0.037 A 
HETATM   30  C31 UNL     1     -17.361  40.308 -28.554  1.00  0.00     0.014 A 
HETATM   31  C32 UNL     1     -17.692  41.503 -27.879  1.00  0.00    -0.006 A 
HETATM   32  C33 UNL     1     -16.712  42.115 -26.875  1.00  0.00     0.185 C 
HETATM   33  O6  UNL     1     -16.824  43.555 -26.840  1.00  0.00    -0.371 OA
HETATM   34  C34 UNL     1     -12.617  43.113 -26.884  1.00  0.00     0.031 C 
HETATM   35  C35 UNL     1     -11.694  44.333 -26.907  1.00  0.00     0.051 A 
HETATM   36  C36 UNL     1     -10.468  44.272 -26.229  1.00  0.00     0.004 A 
HETATM   37  C37 UNL     1      -9.497  45.267 -26.407  1.00  0.00     0.008 A 
HETATM   38  C38 UNL     1      -9.722  46.350 -27.279  1.00  0.00    -0.003 A 
HETATM   39  C39 UNL     1     -10.999  46.463 -27.850  1.00  0.00     0.114 A 
HETATM   40  C40 UNL     1     -11.971  45.477 -27.661  1.00  0.00     0.064 A 
HETATM   41  C41 UNL     1      -8.569  47.334 -27.684  1.00  0.00     0.169 C 
HETATM   42  O8  UNL     1      -7.388  46.604 -28.202  1.00  0.00    -0.316 OA
HETATM   43 NA1  UNL     1     -12.276  45.016 -27.336  1.00  0.00    -0.401 Na
ATOM     44  HA1 UNL     1     -13.286  44.986 -27.480  1.00  0.00     0.155 HD
ENDROOT
BRANCH  41  45
HETATM   45  C42 UNL     1      -8.045  47.982 -26.369  1.00  0.00     0.070 C 
BRANCH  45  46
HETATM   46  C43 UNL     1      -6.552  47.740 -26.062  1.00  0.00     0.043 C 
BRANCH  46  47
HETATM   47  C44 UNL     1      -5.980  48.629 -24.936  1.00  0.00     0.058 C 
HETATM   48  C45 UNL     1      -5.807  47.762 -23.664  1.00  0.00     0.038 C 
HETATM   49  C46 UNL     1      -4.694  48.291 -22.762  1.00  0.00     0.003 C 
HETATM   50  C47 UNL     1      -3.340  48.266 -23.476  1.00  0.00     0.000 C 
HETATM   51  C48 UNL     1      -3.449  48.501 -24.984  1.00  0.00     0.003 C 
HETATM   52  C49 UNL     1      -4.667  49.345 -25.319  1.00  0.00     0.038 C 
BRANCH  47  53
HETATM   53  O7  UNL     1      -6.925  49.662 -24.630  1.00  0.00    -0.390 OA
HETATM   54  H46 UNL     1      -7.816  49.339 -24.878  1.00  0.00     0.210 HD
ENDBRANCH  47  53
ENDBRANCH  46  47
ENDBRANCH  45  46
ENDBRANCH  41  45
BRANCH  41  55
HETATM   55  N1  UNL     1      -9.081  48.331 -28.642  1.00  0.00    -0.336 N 
HETATM   56  C50 UNL     1      -8.514  48.978 -29.563  1.00  0.00     0.124 C 
HETATM   57  N2  UNL     1      -9.251  49.845 -30.285  1.00  0.00    -0.279 NA
HETATM   58  N3  UNL     1      -7.242  48.988 -30.027  1.00  0.00    -0.279 NA
HETATM   59  H57 UNL     1     -10.232  49.801 -30.027  1.00  0.00     0.126 HD
HETATM   60  H58 UNL     1      -9.115  49.822 -31.293  1.00  0.00     0.126 HD
HETATM   61  H59 UNL     1      -7.016  48.109 -30.498  1.00  0.00     0.126 HD
HETATM   62  H60 UNL     1      -7.110  49.743 -30.690  1.00  0.00     0.126 HD
ATOM     63  H1  UNL     1     -10.075  48.534 -28.540  1.00  0.00     0.165 HD
ENDBRANCH  41  55
BRANCH  13  64
HETATM   64  S1  UNL     1     -11.966  40.072 -28.576  1.00  0.00     0.106 S 
HETATM   65  O1  UNL     1     -13.220  39.374 -28.842  1.00  0.00    -0.595 OA
HETATM   66  O2  UNL     1     -11.677  40.267 -27.151  1.00  0.00    -0.595 OA
HETATM   67  O3  UNL     1     -10.821  39.565 -29.328  1.00  0.00    -0.595 OA
ENDBRANCH  13  64
BRANCH  22  68
HETATM   68  C23 UNL     1     -18.593  46.668 -24.002  1.00  0.00     0.169 C 
BRANCH  68  69
HETATM   69  O4  UNL     1     -19.140  47.783 -24.700  1.00  0.00    -0.400 OA
HETATM   70  H29 UNL     1     -19.976  47.503 -25.117  1.00  0.00     0.209 HD
ENDBRANCH  68  69
ENDBRANCH  22  68
BRANCH  28  71
HETATM   71  O5  UNL     1     -20.453  39.673 -30.432  1.00  0.00    -0.361 OA
HETATM   72  H33 UNL     1     -20.050  38.877 -30.816  1.00  0.00     0.217 HD
ENDBRANCH  28  71
TORSDOF 9
ENDMDL
MODEL 6
REMARK minimizedAffinity -8.67182636
REMARK CNNscore 0.106260255
REMARK CNNaffinity 6.70251703
REMARK  9 active torsions:
REMARK  status: ('A' for Active; 'I' for Inactive)
REMARK    1  A    between atoms: C13_13  and  S1_14 
REMARK    2  A    between atoms: C22_26  and  C23_27 
REMARK    3  A    between atoms: C23_27  and  O4_28 
REMARK    4  A    between atoms: C29_34  and  O5_35 
REMARK    5  A    between atoms: C41_48  and  C42_49 
REMARK    6  A    between atoms: C41_48  and  N1_58 
REMARK    7  A    between atoms: C42_49  and  C43_50 
REMARK    8  A    between atoms: C43_50  and  C44_51 
REMARK    9  A    between atoms: C44_51  and  O7_52 
REMARK       I    between atoms: C50_60  and  N2_61 
REMARK       I    between atoms: C50_60  and  N3_62 
ROOT
HETATM    1  C1  UNL     1       9.230  54.023  -4.527  1.00  0.00     0.010 C 
HETATM    2  C2  UNL     1       7.777  53.958  -4.994  1.00  0.00    -0.010 C 
HETATM    3  C3  UNL     1       7.453  52.518  -5.414  1.00  0.00     0.009 C 
HETATM    4  C4  UNL     1       6.053  52.429  -6.017  1.00  0.00     0.039 C 
HETATM    5  C5  UNL     1       5.975  53.297  -7.241  1.00  0.00    -0.049 C 
HETATM    6  C6  UNL     1       4.967  53.110  -8.180  1.00  0.00     0.044 C 
HETATM    7  C7  UNL     1       4.849  53.993  -9.254  1.00  0.00     0.072 C 
HETATM    8  C8  UNL     1       5.857  54.925  -9.509  1.00  0.00     0.037 C 
HETATM    9  C9  UNL     1       6.849  55.141  -8.560  1.00  0.00     0.011 C 
HETATM   10  C10 UNL     1       6.849  54.399  -7.367  1.00  0.00    -0.047 C 
HETATM   11  C11 UNL     1       7.494  55.011  -6.103  1.00  0.00     0.024 C 
HETATM   12  C12 UNL     1       6.435  56.062  -5.666  1.00  0.00     0.033 C 
HETATM   13  C13 UNL     1       6.542  56.901  -4.383  1.00  0.00     0.139 C 
HETATM   14  C14 UNL     1       5.099  57.403  -3.990  1.00  0.00     0.037 C 
HETATM   15  C15 UNL     1       4.997  58.027  -2.607  1.00  0.00    -0.014 C 
HETATM   16  C16 UNL     1       4.493  59.266  -2.424  1.00  0.00    -0.050 C 
HETATM   17  C17 UNL     1       4.197  60.119  -3.621  1.00  0.00     0.042 C 
HETATM   18  C18 UNL     1       3.311  59.257  -4.517  1.00  0.00    -0.001 C 
HETATM   19  C19 UNL     1       2.065  58.676  -3.773  1.00  0.00     0.037 C 
HETATM   20  C20 UNL     1       1.626  59.398  -2.470  1.00  0.00     0.123 C 
HETATM   21  C21 UNL     1       0.176  58.990  -2.118  1.00  0.00     0.039 C 
HETATM   22  C22 UNL     1      -0.492  59.888  -1.035  1.00  0.00     0.023 C 
HETATM   23  C24 UNL     1      -0.429  59.290   0.393  1.00  0.00     0.101 C 
HETATM   24  C25 UNL     1       0.914  59.318   0.961  1.00  0.00    -0.101 C 
HETATM   25  C26 UNL     1       2.081  59.303   1.256  1.00  0.00    -0.066 C 
HETATM   26  C27 UNL     1       3.504  59.244   1.330  1.00  0.00     0.029 A 
HETATM   27  C28 UNL     1       4.089  59.069   2.591  1.00  0.00     0.057 A 
HETATM   28  C29 UNL     1       5.471  59.027   2.716  1.00  0.00     0.067 A 
HETATM   29  C30 UNL     1       6.288  59.171   1.602  1.00  0.00     0.037 A 
HETATM   30  C31 UNL     1       5.712  59.356   0.339  1.00  0.00     0.014 A 
HETATM   31  C32 UNL     1       4.311  59.371   0.172  1.00  0.00    -0.006 A 
HETATM   32  C33 UNL     1       3.704  59.653  -1.205  1.00  0.00     0.185 C 
HETATM   33  O6  UNL     1       2.447  58.962  -1.379  1.00  0.00    -0.371 OA
HETATM   34  C34 UNL     1       4.276  58.179  -5.111  1.00  0.00     0.031 C 
HETATM   35  C35 UNL     1       3.582  57.314  -6.166  1.00  0.00     0.051 A 
HETATM   36  C36 UNL     1       3.762  57.620  -7.524  1.00  0.00     0.004 A 
HETATM   37  C37 UNL     1       3.339  56.733  -8.523  1.00  0.00     0.008 A 
HETATM   38  C38 UNL     1       2.731  55.506  -8.192  1.00  0.00    -0.003 A 
HETATM   39  C39 UNL     1       2.444  55.274  -6.838  1.00  0.00     0.114 A 
HETATM   40  C40 UNL     1       2.854  56.165  -5.843  1.00  0.00     0.064 A 
HETATM   41  C41 UNL     1       2.476  54.396  -9.271  1.00  0.00     0.169 C 
HETATM   42  O8  UNL     1       3.713  54.073 -10.020  1.00  0.00    -0.316 OA
HETATM   43 NA1  UNL     1       2.995  56.742  -5.602  1.00  0.00    -0.401 Na
ATOM     44  HA1 UNL     1       2.737  56.874  -4.623  1.00  0.00     0.155 HD
ENDROOT
BRANCH  41  45
HETATM   45  C42 UNL     1       1.551  55.022 -10.354  1.00  0.00     0.070 C 
BRANCH  45  46
HETATM   46  C43 UNL     1       0.428  54.101 -10.876  1.00  0.00     0.043 C 
BRANCH  46  47
HETATM   47  C44 UNL     1      -0.876  54.153 -10.049  1.00  0.00     0.058 C 
HETATM   48  C45 UNL     1      -1.969  54.850 -10.896  1.00  0.00     0.038 C 
HETATM   49  C46 UNL     1      -3.371  54.385 -10.511  1.00  0.00     0.003 C 
HETATM   50  C47 UNL     1      -3.545  52.884 -10.753  1.00  0.00     0.000 C 
HETATM   51  C48 UNL     1      -2.256  52.086 -10.547  1.00  0.00     0.003 C 
HETATM   52  C49 UNL     1      -1.344  52.771  -9.544  1.00  0.00     0.038 C 
BRANCH  47  53
HETATM   53  O7  UNL     1      -0.658  54.953  -8.881  1.00  0.00    -0.390 OA
HETATM   54  H46 UNL     1       0.069  55.581  -9.076  1.00  0.00     0.210 HD
ENDBRANCH  47  53
ENDBRANCH  46  47
ENDBRANCH  45  46
ENDBRANCH  41  45
BRANCH  41  55
HETATM   55  N1  UNL     1       1.878  53.209  -8.631  1.00  0.00    -0.336 N 
HETATM   56  C50 UNL     1       2.014  52.720  -7.478  1.00  0.00     0.124 C 
HETATM   57  N2  UNL     1       1.332  51.598  -7.173  1.00  0.00    -0.279 NA
HETATM   58  N3  UNL     1       2.737  53.103  -6.399  1.00  0.00    -0.279 NA
HETATM   59  H57 UNL     1       0.707  51.328  -7.927  1.00  0.00     0.126 HD
HETATM   60  H58 UNL     1       0.872  51.584  -6.266  1.00  0.00     0.126 HD
HETATM   61  H59 UNL     1       2.364  53.965  -5.995  1.00  0.00     0.126 HD
HETATM   62  H60 UNL     1       2.717  52.386  -5.684  1.00  0.00     0.126 HD
ATOM     63  H1  UNL     1       1.239  52.690  -9.232  1.00  0.00     0.165 HD
ENDBRANCH  41  55
BRANCH  13  64
HETATM   64  S1  UNL     1       7.766  58.208  -4.521  1.00  0.00     0.106 S 
HETATM   65  O1  UNL     1       8.100  58.580  -3.151  1.00  0.00    -0.595 OA
HETATM   66  O2  UNL     1       7.060  59.252  -5.273  1.00  0.00    -0.595 OA
HETATM   67  O3  UNL     1       8.869  57.611  -5.271  1.00  0.00    -0.595 OA
ENDBRANCH  13  64
BRANCH  22  68
HETATM   68  C23 UNL     1      -1.978  60.099  -1.390  1.00  0.00     0.169 C 
BRANCH  68  69
HETATM   69  O4  UNL     1      -2.155  61.218  -2.254  1.00  0.00    -0.400 OA
HETATM   70  H29 UNL     1      -1.627  61.070  -3.060  1.00  0.00     0.209 HD
ENDBRANCH  68  69
ENDBRANCH  22  68
BRANCH  28  71
HETATM   71  O5  UNL     1       5.990  58.856   3.967  1.00  0.00    -0.361 OA
HETATM   72  H33 UNL     1       6.958  58.858   3.888  1.00  0.00     0.217 HD
ENDBRANCH  28  71
TORSDOF 9
ENDMDL
MODEL 7
REMARK minimizedAffinity -9.17191124
REMARK CNNscore 0.0959878713
REMARK CNNaffinity 5.85006857
REMARK  9 active torsions:
REMARK  status: ('A' for Active; 'I' for Inactive)
REMARK    1  A    between atoms: C13_13  and  S1_14 
REMARK    2  A    between atoms: C22_26  and  C23_27 
REMARK    3  A    between atoms: C23_27  and  O4_28 
REMARK    4  A    between atoms: C29_34  and  O5_35 
REMARK    5  A    between atoms: C41_48  and  C42_49 
REMARK    6  A    between atoms: C41_48  and  N1_58 
REMARK    7  A    between atoms: C42_49  and  C43_50 
REMARK    8  A    between atoms: C43_50  and  C44_51 
REMARK    9  A    between atoms: C44_51  and  O7_52 
REMARK       I    between atoms: C50_60  and  N2_61 
REMARK       I    between atoms: C50_60  and  N3_62 
ROOT
HETATM    1  C1  UNL     1     -11.039  44.133 -20.572  1.00  0.00     0.010 C 
HETATM    2  C2  UNL     1     -11.012  44.079 -22.099  1.00  0.00    -0.010 C 
HETATM    3  C3  UNL     1      -9.739  43.352 -22.550  1.00  0.00     0.009 C 
HETATM    4  C4  UNL     1      -9.599  43.393 -24.070  1.00  0.00     0.039 C 
HETATM    5  C5  UNL     1      -9.504  44.821 -24.530  1.00  0.00    -0.049 C 
HETATM    6  C6  UNL     1      -8.996  45.128 -25.787  1.00  0.00     0.044 C 
HETATM    7  C7  UNL     1      -9.015  46.449 -26.237  1.00  0.00     0.072 C 
HETATM    8  C8  UNL     1      -9.339  47.484 -25.357  1.00  0.00     0.037 C 
HETATM    9  C9  UNL     1      -9.878  47.184 -24.112  1.00  0.00     0.011 C 
HETATM   10  C10 UNL     1     -10.065  45.844 -23.735  1.00  0.00    -0.047 C 
HETATM   11  C11 UNL     1     -11.173  45.499 -22.715  1.00  0.00     0.024 C 
HETATM   12  C12 UNL     1     -12.465  45.630 -23.571  1.00  0.00     0.033 C 
HETATM   13  C13 UNL     1     -13.872  45.294 -23.053  1.00  0.00     0.139 C 
HETATM   14  C14 UNL     1     -14.806  45.003 -24.291  1.00  0.00     0.037 C 
HETATM   15  C15 UNL     1     -16.159  44.405 -23.941  1.00  0.00    -0.014 C 
HETATM   16  C16 UNL     1     -17.313  44.972 -24.351  1.00  0.00    -0.050 C 
HETATM   17  C17 UNL     1     -17.272  46.319 -25.009  1.00  0.00     0.042 C 
HETATM   18  C18 UNL     1     -16.257  46.179 -26.141  1.00  0.00    -0.001 C 
HETATM   19  C19 UNL     1     -16.553  44.971 -27.087  1.00  0.00     0.037 C 
HETATM   20  C20 UNL     1     -18.003  44.414 -27.081  1.00  0.00     0.123 C 
HETATM   21  C21 UNL     1     -18.229  43.551 -28.344  1.00  0.00     0.039 C 
HETATM   22  C22 UNL     1     -19.723  43.214 -28.624  1.00  0.00     0.023 C 
HETATM   23  C24 UNL     1     -20.151  41.816 -28.112  1.00  0.00     0.101 C 
HETATM   24  C25 UNL     1     -20.236  41.747 -26.657  1.00  0.00    -0.101 C 
HETATM   25  C26 UNL     1     -20.156  41.802 -25.458  1.00  0.00    -0.066 C 
HETATM   26  C27 UNL     1     -19.851  42.047 -24.086  1.00  0.00     0.029 A 
HETATM   27  C28 UNL     1     -20.378  41.170 -23.129  1.00  0.00     0.057 A 
HETATM   28  C29 UNL     1     -20.127  41.379 -21.781  1.00  0.00     0.067 A 
HETATM   29  C30 UNL     1     -19.364  42.462 -21.362  1.00  0.00     0.037 A 
HETATM   30  C31 UNL     1     -18.840  43.349 -22.311  1.00  0.00     0.014 A 
HETATM   31  C32 UNL     1     -19.050  43.147 -23.692  1.00  0.00    -0.006 A 
HETATM   32  C33 UNL     1     -18.534  44.171 -24.706  1.00  0.00     0.185 C 
HETATM   33  O6  UNL     1     -18.179  43.543 -25.956  1.00  0.00    -0.371 OA
HETATM   34  C34 UNL     1     -14.867  46.121 -25.425  1.00  0.00     0.031 C 
HETATM   35  C35 UNL     1     -13.710  46.139 -26.426  1.00  0.00     0.051 A 
HETATM   36  C36 UNL     1     -13.055  47.351 -26.688  1.00  0.00     0.004 A 
HETATM   37  C37 UNL     1     -11.857  47.378 -27.415  1.00  0.00     0.008 A 
HETATM   38  C38 UNL     1     -11.272  46.189 -27.893  1.00  0.00    -0.003 A 
HETATM   39  C39 UNL     1     -12.004  45.002 -27.733  1.00  0.00     0.114 A 
HETATM   40  C40 UNL     1     -13.205  44.977 -27.020  1.00  0.00     0.064 A 
HETATM   41  C41 UNL     1      -9.821  46.166 -28.487  1.00  0.00     0.169 C 
HETATM   42  O8  UNL     1      -8.843  46.779 -27.558  1.00  0.00    -0.316 OA
HETATM   43 NA1  UNL     1     -13.759  45.220 -26.805  1.00  0.00    -0.401 Na
ATOM     44  HA1 UNL     1     -14.524  44.548 -26.736  1.00  0.00     0.155 HD
ENDROOT
BRANCH  41  45
HETATM   45  C42 UNL     1      -9.815  47.133 -29.707  1.00  0.00     0.070 C 
BRANCH  45  46
HETATM   46  C43 UNL     1      -8.691  48.189 -29.709  1.00  0.00     0.043 C 
BRANCH  46  47
HETATM   47  C44 UNL     1      -7.684  48.047 -30.872  1.00  0.00     0.058 C 
HETATM   48  C45 UNL     1      -7.089  46.618 -30.837  1.00  0.00     0.038 C 
HETATM   49  C46 UNL     1      -6.646  46.151 -32.221  1.00  0.00     0.003 C 
HETATM   50  C47 UNL     1      -7.828  46.090 -33.192  1.00  0.00     0.000 C 
HETATM   51  C48 UNL     1      -8.895  47.150 -32.910  1.00  0.00     0.003 C 
HETATM   52  C49 UNL     1      -8.286  48.378 -32.254  1.00  0.00     0.038 C 
BRANCH  47  53
HETATM   53  O7  UNL     1      -6.607  48.970 -30.673  1.00  0.00    -0.390 OA
HETATM   54  H46 UNL     1      -6.540  49.155 -29.713  1.00  0.00     0.210 HD
ENDBRANCH  47  53
ENDBRANCH  46  47
ENDBRANCH  45  46
ENDBRANCH  41  45
BRANCH  41  55
HETATM   55  N1  UNL     1      -9.457  44.785 -28.857  1.00  0.00    -0.336 N 
HETATM   56  C50 UNL     1      -9.706  44.098 -29.883  1.00  0.00     0.124 C 
HETATM   57  N2  UNL     1      -9.240  42.835 -29.937  1.00  0.00    -0.279 NA
HETATM   58  N3  UNL     1     -10.377  44.370 -31.027  1.00  0.00    -0.279 NA
HETATM   59  H57 UNL     1      -8.654  42.622 -29.136  1.00  0.00     0.126 HD
HETATM   60  H58 UNL     1      -8.813  42.550 -30.816  1.00  0.00     0.126 HD
HETATM   61  H59 UNL     1      -9.869  45.049 -31.598  1.00  0.00     0.126 HD
HETATM   62  H60 UNL     1     -10.502  43.528 -31.576  1.00  0.00     0.126 HD
ATOM     63  H1  UNL     1      -8.903  44.298 -28.152  1.00  0.00     0.165 HD
ENDBRANCH  41  55
BRANCH  13  64
HETATM   64  S1  UNL     1     -14.503  46.544 -21.929  1.00  0.00     0.106 S 
HETATM   65  O1  UNL     1     -13.673  47.724 -22.149  1.00  0.00    -0.595 OA
HETATM   66  O2  UNL     1     -14.331  45.927 -20.609  1.00  0.00    -0.595 OA
HETATM   67  O3  UNL     1     -15.905  46.712 -22.304  1.00  0.00    -0.595 OA
ENDBRANCH  13  64
BRANCH  22  68
HETATM   68  C23 UNL     1     -19.982  43.255 -30.145  1.00  0.00     0.169 C 
BRANCH  68  69
HETATM   69  O4  UNL     1     -19.174  44.237 -30.786  1.00  0.00    -0.400 OA
HETATM   70  H29 UNL     1     -18.238  44.032 -30.602  1.00  0.00     0.209 HD
ENDBRANCH  68  69
ENDBRANCH  22  68
BRANCH  28  71
HETATM   71  O5  UNL     1     -20.666  40.497 -20.890  1.00  0.00    -0.361 OA
HETATM   72  H33 UNL     1     -20.409  40.784 -19.998  1.00  0.00     0.217 HD
ENDBRANCH  28  71
TORSDOF 9
ENDMDL
MODEL 8
REMARK minimizedAffinity -9.00543213
REMARK CNNscore 0.0900960565
REMARK CNNaffinity 6.03698874
REMARK  9 active torsions:
REMARK  status: ('A' for Active; 'I' for Inactive)
REMARK    1  A    between atoms: C13_13  and  S1_14 
REMARK    2  A    between atoms: C22_26  and  C23_27 
REMARK    3  A    between atoms: C23_27  and  O4_28 
REMARK    4  A    between atoms: C29_34  and  O5_35 
REMARK    5  A    between atoms: C41_48  and  C42_49 
REMARK    6  A    between atoms: C41_48  and  N1_58 
REMARK    7  A    between atoms: C42_49  and  C43_50 
REMARK    8  A    between atoms: C43_50  and  C44_51 
REMARK    9  A    between atoms: C44_51  and  O7_52 
REMARK       I    between atoms: C50_60  and  N2_61 
REMARK       I    between atoms: C50_60  and  N3_62 
ROOT
HETATM    1  C1  UNL     1     -11.934  45.874 -16.035  1.00  0.00     0.010 C 
HETATM    2  C2  UNL     1     -11.697  45.292 -17.428  1.00  0.00    -0.010 C 
HETATM    3  C3  UNL     1     -10.457  44.389 -17.387  1.00  0.00     0.009 C 
HETATM    4  C4  UNL     1     -10.099  43.892 -18.785  1.00  0.00     0.039 C 
HETATM    5  C5  UNL     1      -9.790  45.065 -19.673  1.00  0.00    -0.049 C 
HETATM    6  C6  UNL     1      -9.078  44.890 -20.855  1.00  0.00     0.044 C 
HETATM    7  C7  UNL     1      -8.893  45.972 -21.717  1.00  0.00     0.072 C 
HETATM    8  C8  UNL     1      -9.226  47.263 -21.303  1.00  0.00     0.037 C 
HETATM    9  C9  UNL     1      -9.966  47.442 -20.140  1.00  0.00     0.011 C 
HETATM   10  C10 UNL     1     -10.346  46.328 -19.374  1.00  0.00    -0.047 C 
HETATM   11  C11 UNL     1     -11.618  46.415 -18.501  1.00  0.00     0.024 C 
HETATM   12  C12 UNL     1     -12.753  46.306 -19.558  1.00  0.00     0.033 C 
HETATM   13  C13 UNL     1     -14.247  46.243 -19.204  1.00  0.00     0.139 C 
HETATM   14  C14 UNL     1     -15.022  45.589 -20.413  1.00  0.00     0.037 C 
HETATM   15  C15 UNL     1     -16.466  45.219 -20.118  1.00  0.00    -0.014 C 
HETATM   16  C16 UNL     1     -17.483  45.666 -20.884  1.00  0.00    -0.050 C 
HETATM   17  C17 UNL     1     -17.207  46.697 -21.938  1.00  0.00     0.042 C 
HETATM   18  C18 UNL     1     -16.062  46.121 -22.768  1.00  0.00    -0.001 C 
HETATM   19  C19 UNL     1     -16.348  44.677 -23.291  1.00  0.00     0.037 C 
HETATM   20  C20 UNL     1     -17.835  44.231 -23.344  1.00  0.00     0.123 C 
HETATM   21  C21 UNL     1     -17.970  42.995 -24.265  1.00  0.00     0.039 C 
HETATM   22  C22 UNL     1     -19.436  42.658 -24.666  1.00  0.00     0.023 C 
HETATM   23  C24 UNL     1     -20.078  41.549 -23.796  1.00  0.00     0.101 C 
HETATM   24  C25 UNL     1     -20.375  41.994 -22.438  1.00  0.00    -0.101 C 
HETATM   25  C26 UNL     1     -20.462  42.459 -21.332  1.00  0.00    -0.066 C 
HETATM   26  C27 UNL     1     -20.330  43.148 -20.090  1.00  0.00     0.029 A 
HETATM   27  C28 UNL     1     -21.078  42.687 -18.999  1.00  0.00     0.057 A 
HETATM   28  C29 UNL     1     -21.000  43.339 -17.776  1.00  0.00     0.067 A 
HETATM   29  C30 UNL     1     -20.193  44.459 -17.621  1.00  0.00     0.037 A 
HETATM   30  C31 UNL     1     -19.448  44.933 -18.709  1.00  0.00     0.014 A 
HETATM   31  C32 UNL     1     -19.480  44.275 -19.957  1.00  0.00    -0.006 A 
HETATM   32  C33 UNL     1     -18.720  44.855 -21.152  1.00  0.00     0.185 C 
HETATM   33  O6  UNL     1     -18.260  43.815 -22.040  1.00  0.00    -0.371 OA
HETATM   34  C34 UNL     1     -14.803  46.244 -21.848  1.00  0.00     0.031 C 
HETATM   35  C35 UNL     1     -13.520  45.854 -22.586  1.00  0.00     0.051 A 
HETATM   36  C36 UNL     1     -12.709  46.865 -23.123  1.00  0.00     0.004 A 
HETATM   37  C37 UNL     1     -11.424  46.578 -23.602  1.00  0.00     0.008 A 
HETATM   38  C38 UNL     1     -10.907  45.268 -23.549  1.00  0.00    -0.003 A 
HETATM   39  C39 UNL     1     -11.776  44.250 -23.127  1.00  0.00     0.114 A 
HETATM   40  C40 UNL     1     -13.062  44.535 -22.662  1.00  0.00     0.064 A 
HETATM   41  C41 UNL     1      -9.396  44.966 -23.845  1.00  0.00     0.169 C 
HETATM   42  O8  UNL     1      -8.501  45.813 -23.023  1.00  0.00    -0.316 OA
HETATM   43 NA1  UNL     1     -13.612  44.865 -22.638  1.00  0.00    -0.401 Na
ATOM     44  HA1 UNL     1     -14.446  44.299 -22.479  1.00  0.00     0.155 HD
ENDROOT
BRANCH  41  45
HETATM   45  C42 UNL     1      -9.116  45.447 -25.298  1.00  0.00     0.070 C 
BRANCH  45  46
HETATM   46  C43 UNL     1      -7.867  46.337 -25.471  1.00  0.00     0.043 C 
BRANCH  46  47
HETATM   47  C44 UNL     1      -7.866  47.194 -26.756  1.00  0.00     0.058 C 
HETATM   48  C45 UNL     1      -6.401  47.542 -27.115  1.00  0.00     0.038 C 
HETATM   49  C46 UNL     1      -6.220  47.771 -28.613  1.00  0.00     0.003 C 
HETATM   50  C47 UNL     1      -6.560  46.511 -29.413  1.00  0.00     0.000 C 
HETATM   51  C48 UNL     1      -7.662  45.667 -28.769  1.00  0.00     0.003 C 
HETATM   52  C49 UNL     1      -8.599  46.531 -27.942  1.00  0.00     0.038 C 
BRANCH  47  53
HETATM   53  O7  UNL     1      -8.553  48.424 -26.498  1.00  0.00    -0.390 OA
HETATM   54  H46 UNL     1      -8.492  48.609 -25.537  1.00  0.00     0.210 HD
ENDBRANCH  47  53
ENDBRANCH  46  47
ENDBRANCH  45  46
ENDBRANCH  41  45
BRANCH  41  55
HETATM   55  N1  UNL     1      -9.133  43.526 -23.664  1.00  0.00    -0.336 N 
HETATM   56  C50 UNL     1      -9.154  42.561 -24.473  1.00  0.00     0.124 C 
HETATM   57  N2  UNL     1      -8.873  41.328 -24.008  1.00  0.00    -0.279 NA
HETATM   58  N3  UNL     1      -9.406  42.484 -25.802  1.00  0.00    -0.279 NA
HETATM   59  H57 UNL     1      -8.589  41.356 -23.033  1.00  0.00     0.126 HD
HETATM   60  H58 UNL     1      -8.244  40.765 -24.577  1.00  0.00     0.126 HD
HETATM   61  H59 UNL     1      -8.661  42.929 -26.343  1.00  0.00     0.126 HD
HETATM   62  H60 UNL     1      -9.475  41.518 -26.096  1.00  0.00     0.126 HD
ATOM     63  H1  UNL     1      -8.889  43.265 -22.708  1.00  0.00     0.165 HD
ENDBRANCH  41  55
BRANCH  13  64
HETATM   64  S1  UNL     1     -14.895  47.836 -18.688  1.00  0.00     0.106 S 
HETATM   65  O1  UNL     1     -14.384  48.801 -19.656  1.00  0.00    -0.595 OA
HETATM   66  O2  UNL     1     -14.350  47.998 -17.334  1.00  0.00    -0.595 OA
HETATM   67  O3  UNL     1     -16.347  47.674 -18.705  1.00  0.00    -0.595 OA
ENDBRANCH  13  64
BRANCH  22  68
HETATM   68  C23 UNL     1     -19.471  42.182 -26.132  1.00  0.00     0.169 C 
BRANCH  68  69
HETATM   69  O4  UNL     1     -20.658  41.446 -26.415  1.00  0.00    -0.400 OA
HETATM   70  H29 UNL     1     -21.425  42.015 -26.219  1.00  0.00     0.209 HD
ENDBRANCH  68  69
ENDBRANCH  22  68
BRANCH  28  71
HETATM   71  O5  UNL     1     -21.750  42.849 -16.747  1.00  0.00    -0.361 OA
HETATM   72  H33 UNL     1     -21.593  43.415 -15.973  1.00  0.00     0.217 HD
ENDBRANCH  28  71
TORSDOF 9
ENDMDL
MODEL 9
REMARK minimizedAffinity -11.3331947
REMARK CNNscore 0.0812671706
REMARK CNNaffinity 6.9816308
REMARK  9 active torsions:
REMARK  status: ('A' for Active; 'I' for Inactive)
REMARK    1  A    between atoms: C13_13  and  S1_14 
REMARK    2  A    between atoms: C22_26  and  C23_27 
REMARK    3  A    between atoms: C23_27  and  O4_28 
REMARK    4  A    between atoms: C29_34  and  O5_35 
REMARK    5  A    between atoms: C41_48  and  C42_49 
REMARK    6  A    between atoms: C41_48  and  N1_58 
REMARK    7  A    between atoms: C42_49  and  C43_50 
REMARK    8  A    between atoms: C43_50  and  C44_51 
REMARK    9  A    between atoms: C44_51  and  O7_52 
REMARK       I    between atoms: C50_60  and  N2_61 
REMARK       I    between atoms: C50_60  and  N3_62 
ROOT
HETATM    1  C1  UNL     1     -11.299  42.849 -33.899  1.00  0.00     0.010 C 
HETATM    2  C2  UNL     1     -10.862  43.974 -32.961  1.00  0.00    -0.010 C 
HETATM    3  C3  UNL     1     -10.361  45.157 -33.801  1.00  0.00     0.009 C 
HETATM    4  C4  UNL     1      -9.786  46.253 -32.907  1.00  0.00     0.039 C 
HETATM    5  C5  UNL     1      -8.620  45.709 -32.128  1.00  0.00    -0.049 C 
HETATM    6  C6  UNL     1      -7.696  46.569 -31.546  1.00  0.00     0.044 C 
HETATM    7  C7  UNL     1      -6.682  46.049 -30.739  1.00  0.00     0.072 C 
HETATM    8  C8  UNL     1      -6.462  44.671 -30.689  1.00  0.00     0.037 C 
HETATM    9  C9  UNL     1      -7.400  43.806 -31.240  1.00  0.00     0.011 C 
HETATM   10  C10 UNL     1      -8.544  44.323 -31.871  1.00  0.00    -0.047 C 
HETATM   11  C11 UNL     1      -9.828  43.465 -31.916  1.00  0.00     0.024 C 
HETATM   12  C12 UNL     1     -10.356  43.579 -30.458  1.00  0.00     0.033 C 
HETATM   13  C13 UNL     1     -11.686  42.977 -29.980  1.00  0.00     0.139 C 
HETATM   14  C14 UNL     1     -12.143  43.740 -28.677  1.00  0.00     0.037 C 
HETATM   15  C15 UNL     1     -13.564  43.439 -28.229  1.00  0.00    -0.014 C 
HETATM   16  C16 UNL     1     -13.836  43.006 -26.979  1.00  0.00    -0.050 C 
HETATM   17  C17 UNL     1     -12.703  42.637 -26.070  1.00  0.00     0.042 C 
HETATM   18  C18 UNL     1     -11.775  43.850 -26.076  1.00  0.00    -0.001 C 
HETATM   19  C19 UNL     1     -12.509  45.187 -25.737  1.00  0.00     0.037 C 
HETATM   20  C20 UNL     1     -13.865  45.073 -24.988  1.00  0.00     0.123 C 
HETATM   21  C21 UNL     1     -14.225  46.440 -24.361  1.00  0.00     0.039 C 
HETATM   22  C22 UNL     1     -15.376  46.376 -23.315  1.00  0.00     0.023 C 
HETATM   23  C24 UNL     1     -16.762  46.758 -23.893  1.00  0.00     0.101 C 
HETATM   24  C25 UNL     1     -17.299  45.743 -24.793  1.00  0.00    -0.101 C 
HETATM   25  C26 UNL     1     -17.566  44.883 -25.591  1.00  0.00    -0.066 C 
HETATM   26  C27 UNL     1     -17.604  43.853 -26.579  1.00  0.00     0.029 A 
HETATM   27  C28 UNL     1     -18.837  43.560 -27.175  1.00  0.00     0.057 A 
HETATM   28  C29 UNL     1     -18.927  42.552 -28.124  1.00  0.00     0.067 A 
HETATM   29  C30 UNL     1     -17.806  41.816 -28.485  1.00  0.00     0.037 A 
HETATM   30  C31 UNL     1     -16.571  42.096 -27.888  1.00  0.00     0.014 A 
HETATM   31  C32 UNL     1     -16.437  43.136 -26.943  1.00  0.00    -0.006 A 
HETATM   32  C33 UNL     1     -15.095  43.373 -26.246  1.00  0.00     0.185 C 
HETATM   33  O6  UNL     1     -14.908  44.769 -25.924  1.00  0.00    -0.371 OA
HETATM   34  C34 UNL     1     -11.092  43.821 -27.483  1.00  0.00     0.031 C 
HETATM   35  C35 UNL     1     -10.001  44.887 -27.608  1.00  0.00     0.051 A 
HETATM   36  C36 UNL     1      -8.662  44.518 -27.412  1.00  0.00     0.004 A 
HETATM   37  C37 UNL     1      -7.619  45.396 -27.736  1.00  0.00     0.008 A 
HETATM   38  C38 UNL     1      -7.886  46.670 -28.275  1.00  0.00    -0.003 A 
HETATM   39  C39 UNL     1      -9.229  47.071 -28.345  1.00  0.00     0.114 A 
HETATM   40  C40 UNL     1     -10.268  46.200 -28.009  1.00  0.00     0.064 A 
HETATM   41  C41 UNL     1      -6.746  47.567 -28.872  1.00  0.00     0.169 C 
HETATM   42  O8  UNL     1      -5.949  46.833 -29.883  1.00  0.00    -0.316 OA
HETATM   43 NA1  UNL     1     -10.542  45.719 -27.685  1.00  0.00    -0.401 Na
ATOM     44  HA1 UNL     1     -11.532  45.849 -27.477  1.00  0.00     0.155 HD
ENDROOT
BRANCH  41  45
HETATM   45  C42 UNL     1      -5.726  47.824 -27.725  1.00  0.00     0.070 C 
BRANCH  45  46
HETATM   46  C43 UNL     1      -4.516  48.704 -28.102  1.00  0.00     0.043 C 
BRANCH  46  47
HETATM   47  C44 UNL     1      -3.866  49.440 -26.909  1.00  0.00     0.058 C 
HETATM   48  C45 UNL     1      -2.672  48.594 -26.400  1.00  0.00     0.038 C 
HETATM   49  C46 UNL     1      -1.603  49.459 -25.737  1.00  0.00     0.003 C 
HETATM   50  C47 UNL     1      -1.013  50.469 -26.724  1.00  0.00     0.000 C 
HETATM   51  C48 UNL     1      -2.020  50.948 -27.771  1.00  0.00     0.003 C 
HETATM   52  C49 UNL     1      -3.439  50.888 -27.233  1.00  0.00     0.038 C 
BRANCH  47  53
HETATM   53  O7  UNL     1      -4.817  49.532 -25.842  1.00  0.00    -0.390 OA
HETATM   54  H46 UNL     1      -5.456  48.795 -25.942  1.00  0.00     0.210 HD
ENDBRANCH  47  53
ENDBRANCH  46  47
ENDBRANCH  45  46
ENDBRANCH  41  45
BRANCH  41  55
HETATM   55  N1  UNL     1      -7.323  48.814 -29.407  1.00  0.00    -0.336 N 
HETATM   56  C50 UNL     1      -8.439  49.061 -29.939  1.00  0.00     0.124 C 
HETATM   57  N2  UNL     1      -8.688  50.321 -30.348  1.00  0.00    -0.279 NA
HETATM   58  N3  UNL     1      -9.521  48.290 -30.200  1.00  0.00    -0.279 NA
HETATM   59  H57 UNL     1      -7.935  50.951 -30.088  1.00  0.00     0.126 HD
HETATM   60  H58 UNL     1      -9.604  50.697 -30.115  1.00  0.00     0.126 HD
HETATM   61  H59 UNL     1      -9.989  48.010 -29.336  1.00  0.00     0.126 HD
HETATM   62  H60 UNL     1     -10.188  48.795 -30.771  1.00  0.00     0.126 HD
ATOM     63  H1  UNL     1      -6.707  49.623 -29.334  1.00  0.00     0.165 HD
ENDBRANCH  41  55
BRANCH  13  64
HETATM   64  S1  UNL     1     -11.601  41.192 -29.799  1.00  0.00     0.106 S 
HETATM   65  O1  UNL     1     -12.900  40.789 -29.270  1.00  0.00    -0.595 OA
HETATM   66  O2  UNL     1     -10.487  41.002 -28.863  1.00  0.00    -0.595 OA
HETATM   67  O3  UNL     1     -11.313  40.692 -31.141  1.00  0.00    -0.595 OA
ENDBRANCH  13  64
BRANCH  22  68
HETATM   68  C23 UNL     1     -15.071  47.346 -22.155  1.00  0.00     0.169 C 
BRANCH  68  69
HETATM   69  O4  UNL     1     -13.696  47.718 -22.134  1.00  0.00    -0.400 OA
HETATM   70  H29 UNL     1     -13.476  48.128 -22.991  1.00  0.00     0.209 HD
ENDBRANCH  68  69
ENDBRANCH  22  68
BRANCH  28  71
HETATM   71  O5  UNL     1     -20.153  42.304 -28.673  1.00  0.00    -0.361 OA
HETATM   72  H33 UNL     1     -20.051  41.573 -29.304  1.00  0.00     0.217 HD
ENDBRANCH  28  71
TORSDOF 9
ENDMDL
