MODEL 1
REMARK minimizedAffinity -10.2609396
REMARK  6 active torsions:
REMARK  status: ('A' for Active; 'I' for Inactive)
REMARK    1  A    between atoms: C2_2  and  C3_3 
REMARK    2  A    between atoms: C2_2  and  C4_5 
REMARK    3  A    between atoms: C3_3  and  O1_4 
REMARK    4  A    between atoms: C4_5  and  C6_7 
REMARK    5  A    between atoms: C7_8  and  C8_9 
REMARK    6  A    between atoms: C8_9  and  C10_11 
ROOT
HETATM    1  C10 UNL     1      -0.427  51.612 -25.671  1.00  0.00     0.002 C 
HETATM    2  C11 UNL     1       0.372  52.933 -25.823  1.00  0.00     0.007 C 
HETATM    3  C12 UNL     1       0.789  53.357 -24.405  1.00  0.00     0.010 C 
HETATM    4  C13 UNL     1       0.397  52.171 -23.522  1.00  0.00     0.023 C 
HETATM    5  C14 UNL     1       0.305  52.315 -22.023  1.00  0.00    -0.070 C 
HETATM    6  C15 UNL     1       0.775  53.376 -21.350  1.00  0.00     0.004 C 
HETATM    7  C16 UNL     1       0.895  53.378 -19.916  1.00  0.00     0.004 C 
HETATM    8  C17 UNL     1       0.322  52.444 -19.139  1.00  0.00    -0.071 C 
HETATM    9  C18 UNL     1       0.444  52.517 -17.634  1.00  0.00     0.035 C 
HETATM   10  C19 UNL     1       0.745  51.159 -17.010  1.00  0.00     0.004 C 
HETATM   11  C20 UNL     1      -0.262  50.108 -17.462  1.00  0.00     0.001 C 
HETATM   12  C21 UNL     1      -0.264  49.982 -18.985  1.00  0.00     0.014 C 
HETATM   13  C22 UNL     1      -0.533  51.318 -19.740  1.00  0.00    -0.013 C 
HETATM   14  C23 UNL     1      -2.009  51.741 -19.529  1.00  0.00     0.021 C 
HETATM   15  C24 UNL     1      -0.200  51.073 -21.282  1.00  0.00     0.027 C 
HETATM   16  C25 UNL     1      -1.347  50.340 -22.036  1.00  0.00     0.011 C 
HETATM   17  C26 UNL     1      -1.168  50.252 -23.560  1.00  0.00     0.011 C 
HETATM   18  C27 UNL     1      -0.897  51.634 -24.183  1.00  0.00    -0.032 C 
HETATM   19  C28 UNL     1      -2.103  52.572 -23.953  1.00  0.00     0.016 C 
ENDROOT
BRANCH   1  20
HETATM   20  C8  UNL     1      -1.405  51.322 -26.846  1.00  0.00     0.008 C 
HETATM   21  C9  UNL     1      -2.322  52.471 -27.282  1.00  0.00     0.014 C 
BRANCH  20  22
HETATM   22  C7  UNL     1      -2.120  49.996 -26.646  1.00  0.00    -0.026 C 
HETATM   23  C6  UNL     1      -3.444  49.790 -26.526  1.00  0.00    -0.026 C 
BRANCH  23  24
HETATM   24  C4  UNL     1      -4.152  48.457 -26.329  1.00  0.00     0.009 C 
HETATM   25  C5  UNL     1      -5.064  48.084 -27.508  1.00  0.00     0.014 C 
BRANCH  24  26
HETATM   26  C2  UNL     1      -4.911  48.422 -24.966  1.00  0.00     0.012 C 
HETATM   27  C1  UNL     1      -6.384  48.014 -25.144  1.00  0.00     0.012 C 
BRANCH  26  28
HETATM   28  C3  UNL     1      -4.842  49.757 -24.201  1.00  0.00     0.168 C 
BRANCH  28  29
HETATM   29  O1  UNL     1      -6.045  50.502 -24.330  1.00  0.00    -0.400 OA
HETATM   30  H7  UNL     1      -6.742  50.026 -23.848  1.00  0.00     0.209 HD
ENDBRANCH  28  29
ENDBRANCH  26  28
ENDBRANCH  24  26
ENDBRANCH  23  24
ENDBRANCH  20  22
ENDBRANCH   1  20
TORSDOF 6
ENDMDL
MODEL 2
REMARK minimizedAffinity -9.55042076
REMARK  6 active torsions:
REMARK  status: ('A' for Active; 'I' for Inactive)
REMARK    1  A    between atoms: C2_2  and  C3_3 
REMARK    2  A    between atoms: C2_2  and  C4_5 
REMARK    3  A    between atoms: C3_3  and  O1_4 
REMARK    4  A    between atoms: C4_5  and  C6_7 
REMARK    5  A    between atoms: C7_8  and  C8_9 
REMARK    6  A    between atoms: C8_9  and  C10_11 
ROOT
HETATM    1  C10 UNL     1      -2.615  49.125 -24.869  1.00  0.00     0.002 C 
HETATM    2  C11 UNL     1      -1.931  50.226 -25.721  1.00  0.00     0.007 C 
HETATM    3  C12 UNL     1      -1.127  51.098 -24.745  1.00  0.00     0.010 C 
HETATM    4  C13 UNL     1      -1.210  50.355 -23.411  1.00  0.00     0.023 C 
HETATM    5  C14 UNL     1      -0.862  51.042 -22.114  1.00  0.00    -0.070 C 
HETATM    6  C15 UNL     1      -0.244  52.231 -22.048  1.00  0.00     0.004 C 
HETATM    7  C16 UNL     1       0.292  52.745 -20.815  1.00  0.00     0.004 C 
HETATM    8  C17 UNL     1      -0.002  52.211 -19.617  1.00  0.00    -0.071 C 
HETATM    9  C18 UNL     1       0.554  52.816 -18.349  1.00  0.00     0.035 C 
HETATM   10  C19 UNL     1       1.061  51.758 -17.376  1.00  0.00     0.004 C 
HETATM   11  C20 UNL     1      -0.006  50.706 -17.099  1.00  0.00     0.001 C 
HETATM   12  C21 UNL     1      -0.452  50.035 -18.397  1.00  0.00     0.014 C 
HETATM   13  C22 UNL     1      -0.966  51.021 -19.487  1.00  0.00    -0.013 C 
HETATM   14  C23 UNL     1      -2.325  51.617 -19.042  1.00  0.00     0.021 C 
HETATM   15  C24 UNL     1      -1.094  50.204 -20.853  1.00  0.00     0.027 C 
HETATM   16  C25 UNL     1      -2.392  49.348 -20.922  1.00  0.00     0.011 C 
HETATM   17  C26 UNL     1      -2.666  48.696 -22.286  1.00  0.00     0.011 C 
HETATM   18  C27 UNL     1      -2.627  49.728 -23.430  1.00  0.00    -0.032 C 
HETATM   19  C28 UNL     1      -3.737  50.784 -23.236  1.00  0.00     0.016 C 
ENDROOT
BRANCH   1  20
HETATM   20  C8  UNL     1      -3.887  48.512 -25.523  1.00  0.00     0.008 C 
HETATM   21  C9  UNL     1      -3.932  48.486 -27.055  1.00  0.00     0.014 C 
BRANCH  20  22
HETATM   22  C7  UNL     1      -5.149  49.050 -24.870  1.00  0.00    -0.026 C 
HETATM   23  C6  UNL     1      -6.302  48.393 -24.654  1.00  0.00    -0.026 C 
BRANCH  23  24
HETATM   24  C4  UNL     1      -7.562  48.939 -23.996  1.00  0.00     0.009 C 
HETATM   25  C5  UNL     1      -7.493  48.917 -22.461  1.00  0.00     0.014 C 
BRANCH  24  26
HETATM   26  C2  UNL     1      -8.835  48.217 -24.537  1.00  0.00     0.012 C 
HETATM   27  C1  UNL     1      -8.659  46.688 -24.552  1.00  0.00     0.012 C 
BRANCH  26  28
HETATM   28  C3  UNL     1      -9.250  48.694 -25.941  1.00  0.00     0.168 C 
BRANCH  28  29
HETATM   29  O1  UNL     1      -9.598  50.071 -25.949  1.00  0.00    -0.400 OA
HETATM   30  H7  UNL     1      -8.787  50.583 -25.791  1.00  0.00     0.209 HD
ENDBRANCH  28  29
ENDBRANCH  26  28
ENDBRANCH  24  26
ENDBRANCH  23  24
ENDBRANCH  20  22
ENDBRANCH   1  20
TORSDOF 6
ENDMDL
MODEL 3
REMARK minimizedAffinity -9.46887493
REMARK  6 active torsions:
REMARK  status: ('A' for Active; 'I' for Inactive)
REMARK    1  A    between atoms: C2_2  and  C3_3 
REMARK    2  A    between atoms: C2_2  and  C4_5 
REMARK    3  A    between atoms: C3_3  and  O1_4 
REMARK    4  A    between atoms: C4_5  and  C6_7 
REMARK    5  A    between atoms: C7_8  and  C8_9 
REMARK    6  A    between atoms: C8_9  and  C10_11 
ROOT
HETATM    1  C10 UNL     1      -0.718  50.137 -21.718  1.00  0.00     0.002 C 
HETATM    2  C11 UNL     1      -0.731  49.262 -20.436  1.00  0.00     0.007 C 
HETATM    3  C12 UNL     1      -1.963  48.350 -20.541  1.00  0.00     0.010 C 
HETATM    4  C13 UNL     1      -2.492  48.584 -21.957  1.00  0.00     0.023 C 
HETATM    5  C14 UNL     1      -3.885  48.159 -22.348  1.00  0.00    -0.070 C 
HETATM    6  C15 UNL     1      -4.653  47.356 -21.595  1.00  0.00     0.004 C 
HETATM    7  C16 UNL     1      -5.868  46.773 -22.098  1.00  0.00     0.004 C 
HETATM    8  C17 UNL     1      -6.450  47.178 -23.240  1.00  0.00    -0.071 C 
HETATM    9  C18 UNL     1      -7.750  46.559 -23.701  1.00  0.00     0.035 C 
HETATM   10  C19 UNL     1      -7.749  46.254 -25.194  1.00  0.00     0.004 C 
HETATM   11  C20 UNL     1      -7.369  47.484 -26.009  1.00  0.00     0.001 C 
HETATM   12  C21 UNL     1      -5.994  48.004 -25.593  1.00  0.00     0.014 C 
HETATM   13  C22 UNL     1      -5.861  48.325 -24.074  1.00  0.00    -0.013 C 
HETATM   14  C23 UNL     1      -6.706  49.579 -23.737  1.00  0.00     0.021 C 
HETATM   15  C24 UNL     1      -4.311  48.553 -23.765  1.00  0.00     0.027 C 
HETATM   16  C25 UNL     1      -3.818  49.971 -24.175  1.00  0.00     0.011 C 
HETATM   17  C26 UNL     1      -2.390  50.317 -23.725  1.00  0.00     0.011 C 
HETATM   18  C27 UNL     1      -2.197  50.084 -22.215  1.00  0.00    -0.032 C 
HETATM   19  C28 UNL     1      -3.130  51.011 -21.405  1.00  0.00     0.016 C 
ENDROOT
BRANCH   1  20
HETATM   20  C8  UNL     1       0.059  51.476 -21.568  1.00  0.00     0.008 C 
HETATM   21  C9  UNL     1      -0.245  52.316 -20.321  1.00  0.00     0.014 C 
BRANCH  20  22
HETATM   22  C7  UNL     1       0.047  52.263 -22.867  1.00  0.00    -0.026 C 
HETATM   23  C6  UNL     1       0.798  52.046 -23.962  1.00  0.00    -0.026 C 
BRANCH  23  24
HETATM   24  C4  UNL     1       0.777  52.838 -25.262  1.00  0.00     0.009 C 
HETATM   25  C5  UNL     1      -0.508  53.662 -25.439  1.00  0.00     0.014 C 
BRANCH  24  26
HETATM   26  C2  UNL     1       1.054  51.911 -26.487  1.00  0.00     0.012 C 
HETATM   27  C1  UNL     1       0.007  50.790 -26.601  1.00  0.00     0.012 C 
BRANCH  26  28
HETATM   28  C3  UNL     1       2.463  51.291 -26.469  1.00  0.00     0.168 C 
BRANCH  28  29
HETATM   29  O1  UNL     1       3.354  51.978 -27.336  1.00  0.00    -0.400 OA
HETATM   30  H7  UNL     1       3.514  52.859 -26.958  1.00  0.00     0.209 HD
ENDBRANCH  28  29
ENDBRANCH  26  28
ENDBRANCH  24  26
ENDBRANCH  23  24
ENDBRANCH  20  22
ENDBRANCH   1  20
TORSDOF 6
ENDMDL
MODEL 4
REMARK minimizedAffinity -9.08979511
REMARK  6 active torsions:
REMARK  status: ('A' for Active; 'I' for Inactive)
REMARK    1  A    between atoms: C2_2  and  C3_3 
REMARK    2  A    between atoms: C2_2  and  C4_5 
REMARK    3  A    between atoms: C3_3  and  O1_4 
REMARK    4  A    between atoms: C4_5  and  C6_7 
REMARK    5  A    between atoms: C7_8  and  C8_9 
REMARK    6  A    between atoms: C8_9  and  C10_11 
ROOT
HETATM    1  C10 UNL     1      -6.095  49.349 -23.003  1.00  0.00     0.002 C 
HETATM    2  C11 UNL     1      -6.897  49.475 -21.681  1.00  0.00     0.007 C 
HETATM    3  C12 UNL     1      -5.965  50.153 -20.666  1.00  0.00     0.010 C 
HETATM    4  C13 UNL     1      -4.746  50.575 -21.489  1.00  0.00     0.023 C 
HETATM    5  C14 UNL     1      -3.449  50.953 -20.821  1.00  0.00    -0.070 C 
HETATM    6  C15 UNL     1      -3.332  51.177 -19.503  1.00  0.00     0.004 C 
HETATM    7  C16 UNL     1      -2.151  51.768 -18.932  1.00  0.00     0.004 C 
HETATM    8  C17 UNL     1      -1.002  51.903 -19.616  1.00  0.00    -0.071 C 
HETATM    9  C18 UNL     1       0.222  52.493 -18.955  1.00  0.00     0.035 C 
HETATM   10  C19 UNL     1       0.946  53.487 -19.856  1.00  0.00     0.004 C 
HETATM   11  C20 UNL     1       1.258  52.873 -21.215  1.00  0.00     0.001 C 
HETATM   12  C21 UNL     1      -0.023  52.400 -21.901  1.00  0.00     0.014 C 
HETATM   13  C22 UNL     1      -0.868  51.397 -21.061  1.00  0.00    -0.013 C 
HETATM   14  C23 UNL     1      -0.124  50.041 -20.974  1.00  0.00     0.021 C 
HETATM   15  C24 UNL     1      -2.289  51.250 -21.776  1.00  0.00     0.027 C 
HETATM   16  C25 UNL     1      -2.249  50.292 -23.001  1.00  0.00     0.011 C 
HETATM   17  C26 UNL     1      -3.621  49.958 -23.608  1.00  0.00     0.011 C 
HETATM   18  C27 UNL     1      -4.607  49.446 -22.541  1.00  0.00    -0.032 C 
HETATM   19  C28 UNL     1      -4.089  48.130 -21.921  1.00  0.00     0.016 C 
ENDROOT
BRANCH   1  20
HETATM   20  C8  UNL     1      -6.598  48.221 -23.949  1.00  0.00     0.008 C 
HETATM   21  C9  UNL     1      -6.984  46.890 -23.293  1.00  0.00     0.014 C 
BRANCH  20  22
HETATM   22  C7  UNL     1      -5.691  48.079 -25.160  1.00  0.00    -0.026 C 
HETATM   23  C6  UNL     1      -6.054  48.047 -26.454  1.00  0.00    -0.026 C 
BRANCH  23  24
HETATM   24  C4  UNL     1      -5.138  47.908 -27.662  1.00  0.00     0.009 C 
HETATM   25  C5  UNL     1      -3.884  48.792 -27.567  1.00  0.00     0.014 C 
BRANCH  24  26
HETATM   26  C2  UNL     1      -5.922  48.143 -28.990  1.00  0.00     0.012 C 
HETATM   27  C1  UNL     1      -7.021  47.086 -29.198  1.00  0.00     0.012 C 
BRANCH  26  28
HETATM   28  C3  UNL     1      -5.013  48.181 -30.232  1.00  0.00     0.168 C 
BRANCH  28  29
HETATM   29  O1  UNL     1      -4.769  49.510 -30.668  1.00  0.00    -0.400 OA
HETATM   30  H7  UNL     1      -4.217  49.946 -29.997  1.00  0.00     0.209 HD
ENDBRANCH  28  29
ENDBRANCH  26  28
ENDBRANCH  24  26
ENDBRANCH  23  24
ENDBRANCH  20  22
ENDBRANCH   1  20
TORSDOF 6
ENDMDL
MODEL 5
REMARK minimizedAffinity -9.06367302
REMARK  6 active torsions:
REMARK  status: ('A' for Active; 'I' for Inactive)
REMARK    1  A    between atoms: C2_2  and  C3_3 
REMARK    2  A    between atoms: C2_2  and  C4_5 
REMARK    3  A    between atoms: C3_3  and  O1_4 
REMARK    4  A    between atoms: C4_5  and  C6_7 
REMARK    5  A    between atoms: C7_8  and  C8_9 
REMARK    6  A    between atoms: C8_9  and  C10_11 
ROOT
HETATM    1  C10 UNL     1      -1.679  52.176 -22.190  1.00  0.00     0.002 C 
HETATM    2  C11 UNL     1      -2.219  52.660 -23.561  1.00  0.00     0.007 C 
HETATM    3  C12 UNL     1      -3.646  52.106 -23.689  1.00  0.00     0.010 C 
HETATM    4  C13 UNL     1      -3.947  51.505 -22.315  1.00  0.00     0.023 C 
HETATM    5  C14 UNL     1      -5.096  50.548 -22.118  1.00  0.00    -0.070 C 
HETATM    6  C15 UNL     1      -6.056  50.345 -23.034  1.00  0.00     0.004 C 
HETATM    7  C16 UNL     1      -7.261  49.620 -22.728  1.00  0.00     0.004 C 
HETATM    8  C17 UNL     1      -7.404  48.889 -21.610  1.00  0.00    -0.071 C 
HETATM    9  C18 UNL     1      -8.677  48.113 -21.358  1.00  0.00     0.035 C 
HETATM   10  C19 UNL     1      -9.161  48.246 -19.919  1.00  0.00     0.004 C 
HETATM   11  C20 UNL     1      -8.058  47.892 -18.929  1.00  0.00     0.001 C 
HETATM   12  C21 UNL     1      -6.836  48.784 -19.142  1.00  0.00     0.014 C 
HETATM   13  C22 UNL     1      -6.263  48.755 -20.590  1.00  0.00    -0.013 C 
HETATM   14  C23 UNL     1      -5.608  47.377 -20.858  1.00  0.00     0.021 C 
HETATM   15  C24 UNL     1      -5.209  49.948 -20.714  1.00  0.00     0.027 C 
HETATM   16  C25 UNL     1      -3.827  49.597 -20.091  1.00  0.00     0.011 C 
HETATM   17  C26 UNL     1      -2.717  50.627 -20.352  1.00  0.00     0.011 C 
HETATM   18  C27 UNL     1      -2.578  50.946 -21.853  1.00  0.00    -0.032 C 
HETATM   19  C28 UNL     1      -2.169  49.678 -22.635  1.00  0.00     0.016 C 
ENDROOT
BRANCH   1  20
HETATM   20  C8  UNL     1      -0.126  52.119 -22.101  1.00  0.00     0.008 C 
HETATM   21  C9  UNL     1       0.518  52.726 -20.849  1.00  0.00     0.014 C 
BRANCH  20  22
HETATM   22  C7  UNL     1       0.511  52.562 -23.407  1.00  0.00    -0.026 C 
HETATM   23  C6  UNL     1      -0.023  52.502 -24.640  1.00  0.00    -0.026 C 
BRANCH  23  24
HETATM   24  C4  UNL     1       0.622  52.951 -25.944  1.00  0.00     0.009 C 
HETATM   25  C5  UNL     1      -0.254  53.935 -26.736  1.00  0.00     0.014 C 
BRANCH  24  26
HETATM   26  C2  UNL     1       1.056  51.725 -26.806  1.00  0.00     0.012 C 
HETATM   27  C1  UNL     1       0.142  50.511 -26.570  1.00  0.00     0.012 C 
BRANCH  26  28
HETATM   28  C3  UNL     1       2.521  51.311 -26.574  1.00  0.00     0.168 C 
BRANCH  28  29
HETATM   29  O1  UNL     1       3.415  52.049 -27.396  1.00  0.00    -0.400 OA
HETATM   30  H7  UNL     1       3.412  52.970 -27.085  1.00  0.00     0.209 HD
ENDBRANCH  28  29
ENDBRANCH  26  28
ENDBRANCH  24  26
ENDBRANCH  23  24
ENDBRANCH  20  22
ENDBRANCH   1  20
TORSDOF 6
ENDMDL
MODEL 6
REMARK minimizedAffinity -8.97036552
REMARK  6 active torsions:
REMARK  status: ('A' for Active; 'I' for Inactive)
REMARK    1  A    between atoms: C2_2  and  C3_3 
REMARK    2  A    between atoms: C2_2  and  C4_5 
REMARK    3  A    between atoms: C3_3  and  O1_4 
REMARK    4  A    between atoms: C4_5  and  C6_7 
REMARK    5  A    between atoms: C7_8  and  C8_9 
REMARK    6  A    between atoms: C8_9  and  C10_11 
ROOT
HETATM    1  C10 UNL     1      -2.256  49.794 -22.948  1.00  0.00     0.002 C 
HETATM    2  C11 UNL     1      -1.648  51.066 -23.596  1.00  0.00     0.007 C 
HETATM    3  C12 UNL     1      -0.790  51.739 -22.514  1.00  0.00     0.010 C 
HETATM    4  C13 UNL     1      -0.770  50.734 -21.361  1.00  0.00     0.023 C 
HETATM    5  C14 UNL     1      -0.341  51.147 -19.976  1.00  0.00    -0.070 C 
HETATM    6  C15 UNL     1       0.265  52.313 -19.704  1.00  0.00     0.004 C 
HETATM    7  C16 UNL     1       0.878  52.575 -18.429  1.00  0.00     0.004 C 
HETATM    8  C17 UNL     1       0.675  51.797 -17.352  1.00  0.00    -0.071 C 
HETATM    9  C18 UNL     1       1.311  52.142 -16.025  1.00  0.00     0.035 C 
HETATM   10  C19 UNL     1       1.898  50.920 -15.329  1.00  0.00     0.004 C 
HETATM   11  C20 UNL     1       0.867  49.805 -15.207  1.00  0.00     0.001 C 
HETATM   12  C21 UNL     1       0.341  49.404 -16.585  1.00  0.00     0.014 C 
HETATM   13  C22 UNL     1      -0.261  50.580 -17.409  1.00  0.00    -0.013 C 
HETATM   14  C23 UNL     1      -1.594  51.034 -16.762  1.00  0.00     0.021 C 
HETATM   15  C24 UNL     1      -0.474  50.060 -18.904  1.00  0.00     0.027 C 
HETATM   16  C25 UNL     1      -1.761  49.202 -19.065  1.00  0.00     0.011 C 
HETATM   17  C26 UNL     1      -2.122  48.838 -20.514  1.00  0.00     0.011 C 
HETATM   18  C27 UNL     1      -2.176  50.085 -21.417  1.00  0.00    -0.032 C 
HETATM   19  C28 UNL     1      -3.284  51.048 -20.936  1.00  0.00     0.016 C 
ENDROOT
BRANCH   1  20
HETATM   20  C8  UNL     1      -3.562  49.295 -23.631  1.00  0.00     0.008 C 
HETATM   21  C9  UNL     1      -4.198  48.022 -23.059  1.00  0.00     0.014 C 
BRANCH  20  22
HETATM   22  C7  UNL     1      -3.422  49.296 -25.144  1.00  0.00    -0.026 C 
HETATM   23  C6  UNL     1      -3.943  48.414 -26.015  1.00  0.00    -0.026 C 
BRANCH  23  24
HETATM   24  C4  UNL     1      -3.800  48.425 -27.530  1.00  0.00     0.009 C 
HETATM   25  C5  UNL     1      -3.523  49.827 -28.095  1.00  0.00     0.014 C 
BRANCH  24  26
HETATM   26  C2  UNL     1      -5.030  47.750 -28.213  1.00  0.00     0.012 C 
HETATM   27  C1  UNL     1      -5.304  48.342 -29.607  1.00  0.00     0.012 C 
BRANCH  26  28
HETATM   28  C3  UNL     1      -6.312  47.830 -27.366  1.00  0.00     0.168 C 
BRANCH  28  29
HETATM   29  O1  UNL     1      -7.375  48.452 -28.073  1.00  0.00    -0.400 OA
HETATM   30  H7  UNL     1      -7.643  47.855 -28.792  1.00  0.00     0.209 HD
ENDBRANCH  28  29
ENDBRANCH  26  28
ENDBRANCH  24  26
ENDBRANCH  23  24
ENDBRANCH  20  22
ENDBRANCH   1  20
TORSDOF 6
ENDMDL
MODEL 7
REMARK minimizedAffinity -8.90069866
REMARK  6 active torsions:
REMARK  status: ('A' for Active; 'I' for Inactive)
REMARK    1  A    between atoms: C2_2  and  C3_3 
REMARK    2  A    between atoms: C2_2  and  C4_5 
REMARK    3  A    between atoms: C3_3  and  O1_4 
REMARK    4  A    between atoms: C4_5  and  C6_7 
REMARK    5  A    between atoms: C7_8  and  C8_9 
REMARK    6  A    between atoms: C8_9  and  C10_11 
ROOT
HETATM    1  C10 UNL     1      -1.018  51.746 -19.178  1.00  0.00     0.002 C 
HETATM    2  C11 UNL     1       0.372  52.423 -19.042  1.00  0.00     0.007 C 
HETATM    3  C12 UNL     1       0.802  52.828 -20.460  1.00  0.00     0.010 C 
HETATM    4  C13 UNL     1      -0.431  52.559 -21.325  1.00  0.00     0.023 C 
HETATM    5  C14 UNL     1      -0.327  52.483 -22.827  1.00  0.00    -0.070 C 
HETATM    6  C15 UNL     1       0.758  52.871 -23.515  1.00  0.00     0.004 C 
HETATM    7  C16 UNL     1       0.742  53.017 -24.946  1.00  0.00     0.004 C 
HETATM    8  C17 UNL     1      -0.255  52.544 -25.713  1.00  0.00    -0.071 C 
HETATM    9  C18 UNL     1      -0.202  52.687 -27.217  1.00  0.00     0.035 C 
HETATM   10  C19 UNL     1      -1.540  53.119 -27.805  1.00  0.00     0.004 C 
HETATM   11  C20 UNL     1      -2.667  52.200 -27.348  1.00  0.00     0.001 C 
HETATM   12  C21 UNL     1      -2.762  52.180 -25.823  1.00  0.00     0.014 C 
HETATM   13  C22 UNL     1      -1.441  51.780 -25.102  1.00  0.00    -0.013 C 
HETATM   14  C23 UNL     1      -1.155  50.277 -25.348  1.00  0.00     0.021 C 
HETATM   15  C24 UNL     1      -1.623  52.104 -23.549  1.00  0.00     0.027 C 
HETATM   16  C25 UNL     1      -2.440  51.013 -22.799  1.00  0.00     0.011 C 
HETATM   17  C26 UNL     1      -2.481  51.169 -21.271  1.00  0.00     0.011 C 
HETATM   18  C27 UNL     1      -1.068  51.305 -20.674  1.00  0.00    -0.032 C 
HETATM   19  C28 UNL     1      -0.246  50.025 -20.945  1.00  0.00     0.016 C 
ENDROOT
BRANCH   1  20
HETATM   20  C8  UNL     1      -1.370  50.776 -18.014  1.00  0.00     0.008 C 
HETATM   21  C9  UNL     1      -2.794  50.859 -17.451  1.00  0.00     0.014 C 
BRANCH  20  22
HETATM   22  C7  UNL     1      -0.280  50.775 -16.956  1.00  0.00    -0.026 C 
HETATM   23  C6  UNL     1       0.116  49.743 -16.190  1.00  0.00    -0.026 C 
BRANCH  23  24
HETATM   24  C4  UNL     1       1.212  49.749 -15.133  1.00  0.00     0.009 C 
HETATM   25  C5  UNL     1       0.905  48.821 -13.947  1.00  0.00     0.014 C 
BRANCH  24  26
HETATM   26  C2  UNL     1       1.535  51.205 -14.672  1.00  0.00     0.012 C 
HETATM   27  C1  UNL     1       0.277  51.938 -14.175  1.00  0.00     0.012 C 
BRANCH  26  28
HETATM   28  C3  UNL     1       2.217  52.048 -15.764  1.00  0.00     0.168 C 
BRANCH  28  29
HETATM   29  O1  UNL     1       1.607  53.323 -15.905  1.00  0.00    -0.400 OA
HETATM   30  H7  UNL     1       1.800  53.835 -15.102  1.00  0.00     0.209 HD
ENDBRANCH  28  29
ENDBRANCH  26  28
ENDBRANCH  24  26
ENDBRANCH  23  24
ENDBRANCH  20  22
ENDBRANCH   1  20
TORSDOF 6
ENDMDL
MODEL 8
REMARK minimizedAffinity -8.80774975
REMARK  6 active torsions:
REMARK  status: ('A' for Active; 'I' for Inactive)
REMARK    1  A    between atoms: C2_2  and  C3_3 
REMARK    2  A    between atoms: C2_2  and  C4_5 
REMARK    3  A    between atoms: C3_3  and  O1_4 
REMARK    4  A    between atoms: C4_5  and  C6_7 
REMARK    5  A    between atoms: C7_8  and  C8_9 
REMARK    6  A    between atoms: C8_9  and  C10_11 
ROOT
HETATM    1  C10 UNL     1      -0.065  50.453 -18.298  1.00  0.00     0.002 C 
HETATM    2  C11 UNL     1      -0.751  49.173 -17.752  1.00  0.00     0.007 C 
HETATM    3  C12 UNL     1      -1.479  48.526 -18.941  1.00  0.00     0.010 C 
HETATM    4  C13 UNL     1      -1.021  49.335 -20.155  1.00  0.00     0.023 C 
HETATM    5  C14 UNL     1      -1.765  49.262 -21.465  1.00  0.00    -0.070 C 
HETATM    6  C15 UNL     1      -2.700  48.338 -21.735  1.00  0.00     0.004 C 
HETATM    7  C16 UNL     1      -3.215  48.140 -23.064  1.00  0.00     0.004 C 
HETATM    8  C17 UNL     1      -2.996  49.009 -24.065  1.00  0.00    -0.071 C 
HETATM    9  C18 UNL     1      -3.595  48.773 -25.432  1.00  0.00     0.035 C 
HETATM   10  C19 UNL     1      -2.603  49.049 -26.555  1.00  0.00     0.004 C 
HETATM   11  C20 UNL     1      -1.988  50.437 -26.421  1.00  0.00     0.001 C 
HETATM   12  C21 UNL     1      -1.288  50.589 -25.072  1.00  0.00     0.014 C 
HETATM   13  C22 UNL     1      -2.197  50.303 -23.840  1.00  0.00    -0.013 C 
HETATM   14  C23 UNL     1      -3.246  51.435 -23.699  1.00  0.00     0.021 C 
HETATM   15  C24 UNL     1      -1.252  50.205 -22.557  1.00  0.00     0.027 C 
HETATM   16  C25 UNL     1      -0.837  51.601 -22.008  1.00  0.00     0.011 C 
HETATM   17  C26 UNL     1      -0.091  51.574 -20.665  1.00  0.00     0.011 C 
HETATM   18  C27 UNL     1      -0.865  50.773 -19.600  1.00  0.00    -0.032 C 
HETATM   19  C28 UNL     1      -2.228  51.440 -19.313  1.00  0.00     0.016 C 
ENDROOT
BRANCH   1  20
HETATM   20  C8  UNL     1       0.223  51.533 -17.216  1.00  0.00     0.008 C 
HETATM   21  C9  UNL     1       1.384  52.496 -17.492  1.00  0.00     0.014 C 
BRANCH  20  22
HETATM   22  C7  UNL     1       0.239  50.920 -15.825  1.00  0.00    -0.026 C 
HETATM   23  C6  UNL     1       1.303  50.450 -15.150  1.00  0.00    -0.026 C 
BRANCH  23  24
HETATM   24  C4  UNL     1       1.311  49.841 -13.755  1.00  0.00     0.009 C 
HETATM   25  C5  UNL     1       0.083  50.239 -12.922  1.00  0.00     0.014 C 
BRANCH  24  26
HETATM   26  C2  UNL     1       2.649  50.152 -13.016  1.00  0.00     0.012 C 
HETATM   27  C1  UNL     1       2.830  51.661 -12.775  1.00  0.00     0.012 C 
BRANCH  26  28
HETATM   28  C3  UNL     1       3.887  49.602 -13.747  1.00  0.00     0.168 C 
BRANCH  28  29
HETATM   29  O1  UNL     1       5.059  49.702 -12.952  1.00  0.00    -0.400 OA
HETATM   30  H7  UNL     1       4.968  49.081 -12.210  1.00  0.00     0.209 HD
ENDBRANCH  28  29
ENDBRANCH  26  28
ENDBRANCH  24  26
ENDBRANCH  23  24
ENDBRANCH  20  22
ENDBRANCH   1  20
TORSDOF 6
ENDMDL
MODEL 9
REMARK minimizedAffinity -8.79051018
REMARK  6 active torsions:
REMARK  status: ('A' for Active; 'I' for Inactive)
REMARK    1  A    between atoms: C2_2  and  C3_3 
REMARK    2  A    between atoms: C2_2  and  C4_5 
REMARK    3  A    between atoms: C3_3  and  O1_4 
REMARK    4  A    between atoms: C4_5  and  C6_7 
REMARK    5  A    between atoms: C7_8  and  C8_9 
REMARK    6  A    between atoms: C8_9  and  C10_11 
ROOT
HETATM    1  C10 UNL     1      -5.015  49.319 -24.341  1.00  0.00     0.002 C 
HETATM    2  C11 UNL     1      -6.131  49.343 -23.263  1.00  0.00     0.007 C 
HETATM    3  C12 UNL     1      -5.531  50.031 -22.028  1.00  0.00     0.010 C 
HETATM    4  C13 UNL     1      -4.176  50.558 -22.504  1.00  0.00     0.023 C 
HETATM    5  C14 UNL     1      -3.116  50.982 -21.519  1.00  0.00    -0.070 C 
HETATM    6  C15 UNL     1      -3.349  51.158 -20.210  1.00  0.00     0.004 C 
HETATM    7  C16 UNL     1      -2.392  51.793 -19.343  1.00  0.00     0.004 C 
HETATM    8  C17 UNL     1      -1.119  52.022 -19.710  1.00  0.00    -0.071 C 
HETATM    9  C18 UNL     1      -0.143  52.655 -18.745  1.00  0.00     0.035 C 
HETATM   10  C19 UNL     1       0.715  53.726 -19.408  1.00  0.00     0.004 C 
HETATM   11  C20 UNL     1       1.400  53.188 -20.659  1.00  0.00     0.001 C 
HETATM   12  C21 UNL     1       0.367  52.670 -21.659  1.00  0.00     0.014 C 
HETATM   13  C22 UNL     1      -0.594  51.586 -21.087  1.00  0.00    -0.013 C 
HETATM   14  C23 UNL     1       0.194  50.273 -20.849  1.00  0.00     0.021 C 
HETATM   15  C24 UNL     1      -1.776  51.386 -22.141  1.00  0.00     0.027 C 
HETATM   16  C25 UNL     1      -1.366  50.484 -23.340  1.00  0.00     0.011 C 
HETATM   17  C26 UNL     1      -2.515  50.097 -24.284  1.00  0.00     0.011 C 
HETATM   18  C27 UNL     1      -3.701  49.483 -23.515  1.00  0.00    -0.032 C 
HETATM   19  C28 UNL     1      -3.269  48.175 -22.818  1.00  0.00     0.016 C 
ENDROOT
BRANCH   1  20
HETATM   20  C8  UNL     1      -5.188  48.204 -25.412  1.00  0.00     0.008 C 
HETATM   21  C9  UNL     1      -4.509  48.436 -26.767  1.00  0.00     0.014 C 
BRANCH  20  22
HETATM   22  C7  UNL     1      -6.638  47.762 -25.510  1.00  0.00    -0.026 C 
HETATM   23  C6  UNL     1      -7.235  47.134 -26.538  1.00  0.00    -0.026 C 
BRANCH  23  24
HETATM   24  C4  UNL     1      -8.689  46.691 -26.627  1.00  0.00     0.009 C 
HETATM   25  C5  UNL     1      -8.855  45.315 -27.292  1.00  0.00     0.014 C 
BRANCH  24  26
HETATM   26  C2  UNL     1      -9.567  47.784 -27.312  1.00  0.00     0.012 C 
HETATM   27  C1  UNL     1      -8.801  48.511 -28.431  1.00  0.00     0.012 C 
BRANCH  26  28
HETATM   28  C3  UNL     1     -10.122  48.822 -26.320  1.00  0.00     0.168 C 
BRANCH  28  29
HETATM   29  O1  UNL     1      -9.392  50.040 -26.365  1.00  0.00    -0.400 OA
HETATM   30  H7  UNL     1      -9.571  50.461 -27.223  1.00  0.00     0.209 HD
ENDBRANCH  28  29
ENDBRANCH  26  28
ENDBRANCH  24  26
ENDBRANCH  23  24
ENDBRANCH  20  22
ENDBRANCH   1  20
TORSDOF 6
ENDMDL
