MODEL 1
REMARK minimizedAffinity -9.75781631
REMARK CNNscore 0.496659875
REMARK CNNaffinity 7.91535997
REMARK  11 active torsions:
REMARK  status: ('A' for Active; 'I' for Inactive)
REMARK    1  A    between atoms: C12_13  and  O2_14 
REMARK    2  A    between atoms: C19_21  and  O3_22 
REMARK    3  A    between atoms: C19_21  and  C20_23 
REMARK    4  A    between atoms: C20_23  and  C21_25 
REMARK    5  A    between atoms: C21_25  and  O5_26 
REMARK    6  A    between atoms: O5_26  and  C22_27 
REMARK    7  A    between atoms: C22_27  and  C23_29 
REMARK    8  A    between atoms: C23_29  and  C24_30 
REMARK    9  A    between atoms: C24_30  and  C25_31 
REMARK       I    between atoms: C25_31  and  N1_33 
REMARK   10  A    between atoms: N1_33  and  C26_34 
REMARK   11  A    between atoms: C26_34  and  C27_35 
ROOT
HETATM    1  C1  UNL     1      -4.107  51.426 -24.755  1.00  0.00     0.020 C 
HETATM    2  C2  UNL     1      -3.479  50.023 -24.583  1.00  0.00    -0.014 C 
HETATM    3  C3  UNL     1      -2.216  49.913 -25.487  1.00  0.00     0.022 C 
HETATM    4  C4  UNL     1      -2.532  49.831 -26.977  1.00  0.00     0.084 C 
HETATM    5  C5  UNL     1      -3.495  48.706 -27.257  1.00  0.00     0.149 C 
HETATM    6  O1  UNL     1      -3.516  48.105 -28.329  1.00  0.00    -0.293 OA
HETATM    7  C6  UNL     1      -4.511  48.385 -26.231  1.00  0.00     0.053 C 
HETATM    8  C7  UNL     1      -4.538  49.009 -25.039  1.00  0.00    -0.068 C 
HETATM    9  C8  UNL     1      -5.690  48.757 -24.095  1.00  0.00     0.035 C 
HETATM   10  C9  UNL     1      -5.203  48.398 -22.701  1.00  0.00     0.010 C 
HETATM   11  C10 UNL     1      -4.255  49.471 -22.140  1.00  0.00    -0.002 C 
HETATM   12  C11 UNL     1      -3.043  49.680 -23.100  1.00  0.00     0.031 C 
HETATM   13  C12 UNL     1      -1.926  50.592 -22.492  1.00  0.00     0.124 C 
HETATM   14  C13 UNL     1      -1.594  50.312 -21.007  1.00  0.00     0.045 C 
HETATM   15  C14 UNL     1      -2.831  50.127 -20.098  1.00  0.00     0.001 C 
HETATM   16  C15 UNL     1      -3.562  51.473 -19.890  1.00  0.00     0.019 C 
HETATM   17  C16 UNL     1      -3.726  49.053 -20.760  1.00  0.00     0.002 C 
HETATM   18  C17 UNL     1      -4.724  48.690 -19.671  1.00  0.00     0.009 C 
HETATM   19  C18 UNL     1      -3.941  48.830 -18.345  1.00  0.00     0.047 C 
HETATM   20  C19 UNL     1      -2.575  49.452 -18.705  1.00  0.00     0.128 C 
ENDROOT
BRANCH  20  21
HETATM   21  O3  UNL     1      -1.661  48.348 -18.860  1.00  0.00    -0.381 OA
HETATM   22  H27 UNL     1      -0.762  48.740 -18.890  1.00  0.00     0.211 HD
ENDBRANCH  20  21
BRANCH  20  23
HETATM   23  C20 UNL     1      -1.902  50.360 -17.653  1.00  0.00     0.185 C 
HETATM   24  O4  UNL     1      -2.614  51.060 -16.923  1.00  0.00    -0.292 OA
BRANCH  23  25
HETATM   25  C21 UNL     1      -0.382  50.455 -17.575  1.00  0.00     0.260 C 
BRANCH  25  26
HETATM   26  O5  UNL     1       0.238  51.145 -18.656  1.00  0.00    -0.314 OA
BRANCH  26  27
HETATM   27  C22 UNL     1       0.430  52.478 -18.448  1.00  0.00     0.259 C 
HETATM   28  O6  UNL     1       0.717  52.965 -17.368  1.00  0.00    -0.265 OA
BRANCH  27  29
HETATM   29  C23 UNL     1       0.388  53.264 -19.739  1.00  0.00     0.120 C 
BRANCH  29  30
HETATM   30  C24 UNL     1       1.366  52.773 -20.798  1.00  0.00     0.112 C 
BRANCH  30  31
HETATM   31  C25 UNL     1       1.286  53.672 -22.010  1.00  0.00     0.218 C 
HETATM   32  O7  UNL     1       1.697  54.830 -21.978  1.00  0.00    -0.274 OA
HETATM   33  N1  UNL     1       0.660  53.106 -23.098  1.00  0.00    -0.357 N 
HETATM   34  H34 UNL     1       0.112  52.266 -22.958  1.00  0.00     0.162 HD
BRANCH  33  35
HETATM   35  C26 UNL     1       0.341  53.907 -24.260  1.00  0.00     0.162 C 
BRANCH  35  36
HETATM   36  C27 UNL     1       0.427  53.088 -25.517  1.00  0.00    -0.025 A 
HETATM   37  C28 UNL     1       0.986  51.805 -25.516  1.00  0.00     0.011 A 
HETATM   38  C29 UNL     1       1.091  51.096 -26.710  1.00  0.00     0.018 A 
HETATM   39  C30 UNL     1       0.633  51.693 -27.873  1.00  0.00     0.087 A 
HETATM   40  N2  UNL     1       0.081  52.929 -27.913  1.00  0.00    -0.375 N 
HETATM   41  C31 UNL     1      -0.014  53.592 -26.736  1.00  0.00     0.096 A 
ATOM     42  H2  UNL     1      -0.247  53.341 -28.787  1.00  0.00     0.164 HD
ENDBRANCH  35  36
ENDBRANCH  33  35
ENDBRANCH  30  31
ENDBRANCH  29  30
ENDBRANCH  27  29
ENDBRANCH  26  27
ENDBRANCH  25  26
ENDBRANCH  23  25
ENDBRANCH  20  23
BRANCH  13  43
HETATM   43  O2  UNL     1      -2.167  51.977 -22.669  1.00  0.00    -0.395 OA
HETATM   44  H16 UNL     1      -3.082  52.181 -22.424  1.00  0.00     0.210 HD
ENDBRANCH  13  43
TORSDOF 11
ENDMDL
MODEL 2
REMARK minimizedAffinity -8.79621029
REMARK CNNscore 0.492763728
REMARK CNNaffinity 6.58741188
REMARK  11 active torsions:
REMARK  status: ('A' for Active; 'I' for Inactive)
REMARK    1  A    between atoms: C12_13  and  O2_14 
REMARK    2  A    between atoms: C19_21  and  O3_22 
REMARK    3  A    between atoms: C19_21  and  C20_23 
REMARK    4  A    between atoms: C20_23  and  C21_25 
REMARK    5  A    between atoms: C21_25  and  O5_26 
REMARK    6  A    between atoms: O5_26  and  C22_27 
REMARK    7  A    between atoms: C22_27  and  C23_29 
REMARK    8  A    between atoms: C23_29  and  C24_30 
REMARK    9  A    between atoms: C24_30  and  C25_31 
REMARK       I    between atoms: C25_31  and  N1_33 
REMARK   10  A    between atoms: N1_33  and  C26_34 
REMARK   11  A    between atoms: C26_34  and  C27_35 
ROOT
HETATM    1  C1  UNL     1      -0.751  50.271 -25.431  1.00  0.00     0.020 C 
HETATM    2  C2  UNL     1      -1.366  51.609 -24.956  1.00  0.00    -0.014 C 
HETATM    3  C3  UNL     1      -2.721  51.838 -25.687  1.00  0.00     0.022 C 
HETATM    4  C4  UNL     1      -2.573  52.177 -27.166  1.00  0.00     0.084 C 
HETATM    5  C5  UNL     1      -1.653  53.357 -27.354  1.00  0.00     0.149 C 
HETATM    6  O1  UNL     1      -1.756  54.130 -28.303  1.00  0.00    -0.293 OA
HETATM    7  C6  UNL     1      -0.532  53.526 -26.404  1.00  0.00     0.053 C 
HETATM    8  C7  UNL     1      -0.370  52.712 -25.345  1.00  0.00    -0.068 C 
HETATM    9  C8  UNL     1       0.878  52.830 -24.502  1.00  0.00     0.035 C 
HETATM   10  C9  UNL     1       0.546  52.937 -23.023  1.00  0.00     0.010 C 
HETATM   11  C10 UNL     1      -0.327  51.762 -22.553  1.00  0.00    -0.002 C 
HETATM   12  C11 UNL     1      -1.637  51.687 -23.398  1.00  0.00     0.031 C 
HETATM   13  C12 UNL     1      -2.673  50.658 -22.837  1.00  0.00     0.124 C 
HETATM   14  C13 UNL     1      -2.841  50.676 -21.299  1.00  0.00     0.045 C 
HETATM   15  C14 UNL     1      -1.512  50.737 -20.510  1.00  0.00     0.001 C 
HETATM   16  C15 UNL     1      -0.754  49.393 -20.615  1.00  0.00     0.019 C 
HETATM   17  C16 UNL     1      -0.703  51.928 -21.073  1.00  0.00     0.002 C 
HETATM   18  C17 UNL     1       0.408  52.128 -20.053  1.00  0.00     0.009 C 
HETATM   19  C18 UNL     1      -0.223  51.747 -18.693  1.00  0.00     0.047 C 
HETATM   20  C19 UNL     1      -1.616  51.160 -19.004  1.00  0.00     0.128 C 
ENDROOT
BRANCH  20  21
HETATM   21  O3  UNL     1      -2.549  52.252 -18.870  1.00  0.00    -0.381 OA
HETATM   22  H27 UNL     1      -3.443  51.849 -18.868  1.00  0.00     0.211 HD
ENDBRANCH  20  21
BRANCH  20  23
HETATM   23  C20 UNL     1      -2.164  50.072 -18.055  1.00  0.00     0.185 C 
HETATM   24  O4  UNL     1      -3.302  49.628 -18.249  1.00  0.00    -0.292 OA
BRANCH  23  25
HETATM   25  C21 UNL     1      -1.347  49.615 -16.851  1.00  0.00     0.260 C 
BRANCH  25  26
HETATM   26  O5  UNL     1      -1.403  50.478 -15.719  1.00  0.00    -0.314 OA
BRANCH  26  27
HETATM   27  C22 UNL     1      -0.284  50.473 -14.942  1.00  0.00     0.259 C 
HETATM   28  O6  UNL     1       0.602  49.642 -15.027  1.00  0.00    -0.265 OA
BRANCH  27  29
HETATM   29  C23 UNL     1      -0.201  51.701 -14.062  1.00  0.00     0.120 C 
BRANCH  29  30
HETATM   30  C24 UNL     1       1.176  51.941 -13.458  1.00  0.00     0.112 C 
BRANCH  30  31
HETATM   31  C25 UNL     1       1.023  52.407 -12.029  1.00  0.00     0.218 C 
HETATM   32  O7  UNL     1       1.059  51.617 -11.088  1.00  0.00    -0.274 OA
HETATM   33  N1  UNL     1       0.772  53.755 -11.894  1.00  0.00    -0.357 N 
HETATM   34  H34 UNL     1       0.486  54.277 -12.714  1.00  0.00     0.162 HD
BRANCH  33  35
HETATM   35  C26 UNL     1       0.415  54.311 -10.607  1.00  0.00     0.162 C 
BRANCH  35  36
HETATM   36  C27 UNL     1       1.525  55.164 -10.064  1.00  0.00    -0.025 A 
HETATM   37  C28 UNL     1       2.593  55.574 -10.870  1.00  0.00     0.011 A 
HETATM   38  C29 UNL     1       3.628  56.326 -10.317  1.00  0.00     0.018 A 
HETATM   39  C30 UNL     1       3.563  56.646  -8.971  1.00  0.00     0.087 A 
HETATM   40  N2  UNL     1       2.544  56.273  -8.162  1.00  0.00    -0.375 N 
HETATM   41  C31 UNL     1       1.550  55.549  -8.728  1.00  0.00     0.096 A 
ATOM     42  H2  UNL     1       2.526  56.526  -7.173  1.00  0.00     0.164 HD
ENDBRANCH  35  36
ENDBRANCH  33  35
ENDBRANCH  30  31
ENDBRANCH  29  30
ENDBRANCH  27  29
ENDBRANCH  26  27
ENDBRANCH  25  26
ENDBRANCH  23  25
ENDBRANCH  20  23
BRANCH  13  43
HETATM   43  O2  UNL     1      -2.445  49.329 -23.272  1.00  0.00    -0.395 OA
HETATM   44  H16 UNL     1      -1.507  49.110 -23.165  1.00  0.00     0.210 HD
ENDBRANCH  13  43
TORSDOF 11
ENDMDL
MODEL 3
REMARK minimizedAffinity -10.1722517
REMARK CNNscore 0.475671232
REMARK CNNaffinity 7.35477209
REMARK  11 active torsions:
REMARK  status: ('A' for Active; 'I' for Inactive)
REMARK    1  A    between atoms: C12_13  and  O2_14 
REMARK    2  A    between atoms: C19_21  and  O3_22 
REMARK    3  A    between atoms: C19_21  and  C20_23 
REMARK    4  A    between atoms: C20_23  and  C21_25 
REMARK    5  A    between atoms: C21_25  and  O5_26 
REMARK    6  A    between atoms: O5_26  and  C22_27 
REMARK    7  A    between atoms: C22_27  and  C23_29 
REMARK    8  A    between atoms: C23_29  and  C24_30 
REMARK    9  A    between atoms: C24_30  and  C25_31 
REMARK       I    between atoms: C25_31  and  N1_33 
REMARK   10  A    between atoms: N1_33  and  C26_34 
REMARK   11  A    between atoms: C26_34  and  C27_35 
ROOT
HETATM    1  C1  UNL     1      -0.258  49.758 -20.870  1.00  0.00     0.020 C 
HETATM    2  C2  UNL     1      -1.022  51.081 -21.114  1.00  0.00    -0.014 C 
HETATM    3  C3  UNL     1      -0.290  51.898 -22.220  1.00  0.00     0.022 C 
HETATM    4  C4  UNL     1       1.040  52.492 -21.766  1.00  0.00     0.084 C 
HETATM    5  C5  UNL     1       0.858  53.316 -20.517  1.00  0.00     0.149 C 
HETATM    6  O1  UNL     1       1.581  54.271 -20.245  1.00  0.00    -0.293 OA
HETATM    7  C6  UNL     1      -0.173  52.892 -19.545  1.00  0.00     0.053 C 
HETATM    8  C7  UNL     1      -0.994  51.854 -19.788  1.00  0.00    -0.068 C 
HETATM    9  C8  UNL     1      -1.917  51.367 -18.696  1.00  0.00     0.035 C 
HETATM   10  C9  UNL     1      -3.349  51.243 -19.188  1.00  0.00     0.010 C 
HETATM   11  C10 UNL     1      -3.444  50.344 -20.432  1.00  0.00    -0.002 C 
HETATM   12  C11 UNL     1      -2.527  50.893 -21.569  1.00  0.00     0.031 C 
HETATM   13  C12 UNL     1      -2.737  50.162 -22.936  1.00  0.00     0.124 C 
HETATM   14  C13 UNL     1      -4.214  49.890 -23.308  1.00  0.00     0.045 C 
HETATM   15  C14 UNL     1      -5.075  49.334 -22.149  1.00  0.00     0.001 C 
HETATM   16  C15 UNL     1      -4.676  47.876 -21.825  1.00  0.00     0.019 C 
HETATM   17  C16 UNL     1      -4.890  50.289 -20.948  1.00  0.00     0.002 C 
HETATM   18  C17 UNL     1      -5.996  49.881 -19.985  1.00  0.00     0.009 C 
HETATM   19  C18 UNL     1      -7.169  49.434 -20.889  1.00  0.00     0.047 C 
HETATM   20  C19 UNL     1      -6.630  49.421 -22.335  1.00  0.00     0.128 C 
ENDROOT
BRANCH  20  21
HETATM   21  O3  UNL     1      -6.981  50.698 -22.904  1.00  0.00    -0.381 OA
HETATM   22  H27 UNL     1      -6.821  50.620 -23.870  1.00  0.00     0.211 HD
ENDBRANCH  20  21
BRANCH  20  23
HETATM   23  C20 UNL     1      -7.229  48.388 -23.314  1.00  0.00     0.185 C 
HETATM   24  O4  UNL     1      -7.690  47.333 -22.862  1.00  0.00    -0.292 OA
BRANCH  23  25
HETATM   25  C21 UNL     1      -7.177  48.631 -24.819  1.00  0.00     0.260 C 
BRANCH  25  26
HETATM   26  O5  UNL     1      -5.960  48.246 -25.452  1.00  0.00    -0.314 OA
BRANCH  26  27
HETATM   27  C22 UNL     1      -6.102  47.772 -26.721  1.00  0.00     0.259 C 
HETATM   28  O6  UNL     1      -7.120  47.253 -27.145  1.00  0.00    -0.265 OA
BRANCH  27  29
HETATM   29  C23 UNL     1      -4.902  48.094 -27.583  1.00  0.00     0.120 C 
BRANCH  29  30
HETATM   30  C24 UNL     1      -3.718  48.663 -26.812  1.00  0.00     0.112 C 
BRANCH  30  31
HETATM   31  C25 UNL     1      -3.308  49.982 -27.423  1.00  0.00     0.218 C 
HETATM   32  O7  UNL     1      -3.400  50.186 -28.632  1.00  0.00    -0.274 OA
HETATM   33  N1  UNL     1      -2.768  50.880 -26.530  1.00  0.00    -0.357 N 
HETATM   34  H34 UNL     1      -2.474  50.540 -25.622  1.00  0.00     0.162 HD
BRANCH  33  35
HETATM   35  C26 UNL     1      -2.157  52.105 -26.998  1.00  0.00     0.162 C 
BRANCH  35  36
HETATM   36  C27 UNL     1      -0.659  51.997 -26.986  1.00  0.00    -0.025 A 
HETATM   37  C28 UNL     1       0.072  51.838 -28.168  1.00  0.00     0.011 A 
HETATM   38  C29 UNL     1       1.456  51.695 -28.111  1.00  0.00     0.018 A 
HETATM   39  C30 UNL     1       2.070  51.714 -26.870  1.00  0.00     0.087 A 
HETATM   40  N2  UNL     1       1.398  51.872 -25.705  1.00  0.00    -0.375 N 
HETATM   41  C31 UNL     1       0.055  52.016 -25.792  1.00  0.00     0.096 A 
ATOM     42  H2  UNL     1       1.881  51.883 -24.806  1.00  0.00     0.164 HD
ENDBRANCH  35  36
ENDBRANCH  33  35
ENDBRANCH  30  31
ENDBRANCH  29  30
ENDBRANCH  27  29
ENDBRANCH  26  27
ENDBRANCH  25  26
ENDBRANCH  23  25
ENDBRANCH  20  23
BRANCH  13  43
HETATM   43  O2  UNL     1      -1.990  48.964 -23.059  1.00  0.00    -0.395 OA
HETATM   44  H16 UNL     1      -2.096  48.433 -22.256  1.00  0.00     0.210 HD
ENDBRANCH  13  43
TORSDOF 11
ENDMDL
MODEL 4
REMARK minimizedAffinity -9.26357174
REMARK CNNscore 0.433979362
REMARK CNNaffinity 6.27970886
REMARK  11 active torsions:
REMARK  status: ('A' for Active; 'I' for Inactive)
REMARK    1  A    between atoms: C12_13  and  O2_14 
REMARK    2  A    between atoms: C19_21  and  O3_22 
REMARK    3  A    between atoms: C19_21  and  C20_23 
REMARK    4  A    between atoms: C20_23  and  C21_25 
REMARK    5  A    between atoms: C21_25  and  O5_26 
REMARK    6  A    between atoms: O5_26  and  C22_27 
REMARK    7  A    between atoms: C22_27  and  C23_29 
REMARK    8  A    between atoms: C23_29  and  C24_30 
REMARK    9  A    between atoms: C24_30  and  C25_31 
REMARK       I    between atoms: C25_31  and  N1_33 
REMARK   10  A    between atoms: N1_33  and  C26_34 
REMARK   11  A    between atoms: C26_34  and  C27_35 
ROOT
HETATM    1  C1  UNL     1      -0.562  50.343 -25.552  1.00  0.00     0.020 C 
HETATM    2  C2  UNL     1      -1.238  51.647 -25.065  1.00  0.00    -0.014 C 
HETATM    3  C3  UNL     1      -2.618  51.802 -25.770  1.00  0.00     0.022 C 
HETATM    4  C4  UNL     1      -2.514  52.148 -27.252  1.00  0.00     0.084 C 
HETATM    5  C5  UNL     1      -1.663  53.375 -27.456  1.00  0.00     0.149 C 
HETATM    6  O1  UNL     1      -1.824  54.141 -28.404  1.00  0.00    -0.293 OA
HETATM    7  C6  UNL     1      -0.535  53.604 -26.527  1.00  0.00     0.053 C 
HETATM    8  C7  UNL     1      -0.310  52.801 -25.472  1.00  0.00    -0.068 C 
HETATM    9  C8  UNL     1       0.945  52.987 -24.652  1.00  0.00     0.035 C 
HETATM   10  C9  UNL     1       0.635  53.076 -23.167  1.00  0.00     0.010 C 
HETATM   11  C10 UNL     1      -0.165  51.857 -22.682  1.00  0.00    -0.002 C 
HETATM   12  C11 UNL     1      -1.484  51.711 -23.502  1.00  0.00     0.031 C 
HETATM   13  C12 UNL     1      -2.454  50.629 -22.923  1.00  0.00     0.124 C 
HETATM   14  C13 UNL     1      -2.594  50.639 -21.382  1.00  0.00     0.045 C 
HETATM   15  C14 UNL     1      -1.256  50.771 -20.618  1.00  0.00     0.001 C 
HETATM   16  C15 UNL     1      -0.429  49.470 -20.737  1.00  0.00     0.019 C 
HETATM   17  C16 UNL     1      -0.522  52.003 -21.195  1.00  0.00     0.002 C 
HETATM   18  C17 UNL     1       0.595  52.263 -20.195  1.00  0.00     0.009 C 
HETATM   19  C18 UNL     1       0.011  51.850 -18.824  1.00  0.00     0.047 C 
HETATM   20  C19 UNL     1      -1.355  51.189 -19.109  1.00  0.00     0.128 C 
ENDROOT
BRANCH  20  21
HETATM   21  O3  UNL     1      -2.342  52.230 -18.958  1.00  0.00    -0.381 OA
HETATM   22  H27 UNL     1      -3.213  51.779 -18.940  1.00  0.00     0.211 HD
ENDBRANCH  20  21
BRANCH  20  23
HETATM   23  C20 UNL     1      -1.825  50.074 -18.151  1.00  0.00     0.185 C 
HETATM   24  O4  UNL     1      -1.248  48.980 -18.178  1.00  0.00    -0.292 OA
BRANCH  23  25
HETATM   25  C21 UNL     1      -3.036  50.291 -17.249  1.00  0.00     0.260 C 
BRANCH  25  26
HETATM   26  O5  UNL     1      -2.881  51.307 -16.262  1.00  0.00    -0.314 OA
BRANCH  26  27
HETATM   27  C22 UNL     1      -2.938  50.866 -14.975  1.00  0.00     0.259 C 
HETATM   28  O6  UNL     1      -2.534  49.777 -14.608  1.00  0.00    -0.265 OA
BRANCH  27  29
HETATM   29  C23 UNL     1      -3.429  51.941 -14.030  1.00  0.00     0.120 C 
BRANCH  29  30
HETATM   30  C24 UNL     1      -3.242  51.606 -12.556  1.00  0.00     0.112 C 
BRANCH  30  31
HETATM   31  C25 UNL     1      -3.325  52.873 -11.739  1.00  0.00     0.218 C 
HETATM   32  O7  UNL     1      -4.166  53.738 -11.979  1.00  0.00    -0.274 OA
HETATM   33  N1  UNL     1      -2.348  52.995 -10.776  1.00  0.00    -0.357 N 
HETATM   34  H34 UNL     1      -1.542  52.384 -10.826  1.00  0.00     0.162 HD
BRANCH  33  35
HETATM   35  C26 UNL     1      -2.185  54.234 -10.047  1.00  0.00     0.162 C 
BRANCH  35  36
HETATM   36  C27 UNL     1      -0.734  54.609  -9.943  1.00  0.00    -0.025 A 
HETATM   37  C28 UNL     1      -0.202  55.153  -8.769  1.00  0.00     0.011 A 
HETATM   38  C29 UNL     1       1.138  55.531  -8.728  1.00  0.00     0.018 A 
HETATM   39  C30 UNL     1       1.907  55.355  -9.866  1.00  0.00     0.087 A 
HETATM   40  N2  UNL     1       1.430  54.827 -11.017  1.00  0.00    -0.375 N 
HETATM   41  C31 UNL     1       0.127  54.462 -11.026  1.00  0.00     0.096 A 
ATOM     42  H2  UNL     1       2.024  54.710 -11.838  1.00  0.00     0.164 HD
ENDBRANCH  35  36
ENDBRANCH  33  35
ENDBRANCH  30  31
ENDBRANCH  29  30
ENDBRANCH  27  29
ENDBRANCH  26  27
ENDBRANCH  25  26
ENDBRANCH  23  25
ENDBRANCH  20  23
BRANCH  13  43
HETATM   43  O2  UNL     1      -2.163  49.314 -23.362  1.00  0.00    -0.395 OA
HETATM   44  H16 UNL     1      -1.213  49.145 -23.273  1.00  0.00     0.210 HD
ENDBRANCH  13  43
TORSDOF 11
ENDMDL
MODEL 5
REMARK minimizedAffinity -9.20162296
REMARK CNNscore 0.391879499
REMARK CNNaffinity 6.8267498
REMARK  11 active torsions:
REMARK  status: ('A' for Active; 'I' for Inactive)
REMARK    1  A    between atoms: C12_13  and  O2_14 
REMARK    2  A    between atoms: C19_21  and  O3_22 
REMARK    3  A    between atoms: C19_21  and  C20_23 
REMARK    4  A    between atoms: C20_23  and  C21_25 
REMARK    5  A    between atoms: C21_25  and  O5_26 
REMARK    6  A    between atoms: O5_26  and  C22_27 
REMARK    7  A    between atoms: C22_27  and  C23_29 
REMARK    8  A    between atoms: C23_29  and  C24_30 
REMARK    9  A    between atoms: C24_30  and  C25_31 
REMARK       I    between atoms: C25_31  and  N1_33 
REMARK   10  A    between atoms: N1_33  and  C26_34 
REMARK   11  A    between atoms: C26_34  and  C27_35 
ROOT
HETATM    1  C1  UNL     1      -1.956  52.777 -24.526  1.00  0.00     0.020 C 
HETATM    2  C2  UNL     1      -1.080  51.510 -24.659  1.00  0.00    -0.014 C 
HETATM    3  C3  UNL     1       0.406  51.933 -24.857  1.00  0.00     0.022 C 
HETATM    4  C4  UNL     1       0.693  52.545 -26.225  1.00  0.00     0.084 C 
HETATM    5  C5  UNL     1       0.244  51.622 -27.328  1.00  0.00     0.149 C 
HETATM    6  O1  UNL     1       0.783  51.601 -28.432  1.00  0.00    -0.293 OA
HETATM    7  C6  UNL     1      -0.949  50.780 -27.091  1.00  0.00     0.053 C 
HETATM    8  C7  UNL     1      -1.579  50.760 -25.903  1.00  0.00    -0.068 C 
HETATM    9  C8  UNL     1      -2.883  50.007 -25.767  1.00  0.00     0.035 C 
HETATM   10  C9  UNL     1      -2.863  49.067 -24.574  1.00  0.00     0.010 C 
HETATM   11  C10 UNL     1      -2.517  49.810 -23.273  1.00  0.00    -0.002 C 
HETATM   12  C11 UNL     1      -1.143  50.536 -23.412  1.00  0.00     0.031 C 
HETATM   13  C12 UNL     1      -0.620  51.129 -22.062  1.00  0.00     0.124 C 
HETATM   14  C13 UNL     1      -0.793  50.203 -20.835  1.00  0.00     0.045 C 
HETATM   15  C14 UNL     1      -2.177  49.520 -20.737  1.00  0.00     0.001 C 
HETATM   16  C15 UNL     1      -3.269  50.550 -20.368  1.00  0.00     0.019 C 
HETATM   17  C16 UNL     1      -2.439  48.828 -22.095  1.00  0.00     0.002 C 
HETATM   18  C17 UNL     1      -3.628  47.920 -21.817  1.00  0.00     0.009 C 
HETATM   19  C18 UNL     1      -3.456  47.471 -20.348  1.00  0.00     0.047 C 
HETATM   20  C19 UNL     1      -2.277  48.286 -19.774  1.00  0.00     0.128 C 
ENDROOT
BRANCH  20  21
HETATM   21  O3  UNL     1      -1.107  47.456 -19.923  1.00  0.00    -0.381 OA
HETATM   22  H27 UNL     1      -0.402  47.879 -19.387  1.00  0.00     0.211 HD
ENDBRANCH  20  21
BRANCH  20  23
HETATM   23  C20 UNL     1      -2.310  48.632 -18.270  1.00  0.00     0.185 C 
HETATM   24  O4  UNL     1      -3.356  48.445 -17.636  1.00  0.00    -0.292 OA
BRANCH  23  25
HETATM   25  C21 UNL     1      -1.100  49.273 -17.598  1.00  0.00     0.260 C 
BRANCH  25  26
HETATM   26  O5  UNL     1      -1.222  50.667 -17.332  1.00  0.00    -0.314 OA
BRANCH  26  27
HETATM   27  C22 UNL     1      -0.068  51.377 -17.464  1.00  0.00     0.259 C 
HETATM   28  O6  UNL     1       0.101  52.258 -18.288  1.00  0.00    -0.265 OA
BRANCH  27  29
HETATM   29  C23 UNL     1       0.928  51.044 -16.375  1.00  0.00     0.120 C 
BRANCH  29  30
HETATM   30  C24 UNL     1       1.239  52.205 -15.440  1.00  0.00     0.112 C 
BRANCH  30  31
HETATM   31  C25 UNL     1       1.013  51.772 -14.010  1.00  0.00     0.218 C 
HETATM   32  O7  UNL     1       1.131  50.597 -13.669  1.00  0.00    -0.274 OA
HETATM   33  N1  UNL     1       0.603  52.782 -13.168  1.00  0.00    -0.357 N 
HETATM   34  H34 UNL     1       0.267  53.645 -13.577  1.00  0.00     0.162 HD
BRANCH  33  35
HETATM   35  C26 UNL     1       0.167  52.483 -11.821  1.00  0.00     0.162 C 
BRANCH  35  36
HETATM   36  C27 UNL     1      -1.278  52.847 -11.632  1.00  0.00    -0.025 A 
HETATM   37  C28 UNL     1      -1.677  53.773 -10.661  1.00  0.00     0.011 A 
HETATM   38  C29 UNL     1      -3.031  54.049 -10.485  1.00  0.00     0.018 A 
HETATM   39  C30 UNL     1      -3.948  53.389 -11.286  1.00  0.00     0.087 A 
HETATM   40  N2  UNL     1      -3.600  52.492 -12.239  1.00  0.00    -0.375 N 
HETATM   41  C31 UNL     1      -2.278  52.249 -12.392  1.00  0.00     0.096 A 
ATOM     42  H2  UNL     1      -4.301  52.023 -12.813  1.00  0.00     0.164 HD
ENDBRANCH  35  36
ENDBRANCH  33  35
ENDBRANCH  30  31
ENDBRANCH  29  30
ENDBRANCH  27  29
ENDBRANCH  26  27
ENDBRANCH  25  26
ENDBRANCH  23  25
ENDBRANCH  20  23
BRANCH  13  43
HETATM   43  O2  UNL     1      -1.144  52.411 -21.764  1.00  0.00    -0.395 OA
HETATM   44  H16 UNL     1      -2.104  52.407 -21.900  1.00  0.00     0.210 HD
ENDBRANCH  13  43
TORSDOF 11
ENDMDL
MODEL 6
REMARK minimizedAffinity -8.43427277
REMARK CNNscore 0.387085199
REMARK CNNaffinity 6.63092232
REMARK  11 active torsions:
REMARK  status: ('A' for Active; 'I' for Inactive)
REMARK    1  A    between atoms: C12_13  and  O2_14 
REMARK    2  A    between atoms: C19_21  and  O3_22 
REMARK    3  A    between atoms: C19_21  and  C20_23 
REMARK    4  A    between atoms: C20_23  and  C21_25 
REMARK    5  A    between atoms: C21_25  and  O5_26 
REMARK    6  A    between atoms: O5_26  and  C22_27 
REMARK    7  A    between atoms: C22_27  and  C23_29 
REMARK    8  A    between atoms: C23_29  and  C24_30 
REMARK    9  A    between atoms: C24_30  and  C25_31 
REMARK       I    between atoms: C25_31  and  N1_33 
REMARK   10  A    between atoms: N1_33  and  C26_34 
REMARK   11  A    between atoms: C26_34  and  C27_35 
ROOT
HETATM    1  C1  UNL     1      -6.396  46.594 -20.696  1.00  0.00     0.020 C 
HETATM    2  C2  UNL     1      -7.227  47.672 -21.431  1.00  0.00    -0.014 C 
HETATM    3  C3  UNL     1      -7.953  48.564 -20.380  1.00  0.00     0.022 C 
HETATM    4  C4  UNL     1      -9.096  47.857 -19.659  1.00  0.00     0.084 C 
HETATM    5  C5  UNL     1     -10.077  47.283 -20.648  1.00  0.00     0.149 C 
HETATM    6  O1  UNL     1     -11.270  47.139 -20.388  1.00  0.00    -0.293 OA
HETATM    7  C6  UNL     1      -9.557  46.791 -21.942  1.00  0.00     0.053 C 
HETATM    8  C7  UNL     1      -8.262  46.921 -22.283  1.00  0.00    -0.068 C 
HETATM    9  C8  UNL     1      -7.756  46.260 -23.543  1.00  0.00     0.035 C 
HETATM   10  C9  UNL     1      -6.983  47.236 -24.415  1.00  0.00     0.010 C 
HETATM   11  C10 UNL     1      -5.833  47.899 -23.640  1.00  0.00    -0.002 C 
HETATM   12  C11 UNL     1      -6.380  48.624 -22.370  1.00  0.00     0.031 C 
HETATM   13  C12 UNL     1      -5.305  49.504 -21.652  1.00  0.00     0.124 C 
HETATM   14  C13 UNL     1      -4.413  50.343 -22.598  1.00  0.00     0.045 C 
HETATM   15  C14 UNL     1      -3.886  49.574 -23.832  1.00  0.00     0.001 C 
HETATM   16  C15 UNL     1      -2.818  48.538 -23.413  1.00  0.00     0.019 C 
HETATM   17  C16 UNL     1      -5.110  48.928 -24.522  1.00  0.00     0.002 C 
HETATM   18  C17 UNL     1      -4.573  48.485 -25.875  1.00  0.00     0.009 C 
HETATM   19  C18 UNL     1      -3.506  49.539 -26.249  1.00  0.00     0.047 C 
HETATM   20  C19 UNL     1      -3.332  50.446 -25.012  1.00  0.00     0.128 C 
ENDROOT
BRANCH  20  21
HETATM   21  O3  UNL     1      -4.196  51.581 -25.223  1.00  0.00    -0.381 OA
HETATM   22  H27 UNL     1      -3.943  52.247 -24.548  1.00  0.00     0.211 HD
ENDBRANCH  20  21
BRANCH  20  23
HETATM   23  C20 UNL     1      -1.940  51.067 -24.768  1.00  0.00     0.185 C 
HETATM   24  O4  UNL     1      -0.981  50.667 -25.439  1.00  0.00    -0.292 OA
BRANCH  23  25
HETATM   25  C21 UNL     1      -1.736  52.094 -23.659  1.00  0.00     0.260 C 
BRANCH  25  26
HETATM   26  O5  UNL     1      -0.377  52.390 -23.350  1.00  0.00    -0.314 OA
BRANCH  26  27
HETATM   27  C22 UNL     1      -0.097  52.462 -22.020  1.00  0.00     0.259 C 
HETATM   28  O6  UNL     1       0.732  53.213 -21.537  1.00  0.00    -0.265 OA
BRANCH  27  29
HETATM   29  C23 UNL     1      -1.036  51.609 -21.197  1.00  0.00     0.120 C 
BRANCH  29  30
HETATM   30  C24 UNL     1      -0.473  50.241 -20.832  1.00  0.00     0.112 C 
BRANCH  30  31
HETATM   31  C25 UNL     1      -0.539  50.055 -19.334  1.00  0.00     0.218 C 
HETATM   32  O7  UNL     1      -1.047  49.053 -18.833  1.00  0.00    -0.274 OA
HETATM   33  N1  UNL     1      -0.056  51.119 -18.606  1.00  0.00    -0.357 N 
HETATM   34  H34 UNL     1       0.084  52.004 -19.080  1.00  0.00     0.162 HD
BRANCH  33  35
HETATM   35  C26 UNL     1      -0.228  51.167 -17.170  1.00  0.00     0.162 C 
BRANCH  35  36
HETATM   36  C27 UNL     1       1.061  51.523 -16.487  1.00  0.00    -0.025 A 
HETATM   37  C28 UNL     1       1.968  52.422 -17.059  1.00  0.00     0.011 A 
HETATM   38  C29 UNL     1       3.174  52.691 -16.416  1.00  0.00     0.018 A 
HETATM   39  C30 UNL     1       3.439  52.049 -15.218  1.00  0.00     0.087 A 
HETATM   40  N2  UNL     1       2.585  51.179 -14.630  1.00  0.00    -0.375 N 
HETATM   41  C31 UNL     1       1.418  50.942 -15.274  1.00  0.00     0.096 A 
ATOM     42  H2  UNL     1       2.810  50.723 -13.746  1.00  0.00     0.164 HD
ENDBRANCH  35  36
ENDBRANCH  33  35
ENDBRANCH  30  31
ENDBRANCH  29  30
ENDBRANCH  27  29
ENDBRANCH  26  27
ENDBRANCH  25  26
ENDBRANCH  23  25
ENDBRANCH  20  23
BRANCH  13  43
HETATM   43  O2  UNL     1      -4.486  48.778 -20.752  1.00  0.00    -0.395 OA
HETATM   44  H16 UNL     1      -4.174  47.967 -21.181  1.00  0.00     0.210 HD
ENDBRANCH  13  43
TORSDOF 11
ENDMDL
MODEL 7
REMARK minimizedAffinity -9.0925827
REMARK CNNscore 0.383784384
REMARK CNNaffinity 6.64974928
REMARK  11 active torsions:
REMARK  status: ('A' for Active; 'I' for Inactive)
REMARK    1  A    between atoms: C12_13  and  O2_14 
REMARK    2  A    between atoms: C19_21  and  O3_22 
REMARK    3  A    between atoms: C19_21  and  C20_23 
REMARK    4  A    between atoms: C20_23  and  C21_25 
REMARK    5  A    between atoms: C21_25  and  O5_26 
REMARK    6  A    between atoms: O5_26  and  C22_27 
REMARK    7  A    between atoms: C22_27  and  C23_29 
REMARK    8  A    between atoms: C23_29  and  C24_30 
REMARK    9  A    between atoms: C24_30  and  C25_31 
REMARK       I    between atoms: C25_31  and  N1_33 
REMARK   10  A    between atoms: N1_33  and  C26_34 
REMARK   11  A    between atoms: C26_34  and  C27_35 
ROOT
HETATM    1  C1  UNL     1      -0.592  50.440 -25.663  1.00  0.00     0.020 C 
HETATM    2  C2  UNL     1      -1.268  51.737 -25.161  1.00  0.00    -0.014 C 
HETATM    3  C3  UNL     1      -2.637  51.915 -25.882  1.00  0.00     0.022 C 
HETATM    4  C4  UNL     1      -2.511  52.289 -27.355  1.00  0.00     0.084 C 
HETATM    5  C5  UNL     1      -1.650  53.515 -27.523  1.00  0.00     0.149 C 
HETATM    6  O1  UNL     1      -1.794  54.300 -28.457  1.00  0.00    -0.293 OA
HETATM    7  C6  UNL     1      -0.534  53.720 -26.574  1.00  0.00     0.053 C 
HETATM    8  C7  UNL     1      -0.328  52.894 -25.532  1.00  0.00    -0.068 C 
HETATM    9  C8  UNL     1       0.917  53.057 -24.691  1.00  0.00     0.035 C 
HETATM   10  C9  UNL     1       0.586  53.119 -23.209  1.00  0.00     0.010 C 
HETATM   11  C10 UNL     1      -0.227  51.895 -22.759  1.00  0.00    -0.002 C 
HETATM   12  C11 UNL     1      -1.536  51.773 -23.600  1.00  0.00     0.031 C 
HETATM   13  C12 UNL     1      -2.519  50.685 -23.056  1.00  0.00     0.124 C 
HETATM   14  C13 UNL     1      -2.681  50.666 -21.517  1.00  0.00     0.045 C 
HETATM   15  C14 UNL     1      -1.353  50.775 -20.732  1.00  0.00     0.001 C 
HETATM   16  C15 UNL     1      -0.532  49.472 -20.865  1.00  0.00     0.019 C 
HETATM   17  C16 UNL     1      -0.605  52.014 -21.275  1.00  0.00     0.002 C 
HETATM   18  C17 UNL     1       0.500  52.248 -20.254  1.00  0.00     0.009 C 
HETATM   19  C18 UNL     1      -0.106  51.812 -18.900  1.00  0.00     0.047 C 
HETATM   20  C19 UNL     1      -1.471  51.165 -19.217  1.00  0.00     0.128 C 
ENDROOT
BRANCH  20  21
HETATM   21  O3  UNL     1      -2.454  52.207 -19.059  1.00  0.00    -0.381 OA
HETATM   22  H27 UNL     1      -3.328  51.761 -19.062  1.00  0.00     0.211 HD
ENDBRANCH  20  21
BRANCH  20  23
HETATM   23  C20 UNL     1      -1.961  50.033 -18.288  1.00  0.00     0.185 C 
HETATM   24  O4  UNL     1      -3.178  49.870 -18.135  1.00  0.00    -0.292 OA
BRANCH  23  25
HETATM   25  C21 UNL     1      -0.961  49.188 -17.506  1.00  0.00     0.260 C 
BRANCH  25  26
HETATM   26  O5  UNL     1       0.233  49.864 -17.121  1.00  0.00    -0.314 OA
BRANCH  26  27
HETATM   27  C22 UNL     1       0.551  49.753 -15.801  1.00  0.00     0.259 C 
HETATM   28  O6  UNL     1       0.707  48.691 -15.224  1.00  0.00    -0.265 OA
BRANCH  27  29
HETATM   29  C23 UNL     1       0.829  51.099 -15.171  1.00  0.00     0.120 C 
BRANCH  29  30
HETATM   30  C24 UNL     1       2.136  51.162 -14.391  1.00  0.00     0.112 C 
BRANCH  30  31
HETATM   31  C25 UNL     1       1.909  51.901 -13.092  1.00  0.00     0.218 C 
HETATM   32  O7  UNL     1       2.730  51.859 -12.178  1.00  0.00    -0.274 OA
HETATM   33  N1  UNL     1       0.696  52.546 -13.009  1.00  0.00    -0.357 N 
HETATM   34  H34 UNL     1      -0.026  52.306 -13.678  1.00  0.00     0.162 HD
BRANCH  33  35
HETATM   35  C26 UNL     1       0.260  53.133 -11.760  1.00  0.00     0.162 C 
BRANCH  35  36
HETATM   36  C27 UNL     1      -1.238  53.100 -11.645  1.00  0.00    -0.025 A 
HETATM   37  C28 UNL     1      -1.912  53.834 -10.663  1.00  0.00     0.011 A 
HETATM   38  C29 UNL     1      -3.298  53.740 -10.559  1.00  0.00     0.018 A 
HETATM   39  C30 UNL     1      -3.970  52.911 -11.442  1.00  0.00     0.087 A 
HETATM   40  N2  UNL     1      -3.354  52.190 -12.407  1.00  0.00    -0.375 N 
HETATM   41  C31 UNL     1      -2.007  52.306 -12.489  1.00  0.00     0.096 A 
ATOM     42  H2  UNL     1      -3.878  51.588 -13.043  1.00  0.00     0.164 HD
ENDBRANCH  35  36
ENDBRANCH  33  35
ENDBRANCH  30  31
ENDBRANCH  29  30
ENDBRANCH  27  29
ENDBRANCH  26  27
ENDBRANCH  25  26
ENDBRANCH  23  25
ENDBRANCH  20  23
BRANCH  13  43
HETATM   43  O2  UNL     1      -2.230  49.377 -23.517  1.00  0.00    -0.395 OA
HETATM   44  H16 UNL     1      -1.282  49.201 -23.418  1.00  0.00     0.210 HD
ENDBRANCH  13  43
TORSDOF 11
ENDMDL
MODEL 8
REMARK minimizedAffinity -9.01841354
REMARK CNNscore 0.377621472
REMARK CNNaffinity 7.11824656
REMARK  11 active torsions:
REMARK  status: ('A' for Active; 'I' for Inactive)
REMARK    1  A    between atoms: C12_13  and  O2_14 
REMARK    2  A    between atoms: C19_21  and  O3_22 
REMARK    3  A    between atoms: C19_21  and  C20_23 
REMARK    4  A    between atoms: C20_23  and  C21_25 
REMARK    5  A    between atoms: C21_25  and  O5_26 
REMARK    6  A    between atoms: O5_26  and  C22_27 
REMARK    7  A    between atoms: C22_27  and  C23_29 
REMARK    8  A    between atoms: C23_29  and  C24_30 
REMARK    9  A    between atoms: C24_30  and  C25_31 
REMARK       I    between atoms: C25_31  and  N1_33 
REMARK   10  A    between atoms: N1_33  and  C26_34 
REMARK   11  A    between atoms: C26_34  and  C27_35 
ROOT
HETATM    1  C1  UNL     1      -0.808  50.249 -25.482  1.00  0.00     0.020 C 
HETATM    2  C2  UNL     1      -1.397  51.587 -24.978  1.00  0.00    -0.014 C 
HETATM    3  C3  UNL     1      -2.719  51.887 -25.745  1.00  0.00     0.022 C 
HETATM    4  C4  UNL     1      -2.508  52.275 -27.205  1.00  0.00     0.084 C 
HETATM    5  C5  UNL     1      -1.546  53.430 -27.317  1.00  0.00     0.149 C 
HETATM    6  O1  UNL     1      -1.591  54.240 -28.240  1.00  0.00    -0.293 OA
HETATM    7  C6  UNL     1      -0.454  53.528 -26.324  1.00  0.00     0.053 C 
HETATM    8  C7  UNL     1      -0.354  52.671 -25.292  1.00  0.00    -0.068 C 
HETATM    9  C8  UNL     1       0.866  52.718 -24.403  1.00  0.00     0.035 C 
HETATM   10  C9  UNL     1       0.486  52.781 -22.933  1.00  0.00     0.010 C 
HETATM   11  C10 UNL     1      -0.439  51.619 -22.537  1.00  0.00    -0.002 C 
HETATM   12  C11 UNL     1      -1.720  51.617 -23.428  1.00  0.00     0.031 C 
HETATM   13  C12 UNL     1      -2.807  50.603 -22.942  1.00  0.00     0.124 C 
HETATM   14  C13 UNL     1      -3.028  50.570 -21.411  1.00  0.00     0.045 C 
HETATM   15  C14 UNL     1      -1.727  50.559 -20.576  1.00  0.00     0.001 C 
HETATM   16  C15 UNL     1      -1.008  49.196 -20.705  1.00  0.00     0.019 C 
HETATM   17  C16 UNL     1      -0.862  51.743 -21.066  1.00  0.00     0.002 C 
HETATM   18  C17 UNL     1       0.218  51.869 -20.001  1.00  0.00     0.009 C 
HETATM   19  C18 UNL     1      -0.471  51.460 -18.680  1.00  0.00     0.047 C 
HETATM   20  C19 UNL     1      -1.870  50.930 -19.059  1.00  0.00     0.128 C 
ENDROOT
BRANCH  20  21
HETATM   21  O3  UNL     1      -2.773  52.046 -18.916  1.00  0.00    -0.381 OA
HETATM   22  H27 UNL     1      -3.679  51.672 -18.960  1.00  0.00     0.211 HD
ENDBRANCH  20  21
BRANCH  20  23
HETATM   23  C20 UNL     1      -2.484  49.827 -18.171  1.00  0.00     0.185 C 
HETATM   24  O4  UNL     1      -3.662  49.497 -18.356  1.00  0.00    -0.292 OA
BRANCH  23  25
HETATM   25  C21 UNL     1      -1.677  49.215 -17.031  1.00  0.00     0.260 C 
BRANCH  25  26
HETATM   26  O5  UNL     1      -1.555  50.031 -15.870  1.00  0.00    -0.314 OA
BRANCH  26  27
HETATM   27  C22 UNL     1      -2.575  49.908 -14.975  1.00  0.00     0.259 C 
HETATM   28  O6  UNL     1      -2.965  48.844 -14.528  1.00  0.00    -0.265 OA
BRANCH  27  29
HETATM   29  C23 UNL     1      -3.069  51.253 -14.492  1.00  0.00     0.120 C 
BRANCH  29  30
HETATM   30  C24 UNL     1      -2.664  51.588 -13.063  1.00  0.00     0.112 C 
BRANCH  30  31
HETATM   31  C25 UNL     1      -1.280  51.043 -12.793  1.00  0.00     0.218 C 
HETATM   32  O7  UNL     1      -1.036  50.383 -11.785  1.00  0.00    -0.274 OA
HETATM   33  N1  UNL     1      -0.333  51.411 -13.722  1.00  0.00    -0.357 N 
HETATM   34  H34 UNL     1      -0.548  52.170 -14.357  1.00  0.00     0.162 HD
BRANCH  33  35
HETATM   35  C26 UNL     1       1.068  51.126 -13.496  1.00  0.00     0.162 C 
BRANCH  35  36
HETATM   36  C27 UNL     1       1.919  51.717 -14.583  1.00  0.00    -0.025 A 
HETATM   37  C28 UNL     1       3.308  51.549 -14.596  1.00  0.00     0.011 A 
HETATM   38  C29 UNL     1       4.067  52.153 -15.596  1.00  0.00     0.018 A 
HETATM   39  C30 UNL     1       3.413  52.909 -16.554  1.00  0.00     0.087 A 
HETATM   40  N2  UNL     1       2.072  53.090 -16.578  1.00  0.00    -0.375 N 
HETATM   41  C31 UNL     1       1.359  52.486 -15.598  1.00  0.00     0.096 A 
ATOM     42  H2  UNL     1       1.620  53.653 -17.298  1.00  0.00     0.164 HD
ENDBRANCH  35  36
ENDBRANCH  33  35
ENDBRANCH  30  31
ENDBRANCH  29  30
ENDBRANCH  27  29
ENDBRANCH  26  27
ENDBRANCH  25  26
ENDBRANCH  23  25
ENDBRANCH  20  23
BRANCH  13  43
HETATM   43  O2  UNL     1      -2.606  49.284 -23.419  1.00  0.00    -0.395 OA
HETATM   44  H16 UNL     1      -1.679  49.031 -23.289  1.00  0.00     0.210 HD
ENDBRANCH  13  43
TORSDOF 11
ENDMDL
MODEL 9
REMARK minimizedAffinity -8.3391037
REMARK CNNscore 0.357022643
REMARK CNNaffinity 6.34746885
REMARK  11 active torsions:
REMARK  status: ('A' for Active; 'I' for Inactive)
REMARK    1  A    between atoms: C12_13  and  O2_14 
REMARK    2  A    between atoms: C19_21  and  O3_22 
REMARK    3  A    between atoms: C19_21  and  C20_23 
REMARK    4  A    between atoms: C20_23  and  C21_25 
REMARK    5  A    between atoms: C21_25  and  O5_26 
REMARK    6  A    between atoms: O5_26  and  C22_27 
REMARK    7  A    between atoms: C22_27  and  C23_29 
REMARK    8  A    between atoms: C23_29  and  C24_30 
REMARK    9  A    between atoms: C24_30  and  C25_31 
REMARK       I    between atoms: C25_31  and  N1_33 
REMARK   10  A    between atoms: N1_33  and  C26_34 
REMARK   11  A    between atoms: C26_34  and  C27_35 
ROOT
HETATM    1  C1  UNL     1      -1.367  50.021 -25.593  1.00  0.00     0.020 C 
HETATM    2  C2  UNL     1      -1.704  51.433 -25.057  1.00  0.00    -0.014 C 
HETATM    3  C3  UNL     1      -2.954  51.980 -25.807  1.00  0.00     0.022 C 
HETATM    4  C4  UNL     1      -2.683  52.355 -27.261  1.00  0.00     0.084 C 
HETATM    5  C5  UNL     1      -1.531  53.322 -27.357  1.00  0.00     0.149 C 
HETATM    6  O1  UNL     1      -1.433  54.147 -28.262  1.00  0.00    -0.293 OA
HETATM    7  C6  UNL     1      -0.434  53.201 -26.370  1.00  0.00     0.053 C 
HETATM    8  C7  UNL     1      -0.485  52.318 -25.357  1.00  0.00    -0.068 C 
HETATM    9  C8  UNL     1       0.728  52.127 -24.477  1.00  0.00     0.035 C 
HETATM   10  C9  UNL     1       0.371  52.226 -23.003  1.00  0.00     0.010 C 
HETATM   11  C10 UNL     1      -0.745  51.240 -22.624  1.00  0.00    -0.002 C 
HETATM   12  C11 UNL     1      -2.010  51.487 -23.504  1.00  0.00     0.031 C 
HETATM   13  C12 UNL     1      -3.259  50.673 -23.030  1.00  0.00     0.124 C 
HETATM   14  C13 UNL     1      -3.476  50.648 -21.499  1.00  0.00     0.045 C 
HETATM   15  C14 UNL     1      -2.194  50.385 -20.674  1.00  0.00     0.001 C 
HETATM   16  C15 UNL     1      -1.731  48.919 -20.837  1.00  0.00     0.019 C 
HETATM   17  C16 UNL     1      -1.133  51.406 -21.147  1.00  0.00     0.002 C 
HETATM   18  C17 UNL     1      -0.043  51.314 -20.089  1.00  0.00     0.009 C 
HETATM   19  C18 UNL     1      -0.789  51.007 -18.770  1.00  0.00     0.047 C 
HETATM   20  C19 UNL     1      -2.262  50.744 -19.148  1.00  0.00     0.128 C 
ENDROOT
BRANCH  20  21
HETATM   21  O3  UNL     1      -2.949  52.000 -18.976  1.00  0.00    -0.381 OA
HETATM   22  H27 UNL     1      -3.908  51.795 -19.020  1.00  0.00     0.211 HD
ENDBRANCH  20  21
BRANCH  20  23
HETATM   23  C20 UNL     1      -3.060  49.750 -18.279  1.00  0.00     0.185 C 
HETATM   24  O4  UNL     1      -3.922  49.043 -18.816  1.00  0.00    -0.292 OA
BRANCH  23  25
HETATM   25  C21 UNL     1      -2.847  49.700 -16.769  1.00  0.00     0.260 C 
BRANCH  25  26
HETATM   26  O5  UNL     1      -2.479  50.939 -16.169  1.00  0.00    -0.314 OA
BRANCH  26  27
HETATM   27  C22 UNL     1      -2.986  51.141 -14.921  1.00  0.00     0.259 C 
HETATM   28  O6  UNL     1      -3.649  52.113 -14.603  1.00  0.00    -0.265 OA
BRANCH  27  29
HETATM   29  C23 UNL     1      -2.754  49.952 -14.017  1.00  0.00     0.120 C 
BRANCH  29  30
HETATM   30  C24 UNL     1      -2.723  50.296 -12.533  1.00  0.00     0.112 C 
BRANCH  30  31
HETATM   31  C25 UNL     1      -3.405  49.199 -11.749  1.00  0.00     0.218 C 
HETATM   32  O7  UNL     1      -2.787  48.506 -10.943  1.00  0.00    -0.274 OA
HETATM   33  N1  UNL     1      -4.731  49.010 -12.072  1.00  0.00    -0.357 N 
HETATM   34  H34 UNL     1      -5.084  49.424 -12.926  1.00  0.00     0.162 HD
BRANCH  33  35
HETATM   35  C26 UNL     1      -5.460  47.877 -11.545  1.00  0.00     0.162 C 
BRANCH  35  36
HETATM   36  C27 UNL     1      -6.611  48.329 -10.692  1.00  0.00    -0.025 A 
HETATM   37  C28 UNL     1      -7.899  48.473 -11.219  1.00  0.00     0.011 A 
HETATM   38  C29 UNL     1      -8.930  48.939 -10.407  1.00  0.00     0.018 A 
HETATM   39  C30 UNL     1      -8.641  49.250  -9.089  1.00  0.00     0.087 A 
HETATM   40  N2  UNL     1      -7.410  49.119  -8.541  1.00  0.00    -0.375 N 
HETATM   41  C31 UNL     1      -6.430  48.657  -9.352  1.00  0.00     0.096 A 
ATOM     42  H2  UNL     1      -7.230  49.357  -7.566  1.00  0.00     0.164 HD
ENDBRANCH  35  36
ENDBRANCH  33  35
ENDBRANCH  30  31
ENDBRANCH  29  30
ENDBRANCH  27  29
ENDBRANCH  26  27
ENDBRANCH  25  26
ENDBRANCH  23  25
ENDBRANCH  20  23
BRANCH  13  43
HETATM   43  O2  UNL     1      -3.299  49.350 -23.535  1.00  0.00    -0.395 OA
HETATM   44  H16 UNL     1      -2.432  48.932 -23.418  1.00  0.00     0.210 HD
ENDBRANCH  13  43
TORSDOF 11
ENDMDL
