MODEL 1
REMARK minimizedAffinity -7.32863903
REMARK CNNscore 0.562594414
REMARK CNNaffinity 7.0384388
REMARK  4 active torsions:
REMARK  status: ('A' for Active; 'I' for Inactive)
REMARK    1  A    between atoms: C12_13  and  C13_14 
REMARK    2  A    between atoms: C20_21  and  C21_22 
REMARK    3  A    between atoms: C21_22  and  C22_23 
REMARK    4  A    between atoms: C23_24  and  O2_25 
ROOT
HETATM    1  C1  UNL     1      -3.359  53.387 -10.202  1.00  0.00     0.015 C 
HETATM    2  C2  UNL     1      -2.093  53.724 -10.500  1.00  0.00    -0.084 C 
HETATM    3  C3  UNL     1      -1.601  55.148 -10.383  1.00  0.00     0.034 C 
HETATM    4  C4  UNL     1      -0.327  55.251  -9.540  1.00  0.00     0.010 C 
HETATM    5  C5  UNL     1       0.751  54.230  -9.972  1.00  0.00     0.006 C 
HETATM    6  C6  UNL     1       0.198  52.759  -9.973  1.00  0.00    -0.032 C 
HETATM    7  C7  UNL     1      -0.289  52.310  -8.566  1.00  0.00     0.016 C 
HETATM    8  C8  UNL     1       1.299  51.743 -10.407  1.00  0.00     0.013 C 
HETATM    9  C9  UNL     1       2.640  52.391 -10.739  1.00  0.00     0.039 C 
HETATM   10  C10 UNL     1       3.154  53.288  -9.597  1.00  0.00     0.066 C 
HETATM   11  C11 UNL     1       3.561  52.415  -8.399  1.00  0.00     0.047 C 
HETATM   12  O1  UNL     1       4.393  53.872 -10.067  1.00  0.00    -0.371 OA
HETATM   13  C12 UNL     1       4.324  55.299 -10.035  1.00  0.00     0.146 C 
HETATM   14  C17 UNL     1       2.851  55.651  -9.968  1.00  0.00     0.048 C 
HETATM   15  C18 UNL     1       2.156  54.450  -9.287  1.00  0.00    -0.006 C 
HETATM   16  C19 UNL     1       2.031  54.778  -7.783  1.00  0.00     0.019 C 
HETATM   17  C20 UNL     1      -1.057  52.691 -10.944  1.00  0.00     0.027 C 
ENDROOT
BRANCH  17  18
HETATM   18  C21 UNL     1      -0.736  52.864 -12.462  1.00  0.00     0.057 C 
BRANCH  18  19
HETATM   19  C22 UNL     1      -1.190  51.691 -13.305  1.00  0.00     0.052 A 
HETATM   20  C23 UNL     1      -0.359  50.726 -13.731  1.00  0.00     0.086 A 
HETATM   21  C24 UNL     1      -0.815  49.606 -14.540  1.00  0.00     0.001 A 
HETATM   22  C25 UNL     1       0.198  48.634 -15.085  1.00  0.00     0.054 C 
HETATM   23  C26 UNL     1      -2.135  49.521 -14.799  1.00  0.00     0.061 A 
HETATM   24  C27 UNL     1      -2.831  48.435 -15.561  1.00  0.00     0.077 C 
HETATM   25  O3  UNL     1      -3.036  50.514 -14.345  1.00  0.00    -0.279 OA
HETATM   26  C28 UNL     1      -2.623  51.629 -13.675  1.00  0.00     0.297 A 
HETATM   27  O4  UNL     1      -3.410  52.528 -13.396  1.00  0.00    -0.259 OA
BRANCH  20  28
HETATM   28  O2  UNL     1       0.977  50.774 -13.378  1.00  0.00    -0.359 OA
HETATM   29  H34 UNL     1       1.372  49.891 -13.453  1.00  0.00     0.217 HD
ENDBRANCH  20  28
ENDBRANCH  18  19
ENDBRANCH  17  18
BRANCH  13  30
HETATM   30  C13 UNL     1       5.147  55.791  -8.877  1.00  0.00     0.007 C 
HETATM   31  C14 UNL     1       6.296  55.258  -8.413  1.00  0.00    -0.089 C 
HETATM   32  C15 UNL     1       6.985  54.065  -9.013  1.00  0.00     0.042 C 
HETATM   33  C16 UNL     1       6.994  55.851  -7.217  1.00  0.00     0.042 C 
ENDBRANCH  13  30
TORSDOF 4
ENDMDL
MODEL 2
REMARK minimizedAffinity -8.614645
REMARK CNNscore 0.48813048
REMARK CNNaffinity 6.74607134
REMARK  4 active torsions:
REMARK  status: ('A' for Active; 'I' for Inactive)
REMARK    1  A    between atoms: C12_13  and  C13_14 
REMARK    2  A    between atoms: C20_21  and  C21_22 
REMARK    3  A    between atoms: C21_22  and  C22_23 
REMARK    4  A    between atoms: C23_24  and  O2_25 
ROOT
HETATM    1  C1  UNL     1      -0.209  51.818 -22.814  1.00  0.00     0.015 C 
HETATM    2  C2  UNL     1      -1.337  51.644 -22.106  1.00  0.00    -0.084 C 
HETATM    3  C3  UNL     1      -2.670  52.163 -22.593  1.00  0.00     0.034 C 
HETATM    4  C4  UNL     1      -3.745  51.073 -22.604  1.00  0.00     0.010 C 
HETATM    5  C5  UNL     1      -3.806  50.292 -21.270  1.00  0.00     0.006 C 
HETATM    6  C6  UNL     1      -2.407  49.695 -20.877  1.00  0.00    -0.032 C 
HETATM    7  C7  UNL     1      -1.869  48.697 -21.942  1.00  0.00     0.016 C 
HETATM    8  C8  UNL     1      -2.488  48.907 -19.533  1.00  0.00     0.013 C 
HETATM    9  C9  UNL     1      -3.878  48.901 -18.904  1.00  0.00     0.039 C 
HETATM   10  C10 UNL     1      -4.961  48.408 -19.883  1.00  0.00     0.066 C 
HETATM   11  C11 UNL     1      -4.772  46.905 -20.147  1.00  0.00     0.047 C 
HETATM   12  O1  UNL     1      -6.221  48.505 -19.177  1.00  0.00    -0.371 OA
HETATM   13  C12 UNL     1      -7.138  49.337 -19.891  1.00  0.00     0.146 C 
HETATM   14  C17 UNL     1      -6.304  50.160 -20.853  1.00  0.00     0.048 C 
HETATM   15  C18 UNL     1      -5.043  49.318 -21.152  1.00  0.00    -0.006 C 
HETATM   16  C19 UNL     1      -5.304  48.539 -22.460  1.00  0.00     0.019 C 
HETATM   17  C20 UNL     1      -1.358  50.883 -20.780  1.00  0.00     0.027 C 
ENDROOT
BRANCH  17  18
HETATM   18  C21 UNL     1      -1.578  51.871 -19.593  1.00  0.00     0.057 C 
BRANCH  18  19
HETATM   19  C22 UNL     1      -0.357  52.022 -18.708  1.00  0.00     0.052 A 
HETATM   20  C23 UNL     1      -0.177  51.321 -17.577  1.00  0.00     0.086 A 
HETATM   21  C24 UNL     1       1.003  51.479 -16.742  1.00  0.00     0.001 A 
HETATM   22  C25 UNL     1       1.074  50.751 -15.425  1.00  0.00     0.054 C 
HETATM   23  C26 UNL     1       1.966  52.315 -17.176  1.00  0.00     0.061 A 
HETATM   24  C27 UNL     1       3.280  52.592 -16.511  1.00  0.00     0.077 C 
HETATM   25  O3  UNL     1       1.811  53.052 -18.376  1.00  0.00    -0.279 OA
HETATM   26  C28 UNL     1       0.671  53.003 -19.123  1.00  0.00     0.297 A 
HETATM   27  O4  UNL     1       0.518  53.739 -20.093  1.00  0.00    -0.259 OA
BRANCH  20  28
HETATM   28  O2  UNL     1      -1.130  50.394 -17.192  1.00  0.00    -0.359 OA
HETATM   29  H34 UNL     1      -0.738  49.749 -16.583  1.00  0.00     0.217 HD
ENDBRANCH  20  28
ENDBRANCH  18  19
ENDBRANCH  17  18
BRANCH  13  30
HETATM   30  C13 UNL     1      -8.174  48.461 -20.539  1.00  0.00     0.007 C 
HETATM   31  C14 UNL     1      -9.337  48.044 -19.998  1.00  0.00    -0.089 C 
HETATM   32  C15 UNL     1      -9.824  48.421 -18.627  1.00  0.00     0.042 C 
HETATM   33  C16 UNL     1     -10.264  47.139 -20.766  1.00  0.00     0.042 C 
ENDBRANCH  13  30
TORSDOF 4
ENDMDL
MODEL 3
REMARK minimizedAffinity -7.49850273
REMARK CNNscore 0.487957269
REMARK CNNaffinity 6.2410183
REMARK  4 active torsions:
REMARK  status: ('A' for Active; 'I' for Inactive)
REMARK    1  A    between atoms: C12_13  and  C13_14 
REMARK    2  A    between atoms: C20_21  and  C21_22 
REMARK    3  A    between atoms: C21_22  and  C22_23 
REMARK    4  A    between atoms: C23_24  and  O2_25 
ROOT
HETATM    1  C1  UNL     1       6.709  55.047  -9.282  1.00  0.00     0.015 C 
HETATM    2  C2  UNL     1       5.388  55.238  -9.440  1.00  0.00    -0.084 C 
HETATM    3  C3  UNL     1       4.741  55.227 -10.805  1.00  0.00     0.034 C 
HETATM    4  C4  UNL     1       3.553  54.264 -10.873  1.00  0.00     0.010 C 
HETATM    5  C5  UNL     1       2.569  54.457  -9.695  1.00  0.00     0.006 C 
HETATM    6  C6  UNL     1       3.293  54.355  -8.305  1.00  0.00    -0.032 C 
HETATM    7  C7  UNL     1       3.966  52.970  -8.088  1.00  0.00     0.016 C 
HETATM    8  C8  UNL     1       2.286  54.548  -7.129  1.00  0.00     0.013 C 
HETATM    9  C9  UNL     1       0.850  54.799  -7.582  1.00  0.00     0.039 C 
HETATM   10  C10 UNL     1       0.345  53.714  -8.551  1.00  0.00     0.066 C 
HETATM   11  C11 UNL     1       0.166  52.388  -7.794  1.00  0.00     0.047 C 
HETATM   12  O1  UNL     1      -0.995  54.105  -8.935  1.00  0.00    -0.371 OA
HETATM   13  C12 UNL     1      -1.096  54.240 -10.354  1.00  0.00     0.146 C 
HETATM   14  C17 UNL     1       0.323  54.377 -10.870  1.00  0.00     0.048 C 
HETATM   15  C18 UNL     1       1.221  53.648  -9.845  1.00  0.00    -0.006 C 
HETATM   16  C19 UNL     1       1.452  52.213 -10.368  1.00  0.00     0.019 C 
HETATM   17  C20 UNL     1       4.446  55.446  -8.254  1.00  0.00     0.027 C 
ENDROOT
BRANCH  17  18
HETATM   18  C21 UNL     1       3.960  56.928  -8.202  1.00  0.00     0.057 C 
BRANCH  18  19
HETATM   19  C22 UNL     1       4.064  57.542  -6.821  1.00  0.00     0.052 A 
HETATM   20  C23 UNL     1       5.212  57.604  -6.128  1.00  0.00     0.086 A 
HETATM   21  C24 UNL     1       5.291  58.199  -4.803  1.00  0.00     0.001 A 
HETATM   22  C25 UNL     1       6.586  58.118  -4.038  1.00  0.00     0.054 C 
HETATM   23  C26 UNL     1       4.173  58.761  -4.305  1.00  0.00     0.061 A 
HETATM   24  C27 UNL     1       4.034  59.471  -2.992  1.00  0.00     0.077 C 
HETATM   25  O3  UNL     1       2.952  58.726  -5.023  1.00  0.00    -0.279 OA
HETATM   26  C28 UNL     1       2.824  58.084  -6.219  1.00  0.00     0.297 A 
HETATM   27  O4  UNL     1       1.730  57.971  -6.763  1.00  0.00    -0.259 OA
BRANCH  20  28
HETATM   28  O2  UNL     1       6.375  57.110  -6.692  1.00  0.00    -0.359 OA
HETATM   29  H34 UNL     1       7.147  57.506  -6.259  1.00  0.00     0.217 HD
ENDBRANCH  20  28
ENDBRANCH  18  19
ENDBRANCH  17  18
BRANCH  13  30
HETATM   30  C13 UNL     1      -1.856  53.060 -10.894  1.00  0.00     0.007 C 
HETATM   31  C14 UNL     1      -3.195  52.913 -10.951  1.00  0.00    -0.089 C 
HETATM   32  C15 UNL     1      -4.186  53.950 -10.500  1.00  0.00     0.042 C 
HETATM   33  C16 UNL     1      -3.812  51.652 -11.496  1.00  0.00     0.042 C 
ENDBRANCH  13  30
TORSDOF 4
ENDMDL
MODEL 4
REMARK minimizedAffinity -8.85690022
REMARK CNNscore 0.461586773
REMARK CNNaffinity 6.77446127
REMARK  4 active torsions:
REMARK  status: ('A' for Active; 'I' for Inactive)
REMARK    1  A    between atoms: C12_13  and  C13_14 
REMARK    2  A    between atoms: C20_21  and  C21_22 
REMARK    3  A    between atoms: C21_22  and  C22_23 
REMARK    4  A    between atoms: C23_24  and  O2_25 
ROOT
HETATM    1  C1  UNL     1       1.114  51.816 -21.349  1.00  0.00     0.015 C 
HETATM    2  C2  UNL     1      -0.111  51.568 -20.856  1.00  0.00    -0.084 C 
HETATM    3  C3  UNL     1      -1.358  52.126 -21.502  1.00  0.00     0.034 C 
HETATM    4  C4  UNL     1      -2.393  51.037 -21.793  1.00  0.00     0.010 C 
HETATM    5  C5  UNL     1      -2.654  50.129 -20.569  1.00  0.00     0.006 C 
HETATM    6  C6  UNL     1      -1.326  49.503 -20.010  1.00  0.00    -0.032 C 
HETATM    7  C7  UNL     1      -0.601  48.616 -21.064  1.00  0.00     0.016 C 
HETATM    8  C8  UNL     1      -1.608  48.587 -18.779  1.00  0.00     0.013 C 
HETATM    9  C9  UNL     1      -3.082  48.513 -18.390  1.00  0.00     0.039 C 
HETATM   10  C10 UNL     1      -3.979  48.113 -19.576  1.00  0.00     0.066 C 
HETATM   11  C11 UNL     1      -3.720  46.643 -19.947  1.00  0.00     0.047 C 
HETATM   12  O1  UNL     1      -5.339  48.134 -19.080  1.00  0.00    -0.371 OA
HETATM   13  C12 UNL     1      -6.146  49.028 -19.851  1.00  0.00     0.146 C 
HETATM   14  C17 UNL     1      -5.184  49.945 -20.581  1.00  0.00     0.048 C 
HETATM   15  C18 UNL     1      -3.873  49.142 -20.748  1.00  0.00    -0.006 C 
HETATM   16  C19 UNL     1      -3.902  48.493 -22.150  1.00  0.00     0.019 C 
HETATM   17  C20 UNL     1      -0.331  50.681 -19.630  1.00  0.00     0.027 C 
ENDROOT
BRANCH  17  18
HETATM   18  C21 UNL     1      -0.762  51.548 -18.405  1.00  0.00     0.057 C 
BRANCH  18  19
HETATM   19  C22 UNL     1       0.257  51.544 -17.285  1.00  0.00     0.052 A 
HETATM   20  C23 UNL     1       1.375  52.289 -17.304  1.00  0.00     0.086 A 
HETATM   21  C24 UNL     1       2.341  52.272 -16.217  1.00  0.00     0.001 A 
HETATM   22  C25 UNL     1       3.629  53.037 -16.368  1.00  0.00     0.054 C 
HETATM   23  C26 UNL     1       2.047  51.526 -15.134  1.00  0.00     0.061 A 
HETATM   24  C27 UNL     1       2.864  51.400 -13.884  1.00  0.00     0.077 C 
HETATM   25  O3  UNL     1       0.866  50.746 -15.079  1.00  0.00    -0.279 OA
HETATM   26  C28 UNL     1      -0.005  50.661 -16.126  1.00  0.00     0.297 A 
HETATM   27  O4  UNL     1      -0.958  49.888 -16.094  1.00  0.00    -0.259 OA
BRANCH  20  28
HETATM   28  O2  UNL     1       1.617  53.124 -18.380  1.00  0.00    -0.359 OA
HETATM   29  H34 UNL     1       2.242  53.821 -18.124  1.00  0.00     0.217 HD
ENDBRANCH  20  28
ENDBRANCH  18  19
ENDBRANCH  17  18
BRANCH  13  30
HETATM   30  C13 UNL     1      -7.044  48.214 -20.741  1.00  0.00     0.007 C 
HETATM   31  C14 UNL     1      -7.618  48.610 -21.895  1.00  0.00    -0.089 C 
HETATM   32  C15 UNL     1      -7.426  49.962 -22.523  1.00  0.00     0.042 C 
HETATM   33  C16 UNL     1      -8.523  47.684 -22.665  1.00  0.00     0.042 C 
ENDBRANCH  13  30
TORSDOF 4
ENDMDL
MODEL 5
REMARK minimizedAffinity -7.73512888
REMARK CNNscore 0.443237066
REMARK CNNaffinity 6.13907623
REMARK  4 active torsions:
REMARK  status: ('A' for Active; 'I' for Inactive)
REMARK    1  A    between atoms: C12_13  and  C13_14 
REMARK    2  A    between atoms: C20_21  and  C21_22 
REMARK    3  A    between atoms: C21_22  and  C22_23 
REMARK    4  A    between atoms: C23_24  and  O2_25 
ROOT
HETATM    1  C1  UNL     1      -9.466  48.921 -26.797  1.00  0.00     0.015 C 
HETATM    2  C2  UNL     1      -9.161  47.948 -27.672  1.00  0.00    -0.084 C 
HETATM    3  C3  UNL     1     -10.007  46.703 -27.804  1.00  0.00     0.034 C 
HETATM    4  C4  UNL     1     -10.425  46.441 -29.253  1.00  0.00     0.010 C 
HETATM    5  C5  UNL     1      -9.231  46.516 -30.234  1.00  0.00     0.006 C 
HETATM    6  C6  UNL     1      -8.458  47.878 -30.113  1.00  0.00    -0.032 C 
HETATM    7  C7  UNL     1      -9.363  49.103 -30.432  1.00  0.00     0.016 C 
HETATM    8  C8  UNL     1      -7.261  47.939 -31.111  1.00  0.00     0.013 C 
HETATM    9  C9  UNL     1      -7.102  46.681 -31.961  1.00  0.00     0.039 C 
HETATM   10  C10 UNL     1      -8.402  46.306 -32.699  1.00  0.00     0.066 C 
HETATM   11  C11 UNL     1      -8.689  47.344 -33.796  1.00  0.00     0.047 C 
HETATM   12  O1  UNL     1      -8.122  45.079 -33.413  1.00  0.00    -0.371 OA
HETATM   13  C12 UNL     1      -9.032  44.048 -33.024  1.00  0.00     0.146 C 
HETATM   14  C17 UNL     1      -9.629  44.486 -31.701  1.00  0.00     0.048 C 
HETATM   15  C18 UNL     1      -9.570  46.030 -31.698  1.00  0.00    -0.006 C 
HETATM   16  C19 UNL     1     -10.942  46.548 -32.185  1.00  0.00     0.019 C 
HETATM   17  C20 UNL     1      -7.961  48.046 -28.614  1.00  0.00     0.027 C 
ENDROOT
BRANCH  17  18
HETATM   18  C21 UNL     1      -6.841  47.055 -28.168  1.00  0.00     0.057 C 
BRANCH  18  19
HETATM   19  C22 UNL     1      -5.661  47.743 -27.513  1.00  0.00     0.052 A 
HETATM   20  C23 UNL     1      -5.599  48.002 -26.197  1.00  0.00     0.086 A 
HETATM   21  C24 UNL     1      -4.456  48.663 -25.586  1.00  0.00     0.001 A 
HETATM   22  C25 UNL     1      -4.514  49.032 -24.127  1.00  0.00     0.054 C 
HETATM   23  C26 UNL     1      -3.408  48.955 -26.381  1.00  0.00     0.061 A 
HETATM   24  C27 UNL     1      -2.113  49.585 -25.963  1.00  0.00     0.077 C 
HETATM   25  O3  UNL     1      -3.439  48.676 -27.769  1.00  0.00    -0.279 OA
HETATM   26  C28 UNL     1      -4.538  48.153 -28.386  1.00  0.00     0.297 A 
HETATM   27  O4  UNL     1      -4.579  48.029 -29.606  1.00  0.00    -0.259 OA
BRANCH  20  28
HETATM   28  O2  UNL     1      -6.641  47.610 -25.376  1.00  0.00    -0.359 OA
HETATM   29  H34 UNL     1      -6.335  47.549 -24.458  1.00  0.00     0.217 HD
ENDBRANCH  20  28
ENDBRANCH  18  19
ENDBRANCH  17  18
BRANCH  13  30
HETATM   30  C13 UNL     1     -10.028  43.845 -34.133  1.00  0.00     0.007 C 
HETATM   31  C14 UNL     1     -10.851  42.791 -34.301  1.00  0.00    -0.089 C 
HETATM   32  C15 UNL     1     -10.939  41.619 -33.363  1.00  0.00     0.042 C 
HETATM   33  C16 UNL     1     -11.779  42.717 -35.485  1.00  0.00     0.042 C 
ENDBRANCH  13  30
TORSDOF 4
ENDMDL
MODEL 6
REMARK minimizedAffinity -8.91196823
REMARK CNNscore 0.43549484
REMARK CNNaffinity 7.07393026
REMARK  4 active torsions:
REMARK  status: ('A' for Active; 'I' for Inactive)
REMARK    1  A    between atoms: C12_13  and  C13_14 
REMARK    2  A    between atoms: C20_21  and  C21_22 
REMARK    3  A    between atoms: C21_22  and  C22_23 
REMARK    4  A    between atoms: C23_24  and  O2_25 
ROOT
HETATM    1  C1  UNL     1      -5.266  51.588 -24.384  1.00  0.00     0.015 C 
HETATM    2  C2  UNL     1      -4.374  51.768 -23.395  1.00  0.00    -0.084 C 
HETATM    3  C3  UNL     1      -4.728  52.510 -22.129  1.00  0.00     0.034 C 
HETATM    4  C4  UNL     1      -4.393  51.702 -20.872  1.00  0.00     0.010 C 
HETATM    5  C5  UNL     1      -2.956  51.131 -20.904  1.00  0.00     0.006 C 
HETATM    6  C6  UNL     1      -2.690  50.286 -22.201  1.00  0.00    -0.032 C 
HETATM    7  C7  UNL     1      -3.646  49.064 -22.318  1.00  0.00     0.016 C 
HETATM    8  C8  UNL     1      -1.238  49.715 -22.215  1.00  0.00     0.013 C 
HETATM    9  C9  UNL     1      -0.410  50.106 -20.994  1.00  0.00     0.039 C 
HETATM   10  C10 UNL     1      -1.116  49.752 -19.671  1.00  0.00     0.066 C 
HETATM   11  C11 UNL     1      -1.154  48.225 -19.499  1.00  0.00     0.047 C 
HETATM   12  O1  UNL     1      -0.250  50.223 -18.611  1.00  0.00    -0.371 OA
HETATM   13  C12 UNL     1      -0.941  51.145 -17.764  1.00  0.00     0.146 C 
HETATM   14  C17 UNL     1      -2.143  51.627 -18.553  1.00  0.00     0.048 C 
HETATM   15  C18 UNL     1      -2.490  50.488 -19.540  1.00  0.00    -0.006 C 
HETATM   16  C19 UNL     1      -3.595  49.629 -18.887  1.00  0.00     0.019 C 
HETATM   17  C20 UNL     1      -2.954  51.206 -23.468  1.00  0.00     0.027 C 
ENDROOT
BRANCH  17  18
HETATM   18  C21 UNL     1      -1.925  52.361 -23.679  1.00  0.00     0.057 C 
BRANCH  18  19
HETATM   19  C22 UNL     1      -1.130  52.226 -24.961  1.00  0.00     0.052 A 
HETATM   20  C23 UNL     1       0.176  51.916 -24.987  1.00  0.00     0.086 A 
HETATM   21  C24 UNL     1       0.922  51.789 -26.230  1.00  0.00     0.001 A 
HETATM   22  C25 UNL     1       2.410  51.564 -26.173  1.00  0.00     0.054 C 
HETATM   23  C26 UNL     1       0.239  51.927 -27.383  1.00  0.00     0.061 A 
HETATM   24  C27 UNL     1       0.785  51.787 -28.771  1.00  0.00     0.077 C 
HETATM   25  O3  UNL     1      -1.144  52.235 -27.384  1.00  0.00    -0.279 OA
HETATM   26  C28 UNL     1      -1.845  52.463 -26.236  1.00  0.00     0.297 A 
HETATM   27  O4  UNL     1      -3.011  52.841 -26.271  1.00  0.00    -0.259 OA
BRANCH  20  28
HETATM   28  O2  UNL     1       0.844  51.682 -23.799  1.00  0.00    -0.359 OA
HETATM   29  H34 UNL     1       1.644  51.160 -23.965  1.00  0.00     0.217 HD
ENDBRANCH  20  28
ENDBRANCH  18  19
ENDBRANCH  17  18
BRANCH  13  30
HETATM   30  C13 UNL     1      -1.268  50.453 -16.470  1.00  0.00     0.007 C 
HETATM   31  C14 UNL     1      -0.416  50.167 -15.465  1.00  0.00    -0.089 C 
HETATM   32  C15 UNL     1       1.042  50.531 -15.454  1.00  0.00     0.042 C 
HETATM   33  C16 UNL     1      -0.890  49.438 -14.235  1.00  0.00     0.042 C 
ENDBRANCH  13  30
TORSDOF 4
ENDMDL
MODEL 7
REMARK minimizedAffinity -7.27763891
REMARK CNNscore 0.414530963
REMARK CNNaffinity 5.65590334
REMARK  4 active torsions:
REMARK  status: ('A' for Active; 'I' for Inactive)
REMARK    1  A    between atoms: C12_13  and  C13_14 
REMARK    2  A    between atoms: C20_21  and  C21_22 
REMARK    3  A    between atoms: C21_22  and  C22_23 
REMARK    4  A    between atoms: C23_24  and  O2_25 
ROOT
HETATM    1  C1  UNL     1     -12.962  43.261 -25.577  1.00  0.00     0.015 C 
HETATM    2  C2  UNL     1     -12.348  44.370 -26.023  1.00  0.00    -0.084 C 
HETATM    3  C3  UNL     1     -10.893  44.646 -25.729  1.00  0.00     0.034 C 
HETATM    4  C4  UNL     1     -10.095  44.952 -26.999  1.00  0.00     0.010 C 
HETATM    5  C5  UNL     1     -10.786  46.014 -27.888  1.00  0.00     0.006 C 
HETATM    6  C6  UNL     1     -12.264  45.612 -28.238  1.00  0.00    -0.032 C 
HETATM    7  C7  UNL     1     -12.343  44.271 -29.021  1.00  0.00     0.016 C 
HETATM    8  C8  UNL     1     -12.943  46.691 -29.137  1.00  0.00     0.013 C 
HETATM    9  C9  UNL     1     -12.043  47.880 -29.461  1.00  0.00     0.039 C 
HETATM   10  C10 UNL     1     -10.695  47.444 -30.068  1.00  0.00     0.066 C 
HETATM   11  C11 UNL     1     -10.923  46.879 -31.479  1.00  0.00     0.047 C 
HETATM   12  O1  UNL     1      -9.932  48.656 -30.273  1.00  0.00    -0.371 OA
HETATM   13  C12 UNL     1      -8.686  48.595 -29.574  1.00  0.00     0.146 C 
HETATM   14  C17 UNL     1      -8.839  47.508 -28.529  1.00  0.00     0.048 C 
HETATM   15  C18 UNL     1      -9.895  46.526 -29.086  1.00  0.00    -0.006 C 
HETATM   16  C19 UNL     1      -9.137  45.377 -29.788  1.00  0.00     0.019 C 
HETATM   17  C20 UNL     1     -13.067  45.409 -26.883  1.00  0.00     0.027 C 
ENDROOT
BRANCH  17  18
HETATM   18  C21 UNL     1     -13.324  46.710 -26.059  1.00  0.00     0.057 C 
BRANCH  18  19
HETATM   19  C22 UNL     1     -14.479  46.581 -25.087  1.00  0.00     0.052 A 
HETATM   20  C23 UNL     1     -14.367  46.839 -23.774  1.00  0.00     0.086 A 
HETATM   21  C24 UNL     1     -15.489  46.711 -22.856  1.00  0.00     0.001 A 
HETATM   22  C25 UNL     1     -15.255  46.895 -21.380  1.00  0.00     0.054 C 
HETATM   23  C26 UNL     1     -16.687  46.385 -23.379  1.00  0.00     0.061 A 
HETATM   24  C27 UNL     1     -17.982  46.249 -22.638  1.00  0.00     0.077 C 
HETATM   25  O3  UNL     1     -16.837  46.127 -24.764  1.00  0.00    -0.279 OA
HETATM   26  C28 UNL     1     -15.783  46.137 -25.630  1.00  0.00     0.297 A 
HETATM   27  O4  UNL     1     -15.922  45.796 -26.800  1.00  0.00    -0.259 OA
BRANCH  20  28
HETATM   28  O2  UNL     1     -13.154  47.265 -23.264  1.00  0.00    -0.359 OA
HETATM   29  H34 UNL     1     -13.290  47.722 -22.420  1.00  0.00     0.217 HD
ENDBRANCH  20  28
ENDBRANCH  18  19
ENDBRANCH  17  18
BRANCH  13  30
HETATM   30  C13 UNL     1      -7.588  48.363 -30.575  1.00  0.00     0.007 C 
HETATM   31  C14 UNL     1      -6.286  48.129 -30.311  1.00  0.00    -0.089 C 
HETATM   32  C15 UNL     1      -5.702  48.025 -28.930  1.00  0.00     0.042 C 
HETATM   33  C16 UNL     1      -5.293  47.944 -31.428  1.00  0.00     0.042 C 
ENDBRANCH  13  30
TORSDOF 4
ENDMDL
MODEL 8
REMARK minimizedAffinity -7.69885015
REMARK CNNscore 0.3755413
REMARK CNNaffinity 6.6963172
REMARK  4 active torsions:
REMARK  status: ('A' for Active; 'I' for Inactive)
REMARK    1  A    between atoms: C12_13  and  C13_14 
REMARK    2  A    between atoms: C20_21  and  C21_22 
REMARK    3  A    between atoms: C21_22  and  C22_23 
REMARK    4  A    between atoms: C23_24  and  O2_25 
ROOT
HETATM    1  C1  UNL     1      -3.084  53.384 -10.375  1.00  0.00     0.015 C 
HETATM    2  C2  UNL     1      -1.828  53.854 -10.460  1.00  0.00    -0.084 C 
HETATM    3  C3  UNL     1      -1.513  55.320 -10.283  1.00  0.00     0.034 C 
HETATM    4  C4  UNL     1      -0.419  55.554  -9.237  1.00  0.00     0.010 C 
HETATM    5  C5  UNL     1       0.817  54.653  -9.465  1.00  0.00     0.006 C 
HETATM    6  C6  UNL     1       0.428  53.132  -9.538  1.00  0.00    -0.032 C 
HETATM    7  C7  UNL     1      -0.242  52.630  -8.227  1.00  0.00     0.016 C 
HETATM    8  C8  UNL     1       1.686  52.238  -9.764  1.00  0.00     0.013 C 
HETATM    9  C9  UNL     1       2.989  53.024  -9.874  1.00  0.00     0.039 C 
HETATM   10  C10 UNL     1       3.206  53.966  -8.675  1.00  0.00     0.066 C 
HETATM   11  C11 UNL     1       3.491  53.137  -7.412  1.00  0.00     0.047 C 
HETATM   12  O1  UNL     1       4.439  54.678  -8.937  1.00  0.00    -0.371 OA
HETATM   13  C12 UNL     1       4.218  56.090  -8.938  1.00  0.00     0.146 C 
HETATM   14  C17 UNL     1       2.727  56.286  -9.127  1.00  0.00     0.048 C 
HETATM   15  C18 UNL     1       2.054  55.017  -8.556  1.00  0.00    -0.006 C 
HETATM   16  C19 UNL     1       1.642  55.325  -7.099  1.00  0.00     0.019 C 
HETATM   17  C20 UNL     1      -0.630  52.936 -10.706  1.00  0.00     0.027 C 
ENDROOT
BRANCH  17  18
HETATM   18  C21 UNL     1      -0.076  53.146 -12.150  1.00  0.00     0.057 C 
BRANCH  18  19
HETATM   19  C22 UNL     1      -0.116  51.889 -12.993  1.00  0.00     0.052 A 
HETATM   20  C23 UNL     1       0.330  51.836 -14.259  1.00  0.00     0.086 A 
HETATM   21  C24 UNL     1       0.284  50.618 -15.052  1.00  0.00     0.001 A 
HETATM   22  C25 UNL     1       0.686  50.670 -16.503  1.00  0.00     0.054 C 
HETATM   23  C26 UNL     1      -0.167  49.500 -14.450  1.00  0.00     0.061 A 
HETATM   24  C27 UNL     1      -0.254  48.130 -15.053  1.00  0.00     0.077 C 
HETATM   25  O3  UNL     1      -0.626  49.522 -13.111  1.00  0.00    -0.279 OA
HETATM   26  C28 UNL     1      -0.692  50.671 -12.378  1.00  0.00     0.297 A 
HETATM   27  O4  UNL     1      -1.202  50.681 -11.262  1.00  0.00    -0.259 OA
BRANCH  20  28
HETATM   28  O2  UNL     1       0.879  52.968 -14.834  1.00  0.00    -0.359 OA
HETATM   29  H34 UNL     1       1.445  52.720 -15.581  1.00  0.00     0.217 HD
ENDBRANCH  20  28
ENDBRANCH  18  19
ENDBRANCH  17  18
BRANCH  13  30
HETATM   30  C13 UNL     1       4.777  56.663  -7.665  1.00  0.00     0.007 C 
HETATM   31  C14 UNL     1       6.002  56.445  -7.146  1.00  0.00    -0.089 C 
HETATM   32  C15 UNL     1       7.061  55.593  -7.789  1.00  0.00     0.042 C 
HETATM   33  C16 UNL     1       6.409  57.071  -5.838  1.00  0.00     0.042 C 
ENDBRANCH  13  30
TORSDOF 4
ENDMDL
MODEL 9
REMARK minimizedAffinity -8.92872334
REMARK CNNscore 0.290927142
REMARK CNNaffinity 6.82458687
REMARK  4 active torsions:
REMARK  status: ('A' for Active; 'I' for Inactive)
REMARK    1  A    between atoms: C12_13  and  C13_14 
REMARK    2  A    between atoms: C20_21  and  C21_22 
REMARK    3  A    between atoms: C21_22  and  C22_23 
REMARK    4  A    between atoms: C23_24  and  O2_25 
ROOT
HETATM    1  C1  UNL     1      -2.716  47.869 -18.621  1.00  0.00     0.015 C 
HETATM    2  C2  UNL     1      -2.331  48.885 -19.411  1.00  0.00    -0.084 C 
HETATM    3  C3  UNL     1      -1.001  48.874 -20.128  1.00  0.00     0.034 C 
HETATM    4  C4  UNL     1      -1.152  49.138 -21.629  1.00  0.00     0.010 C 
HETATM    5  C5  UNL     1      -2.034  50.373 -21.925  1.00  0.00     0.006 C 
HETATM    6  C6  UNL     1      -3.440  50.269 -21.231  1.00  0.00    -0.032 C 
HETATM    7  C7  UNL     1      -4.248  49.031 -21.714  1.00  0.00     0.016 C 
HETATM    8  C8  UNL     1      -4.317  51.521 -21.543  1.00  0.00     0.013 C 
HETATM    9  C9  UNL     1      -3.625  52.554 -22.428  1.00  0.00     0.039 C 
HETATM   10  C10 UNL     1      -3.081  51.938 -23.731  1.00  0.00     0.066 C 
HETATM   11  C11 UNL     1      -4.254  51.539 -24.642  1.00  0.00     0.047 C 
HETATM   12  O1  UNL     1      -2.412  53.009 -24.437  1.00  0.00    -0.371 OA
HETATM   13  C12 UNL     1      -1.046  52.672 -24.692  1.00  0.00     0.146 C 
HETATM   14  C17 UNL     1      -0.702  51.547 -23.736  1.00  0.00     0.048 C 
HETATM   15  C18 UNL     1      -2.031  50.816 -23.440  1.00  0.00    -0.006 C 
HETATM   16  C19 UNL     1      -2.124  49.613 -24.404  1.00  0.00     0.019 C 
HETATM   17  C20 UNL     1      -3.221  50.101 -19.667  1.00  0.00     0.027 C 
ENDROOT
BRANCH  17  18
HETATM   18  C21 UNL     1      -2.646  51.355 -18.936  1.00  0.00     0.057 C 
BRANCH  18  19
HETATM   19  C22 UNL     1      -1.812  51.006 -17.721  1.00  0.00     0.052 A 
HETATM   20  C23 UNL     1      -2.338  50.550 -16.573  1.00  0.00     0.086 A 
HETATM   21  C24 UNL     1      -1.520  50.219 -15.417  1.00  0.00     0.001 A 
HETATM   22  C25 UNL     1      -2.193  49.834 -14.126  1.00  0.00     0.054 C 
HETATM   23  C26 UNL     1      -0.183  50.319 -15.551  1.00  0.00     0.061 A 
HETATM   24  C27 UNL     1       0.850  49.984 -14.519  1.00  0.00     0.077 C 
HETATM   25  O3  UNL     1       0.401  50.780 -16.757  1.00  0.00    -0.279 OA
HETATM   26  C28 UNL     1      -0.346  51.197 -17.820  1.00  0.00     0.297 A 
HETATM   27  O4  UNL     1       0.182  51.699 -18.807  1.00  0.00    -0.259 OA
BRANCH  20  28
HETATM   28  O2  UNL     1      -3.705  50.360 -16.480  1.00  0.00    -0.359 OA
HETATM   29  H34 UNL     1      -3.906  49.737 -15.764  1.00  0.00     0.217 HD
ENDBRANCH  20  28
ENDBRANCH  18  19
ENDBRANCH  17  18
BRANCH  13  30
HETATM   30  C13 UNL     1      -0.901  52.332 -26.149  1.00  0.00     0.007 C 
HETATM   31  C14 UNL     1       0.237  52.010 -26.798  1.00  0.00    -0.089 C 
HETATM   32  C15 UNL     1       1.588  51.903 -26.148  1.00  0.00     0.042 C 
HETATM   33  C16 UNL     1       0.227  51.721 -28.276  1.00  0.00     0.042 C 
ENDBRANCH  13  30
TORSDOF 4
ENDMDL
