MODEL 1
REMARK minimizedAffinity -9.65235996
REMARK  4 active torsions:
REMARK  status: ('A' for Active; 'I' for Inactive)
REMARK    1  A    between atoms: C2_2  and  C3_3 
REMARK    2  A    between atoms: C2_2  and  C9_9 
REMARK    3  A    between atoms: C4_4  and  C5_5 
REMARK    4  A    between atoms: C23_23  and  O1_24 
ROOT
HETATM    1  C9  UNL     1      -5.770   7.023  13.802  1.00  0.00     0.001 C 
HETATM    2  C10 UNL     1      -5.661   8.536  14.164  1.00  0.00     0.006 C 
HETATM    3  C11 UNL     1      -4.204   8.957  13.926  1.00  0.00     0.009 C 
HETATM    4  C12 UNL     1      -3.577   7.737  13.265  1.00  0.00     0.036 C 
HETATM    5  C13 UNL     1      -4.292   6.527  13.919  1.00  0.00    -0.033 C 
HETATM    6  C14 UNL     1      -3.918   6.280  15.398  1.00  0.00     0.016 C 
HETATM    7  C15 UNL     1      -3.935   5.291  13.070  1.00  0.00     0.010 C 
HETATM    8  C16 UNL     1      -2.414   5.081  12.957  1.00  0.00     0.010 C 
HETATM    9  C17 UNL     1      -1.665   6.319  12.424  1.00  0.00     0.039 C 
HETATM   10  C18 UNL     1      -2.050   7.647  13.158  1.00  0.00     0.123 C 
HETATM   11  C19 UNL     1      -1.254   7.874  14.418  1.00  0.00     0.014 C 
HETATM   12  C20 UNL     1       0.070   7.894  14.215  1.00  0.00     0.014 C 
HETATM   13  C21 UNL     1       0.476   7.594  12.785  1.00  0.00     0.124 C 
HETATM   14  C22 UNL     1       1.989   7.742  12.580  1.00  0.00     0.078 C 
HETATM   15  C23 UNL     1       2.484   7.188  11.238  1.00  0.00     0.121 C 
HETATM   16  C24 UNL     1       1.376   6.790  10.272  1.00  0.00     0.033 C 
HETATM   17  C25 UNL     1       0.359   5.829  10.895  1.00  0.00     0.015 C 
HETATM   18  C26 UNL     1      -0.082   6.194  12.350  1.00  0.00     0.001 C 
HETATM   19  C27 UNL     1       0.467   5.080  13.284  1.00  0.00     0.019 C 
HETATM   20  O2  UNL     1      -0.173   8.591  11.945  1.00  0.00    -0.223 OA
HETATM   21  O3  UNL     1      -1.624   8.725  12.279  1.00  0.00    -0.224 OA
ENDROOT
BRANCH   1  22
HETATM   22  C2  UNL     1      -6.887   6.304  14.607  1.00  0.00     0.008 C 
HETATM   23  C1  UNL     1      -6.532   6.103  16.085  1.00  0.00     0.014 C 
BRANCH  22  24
HETATM   24  C3  UNL     1      -7.268   4.996  13.929  1.00  0.00    -0.026 C 
HETATM   25  C4  UNL     1      -6.858   4.556  12.728  1.00  0.00    -0.025 C 
BRANCH  25  26
HETATM   26  C5  UNL     1      -7.240   3.281  12.113  1.00  0.00     0.012 A 
HETATM   27  C6  UNL     1      -7.387   2.073  13.007  1.00  0.00     0.013 A 
HETATM   28  C7  UNL     1      -6.233   2.158  12.046  1.00  0.00    -0.010 A 
HETATM   29  C8  UNL     1      -6.185   1.268  10.851  1.00  0.00     0.010 C 
ENDBRANCH  25  26
ENDBRANCH  22  24
ENDBRANCH   1  22
BRANCH  15  30
HETATM   30  O1  UNL     1       3.301   6.044  11.503  1.00  0.00    -0.395 OA
HETATM   31  H33 UNL     1       3.682   5.755  10.655  1.00  0.00     0.210 HD
ENDBRANCH  15  30
TORSDOF 4
ENDMDL
MODEL 2
REMARK minimizedAffinity -9.58472157
REMARK  4 active torsions:
REMARK  status: ('A' for Active; 'I' for Inactive)
REMARK    1  A    between atoms: C2_2  and  C3_3 
REMARK    2  A    between atoms: C2_2  and  C9_9 
REMARK    3  A    between atoms: C4_4  and  C5_5 
REMARK    4  A    between atoms: C23_23  and  O1_24 
ROOT
HETATM    1  C9  UNL     1       1.562   7.136   9.879  1.00  0.00     0.001 C 
HETATM    2  C10 UNL     1       2.092   5.765  10.401  1.00  0.00     0.006 C 
HETATM    3  C11 UNL     1       1.161   5.319  11.536  1.00  0.00     0.009 C 
HETATM    4  C12 UNL     1       0.033   6.342  11.504  1.00  0.00     0.036 C 
HETATM    5  C13 UNL     1       0.719   7.667  11.085  1.00  0.00    -0.033 C 
HETATM    6  C14 UNL     1       1.640   8.285  12.162  1.00  0.00     0.016 C 
HETATM    7  C15 UNL     1      -0.409   8.655  10.724  1.00  0.00     0.010 C 
HETATM    8  C16 UNL     1      -1.403   8.851  11.884  1.00  0.00     0.010 C 
HETATM    9  C17 UNL     1      -2.006   7.530  12.401  1.00  0.00     0.039 C 
HETATM   10  C18 UNL     1      -0.936   6.424  12.689  1.00  0.00     0.123 C 
HETATM   11  C19 UNL     1      -0.335   6.534  14.067  1.00  0.00     0.014 C 
HETATM   12  C20 UNL     1      -1.243   6.483  15.050  1.00  0.00     0.014 C 
HETATM   13  C21 UNL     1      -2.676   6.418  14.559  1.00  0.00     0.124 C 
HETATM   14  C22 UNL     1      -3.668   6.245  15.716  1.00  0.00     0.078 C 
HETATM   15  C23 UNL     1      -5.132   6.450  15.307  1.00  0.00     0.121 C 
HETATM   16  C24 UNL     1      -5.356   6.575  13.805  1.00  0.00     0.033 C 
HETATM   17  C25 UNL     1      -4.474   7.648  13.158  1.00  0.00     0.015 C 
HETATM   18  C26 UNL     1      -2.987   7.655  13.645  1.00  0.00     0.001 C 
HETATM   19  C27 UNL     1      -2.774   8.976  14.435  1.00  0.00     0.019 C 
HETATM   20  O2  UNL     1      -2.780   5.232  13.720  1.00  0.00    -0.223 OA
HETATM   21  O3  UNL     1      -1.665   5.165  12.727  1.00  0.00    -0.224 OA
ENDROOT
BRANCH   1  22
HETATM   22  C2  UNL     1       2.695   8.019   9.287  1.00  0.00     0.008 C 
HETATM   23  C1  UNL     1       2.639   8.128   7.759  1.00  0.00     0.014 C 
BRANCH  22  24
HETATM   24  C3  UNL     1       4.052   7.534   9.775  1.00  0.00    -0.026 C 
HETATM   25  C4  UNL     1       4.989   8.254  10.413  1.00  0.00    -0.025 C 
BRANCH  25  26
HETATM   26  C5  UNL     1       6.284   7.746  10.877  1.00  0.00     0.012 A 
HETATM   27  C6  UNL     1       6.386   6.286  11.246  1.00  0.00     0.013 A 
HETATM   28  C7  UNL     1       6.445   7.336  12.321  1.00  0.00    -0.010 A 
HETATM   29  C8  UNL     1       7.725   7.607  13.036  1.00  0.00     0.010 C 
ENDBRANCH  25  26
ENDBRANCH  22  24
ENDBRANCH   1  22
BRANCH  15  30
HETATM   30  O1  UNL     1      -5.612   7.635  15.947  1.00  0.00    -0.395 OA
HETATM   31  H33 UNL     1      -6.563   7.707  15.754  1.00  0.00     0.210 HD
ENDBRANCH  15  30
TORSDOF 4
ENDMDL
MODEL 3
REMARK minimizedAffinity -9.50975609
REMARK  4 active torsions:
REMARK  status: ('A' for Active; 'I' for Inactive)
REMARK    1  A    between atoms: C2_2  and  C3_3 
REMARK    2  A    between atoms: C2_2  and  C9_9 
REMARK    3  A    between atoms: C4_4  and  C5_5 
REMARK    4  A    between atoms: C23_23  and  O1_24 
ROOT
HETATM    1  C9  UNL     1      -6.013   6.600  13.750  1.00  0.00     0.001 C 
HETATM    2  C10 UNL     1      -6.067   8.133  14.030  1.00  0.00     0.006 C 
HETATM    3  C11 UNL     1      -4.662   8.693  13.767  1.00  0.00     0.009 C 
HETATM    4  C12 UNL     1      -3.907   7.512  13.170  1.00  0.00     0.036 C 
HETATM    5  C13 UNL     1      -4.491   6.270  13.890  1.00  0.00    -0.033 C 
HETATM    6  C14 UNL     1      -4.097   6.144  15.379  1.00  0.00     0.016 C 
HETATM    7  C15 UNL     1      -4.002   5.035  13.107  1.00  0.00     0.010 C 
HETATM    8  C16 UNL     1      -2.467   4.982  13.001  1.00  0.00     0.010 C 
HETATM    9  C17 UNL     1      -1.853   6.262  12.401  1.00  0.00     0.039 C 
HETATM   10  C18 UNL     1      -2.379   7.580  13.063  1.00  0.00     0.123 C 
HETATM   11  C19 UNL     1      -1.615   7.957  14.307  1.00  0.00     0.014 C 
HETATM   12  C20 UNL     1      -0.300   8.106  14.099  1.00  0.00     0.014 C 
HETATM   13  C21 UNL     1       0.140   7.775  12.686  1.00  0.00     0.124 C 
HETATM   14  C22 UNL     1       1.629   8.072  12.469  1.00  0.00     0.078 C 
HETATM   15  C23 UNL     1       2.184   7.503  11.158  1.00  0.00     0.121 C 
HETATM   16  C24 UNL     1       1.127   6.938  10.217  1.00  0.00     0.033 C 
HETATM   17  C25 UNL     1       0.216   5.909  10.893  1.00  0.00     0.015 C 
HETATM   18  C26 UNL     1      -0.265   6.303  12.329  1.00  0.00     0.001 C 
HETATM   19  C27 UNL     1       0.397   5.305  13.320  1.00  0.00     0.019 C 
HETATM   20  O2  UNL     1      -0.609   8.651  11.796  1.00  0.00    -0.223 OA
HETATM   21  O3  UNL     1      -2.067   8.648  12.126  1.00  0.00    -0.224 OA
ENDROOT
BRANCH   1  22
HETATM   22  C2  UNL     1      -7.050   5.810  14.596  1.00  0.00     0.008 C 
HETATM   23  C1  UNL     1      -7.315   4.398  14.061  1.00  0.00     0.014 C 
BRANCH  22  24
HETATM   24  C3  UNL     1      -8.333   6.613  14.744  1.00  0.00    -0.026 C 
HETATM   25  C4  UNL     1      -9.390   6.614  13.915  1.00  0.00    -0.025 C 
BRANCH  25  26
HETATM   26  C5  UNL     1     -10.616   7.396  14.099  1.00  0.00     0.012 A 
HETATM   27  C6  UNL     1     -11.932   6.659  14.147  1.00  0.00     0.013 A 
HETATM   28  C7  UNL     1     -11.597   7.517  12.958  1.00  0.00    -0.010 A 
HETATM   29  C8  UNL     1     -12.323   8.799  12.730  1.00  0.00     0.010 C 
ENDBRANCH  25  26
ENDBRANCH  22  24
ENDBRANCH   1  22
BRANCH  15  30
HETATM   30  O1  UNL     1       3.117   6.468  11.481  1.00  0.00    -0.395 OA
HETATM   31  H33 UNL     1       3.529   6.176  10.648  1.00  0.00     0.210 HD
ENDBRANCH  15  30
TORSDOF 4
ENDMDL
MODEL 4
REMARK minimizedAffinity -9.13472271
REMARK  4 active torsions:
REMARK  status: ('A' for Active; 'I' for Inactive)
REMARK    1  A    between atoms: C2_2  and  C3_3 
REMARK    2  A    between atoms: C2_2  and  C9_9 
REMARK    3  A    between atoms: C4_4  and  C5_5 
REMARK    4  A    between atoms: C23_23  and  O1_24 
ROOT
HETATM    1  C9  UNL     1      -1.666   5.898  13.270  1.00  0.00     0.001 C 
HETATM    2  C10 UNL     1      -1.784   5.117  11.925  1.00  0.00     0.006 C 
HETATM    3  C11 UNL     1      -0.463   5.312  11.169  1.00  0.00     0.009 C 
HETATM    4  C12 UNL     1       0.429   6.030  12.173  1.00  0.00     0.036 C 
HETATM    5  C13 UNL     1      -0.539   6.941  12.972  1.00  0.00    -0.033 C 
HETATM    6  C14 UNL     1      -1.102   8.139  12.175  1.00  0.00     0.016 C 
HETATM    7  C15 UNL     1       0.244   7.445  14.202  1.00  0.00     0.010 C 
HETATM    8  C16 UNL     1       1.542   8.173  13.807  1.00  0.00     0.010 C 
HETATM    9  C17 UNL     1       2.466   7.329  12.906  1.00  0.00     0.039 C 
HETATM   10  C18 UNL     1       1.728   6.682  11.686  1.00  0.00     0.123 C 
HETATM   11  C19 UNL     1       1.636   7.605  10.498  1.00  0.00     0.014 C 
HETATM   12  C20 UNL     1       2.828   8.039  10.067  1.00  0.00     0.014 C 
HETATM   13  C21 UNL     1       3.994   7.579  10.921  1.00  0.00     0.124 C 
HETATM   14  C22 UNL     1       5.341   8.003  10.322  1.00  0.00     0.078 C 
HETATM   15  C23 UNL     1       6.526   7.809  11.275  1.00  0.00     0.121 C 
HETATM   16  C24 UNL     1       6.193   7.041  12.548  1.00  0.00     0.033 C 
HETATM   17  C25 UNL     1       5.000   7.633  13.306  1.00  0.00     0.015 C 
HETATM   18  C26 UNL     1       3.791   8.048  12.404  1.00  0.00     0.001 C 
HETATM   19  C27 UNL     1       3.685   9.597  12.470  1.00  0.00     0.019 C 
HETATM   20  O2  UNL     1       3.964   6.123  10.926  1.00  0.00    -0.223 OA
HETATM   21  O3  UNL     1       2.593   5.607  11.224  1.00  0.00    -0.224 OA
ENDROOT
BRANCH   1  22
HETATM   22  C2  UNL     1      -3.045   6.389  13.790  1.00  0.00     0.008 C 
HETATM   23  C1  UNL     1      -3.182   6.298  15.314  1.00  0.00     0.014 C 
BRANCH  22  24
HETATM   24  C3  UNL     1      -4.170   5.658  13.072  1.00  0.00    -0.026 C 
HETATM   25  C4  UNL     1      -5.356   5.291  13.585  1.00  0.00    -0.025 C 
BRANCH  25  26
HETATM   26  C5  UNL     1      -6.421   4.596  12.855  1.00  0.00     0.012 A 
HETATM   27  C6  UNL     1      -7.848   4.813  13.297  1.00  0.00     0.013 A 
HETATM   28  C7  UNL     1      -7.184   3.485  13.535  1.00  0.00    -0.010 A 
HETATM   29  C8  UNL     1      -7.606   2.285  12.758  1.00  0.00     0.010 C 
ENDBRANCH  25  26
ENDBRANCH  22  24
ENDBRANCH   1  22
BRANCH  15  30
HETATM   30  O1  UNL     1       7.029   9.100  11.630  1.00  0.00    -0.395 OA
HETATM   31  H33 UNL     1       7.833   8.964  12.162  1.00  0.00     0.210 HD
ENDBRANCH  15  30
TORSDOF 4
ENDMDL
MODEL 5
REMARK minimizedAffinity -8.73840714
REMARK  4 active torsions:
REMARK  status: ('A' for Active; 'I' for Inactive)
REMARK    1  A    between atoms: C2_2  and  C3_3 
REMARK    2  A    between atoms: C2_2  and  C9_9 
REMARK    3  A    between atoms: C4_4  and  C5_5 
REMARK    4  A    between atoms: C23_23  and  O1_24 
ROOT
HETATM    1  C9  UNL     1      -4.124   6.820  13.073  1.00  0.00     0.001 C 
HETATM    2  C10 UNL     1      -3.885   8.106  13.923  1.00  0.00     0.006 C 
HETATM    3  C11 UNL     1      -2.422   8.521  13.719  1.00  0.00     0.009 C 
HETATM    4  C12 UNL     1      -1.928   7.583  12.626  1.00  0.00     0.036 C 
HETATM    5  C13 UNL     1      -2.680   6.252  12.883  1.00  0.00    -0.033 C 
HETATM    6  C14 UNL     1      -2.226   5.489  14.147  1.00  0.00     0.016 C 
HETATM    7  C15 UNL     1      -2.469   5.376  11.632  1.00  0.00     0.010 C 
HETATM    8  C16 UNL     1      -0.977   5.154  11.322  1.00  0.00     0.010 C 
HETATM    9  C17 UNL     1      -0.181   6.467  11.184  1.00  0.00     0.039 C 
HETATM   10  C18 UNL     1      -0.421   7.471  12.361  1.00  0.00     0.123 C 
HETATM   11  C19 UNL     1       0.472   7.210  13.547  1.00  0.00     0.014 C 
HETATM   12  C20 UNL     1       1.777   7.243  13.249  1.00  0.00     0.014 C 
HETATM   13  C21 UNL     1       2.064   7.444  11.774  1.00  0.00     0.124 C 
HETATM   14  C22 UNL     1       3.566   7.590  11.500  1.00  0.00     0.078 C 
HETATM   15  C23 UNL     1       3.930   7.519  10.013  1.00  0.00     0.121 C 
HETATM   16  C24 UNL     1       2.734   7.530   9.068  1.00  0.00     0.033 C 
HETATM   17  C25 UNL     1       1.697   6.456   9.408  1.00  0.00     0.015 C 
HETATM   18  C26 UNL     1       1.381   6.309  10.934  1.00  0.00     0.001 C 
HETATM   19  C27 UNL     1       1.912   4.917  11.375  1.00  0.00     0.019 C 
HETATM   20  O2  UNL     1       1.432   8.698  11.389  1.00  0.00    -0.223 OA
HETATM   21  O3  UNL     1       0.019   8.769  11.873  1.00  0.00    -0.224 OA
ENDROOT
BRANCH   1  22
HETATM   22  C2  UNL     1      -5.233   5.913  13.676  1.00  0.00     0.008 C 
HETATM   23  C1  UNL     1      -5.430   4.606  12.899  1.00  0.00     0.014 C 
BRANCH  22  24
HETATM   24  C3  UNL     1      -6.531   6.692  13.821  1.00  0.00    -0.026 C 
HETATM   25  C4  UNL     1      -7.227   6.904  14.950  1.00  0.00    -0.025 C 
BRANCH  25  26
HETATM   26  C5  UNL     1      -8.473   7.672  15.051  1.00  0.00     0.012 A 
HETATM   27  C6  UNL     1      -9.133   7.785  16.403  1.00  0.00     0.013 A 
HETATM   28  C7  UNL     1      -9.769   6.950  15.326  1.00  0.00    -0.010 A 
HETATM   29  C8  UNL     1     -11.030   7.402  14.672  1.00  0.00     0.010 C 
ENDBRANCH  25  26
ENDBRANCH  22  24
ENDBRANCH   1  22
BRANCH  15  30
HETATM   30  O1  UNL     1       4.681   6.320   9.794  1.00  0.00    -0.395 OA
HETATM   31  H33 UNL     1       4.983   6.329   8.869  1.00  0.00     0.210 HD
ENDBRANCH  15  30
TORSDOF 4
ENDMDL
MODEL 6
REMARK minimizedAffinity -8.67648411
REMARK  4 active torsions:
REMARK  status: ('A' for Active; 'I' for Inactive)
REMARK    1  A    between atoms: C2_2  and  C3_3 
REMARK    2  A    between atoms: C2_2  and  C9_9 
REMARK    3  A    between atoms: C4_4  and  C5_5 
REMARK    4  A    between atoms: C23_23  and  O1_24 
ROOT
HETATM    1  C9  UNL     1      -1.710   5.947  12.147  1.00  0.00     0.001 C 
HETATM    2  C10 UNL     1      -2.051   6.983  13.261  1.00  0.00     0.006 C 
HETATM    3  C11 UNL     1      -0.792   7.829  13.496  1.00  0.00     0.009 C 
HETATM    4  C12 UNL     1       0.158   7.381  12.393  1.00  0.00     0.036 C 
HETATM    5  C13 UNL     1      -0.149   5.873  12.202  1.00  0.00    -0.033 C 
HETATM    6  C14 UNL     1       0.312   4.969  13.367  1.00  0.00     0.016 C 
HETATM    7  C15 UNL     1       0.545   5.444  10.893  1.00  0.00     0.010 C 
HETATM    8  C16 UNL     1       2.056   5.736  10.912  1.00  0.00     0.010 C 
HETATM    9  C17 UNL     1       2.389   7.208  11.225  1.00  0.00     0.039 C 
HETATM   10  C18 UNL     1       1.640   7.766  12.481  1.00  0.00     0.123 C 
HETATM   11  C19 UNL     1       2.357   7.469  13.773  1.00  0.00     0.014 C 
HETATM   12  C20 UNL     1       3.610   7.941  13.808  1.00  0.00     0.014 C 
HETATM   13  C21 UNL     1       4.058   8.587  12.511  1.00  0.00     0.124 C 
HETATM   14  C22 UNL     1       5.453   9.213  12.639  1.00  0.00     0.078 C 
HETATM   15  C23 UNL     1       6.064   9.631  11.296  1.00  0.00     0.121 C 
HETATM   16  C24 UNL     1       5.106   9.551  10.114  1.00  0.00     0.033 C 
HETATM   17  C25 UNL     1       4.436   8.180   9.982  1.00  0.00     0.015 C 
HETATM   18  C26 UNL     1       3.935   7.563  11.330  1.00  0.00     0.001 C 
HETATM   19  C27 UNL     1       4.811   6.310  11.609  1.00  0.00     0.019 C 
HETATM   20  O2  UNL     1       3.124   9.670  12.235  1.00  0.00    -0.223 OA
HETATM   21  O3  UNL     1       1.706   9.216  12.372  1.00  0.00    -0.224 OA
ENDROOT
BRANCH   1  22
HETATM   22  C2  UNL     1      -2.544   4.642  12.280  1.00  0.00     0.008 C 
HETATM   23  C1  UNL     1      -2.648   3.856  10.968  1.00  0.00     0.014 C 
BRANCH  22  24
HETATM   24  C3  UNL     1      -3.912   4.949  12.871  1.00  0.00    -0.026 C 
HETATM   25  C4  UNL     1      -5.030   4.215  12.751  1.00  0.00    -0.025 C 
BRANCH  25  26
HETATM   26  C5  UNL     1      -6.330   4.539  13.346  1.00  0.00     0.012 A 
HETATM   27  C6  UNL     1      -7.348   3.434  13.483  1.00  0.00     0.013 A 
HETATM   28  C7  UNL     1      -7.566   4.532  12.479  1.00  0.00    -0.010 A 
HETATM   29  C8  UNL     1      -8.637   5.546  12.697  1.00  0.00     0.010 C 
ENDBRANCH  25  26
ENDBRANCH  22  24
ENDBRANCH   1  22
BRANCH  15  30
HETATM   30  O1  UNL     1       7.191   8.789  11.037  1.00  0.00    -0.395 OA
HETATM   31  H33 UNL     1       7.624   9.120  10.231  1.00  0.00     0.210 HD
ENDBRANCH  15  30
TORSDOF 4
ENDMDL
MODEL 7
REMARK minimizedAffinity -8.67230606
REMARK  4 active torsions:
REMARK  status: ('A' for Active; 'I' for Inactive)
REMARK    1  A    between atoms: C2_2  and  C3_3 
REMARK    2  A    between atoms: C2_2  and  C9_9 
REMARK    3  A    between atoms: C4_4  and  C5_5 
REMARK    4  A    between atoms: C23_23  and  O1_24 
ROOT
HETATM    1  C9  UNL     1      -3.025   4.891  13.632  1.00  0.00     0.001 C 
HETATM    2  C10 UNL     1      -1.696   5.051  12.832  1.00  0.00     0.006 C 
HETATM    3  C11 UNL     1      -1.064   6.382  13.264  1.00  0.00     0.009 C 
HETATM    4  C12 UNL     1      -1.942   6.844  14.418  1.00  0.00     0.036 C 
HETATM    5  C13 UNL     1      -3.367   6.360  14.043  1.00  0.00    -0.033 C 
HETATM    6  C14 UNL     1      -4.015   7.119  12.864  1.00  0.00     0.016 C 
HETATM    7  C15 UNL     1      -4.233   6.513  15.310  1.00  0.00     0.010 C 
HETATM    8  C16 UNL     1      -4.228   7.955  15.849  1.00  0.00     0.010 C 
HETATM    9  C17 UNL     1      -2.811   8.503  16.112  1.00  0.00     0.039 C 
HETATM   10  C18 UNL     1      -1.825   8.290  14.914  1.00  0.00     0.123 C 
HETATM   11  C19 UNL     1      -1.911   9.385  13.881  1.00  0.00     0.014 C 
HETATM   12  C20 UNL     1      -1.683  10.607  14.380  1.00  0.00     0.014 C 
HETATM   13  C21 UNL     1      -1.480  10.628  15.883  1.00  0.00     0.124 C 
HETATM   14  C22 UNL     1      -1.109  12.028  16.387  1.00  0.00     0.078 C 
HETATM   15  C23 UNL     1      -1.163  12.166  17.914  1.00  0.00     0.121 C 
HETATM   16  C24 UNL     1      -1.364  10.852  18.659  1.00  0.00     0.033 C 
HETATM   17  C25 UNL     1      -2.577  10.063  18.159  1.00  0.00     0.015 C 
HETATM   18  C26 UNL     1      -2.730  10.012  16.603  1.00  0.00     0.001 C 
HETATM   19  C27 UNL     1      -4.010  10.819  16.246  1.00  0.00     0.019 C 
HETATM   20  O2  UNL     1      -0.351   9.754  16.167  1.00  0.00    -0.223 OA
HETATM   21  O3  UNL     1      -0.488   8.440  15.469  1.00  0.00    -0.224 OA
ENDROOT
BRANCH   1  22
HETATM   22  C2  UNL     1      -4.077   4.046  12.861  1.00  0.00     0.008 C 
HETATM   23  C1  UNL     1      -3.740   3.870  11.376  1.00  0.00     0.014 C 
BRANCH  22  24
HETATM   24  C3  UNL     1      -5.470   4.624  13.065  1.00  0.00    -0.026 C 
HETATM   25  C4  UNL     1      -6.642   3.985  12.917  1.00  0.00    -0.025 C 
BRANCH  25  26
HETATM   26  C5  UNL     1      -7.967   4.576  13.134  1.00  0.00     0.012 A 
HETATM   27  C6  UNL     1      -8.543   5.455  12.050  1.00  0.00     0.013 A 
HETATM   28  C7  UNL     1      -8.089   6.066  13.347  1.00  0.00    -0.010 A 
HETATM   29  C8  UNL     1      -9.089   6.602  14.314  1.00  0.00     0.010 C 
ENDBRANCH  25  26
ENDBRANCH  22  24
ENDBRANCH   1  22
BRANCH  15  30
HETATM   30  O1  UNL     1      -2.236  13.054  18.243  1.00  0.00    -0.395 OA
HETATM   31  H33 UNL     1      -2.204  13.205  19.205  1.00  0.00     0.210 HD
ENDBRANCH  15  30
TORSDOF 4
ENDMDL
MODEL 8
REMARK minimizedAffinity -8.59453011
REMARK  4 active torsions:
REMARK  status: ('A' for Active; 'I' for Inactive)
REMARK    1  A    between atoms: C2_2  and  C3_3 
REMARK    2  A    between atoms: C2_2  and  C9_9 
REMARK    3  A    between atoms: C4_4  and  C5_5 
REMARK    4  A    between atoms: C23_23  and  O1_24 
ROOT
HETATM    1  C9  UNL     1      -3.461   8.829  13.669  1.00  0.00     0.001 C 
HETATM    2  C10 UNL     1      -2.724  10.018  14.360  1.00  0.00     0.006 C 
HETATM    3  C11 UNL     1      -1.234   9.890  14.016  1.00  0.00     0.009 C 
HETATM    4  C12 UNL     1      -1.191   8.757  12.999  1.00  0.00     0.036 C 
HETATM    5  C13 UNL     1      -2.316   7.788  13.446  1.00  0.00    -0.033 C 
HETATM    6  C14 UNL     1      -2.020   7.017  14.752  1.00  0.00     0.016 C 
HETATM    7  C15 UNL     1      -2.533   6.798  12.284  1.00  0.00     0.010 C 
HETATM    8  C16 UNL     1      -1.240   6.056  11.901  1.00  0.00     0.010 C 
HETATM    9  C17 UNL     1      -0.068   7.003  11.572  1.00  0.00     0.039 C 
HETATM   10  C18 UNL     1       0.157   8.117  12.649  1.00  0.00     0.123 C 
HETATM   11  C19 UNL     1       1.024   7.660  13.794  1.00  0.00     0.014 C 
HETATM   12  C20 UNL     1       2.229   7.222  13.408  1.00  0.00     0.014 C 
HETATM   13  C21 UNL     1       2.420   7.197  11.905  1.00  0.00     0.124 C 
HETATM   14  C22 UNL     1       3.851   6.799  11.518  1.00  0.00     0.078 C 
HETATM   15  C23 UNL     1       4.022   6.492  10.026  1.00  0.00     0.121 C 
HETATM   16  C24 UNL     1       2.811   6.838   9.167  1.00  0.00     0.033 C 
HETATM   17  C25 UNL     1       1.514   6.213   9.688  1.00  0.00     0.015 C 
HETATM   18  C26 UNL     1       1.318   6.302  11.237  1.00  0.00     0.001 C 
HETATM   19  C27 UNL     1       1.395   4.851  11.789  1.00  0.00     0.019 C 
HETATM   20  O2  UNL     1       2.209   8.558  11.431  1.00  0.00    -0.223 OA
HETATM   21  O3  UNL     1       0.956   9.145  11.997  1.00  0.00    -0.224 OA
ENDROOT
BRANCH   1  22
HETATM   22  C2  UNL     1      -4.744   8.405  14.437  1.00  0.00     0.008 C 
HETATM   23  C1  UNL     1      -4.798   8.951  15.868  1.00  0.00     0.014 C 
BRANCH  22  24
HETATM   24  C3  UNL     1      -4.907   6.893  14.397  1.00  0.00    -0.026 C 
HETATM   25  C4  UNL     1      -5.763   6.190  13.638  1.00  0.00    -0.025 C 
BRANCH  25  26
HETATM   26  C5  UNL     1      -5.883   4.728  13.621  1.00  0.00     0.012 A 
HETATM   27  C6  UNL     1      -5.223   3.972  12.494  1.00  0.00     0.013 A 
HETATM   28  C7  UNL     1      -6.723   4.065  12.556  1.00  0.00    -0.010 A 
HETATM   29  C8  UNL     1      -7.536   2.861  12.889  1.00  0.00     0.010 C 
ENDBRANCH  25  26
ENDBRANCH  22  24
ENDBRANCH   1  22
BRANCH  15  30
HETATM   30  O1  UNL     1       4.304   5.096   9.887  1.00  0.00    -0.395 OA
HETATM   31  H33 UNL     1       4.499   4.930   8.948  1.00  0.00     0.210 HD
ENDBRANCH  15  30
TORSDOF 4
ENDMDL
MODEL 9
REMARK minimizedAffinity -8.56784534
REMARK  4 active torsions:
REMARK  status: ('A' for Active; 'I' for Inactive)
REMARK    1  A    between atoms: C2_2  and  C3_3 
REMARK    2  A    between atoms: C2_2  and  C9_9 
REMARK    3  A    between atoms: C4_4  and  C5_5 
REMARK    4  A    between atoms: C23_23  and  O1_24 
ROOT
HETATM    1  C9  UNL     1      -3.175   3.845  12.661  1.00  0.00     0.001 C 
HETATM    2  C10 UNL     1      -2.540   3.705  11.243  1.00  0.00     0.006 C 
HETATM    3  C11 UNL     1      -1.320   4.636  11.197  1.00  0.00     0.009 C 
HETATM    4  C12 UNL     1      -1.185   5.129  12.632  1.00  0.00     0.036 C 
HETATM    5  C13 UNL     1      -2.643   5.232  13.148  1.00  0.00    -0.033 C 
HETATM    6  C14 UNL     1      -3.468   6.380  12.524  1.00  0.00     0.016 C 
HETATM    7  C15 UNL     1      -2.559   5.413  14.677  1.00  0.00     0.010 C 
HETATM    8  C16 UNL     1      -1.710   6.635  15.073  1.00  0.00     0.010 C 
HETATM    9  C17 UNL     1      -0.292   6.615  14.467  1.00  0.00     0.039 C 
HETATM   10  C18 UNL     1      -0.273   6.325  12.928  1.00  0.00     0.123 C 
HETATM   11  C19 UNL     1      -0.467   7.566  12.095  1.00  0.00     0.014 C 
HETATM   12  C20 UNL     1       0.443   8.518  12.337  1.00  0.00     0.014 C 
HETATM   13  C21 UNL     1       1.407   8.174  13.456  1.00  0.00     0.124 C 
HETATM   14  C22 UNL     1       2.497   9.242  13.617  1.00  0.00     0.078 C 
HETATM   15  C23 UNL     1       3.325   9.087  14.899  1.00  0.00     0.121 C 
HETATM   16  C24 UNL     1       3.065   7.796  15.666  1.00  0.00     0.033 C 
HETATM   17  C25 UNL     1       1.580   7.572  15.969  1.00  0.00     0.015 C 
HETATM   18  C26 UNL     1       0.614   7.883  14.778  1.00  0.00     0.001 C 
HETATM   19  C27 UNL     1      -0.226   9.124  15.188  1.00  0.00     0.019 C 
HETATM   20  O2  UNL     1       2.070   6.935  13.075  1.00  0.00    -0.223 OA
HETATM   21  O3  UNL     1       1.086   5.907  12.619  1.00  0.00    -0.224 OA
ENDROOT
BRANCH   1  22
HETATM   22  C2  UNL     1      -4.704   3.569  12.652  1.00  0.00     0.008 C 
HETATM   23  C1  UNL     1      -5.244   3.210  11.263  1.00  0.00     0.014 C 
BRANCH  22  24
HETATM   24  C3  UNL     1      -5.454   4.739  13.270  1.00  0.00    -0.026 C 
HETATM   25  C4  UNL     1      -6.660   4.707  13.862  1.00  0.00    -0.025 C 
BRANCH  25  26
HETATM   26  C5  UNL     1      -7.347   5.858  14.458  1.00  0.00     0.012 A 
HETATM   27  C6  UNL     1      -6.691   7.213  14.351  1.00  0.00     0.013 A 
HETATM   28  C7  UNL     1      -6.762   6.518  15.683  1.00  0.00    -0.010 A 
HETATM   29  C8  UNL     1      -7.662   7.037  16.753  1.00  0.00     0.010 C 
ENDBRANCH  25  26
ENDBRANCH  22  24
ENDBRANCH   1  22
BRANCH  15  30
HETATM   30  O1  UNL     1       3.039  10.199  15.752  1.00  0.00    -0.395 OA
HETATM   31  H33 UNL     1       3.634  10.138  16.520  1.00  0.00     0.210 HD
ENDBRANCH  15  30
TORSDOF 4
ENDMDL
