MODEL 1
REMARK minimizedAffinity -9.60673904
REMARK  7 active torsions:
REMARK  status: ('A' for Active; 'I' for Inactive)
REMARK    1  A    between atoms: C19_20  and  O2_21 
REMARK    2  A    between atoms: O2_21  and  C20_22 
REMARK    3  A    between atoms: C20_22  and  C21_24 
REMARK    4  A    between atoms: C21_24  and  C22_25 
REMARK    5  A    between atoms: C22_25  and  C23_26 
REMARK       I    between atoms: C23_26  and  N1_28 
REMARK    6  A    between atoms: N1_28  and  C24_29 
REMARK    7  A    between atoms: C24_29  and  C25_30 
ROOT
HETATM    1  C1  UNL     1      -0.722   8.771  12.469  1.00  0.00     0.018 C 
HETATM    2  C2  UNL     1      -0.482   7.307  12.874  1.00  0.00    -0.013 C 
HETATM    3  C3  UNL     1       0.954   7.165  13.425  1.00  0.00     0.012 C 
HETATM    4  C4  UNL     1       2.021   7.119  12.328  1.00  0.00     0.007 C 
HETATM    5  C5  UNL     1       1.772   5.950  11.354  1.00  0.00     0.002 C 
HETATM    6  C6  UNL     1       0.366   6.086  10.706  1.00  0.00    -0.004 C 
HETATM    7  C7  UNL     1       0.308   7.162   9.592  1.00  0.00     0.010 C 
HETATM    8  C8  UNL     1       1.653   7.483   8.945  1.00  0.00     0.035 C 
HETATM    9  C9  UNL     1       2.509   6.252   8.906  1.00  0.00    -0.068 C 
HETATM   10  C10 UNL     1       2.835   5.675   7.736  1.00  0.00     0.053 C 
HETATM   11  C11 UNL     1       3.617   4.418   7.680  1.00  0.00     0.149 C 
HETATM   12  O1  UNL     1       3.974   3.982   6.588  1.00  0.00    -0.293 OA
HETATM   13  C12 UNL     1       3.980   3.729   8.973  1.00  0.00     0.084 C 
HETATM   14  C13 UNL     1       3.055   4.142  10.115  1.00  0.00     0.022 C 
HETATM   15  C14 UNL     1       2.898   5.685  10.269  1.00  0.00    -0.016 C 
HETATM   16  C15 UNL     1       4.259   6.287  10.678  1.00  0.00     0.020 C 
HETATM   17  C16 UNL     1      -0.767   6.294  11.739  1.00  0.00     0.001 C 
HETATM   18  C17 UNL     1      -1.121   4.983  12.478  1.00  0.00     0.008 C 
HETATM   19  C18 UNL     1      -1.562   5.374  13.885  1.00  0.00     0.034 C 
HETATM   20  C19 UNL     1      -1.559   6.901  13.915  1.00  0.00     0.140 C 
ENDROOT
BRANCH  20  21
HETATM   21  O2  UNL     1      -1.236   7.411  15.213  1.00  0.00    -0.315 OA
BRANCH  21  22
HETATM   22  C20 UNL     1      -2.296   7.743  16.002  1.00  0.00     0.259 C 
HETATM   23  O3  UNL     1      -2.375   8.748  16.693  1.00  0.00    -0.265 OA
BRANCH  22  24
HETATM   24  C21 UNL     1      -3.355   6.678  15.896  1.00  0.00     0.120 C 
BRANCH  24  25
HETATM   25  C22 UNL     1      -4.597   7.210  15.193  1.00  0.00     0.112 C 
BRANCH  25  26
HETATM   26  C23 UNL     1      -5.740   6.222  15.263  1.00  0.00     0.218 C 
HETATM   27  O4  UNL     1      -6.367   5.985  16.288  1.00  0.00    -0.274 OA
HETATM   28  N1  UNL     1      -6.001   5.621  14.052  1.00  0.00    -0.357 N 
HETATM   29  H32 UNL     1      -5.545   5.979  13.222  1.00  0.00     0.162 HD
BRANCH  28  30
HETATM   30  C24 UNL     1      -7.117   4.717  13.872  1.00  0.00     0.162 C 
BRANCH  30  31
HETATM   31  C25 UNL     1      -6.755   3.589  12.952  1.00  0.00    -0.025 A 
HETATM   32  C26 UNL     1      -5.635   3.659  12.118  1.00  0.00     0.011 A 
HETATM   33  C27 UNL     1      -5.321   2.586  11.290  1.00  0.00     0.018 A 
HETATM   34  C28 UNL     1      -6.140   1.471  11.324  1.00  0.00     0.087 A 
HETATM   35  N2  UNL     1      -7.228   1.362  12.117  1.00  0.00    -0.375 N 
HETATM   36  C29 UNL     1      -7.509   2.421  12.910  1.00  0.00     0.096 A 
ATOM     37  H2  UNL     1      -7.808   0.524  12.117  1.00  0.00     0.164 HD
ENDBRANCH  30  31
ENDBRANCH  28  30
ENDBRANCH  25  26
ENDBRANCH  24  25
ENDBRANCH  22  24
ENDBRANCH  21  22
ENDBRANCH  20  21
TORSDOF 7
ENDMDL
MODEL 2
REMARK minimizedAffinity -9.49148369
REMARK  7 active torsions:
REMARK  status: ('A' for Active; 'I' for Inactive)
REMARK    1  A    between atoms: C19_20  and  O2_21 
REMARK    2  A    between atoms: O2_21  and  C20_22 
REMARK    3  A    between atoms: C20_22  and  C21_24 
REMARK    4  A    between atoms: C21_24  and  C22_25 
REMARK    5  A    between atoms: C22_25  and  C23_26 
REMARK       I    between atoms: C23_26  and  N1_28 
REMARK    6  A    between atoms: N1_28  and  C24_29 
REMARK    7  A    between atoms: C24_29  and  C25_30 
ROOT
HETATM    1  C1  UNL     1      -3.376   4.757  13.654  1.00  0.00     0.018 C 
HETATM    2  C2  UNL     1      -3.389   6.275  13.902  1.00  0.00    -0.013 C 
HETATM    3  C3  UNL     1      -3.664   6.540  15.398  1.00  0.00     0.012 C 
HETATM    4  C4  UNL     1      -5.139   6.385  15.779  1.00  0.00     0.007 C 
HETATM    5  C5  UNL     1      -6.031   7.340  14.960  1.00  0.00     0.002 C 
HETATM    6  C6  UNL     1      -5.855   7.062  13.440  1.00  0.00    -0.004 C 
HETATM    7  C7  UNL     1      -6.598   5.789  12.962  1.00  0.00     0.010 C 
HETATM    8  C8  UNL     1      -7.771   5.366  13.844  1.00  0.00     0.035 C 
HETATM    9  C9  UNL     1      -8.432   6.577  14.432  1.00  0.00    -0.068 C 
HETATM   10  C10 UNL     1      -9.683   6.919  14.078  1.00  0.00     0.053 C 
HETATM   11  C11 UNL     1     -10.326   8.151  14.591  1.00  0.00     0.149 C 
HETATM   12  O1  UNL     1     -11.504   8.371  14.317  1.00  0.00    -0.293 OA
HETATM   13  C12 UNL     1      -9.521   9.083  15.463  1.00  0.00     0.084 C 
HETATM   14  C13 UNL     1      -8.020   8.888  15.267  1.00  0.00     0.022 C 
HETATM   15  C14 UNL     1      -7.560   7.403  15.374  1.00  0.00    -0.016 C 
HETATM   16  C15 UNL     1      -7.798   6.909  16.817  1.00  0.00     0.020 C 
HETATM   17  C16 UNL     1      -4.376   7.045  12.989  1.00  0.00     0.001 C 
HETATM   18  C17 UNL     1      -3.782   8.469  12.903  1.00  0.00     0.008 C 
HETATM   19  C18 UNL     1      -2.301   8.354  13.252  1.00  0.00     0.034 C 
HETATM   20  C19 UNL     1      -2.030   6.862  13.436  1.00  0.00     0.140 C 
ENDROOT
BRANCH  20  21
HETATM   21  O2  UNL     1      -1.006   6.619  14.406  1.00  0.00    -0.315 OA
BRANCH  21  22
HETATM   22  C20 UNL     1       0.043   7.487  14.394  1.00  0.00     0.259 C 
HETATM   23  O3  UNL     1       0.134   8.496  15.079  1.00  0.00    -0.265 OA
BRANCH  22  24
HETATM   24  C21 UNL     1       1.073   7.017  13.402  1.00  0.00     0.120 C 
BRANCH  24  25
HETATM   25  C22 UNL     1       0.688   5.668  12.811  1.00  0.00     0.112 C 
BRANCH  25  26
HETATM   26  C23 UNL     1       1.624   5.263  11.694  1.00  0.00     0.218 C 
HETATM   27  O4  UNL     1       1.459   4.265  11.002  1.00  0.00    -0.274 OA
HETATM   28  N1  UNL     1       2.677   6.135  11.537  1.00  0.00    -0.357 N 
HETATM   29  H32 UNL     1       2.662   7.013  12.041  1.00  0.00     0.162 HD
BRANCH  28  30
HETATM   30  C24 UNL     1       3.636   5.991  10.462  1.00  0.00     0.162 C 
BRANCH  30  31
HETATM   31  C25 UNL     1       3.102   6.562   9.182  1.00  0.00    -0.025 A 
HETATM   32  C26 UNL     1       2.915   7.938   9.019  1.00  0.00     0.011 A 
HETATM   33  C27 UNL     1       2.433   8.432   7.811  1.00  0.00     0.018 A 
HETATM   34  C28 UNL     1       2.154   7.530   6.799  1.00  0.00     0.087 A 
HETATM   35  N2  UNL     1       2.324   6.195   6.915  1.00  0.00    -0.375 N 
HETATM   36  C29 UNL     1       2.793   5.744   8.100  1.00  0.00     0.096 A 
ATOM     37  H2  UNL     1       2.110   5.560   6.146  1.00  0.00     0.164 HD
ENDBRANCH  30  31
ENDBRANCH  28  30
ENDBRANCH  25  26
ENDBRANCH  24  25
ENDBRANCH  22  24
ENDBRANCH  21  22
ENDBRANCH  20  21
TORSDOF 7
ENDMDL
MODEL 3
REMARK minimizedAffinity -9.41245651
REMARK  7 active torsions:
REMARK  status: ('A' for Active; 'I' for Inactive)
REMARK    1  A    between atoms: C19_20  and  O2_21 
REMARK    2  A    between atoms: O2_21  and  C20_22 
REMARK    3  A    between atoms: C20_22  and  C21_24 
REMARK    4  A    between atoms: C21_24  and  C22_25 
REMARK    5  A    between atoms: C22_25  and  C23_26 
REMARK       I    between atoms: C23_26  and  N1_28 
REMARK    6  A    between atoms: N1_28  and  C24_29 
REMARK    7  A    between atoms: C24_29  and  C25_30 
ROOT
HETATM    1  C1  UNL     1      -3.400   4.746  13.707  1.00  0.00     0.018 C 
HETATM    2  C2  UNL     1      -3.408   6.270  13.917  1.00  0.00    -0.013 C 
HETATM    3  C3  UNL     1      -3.671   6.572  15.408  1.00  0.00     0.012 C 
HETATM    4  C4  UNL     1      -5.143   6.429  15.805  1.00  0.00     0.007 C 
HETATM    5  C5  UNL     1      -6.040   7.364  14.969  1.00  0.00     0.002 C 
HETATM    6  C6  UNL     1      -5.877   7.049  13.456  1.00  0.00    -0.004 C 
HETATM    7  C7  UNL     1      -6.625   5.766  13.015  1.00  0.00     0.010 C 
HETATM    8  C8  UNL     1      -7.792   5.366  13.916  1.00  0.00     0.035 C 
HETATM    9  C9  UNL     1      -8.447   6.592  14.479  1.00  0.00    -0.068 C 
HETATM   10  C10 UNL     1      -9.700   6.928  14.127  1.00  0.00     0.053 C 
HETATM   11  C11 UNL     1     -10.337   8.173  14.614  1.00  0.00     0.149 C 
HETATM   12  O1  UNL     1     -11.518   8.389  14.345  1.00  0.00    -0.293 OA
HETATM   13  C12 UNL     1      -9.524   9.125  15.457  1.00  0.00     0.084 C 
HETATM   14  C13 UNL     1      -8.025   8.923  15.254  1.00  0.00     0.022 C 
HETATM   15  C14 UNL     1      -7.566   7.441  15.394  1.00  0.00    -0.016 C 
HETATM   16  C15 UNL     1      -7.793   6.983  16.851  1.00  0.00     0.020 C 
HETATM   17  C16 UNL     1      -4.401   7.018  12.993  1.00  0.00     0.001 C 
HETATM   18  C17 UNL     1      -3.806   8.438  12.867  1.00  0.00     0.008 C 
HETATM   19  C18 UNL     1      -2.323   8.330  13.207  1.00  0.00     0.034 C 
HETATM   20  C19 UNL     1      -2.053   6.843  13.426  1.00  0.00     0.140 C 
ENDROOT
BRANCH  20  21
HETATM   21  O2  UNL     1      -1.021   6.622  14.393  1.00  0.00    -0.315 OA
BRANCH  21  22
HETATM   22  C20 UNL     1       0.253   6.616  13.912  1.00  0.00     0.259 C 
HETATM   23  O3  UNL     1       1.057   7.530  14.031  1.00  0.00    -0.265 OA
BRANCH  22  24
HETATM   24  C21 UNL     1       0.519   5.314  13.207  1.00  0.00     0.120 C 
BRANCH  24  25
HETATM   25  C22 UNL     1      -0.177   5.273  11.853  1.00  0.00     0.112 C 
BRANCH  25  26
HETATM   26  C23 UNL     1       0.634   5.981  10.790  1.00  0.00     0.218 C 
HETATM   27  O4  UNL     1       0.192   6.890  10.097  1.00  0.00    -0.274 OA
HETATM   28  N1  UNL     1       1.918   5.497  10.687  1.00  0.00    -0.357 N 
HETATM   29  H32 UNL     1       2.255   4.855  11.393  1.00  0.00     0.162 HD
BRANCH  28  30
HETATM   30  C24 UNL     1       2.894   6.098   9.803  1.00  0.00     0.162 C 
BRANCH  30  31
HETATM   31  C25 UNL     1       3.346   5.124   8.755  1.00  0.00    -0.025 A 
HETATM   32  C26 UNL     1       2.952   5.256   7.420  1.00  0.00     0.011 A 
HETATM   33  C27 UNL     1       3.405   4.343   6.472  1.00  0.00     0.018 A 
HETATM   34  C28 UNL     1       4.243   3.324   6.893  1.00  0.00     0.087 A 
HETATM   35  N2  UNL     1       4.649   3.165   8.171  1.00  0.00    -0.375 N 
HETATM   36  C29 UNL     1       4.192   4.066   9.069  1.00  0.00     0.096 A 
ATOM     37  H2  UNL     1       5.269   2.403   8.444  1.00  0.00     0.164 HD
ENDBRANCH  30  31
ENDBRANCH  28  30
ENDBRANCH  25  26
ENDBRANCH  24  25
ENDBRANCH  22  24
ENDBRANCH  21  22
ENDBRANCH  20  21
TORSDOF 7
ENDMDL
MODEL 4
REMARK minimizedAffinity -9.3783865
REMARK  7 active torsions:
REMARK  status: ('A' for Active; 'I' for Inactive)
REMARK    1  A    between atoms: C19_20  and  O2_21 
REMARK    2  A    between atoms: O2_21  and  C20_22 
REMARK    3  A    between atoms: C20_22  and  C21_24 
REMARK    4  A    between atoms: C21_24  and  C22_25 
REMARK    5  A    between atoms: C22_25  and  C23_26 
REMARK       I    between atoms: C23_26  and  N1_28 
REMARK    6  A    between atoms: N1_28  and  C24_29 
REMARK    7  A    between atoms: C24_29  and  C25_30 
ROOT
HETATM    1  C1  UNL     1      -3.122   4.973  13.929  1.00  0.00     0.018 C 
HETATM    2  C2  UNL     1      -3.255   6.501  14.050  1.00  0.00    -0.013 C 
HETATM    3  C3  UNL     1      -3.593   6.863  15.513  1.00  0.00     0.012 C 
HETATM    4  C4  UNL     1      -5.063   6.628  15.871  1.00  0.00     0.007 C 
HETATM    5  C5  UNL     1      -5.999   7.441  14.955  1.00  0.00     0.002 C 
HETATM    6  C6  UNL     1      -5.759   7.057  13.469  1.00  0.00    -0.004 C 
HETATM    7  C7  UNL     1      -6.390   5.696  13.080  1.00  0.00     0.010 C 
HETATM    8  C8  UNL     1      -7.554   5.257  13.966  1.00  0.00     0.035 C 
HETATM    9  C9  UNL     1      -8.320   6.457  14.437  1.00  0.00    -0.068 C 
HETATM   10  C10 UNL     1      -9.582   6.672  14.027  1.00  0.00     0.053 C 
HETATM   11  C11 UNL     1     -10.330   7.889  14.421  1.00  0.00     0.149 C 
HETATM   12  O1  UNL     1     -11.513   7.995  14.104  1.00  0.00    -0.293 OA
HETATM   13  C12 UNL     1      -9.623   8.947  15.232  1.00  0.00     0.084 C 
HETATM   14  C13 UNL     1      -8.107   8.853  15.088  1.00  0.00     0.022 C 
HETATM   15  C14 UNL     1      -7.541   7.421  15.327  1.00  0.00    -0.016 C 
HETATM   16  C15 UNL     1      -7.783   7.028  16.800  1.00  0.00     0.020 C 
HETATM   17  C16 UNL     1      -4.270   7.116  13.055  1.00  0.00     0.001 C 
HETATM   18  C17 UNL     1      -3.781   8.570  12.865  1.00  0.00     0.008 C 
HETATM   19  C18 UNL     1      -2.307   8.598  13.257  1.00  0.00     0.034 C 
HETATM   20  C19 UNL     1      -1.931   7.151  13.569  1.00  0.00     0.140 C 
ENDROOT
BRANCH  20  21
HETATM   21  O2  UNL     1      -0.921   7.066  14.579  1.00  0.00    -0.315 OA
BRANCH  21  22
HETATM   22  C20 UNL     1       0.366   7.150  14.141  1.00  0.00     0.259 C 
HETATM   23  O3  UNL     1       1.046   8.167  14.135  1.00  0.00    -0.265 OA
BRANCH  22  24
HETATM   24  C21 UNL     1       0.823   5.800  13.659  1.00  0.00     0.120 C 
BRANCH  24  25
HETATM   25  C22 UNL     1       1.105   5.819  12.163  1.00  0.00     0.112 C 
BRANCH  25  26
HETATM   26  C23 UNL     1       0.830   4.475  11.528  1.00  0.00     0.218 C 
HETATM   27  O4  UNL     1       1.626   3.896  10.797  1.00  0.00    -0.274 OA
HETATM   28  N1  UNL     1      -0.408   3.970  11.860  1.00  0.00    -0.357 N 
HETATM   29  H32 UNL     1      -0.942   4.430  12.586  1.00  0.00     0.162 HD
BRANCH  28  30
HETATM   30  C24 UNL     1      -0.833   2.652  11.441  1.00  0.00     0.162 C 
BRANCH  30  31
HETATM   31  C25 UNL     1      -2.324   2.591  11.283  1.00  0.00    -0.025 A 
HETATM   32  C26 UNL     1      -3.049   3.676  10.781  1.00  0.00     0.011 A 
HETATM   33  C27 UNL     1      -4.428   3.577  10.633  1.00  0.00     0.018 A 
HETATM   34  C28 UNL     1      -5.042   2.389  10.990  1.00  0.00     0.087 A 
HETATM   35  N2  UNL     1      -4.378   1.317  11.474  1.00  0.00    -0.375 N 
HETATM   36  C29 UNL     1      -3.039   1.443  11.609  1.00  0.00     0.096 A 
ATOM     37  H2  UNL     1      -4.863   0.456  11.725  1.00  0.00     0.164 HD
ENDBRANCH  30  31
ENDBRANCH  28  30
ENDBRANCH  25  26
ENDBRANCH  24  25
ENDBRANCH  22  24
ENDBRANCH  21  22
ENDBRANCH  20  21
TORSDOF 7
ENDMDL
MODEL 5
REMARK minimizedAffinity -9.31548405
REMARK  7 active torsions:
REMARK  status: ('A' for Active; 'I' for Inactive)
REMARK    1  A    between atoms: C19_20  and  O2_21 
REMARK    2  A    between atoms: O2_21  and  C20_22 
REMARK    3  A    between atoms: C20_22  and  C21_24 
REMARK    4  A    between atoms: C21_24  and  C22_25 
REMARK    5  A    between atoms: C22_25  and  C23_26 
REMARK       I    between atoms: C23_26  and  N1_28 
REMARK    6  A    between atoms: N1_28  and  C24_29 
REMARK    7  A    between atoms: C24_29  and  C25_30 
ROOT
HETATM    1  C1  UNL     1      -3.179   4.820  13.738  1.00  0.00     0.018 C 
HETATM    2  C2  UNL     1      -3.240   6.345  13.931  1.00  0.00    -0.013 C 
HETATM    3  C3  UNL     1      -3.523   6.655  15.417  1.00  0.00     0.012 C 
HETATM    4  C4  UNL     1      -4.992   6.468  15.805  1.00  0.00     0.007 C 
HETATM    5  C5  UNL     1      -5.914   7.363  14.953  1.00  0.00     0.002 C 
HETATM    6  C6  UNL     1      -5.730   7.035  13.445  1.00  0.00    -0.004 C 
HETATM    7  C7  UNL     1      -6.432   5.723  13.015  1.00  0.00     0.010 C 
HETATM    8  C8  UNL     1      -7.591   5.295  13.913  1.00  0.00     0.035 C 
HETATM    9  C9  UNL     1      -8.290   6.504  14.457  1.00  0.00    -0.068 C 
HETATM   10  C10 UNL     1      -9.551   6.793  14.093  1.00  0.00     0.053 C 
HETATM   11  C11 UNL     1     -10.234   8.022  14.562  1.00  0.00     0.149 C 
HETATM   12  O1  UNL     1     -11.419   8.195  14.282  1.00  0.00    -0.293 OA
HETATM   13  C12 UNL     1      -9.458   9.010  15.398  1.00  0.00     0.084 C 
HETATM   14  C13 UNL     1      -7.952   8.857  15.207  1.00  0.00     0.022 C 
HETATM   15  C14 UNL     1      -7.445   7.392  15.367  1.00  0.00    -0.016 C 
HETATM   16  C15 UNL     1      -7.666   6.944  16.828  1.00  0.00     0.020 C 
HETATM   17  C16 UNL     1      -4.251   7.049  12.992  1.00  0.00     0.001 C 
HETATM   18  C17 UNL     1      -3.704   8.487  12.853  1.00  0.00     0.008 C 
HETATM   19  C18 UNL     1      -2.220   8.432  13.204  1.00  0.00     0.034 C 
HETATM   20  C19 UNL     1      -1.901   6.958  13.442  1.00  0.00     0.140 C 
ENDROOT
BRANCH  20  21
HETATM   21  O2  UNL     1      -0.869   6.783  14.418  1.00  0.00    -0.315 OA
BRANCH  21  22
HETATM   22  C20 UNL     1       0.388   6.598  13.927  1.00  0.00     0.259 C 
HETATM   23  O3  UNL     1       0.765   5.618  13.301  1.00  0.00    -0.265 OA
BRANCH  22  24
HETATM   24  C21 UNL     1       1.245   7.783  14.281  1.00  0.00     0.120 C 
BRANCH  24  25
HETATM   25  C22 UNL     1       2.724   7.432  14.201  1.00  0.00     0.112 C 
BRANCH  25  26
HETATM   26  C23 UNL     1       3.348   7.943  12.922  1.00  0.00     0.218 C 
HETATM   27  O4  UNL     1       3.288   9.113  12.560  1.00  0.00    -0.274 OA
HETATM   28  N1  UNL     1       3.990   6.956  12.208  1.00  0.00    -0.357 N 
HETATM   29  H32 UNL     1       4.128   6.053  12.643  1.00  0.00     0.162 HD
BRANCH  28  30
HETATM   30  C24 UNL     1       4.739   7.246  11.005  1.00  0.00     0.162 C 
BRANCH  30  31
HETATM   31  C25 UNL     1       3.855   7.201   9.794  1.00  0.00    -0.025 A 
HETATM   32  C26 UNL     1       3.497   8.366   9.108  1.00  0.00     0.011 A 
HETATM   33  C27 UNL     1       2.688   8.283   7.980  1.00  0.00     0.018 A 
HETATM   34  C28 UNL     1       2.264   7.032   7.569  1.00  0.00     0.087 A 
HETATM   35  N2  UNL     1       2.589   5.883   8.200  1.00  0.00    -0.375 N 
HETATM   36  C29 UNL     1       3.375   5.995   9.295  1.00  0.00     0.096 A 
ATOM     37  H2  UNL     1       2.260   4.977   7.867  1.00  0.00     0.164 HD
ENDBRANCH  30  31
ENDBRANCH  28  30
ENDBRANCH  25  26
ENDBRANCH  24  25
ENDBRANCH  22  24
ENDBRANCH  21  22
ENDBRANCH  20  21
TORSDOF 7
ENDMDL
MODEL 6
REMARK minimizedAffinity -9.14717197
REMARK  7 active torsions:
REMARK  status: ('A' for Active; 'I' for Inactive)
REMARK    1  A    between atoms: C19_20  and  O2_21 
REMARK    2  A    between atoms: O2_21  and  C20_22 
REMARK    3  A    between atoms: C20_22  and  C21_24 
REMARK    4  A    between atoms: C21_24  and  C22_25 
REMARK    5  A    between atoms: C22_25  and  C23_26 
REMARK       I    between atoms: C23_26  and  N1_28 
REMARK    6  A    between atoms: N1_28  and  C24_29 
REMARK    7  A    between atoms: C24_29  and  C25_30 
ROOT
HETATM    1  C1  UNL     1      -3.625   6.316  13.124  1.00  0.00     0.018 C 
HETATM    2  C2  UNL     1      -2.642   7.214  13.895  1.00  0.00    -0.013 C 
HETATM    3  C3  UNL     1      -2.340   8.471  13.052  1.00  0.00     0.012 C 
HETATM    4  C4  UNL     1      -1.342   8.216  11.919  1.00  0.00     0.007 C 
HETATM    5  C5  UNL     1      -0.002   7.681  12.465  1.00  0.00     0.002 C 
HETATM    6  C6  UNL     1      -0.237   6.365  13.258  1.00  0.00    -0.004 C 
HETATM    7  C7  UNL     1      -0.475   5.136  12.344  1.00  0.00     0.010 C 
HETATM    8  C8  UNL     1       0.093   5.269  10.933  1.00  0.00     0.035 C 
HETATM    9  C9  UNL     1       1.350   6.086  10.963  1.00  0.00    -0.068 C 
HETATM   10  C10 UNL     1       2.540   5.531  10.673  1.00  0.00     0.053 C 
HETATM   11  C11 UNL     1       3.801   6.302  10.769  1.00  0.00     0.149 C 
HETATM   12  O1  UNL     1       4.852   5.781  10.400  1.00  0.00    -0.293 OA
HETATM   13  C12 UNL     1       3.750   7.719  11.286  1.00  0.00     0.084 C 
HETATM   14  C13 UNL     1       2.497   7.974  12.117  1.00  0.00     0.022 C 
HETATM   15  C14 UNL     1       1.177   7.534  11.414  1.00  0.00    -0.016 C 
HETATM   16  C15 UNL     1       0.960   8.412  10.163  1.00  0.00     0.020 C 
HETATM   17  C16 UNL     1      -1.346   6.485  14.329  1.00  0.00     0.001 C 
HETATM   18  C17 UNL     1      -0.866   7.270  15.571  1.00  0.00     0.008 C 
HETATM   19  C18 UNL     1      -2.082   8.003  16.129  1.00  0.00     0.034 C 
HETATM   20  C19 UNL     1      -3.266   7.560  15.273  1.00  0.00     0.140 C 
ENDROOT
BRANCH  20  21
HETATM   21  O2  UNL     1      -4.252   8.589  15.146  1.00  0.00    -0.315 OA
BRANCH  21  22
HETATM   22  C20 UNL     1      -5.544   8.202  15.334  1.00  0.00     0.259 C 
HETATM   23  O3  UNL     1      -6.521   8.933  15.245  1.00  0.00    -0.265 OA
BRANCH  22  24
HETATM   24  C21 UNL     1      -5.586   6.737  15.674  1.00  0.00     0.120 C 
BRANCH  24  25
HETATM   25  C22 UNL     1      -6.996   6.302  16.050  1.00  0.00     0.112 C 
BRANCH  25  26
HETATM   26  C23 UNL     1      -7.747   5.761  14.854  1.00  0.00     0.218 C 
HETATM   27  O4  UNL     1      -8.510   6.436  14.172  1.00  0.00    -0.274 OA
HETATM   28  N1  UNL     1      -7.482   4.431  14.614  1.00  0.00    -0.357 N 
HETATM   29  H32 UNL     1      -6.730   3.985  15.122  1.00  0.00     0.162 HD
BRANCH  28  30
HETATM   30  C24 UNL     1      -8.018   3.741  13.460  1.00  0.00     0.162 C 
BRANCH  30  31
HETATM   31  C25 UNL     1      -6.929   3.065  12.681  1.00  0.00    -0.025 A 
HETATM   32  C26 UNL     1      -7.097   1.777  12.161  1.00  0.00     0.011 A 
HETATM   33  C27 UNL     1      -6.070   1.188  11.430  1.00  0.00     0.018 A 
HETATM   34  C28 UNL     1      -4.905   1.910  11.238  1.00  0.00     0.087 A 
HETATM   35  N2  UNL     1      -4.705   3.155  11.720  1.00  0.00    -0.375 N 
HETATM   36  C29 UNL     1      -5.719   3.702  12.428  1.00  0.00     0.096 A 
ATOM     37  H2  UNL     1      -3.833   3.659  11.558  1.00  0.00     0.164 HD
ENDBRANCH  30  31
ENDBRANCH  28  30
ENDBRANCH  25  26
ENDBRANCH  24  25
ENDBRANCH  22  24
ENDBRANCH  21  22
ENDBRANCH  20  21
TORSDOF 7
ENDMDL
MODEL 7
REMARK minimizedAffinity -9.02964783
REMARK  7 active torsions:
REMARK  status: ('A' for Active; 'I' for Inactive)
REMARK    1  A    between atoms: C19_20  and  O2_21 
REMARK    2  A    between atoms: O2_21  and  C20_22 
REMARK    3  A    between atoms: C20_22  and  C21_24 
REMARK    4  A    between atoms: C21_24  and  C22_25 
REMARK    5  A    between atoms: C22_25  and  C23_26 
REMARK       I    between atoms: C23_26  and  N1_28 
REMARK    6  A    between atoms: N1_28  and  C24_29 
REMARK    7  A    between atoms: C24_29  and  C25_30 
ROOT
HETATM    1  C1  UNL     1      -3.466   4.818  13.685  1.00  0.00     0.018 C 
HETATM    2  C2  UNL     1      -3.484   6.339  13.915  1.00  0.00    -0.013 C 
HETATM    3  C3  UNL     1      -3.761   6.620  15.408  1.00  0.00     0.012 C 
HETATM    4  C4  UNL     1      -5.236   6.466  15.791  1.00  0.00     0.007 C 
HETATM    5  C5  UNL     1      -6.130   7.407  14.960  1.00  0.00     0.002 C 
HETATM    6  C6  UNL     1      -5.953   7.113  13.444  1.00  0.00    -0.004 C 
HETATM    7  C7  UNL     1      -6.691   5.832  12.980  1.00  0.00     0.010 C 
HETATM    8  C8  UNL     1      -7.863   5.415  13.866  1.00  0.00     0.035 C 
HETATM    9  C9  UNL     1      -8.529   6.631  14.440  1.00  0.00    -0.068 C 
HETATM   10  C10 UNL     1      -9.780   6.965  14.081  1.00  0.00     0.053 C 
HETATM   11  C11 UNL     1     -10.428   8.201  14.580  1.00  0.00     0.149 C 
HETATM   12  O1  UNL     1     -11.607   8.414  14.303  1.00  0.00    -0.293 OA
HETATM   13  C12 UNL     1      -9.626   9.145  15.441  1.00  0.00     0.084 C 
HETATM   14  C13 UNL     1      -8.125   8.953  15.248  1.00  0.00     0.022 C 
HETATM   15  C14 UNL     1      -7.660   7.471  15.372  1.00  0.00    -0.016 C 
HETATM   16  C15 UNL     1      -7.896   6.993  16.821  1.00  0.00     0.020 C 
HETATM   17  C16 UNL     1      -4.473   7.094  12.993  1.00  0.00     0.001 C 
HETATM   18  C17 UNL     1      -3.884   8.519  12.891  1.00  0.00     0.008 C 
HETATM   19  C18 UNL     1      -2.403   8.413  13.242  1.00  0.00     0.034 C 
HETATM   20  C19 UNL     1      -2.127   6.925  13.443  1.00  0.00     0.140 C 
ENDROOT
BRANCH  20  21
HETATM   21  O2  UNL     1      -1.103   6.696  14.416  1.00  0.00    -0.315 OA
BRANCH  21  22
HETATM   22  C20 UNL     1       0.178   6.756  13.956  1.00  0.00     0.259 C 
HETATM   23  O3  UNL     1       1.170   6.938  14.649  1.00  0.00    -0.265 OA
BRANCH  22  24
HETATM   24  C21 UNL     1       0.186   6.570  12.463  1.00  0.00     0.120 C 
BRANCH  24  25
HETATM   25  C22 UNL     1       0.495   5.125  12.093  1.00  0.00     0.112 C 
BRANCH  25  26
HETATM   26  C23 UNL     1       1.603   5.040  11.068  1.00  0.00     0.218 C 
HETATM   27  O4  UNL     1       2.058   3.981  10.650  1.00  0.00    -0.274 OA
HETATM   28  N1  UNL     1       2.044   6.276  10.653  1.00  0.00    -0.357 N 
HETATM   29  H32 UNL     1       1.519   7.097  10.926  1.00  0.00     0.162 HD
BRANCH  28  30
HETATM   30  C24 UNL     1       3.030   6.425   9.603  1.00  0.00     0.162 C 
BRANCH  30  31
HETATM   31  C25 UNL     1       4.235   7.169  10.096  1.00  0.00    -0.025 A 
HETATM   32  C26 UNL     1       4.380   8.544   9.884  1.00  0.00     0.011 A 
HETATM   33  C27 UNL     1       5.504   9.203  10.370  1.00  0.00     0.018 A 
HETATM   34  C28 UNL     1       6.451   8.464  11.057  1.00  0.00     0.087 A 
HETATM   35  N2  UNL     1       6.348   7.137  11.286  1.00  0.00    -0.375 N 
HETATM   36  C29 UNL     1       5.245   6.523  10.801  1.00  0.00     0.096 A 
ATOM     37  H2  UNL     1       7.065   6.625  11.798  1.00  0.00     0.164 HD
ENDBRANCH  30  31
ENDBRANCH  28  30
ENDBRANCH  25  26
ENDBRANCH  24  25
ENDBRANCH  22  24
ENDBRANCH  21  22
ENDBRANCH  20  21
TORSDOF 7
ENDMDL
MODEL 8
REMARK minimizedAffinity -8.9449358
REMARK  7 active torsions:
REMARK  status: ('A' for Active; 'I' for Inactive)
REMARK    1  A    between atoms: C19_20  and  O2_21 
REMARK    2  A    between atoms: O2_21  and  C20_22 
REMARK    3  A    between atoms: C20_22  and  C21_24 
REMARK    4  A    between atoms: C21_24  and  C22_25 
REMARK    5  A    between atoms: C22_25  and  C23_26 
REMARK       I    between atoms: C23_26  and  N1_28 
REMARK    6  A    between atoms: N1_28  and  C24_29 
REMARK    7  A    between atoms: C24_29  and  C25_30 
ROOT
HETATM    1  C1  UNL     1      -0.393   6.178  14.486  1.00  0.00     0.018 C 
HETATM    2  C2  UNL     1      -1.252   7.450  14.376  1.00  0.00    -0.013 C 
HETATM    3  C3  UNL     1      -2.121   7.582  15.645  1.00  0.00     0.012 C 
HETATM    4  C4  UNL     1      -3.344   6.661  15.641  1.00  0.00     0.007 C 
HETATM    5  C5  UNL     1      -4.246   6.934  14.421  1.00  0.00     0.002 C 
HETATM    6  C6  UNL     1      -3.441   6.735  13.106  1.00  0.00    -0.004 C 
HETATM    7  C7  UNL     1      -3.224   5.245  12.743  1.00  0.00     0.010 C 
HETATM    8  C8  UNL     1      -4.246   4.285  13.348  1.00  0.00     0.035 C 
HETATM    9  C9  UNL     1      -5.582   4.958  13.452  1.00  0.00    -0.068 C 
HETATM   10  C10 UNL     1      -6.622   4.544  12.708  1.00  0.00     0.053 C 
HETATM   11  C11 UNL     1      -7.928   5.242  12.741  1.00  0.00     0.149 C 
HETATM   12  O1  UNL     1      -8.877   4.768  12.119  1.00  0.00    -0.293 OA
HETATM   13  C12 UNL     1      -8.061   6.498  13.566  1.00  0.00     0.084 C 
HETATM   14  C13 UNL     1      -6.707   7.150  13.829  1.00  0.00     0.022 C 
HETATM   15  C14 UNL     1      -5.633   6.166  14.384  1.00  0.00    -0.016 C 
HETATM   16  C15 UNL     1      -6.073   5.684  15.783  1.00  0.00     0.020 C 
HETATM   17  C16 UNL     1      -2.104   7.513  13.084  1.00  0.00     0.001 C 
HETATM   18  C17 UNL     1      -2.319   9.024  12.845  1.00  0.00     0.008 C 
HETATM   19  C18 UNL     1      -1.210   9.755  13.595  1.00  0.00     0.034 C 
HETATM   20  C19 UNL     1      -0.309   8.665  14.173  1.00  0.00     0.140 C 
ENDROOT
BRANCH  20  21
HETATM   21  O2  UNL     1       0.288   9.064  15.411  1.00  0.00    -0.315 OA
BRANCH  21  22
HETATM   22  C20 UNL     1       1.535   8.574  15.654  1.00  0.00     0.259 C 
HETATM   23  O3  UNL     1       1.851   7.893  16.620  1.00  0.00    -0.265 OA
BRANCH  22  24
HETATM   24  C21 UNL     1       2.468   9.005  14.555  1.00  0.00     0.120 C 
BRANCH  24  25
HETATM   25  C22 UNL     1       3.658   8.061  14.446  1.00  0.00     0.112 C 
BRANCH  25  26
HETATM   26  C23 UNL     1       4.330   8.167  13.095  1.00  0.00     0.218 C 
HETATM   27  O4  UNL     1       4.858   9.193  12.681  1.00  0.00    -0.274 OA
HETATM   28  N1  UNL     1       4.286   6.990  12.382  1.00  0.00    -0.357 N 
HETATM   29  H32 UNL     1       3.971   6.150  12.849  1.00  0.00     0.162 HD
BRANCH  28  30
HETATM   30  C24 UNL     1       4.954   6.842  11.107  1.00  0.00     0.162 C 
BRANCH  30  31
HETATM   31  C25 UNL     1       3.994   7.022   9.969  1.00  0.00    -0.025 A 
HETATM   32  C26 UNL     1       3.824   8.263   9.348  1.00  0.00     0.011 A 
HETATM   33  C27 UNL     1       2.936   8.388   8.284  1.00  0.00     0.018 A 
HETATM   34  C28 UNL     1       2.245   7.262   7.873  1.00  0.00     0.087 A 
HETATM   35  N2  UNL     1       2.382   6.045   8.443  1.00  0.00    -0.375 N 
HETATM   36  C29 UNL     1       3.251   5.955   9.476  1.00  0.00     0.096 A 
ATOM     37  H2  UNL     1       1.857   5.236   8.112  1.00  0.00     0.164 HD
ENDBRANCH  30  31
ENDBRANCH  28  30
ENDBRANCH  25  26
ENDBRANCH  24  25
ENDBRANCH  22  24
ENDBRANCH  21  22
ENDBRANCH  20  21
TORSDOF 7
ENDMDL
MODEL 9
REMARK minimizedAffinity -8.7478714
REMARK  7 active torsions:
REMARK  status: ('A' for Active; 'I' for Inactive)
REMARK    1  A    between atoms: C19_20  and  O2_21 
REMARK    2  A    between atoms: O2_21  and  C20_22 
REMARK    3  A    between atoms: C20_22  and  C21_24 
REMARK    4  A    between atoms: C21_24  and  C22_25 
REMARK    5  A    between atoms: C22_25  and  C23_26 
REMARK       I    between atoms: C23_26  and  N1_28 
REMARK    6  A    between atoms: N1_28  and  C24_29 
REMARK    7  A    between atoms: C24_29  and  C25_30 
ROOT
HETATM    1  C1  UNL     1      -3.985   5.856  15.766  1.00  0.00     0.018 C 
HETATM    2  C2  UNL     1      -4.068   7.112  14.881  1.00  0.00    -0.013 C 
HETATM    3  C3  UNL     1      -4.160   6.681  13.402  1.00  0.00     0.012 C 
HETATM    4  C4  UNL     1      -2.814   6.257  12.809  1.00  0.00     0.007 C 
HETATM    5  C5  UNL     1      -1.778   7.395  12.905  1.00  0.00     0.002 C 
HETATM    6  C6  UNL     1      -1.583   7.815  14.389  1.00  0.00    -0.004 C 
HETATM    7  C7  UNL     1      -0.717   6.817  15.198  1.00  0.00     0.010 C 
HETATM    8  C8  UNL     1       0.225   5.961  14.355  1.00  0.00     0.035 C 
HETATM    9  C9  UNL     1       0.699   6.740  13.165  1.00  0.00    -0.068 C 
HETATM   10  C10 UNL     1       1.989   7.097  13.044  1.00  0.00     0.053 C 
HETATM   11  C11 UNL     1       2.462   7.930  11.914  1.00  0.00     0.149 C 
HETATM   12  O1  UNL     1       3.666   8.150  11.793  1.00  0.00    -0.293 OA
HETATM   13  C12 UNL     1       1.451   8.457  10.925  1.00  0.00     0.084 C 
HETATM   14  C13 UNL     1       0.045   8.490  11.516  1.00  0.00     0.022 C 
HETATM   15  C14 UNL     1      -0.391   7.147  12.176  1.00  0.00    -0.016 C 
HETATM   16  C15 UNL     1      -0.489   6.061  11.084  1.00  0.00     0.020 C 
HETATM   17  C16 UNL     1      -2.913   8.116  15.119  1.00  0.00     0.001 C 
HETATM   18  C17 UNL     1      -3.504   9.481  14.702  1.00  0.00     0.008 C 
HETATM   19  C18 UNL     1      -5.022   9.349  14.778  1.00  0.00     0.034 C 
HETATM   20  C19 UNL     1      -5.292   7.952  15.332  1.00  0.00     0.140 C 
ENDROOT
BRANCH  20  21
HETATM   21  O2  UNL     1      -6.510   7.398  14.823  1.00  0.00    -0.315 OA
BRANCH  21  22
HETATM   22  C20 UNL     1      -7.287   6.738  15.726  1.00  0.00     0.259 C 
HETATM   23  O3  UNL     1      -7.424   7.049  16.901  1.00  0.00    -0.265 OA
BRANCH  22  24
HETATM   24  C21 UNL     1      -7.946   5.562  15.058  1.00  0.00     0.120 C 
BRANCH  24  25
HETATM   25  C22 UNL     1      -7.596   5.508  13.576  1.00  0.00     0.112 C 
BRANCH  25  26
HETATM   26  C23 UNL     1      -7.449   4.083  13.092  1.00  0.00     0.218 C 
HETATM   27  O4  UNL     1      -8.276   3.206  13.310  1.00  0.00    -0.274 OA
HETATM   28  N1  UNL     1      -6.290   3.879  12.378  1.00  0.00    -0.357 N 
HETATM   29  H32 UNL     1      -5.735   4.682  12.109  1.00  0.00     0.162 HD
BRANCH  28  30
HETATM   30  C24 UNL     1      -5.998   2.614  11.738  1.00  0.00     0.162 C 
BRANCH  30  31
HETATM   31  C25 UNL     1      -4.556   2.534  11.332  1.00  0.00    -0.025 A 
HETATM   32  C26 UNL     1      -3.945   3.562  10.608  1.00  0.00     0.011 A 
HETATM   33  C27 UNL     1      -2.601   3.460  10.262  1.00  0.00     0.018 A 
HETATM   34  C28 UNL     1      -1.908   2.329  10.657  1.00  0.00     0.087 A 
HETATM   35  N2  UNL     1      -2.459   1.317  11.359  1.00  0.00    -0.375 N 
HETATM   36  C29 UNL     1      -3.767   1.442  11.679  1.00  0.00     0.096 A 
ATOM     37  H2  UNL     1      -1.917   0.498  11.635  1.00  0.00     0.164 HD
ENDBRANCH  30  31
ENDBRANCH  28  30
ENDBRANCH  25  26
ENDBRANCH  24  25
ENDBRANCH  22  24
ENDBRANCH  21  22
ENDBRANCH  20  21
TORSDOF 7
ENDMDL
