MODEL 1
REMARK minimizedAffinity -9.28297901
REMARK  7 active torsions:
REMARK  status: ('A' for Active; 'I' for Inactive)
REMARK    1  A    between atoms: C4_4  and  C5_5 
REMARK    2  A    between atoms: C5_5  and  O1_6 
REMARK    3  A    between atoms: C5_5  and  C6_7 
REMARK    4  A    between atoms: C6_7  and  C7_8 
REMARK    5  A    between atoms: C7_8  and  C8_9 
REMARK    6  A    between atoms: C7_8  and  C9_11 
REMARK    7  A    between atoms: C8_9  and  O2_10 
ROOT
HETATM    1  C9  UNL     1      -3.470  50.607 -25.287  1.00  0.00     0.001 C 
HETATM    2  C10 UNL     1      -3.836  52.083 -24.943  1.00  0.00     0.007 C 
HETATM    3  C11 UNL     1      -3.951  52.196 -23.415  1.00  0.00     0.015 C 
HETATM    4  C12 UNL     1      -3.957  50.740 -22.910  1.00  0.00    -0.013 C 
HETATM    5  C13 UNL     1      -5.434  50.254 -23.022  1.00  0.00     0.021 C 
HETATM    6  C14 UNL     1      -3.504  50.488 -21.483  1.00  0.00    -0.070 C 
HETATM    7  C15 UNL     1      -3.428  51.436 -20.536  1.00  0.00    -0.022 C 
HETATM    8  C16 UNL     1      -2.856  51.133 -19.190  1.00  0.00     0.034 C 
HETATM    9  C17 UNL     1      -3.321  49.773 -18.613  1.00  0.00     0.013 C 
HETATM   10  C18 UNL     1      -2.512  49.371 -17.332  1.00  0.00     0.018 C 
HETATM   11  C19 UNL     1      -2.813  50.374 -16.188  1.00  0.00     0.023 C 
HETATM   12  C20 UNL     1      -0.984  49.350 -17.520  1.00  0.00     0.023 C 
HETATM   13  C21 UNL     1      -2.978  47.984 -16.874  1.00  0.00     0.135 C 
HETATM   14  O3  UNL     1      -3.290  47.746 -15.703  1.00  0.00    -0.297 OA
HETATM   15  C22 UNL     1      -3.020  46.866 -17.887  1.00  0.00     0.080 C 
HETATM   16  C23 UNL     1      -2.777  47.321 -19.315  1.00  0.00     0.017 C 
HETATM   17  C24 UNL     1      -3.511  48.629 -19.707  1.00  0.00    -0.031 C 
HETATM   18  C25 UNL     1      -5.036  48.309 -19.757  1.00  0.00     0.016 C 
HETATM   19  C26 UNL     1      -3.002  49.091 -21.136  1.00  0.00     0.024 C 
HETATM   20  C27 UNL     1      -3.234  48.054 -22.267  1.00  0.00     0.010 C 
HETATM   21  C28 UNL     1      -2.988  48.532 -23.715  1.00  0.00     0.011 C 
HETATM   22  C29 UNL     1      -2.950  50.062 -23.911  1.00  0.00    -0.029 C 
HETATM   23  C30 UNL     1      -1.473  50.530 -23.717  1.00  0.00     0.016 C 
ENDROOT
BRANCH   1  24
HETATM   24  C7  UNL     1      -2.578  50.513 -26.573  1.00  0.00     0.017 C 
BRANCH  24  25
HETATM   25  C6  UNL     1      -2.216  51.957 -27.054  1.00  0.00     0.043 C 
BRANCH  25  26
HETATM   26  C5  UNL     1      -1.045  52.176 -28.030  1.00  0.00     0.141 C 
BRANCH  26  27
HETATM   27  C4  UNL     1       0.259  51.567 -27.585  1.00  0.00     0.006 C 
HETATM   28  C2  UNL     1       0.976  51.895 -26.490  1.00  0.00    -0.089 C 
HETATM   29  C1  UNL     1       0.597  52.967 -25.506  1.00  0.00     0.042 C 
HETATM   30  C3  UNL     1       2.258  51.177 -26.164  1.00  0.00     0.042 C 
ENDBRANCH  26  27
BRANCH  26  31
HETATM   31  O1  UNL     1      -0.852  53.557 -28.305  1.00  0.00    -0.392 OA
HETATM   32  H9  UNL     1      -0.591  53.971 -27.455  1.00  0.00     0.210 HD
ENDBRANCH  26  31
ENDBRANCH  25  26
ENDBRANCH  24  25
BRANCH  24  33
HETATM   33  C8  UNL     1      -3.244  49.689 -27.682  1.00  0.00     0.169 C 
BRANCH  33  34
HETATM   34  O2  UNL     1      -3.555  50.525 -28.794  1.00  0.00    -0.400 OA
HETATM   35  H15 UNL     1      -3.834  49.934 -29.518  1.00  0.00     0.209 HD
ENDBRANCH  33  34
ENDBRANCH  24  33
ENDBRANCH   1  24
TORSDOF 7
ENDMDL
MODEL 2
REMARK minimizedAffinity -8.93515396
REMARK  7 active torsions:
REMARK  status: ('A' for Active; 'I' for Inactive)
REMARK    1  A    between atoms: C4_4  and  C5_5 
REMARK    2  A    between atoms: C5_5  and  O1_6 
REMARK    3  A    between atoms: C5_5  and  C6_7 
REMARK    4  A    between atoms: C6_7  and  C7_8 
REMARK    5  A    between atoms: C7_8  and  C8_9 
REMARK    6  A    between atoms: C7_8  and  C9_11 
REMARK    7  A    between atoms: C8_9  and  O2_10 
ROOT
HETATM    1  C9  UNL     1      -4.197  47.803 -20.541  1.00  0.00     0.001 C 
HETATM    2  C10 UNL     1      -5.113  47.206 -21.654  1.00  0.00     0.007 C 
HETATM    3  C11 UNL     1      -4.758  47.901 -22.977  1.00  0.00     0.015 C 
HETATM    4  C12 UNL     1      -3.872  49.095 -22.573  1.00  0.00    -0.013 C 
HETATM    5  C13 UNL     1      -4.852  50.245 -22.190  1.00  0.00     0.021 C 
HETATM    6  C14 UNL     1      -2.914  49.645 -23.615  1.00  0.00    -0.070 C 
HETATM    7  C15 UNL     1      -3.013  49.409 -24.932  1.00  0.00    -0.022 C 
HETATM    8  C16 UNL     1      -1.960  49.884 -25.879  1.00  0.00     0.034 C 
HETATM    9  C17 UNL     1      -1.467  51.321 -25.584  1.00  0.00     0.013 C 
HETATM   10  C18 UNL     1      -0.196  51.691 -26.424  1.00  0.00     0.018 C 
HETATM   11  C19 UNL     1      -0.560  51.734 -27.930  1.00  0.00     0.023 C 
HETATM   12  C20 UNL     1       0.979  50.707 -26.274  1.00  0.00     0.023 C 
HETATM   13  C21 UNL     1       0.271  53.092 -26.014  1.00  0.00     0.135 C 
HETATM   14  O3  UNL     1       0.525  53.972 -26.843  1.00  0.00    -0.297 OA
HETATM   15  C22 UNL     1       0.461  53.390 -24.547  1.00  0.00     0.080 C 
HETATM   16  C23 UNL     1      -0.040  52.291 -23.627  1.00  0.00     0.017 C 
HETATM   17  C24 UNL     1      -1.410  51.687 -24.033  1.00  0.00    -0.031 C 
HETATM   18  C25 UNL     1      -2.490  52.786 -23.793  1.00  0.00     0.016 C 
HETATM   19  C26 UNL     1      -1.701  50.424 -23.119  1.00  0.00     0.024 C 
HETATM   20  C27 UNL     1      -1.743  50.728 -21.598  1.00  0.00     0.010 C 
HETATM   21  C28 UNL     1      -2.260  49.603 -20.674  1.00  0.00     0.011 C 
HETATM   22  C29 UNL     1      -3.056  48.482 -21.376  1.00  0.00    -0.029 C 
HETATM   23  C30 UNL     1      -2.039  47.382 -21.817  1.00  0.00     0.016 C 
ENDROOT
BRANCH   1  24
HETATM   24  C7  UNL     1      -3.857  46.743 -19.436  1.00  0.00     0.017 C 
BRANCH  24  25
HETATM   25  C6  UNL     1      -5.176  46.313 -18.714  1.00  0.00     0.043 C 
BRANCH  25  26
HETATM   26  C5  UNL     1      -5.689  47.110 -17.500  1.00  0.00     0.141 C 
BRANCH  26  27
HETATM   27  C4  UNL     1      -7.183  47.305 -17.470  1.00  0.00     0.006 C 
HETATM   28  C2  UNL     1      -7.907  48.148 -18.236  1.00  0.00    -0.089 C 
HETATM   29  C1  UNL     1      -7.331  49.076 -19.269  1.00  0.00     0.042 C 
HETATM   30  C3  UNL     1      -9.405  48.216 -18.104  1.00  0.00     0.042 C 
ENDBRANCH  26  27
BRANCH  26  31
HETATM   31  O1  UNL     1      -5.045  48.372 -17.400  1.00  0.00    -0.392 OA
HETATM   32  H9  UNL     1      -5.308  48.877 -18.199  1.00  0.00     0.210 HD
ENDBRANCH  26  31
ENDBRANCH  25  26
ENDBRANCH  24  25
BRANCH  24  33
HETATM   33  C8  UNL     1      -2.801  47.254 -18.448  1.00  0.00     0.169 C 
BRANCH  33  34
HETATM   34  O2  UNL     1      -2.542  46.266 -17.453  1.00  0.00    -0.400 OA
HETATM   35  H15 UNL     1      -1.769  46.575 -16.947  1.00  0.00     0.209 HD
ENDBRANCH  33  34
ENDBRANCH  24  33
ENDBRANCH   1  24
TORSDOF 7
ENDMDL
MODEL 3
REMARK minimizedAffinity -8.92915916
REMARK  7 active torsions:
REMARK  status: ('A' for Active; 'I' for Inactive)
REMARK    1  A    between atoms: C4_4  and  C5_5 
REMARK    2  A    between atoms: C5_5  and  O1_6 
REMARK    3  A    between atoms: C5_5  and  C6_7 
REMARK    4  A    between atoms: C6_7  and  C7_8 
REMARK    5  A    between atoms: C7_8  and  C8_9 
REMARK    6  A    between atoms: C7_8  and  C9_11 
REMARK    7  A    between atoms: C8_9  and  O2_10 
ROOT
HETATM    1  C9  UNL     1      -1.178  51.232 -26.163  1.00  0.00     0.001 C 
HETATM    2  C10 UNL     1      -2.280  51.126 -27.263  1.00  0.00     0.007 C 
HETATM    3  C11 UNL     1      -3.519  50.478 -26.626  1.00  0.00     0.015 C 
HETATM    4  C12 UNL     1      -3.029  49.936 -25.269  1.00  0.00    -0.013 C 
HETATM    5  C13 UNL     1      -2.405  48.539 -25.565  1.00  0.00     0.021 C 
HETATM    6  C14 UNL     1      -4.063  49.748 -24.173  1.00  0.00    -0.070 C 
HETATM    7  C15 UNL     1      -5.387  49.686 -24.385  1.00  0.00    -0.022 C 
HETATM    8  C16 UNL     1      -6.346  49.623 -23.242  1.00  0.00     0.034 C 
HETATM    9  C17 UNL     1      -5.896  48.667 -22.110  1.00  0.00     0.013 C 
HETATM   10  C18 UNL     1      -6.783  48.815 -20.826  1.00  0.00     0.018 C 
HETATM   11  C19 UNL     1      -8.231  48.356 -21.137  1.00  0.00     0.023 C 
HETATM   12  C20 UNL     1      -6.876  50.250 -20.275  1.00  0.00     0.023 C 
HETATM   13  C21 UNL     1      -6.223  47.896 -19.736  1.00  0.00     0.135 C 
HETATM   14  O3  UNL     1      -6.940  47.121 -19.094  1.00  0.00    -0.297 OA
HETATM   15  C22 UNL     1      -4.751  47.971 -19.413  1.00  0.00     0.080 C 
HETATM   16  C23 UNL     1      -3.954  48.833 -20.377  1.00  0.00     0.017 C 
HETATM   17  C24 UNL     1      -4.320  48.634 -21.870  1.00  0.00    -0.031 C 
HETATM   18  C25 UNL     1      -3.836  47.209 -22.281  1.00  0.00     0.016 C 
HETATM   19  C26 UNL     1      -3.570  49.735 -22.731  1.00  0.00     0.024 C 
HETATM   20  C27 UNL     1      -2.024  49.704 -22.607  1.00  0.00     0.010 C 
HETATM   21  C28 UNL     1      -1.226  50.581 -23.597  1.00  0.00     0.011 C 
HETATM   22  C29 UNL     1      -2.006  51.052 -24.842  1.00  0.00    -0.029 C 
HETATM   23  C30 UNL     1      -2.684  52.415 -24.491  1.00  0.00     0.016 C 
ENDROOT
BRANCH   1  24
HETATM   24  C7  UNL     1      -0.267  52.491 -26.371  1.00  0.00     0.017 C 
BRANCH  24  25
HETATM   25  C6  UNL     1      -0.343  53.397 -25.099  1.00  0.00     0.043 C 
BRANCH  25  26
HETATM   26  C5  UNL     1       0.850  53.467 -24.126  1.00  0.00     0.141 C 
BRANCH  26  27
HETATM   27  C4  UNL     1       0.579  52.882 -22.765  1.00  0.00     0.006 C 
HETATM   28  C2  UNL     1       1.018  53.351 -21.578  1.00  0.00    -0.089 C 
HETATM   29  C1  UNL     1       1.892  54.563 -21.405  1.00  0.00     0.042 C 
HETATM   30  C3  UNL     1       0.644  52.666 -20.291  1.00  0.00     0.042 C 
ENDBRANCH  26  27
BRANCH  26  31
HETATM   31  O1  UNL     1       1.323  54.799 -23.983  1.00  0.00    -0.392 OA
HETATM   32  H9  UNL     1       0.593  55.306 -23.568  1.00  0.00     0.210 HD
ENDBRANCH  26  31
ENDBRANCH  25  26
ENDBRANCH  24  25
BRANCH  24  33
HETATM   33  C8  UNL     1      -0.628  53.262 -27.647  1.00  0.00     0.169 C 
BRANCH  33  34
HETATM   34  O2  UNL     1      -0.504  54.665 -27.424  1.00  0.00    -0.400 OA
HETATM   35  H15 UNL     1      -0.596  55.096 -28.293  1.00  0.00     0.209 HD
ENDBRANCH  33  34
ENDBRANCH  24  33
ENDBRANCH   1  24
TORSDOF 7
ENDMDL
MODEL 4
REMARK minimizedAffinity -8.86451054
REMARK  7 active torsions:
REMARK  status: ('A' for Active; 'I' for Inactive)
REMARK    1  A    between atoms: C4_4  and  C5_5 
REMARK    2  A    between atoms: C5_5  and  O1_6 
REMARK    3  A    between atoms: C5_5  and  C6_7 
REMARK    4  A    between atoms: C6_7  and  C7_8 
REMARK    5  A    between atoms: C7_8  and  C8_9 
REMARK    6  A    between atoms: C7_8  and  C9_11 
REMARK    7  A    between atoms: C8_9  and  O2_10 
ROOT
HETATM    1  C9  UNL     1      -3.525  48.422 -19.831  1.00  0.00     0.001 C 
HETATM    2  C10 UNL     1      -4.330  47.505 -20.803  1.00  0.00     0.007 C 
HETATM    3  C11 UNL     1      -4.080  48.004 -22.235  1.00  0.00     0.015 C 
HETATM    4  C12 UNL     1      -3.394  49.372 -22.064  1.00  0.00    -0.013 C 
HETATM    5  C13 UNL     1      -4.543  50.406 -21.866  1.00  0.00     0.021 C 
HETATM    6  C14 UNL     1      -2.526  49.872 -23.205  1.00  0.00    -0.070 C 
HETATM    7  C15 UNL     1      -2.579  49.397 -24.459  1.00  0.00    -0.022 C 
HETATM    8  C16 UNL     1      -1.607  49.855 -25.496  1.00  0.00     0.034 C 
HETATM    9  C17 UNL     1      -1.346  51.381 -25.466  1.00  0.00     0.013 C 
HETATM   10  C18 UNL     1      -0.143  51.790 -26.385  1.00  0.00     0.018 C 
HETATM   11  C19 UNL     1      -0.500  51.511 -27.868  1.00  0.00     0.023 C 
HETATM   12  C20 UNL     1       1.170  51.041 -26.091  1.00  0.00     0.023 C 
HETATM   13  C21 UNL     1       0.097  53.296 -26.236  1.00  0.00     0.135 C 
HETATM   14  O3  UNL     1       0.216  54.045 -27.210  1.00  0.00    -0.297 OA
HETATM   15  C22 UNL     1       0.229  53.872 -24.847  1.00  0.00     0.080 C 
HETATM   16  C23 UNL     1      -0.100  52.887 -23.739  1.00  0.00     0.017 C 
HETATM   17  C24 UNL     1      -1.356  52.017 -24.004  1.00  0.00    -0.031 C 
HETATM   18  C25 UNL     1      -2.596  52.960 -23.937  1.00  0.00     0.016 C 
HETATM   19  C26 UNL     1      -1.453  50.905 -22.879  1.00  0.00     0.024 C 
HETATM   20  C27 UNL     1      -1.551  51.460 -21.433  1.00  0.00     0.010 C 
HETATM   21  C28 UNL     1      -1.892  50.448 -20.317  1.00  0.00     0.011 C 
HETATM   22  C29 UNL     1      -2.499  49.113 -20.796  1.00  0.00    -0.029 C 
HETATM   23  C30 UNL     1      -1.321  48.122 -21.060  1.00  0.00     0.016 C 
ENDROOT
BRANCH   1  24
HETATM   24  C7  UNL     1      -3.032  47.638 -18.566  1.00  0.00     0.017 C 
BRANCH  24  25
HETATM   25  C6  UNL     1      -1.548  48.031 -18.263  1.00  0.00     0.043 C 
BRANCH  25  26
HETATM   26  C5  UNL     1      -1.204  48.834 -16.996  1.00  0.00     0.141 C 
BRANCH  26  27
HETATM   27  C4  UNL     1      -0.090  49.832 -17.174  1.00  0.00     0.006 C 
HETATM   28  C2  UNL     1       0.361  50.717 -16.259  1.00  0.00    -0.089 C 
HETATM   29  C1  UNL     1      -0.198  50.876 -14.872  1.00  0.00     0.042 C 
HETATM   30  C3  UNL     1       1.504  51.643 -16.579  1.00  0.00     0.042 C 
ENDBRANCH  26  27
BRANCH  26  31
HETATM   31  O1  UNL     1      -0.900  47.975 -15.905  1.00  0.00    -0.392 OA
HETATM   32  H9  UNL     1      -0.087  47.489 -16.159  1.00  0.00     0.210 HD
ENDBRANCH  26  31
ENDBRANCH  25  26
ENDBRANCH  24  25
BRANCH  24  33
HETATM   33  C8  UNL     1      -3.204  46.121 -18.722  1.00  0.00     0.169 C 
BRANCH  33  34
HETATM   34  O2  UNL     1      -2.734  45.453 -17.553  1.00  0.00    -0.400 OA
HETATM   35  H15 UNL     1      -3.000  44.519 -17.640  1.00  0.00     0.209 HD
ENDBRANCH  33  34
ENDBRANCH  24  33
ENDBRANCH   1  24
TORSDOF 7
ENDMDL
MODEL 5
REMARK minimizedAffinity -8.81936836
REMARK  7 active torsions:
REMARK  status: ('A' for Active; 'I' for Inactive)
REMARK    1  A    between atoms: C4_4  and  C5_5 
REMARK    2  A    between atoms: C5_5  and  O1_6 
REMARK    3  A    between atoms: C5_5  and  C6_7 
REMARK    4  A    between atoms: C6_7  and  C7_8 
REMARK    5  A    between atoms: C7_8  and  C8_9 
REMARK    6  A    between atoms: C7_8  and  C9_11 
REMARK    7  A    between atoms: C8_9  and  O2_10 
ROOT
HETATM    1  C9  UNL     1      -2.509  50.968 -25.085  1.00  0.00     0.001 C 
HETATM    2  C10 UNL     1      -1.253  50.597 -24.238  1.00  0.00     0.007 C 
HETATM    3  C11 UNL     1      -1.733  49.833 -22.995  1.00  0.00     0.015 C 
HETATM    4  C12 UNL     1      -3.261  50.034 -22.972  1.00  0.00    -0.013 C 
HETATM    5  C13 UNL     1      -3.502  51.403 -22.268  1.00  0.00     0.021 C 
HETATM    6  C14 UNL     1      -4.097  48.997 -22.243  1.00  0.00    -0.070 C 
HETATM    7  C15 UNL     1      -3.607  48.126 -21.346  1.00  0.00    -0.022 C 
HETATM    8  C16 UNL     1      -4.471  47.056 -20.765  1.00  0.00     0.034 C 
HETATM    9  C17 UNL     1      -5.889  47.546 -20.382  1.00  0.00     0.013 C 
HETATM   10  C18 UNL     1      -6.844  46.357 -20.018  1.00  0.00     0.018 C 
HETATM   11  C19 UNL     1      -6.340  45.658 -18.729  1.00  0.00     0.023 C 
HETATM   12  C20 UNL     1      -6.955  45.271 -21.103  1.00  0.00     0.023 C 
HETATM   13  C21 UNL     1      -8.240  46.921 -19.731  1.00  0.00     0.135 C 
HETATM   14  O3  UNL     1      -8.881  46.614 -18.721  1.00  0.00    -0.297 OA
HETATM   15  C22 UNL     1      -8.863  47.855 -20.740  1.00  0.00     0.080 C 
HETATM   16  C23 UNL     1      -7.917  48.283 -21.847  1.00  0.00     0.017 C 
HETATM   17  C24 UNL     1      -6.488  48.647 -21.367  1.00  0.00    -0.031 C 
HETATM   18  C25 UNL     1      -6.597  49.969 -20.546  1.00  0.00     0.016 C 
HETATM   19  C26 UNL     1      -5.563  48.867 -22.637  1.00  0.00     0.024 C 
HETATM   20  C27 UNL     1      -6.046  49.986 -23.598  1.00  0.00     0.010 C 
HETATM   21  C28 UNL     1      -5.072  50.415 -24.715  1.00  0.00     0.011 C 
HETATM   22  C29 UNL     1      -3.600  50.000 -24.508  1.00  0.00    -0.029 C 
HETATM   23  C30 UNL     1      -3.408  48.592 -25.155  1.00  0.00     0.016 C 
ENDROOT
BRANCH   1  24
HETATM   24  C7  UNL     1      -2.190  50.990 -26.621  1.00  0.00     0.017 C 
BRANCH  24  25
HETATM   25  C6  UNL     1      -2.131  52.473 -27.113  1.00  0.00     0.043 C 
BRANCH  25  26
HETATM   26  C5  UNL     1      -0.879  53.000 -27.838  1.00  0.00     0.141 C 
BRANCH  26  27
HETATM   27  C4  UNL     1       0.368  52.190 -27.594  1.00  0.00     0.006 C 
HETATM   28  C2  UNL     1       1.128  52.186 -26.478  1.00  0.00    -0.089 C 
HETATM   29  C1  UNL     1       0.865  53.026 -25.259  1.00  0.00     0.042 C 
HETATM   30  C3  UNL     1       2.341  51.302 -26.374  1.00  0.00     0.042 C 
ENDBRANCH  26  27
BRANCH  26  31
HETATM   31  O1  UNL     1      -0.629  54.361 -27.518  1.00  0.00    -0.392 OA
HETATM   32  H9  UNL     1      -0.428  54.384 -26.558  1.00  0.00     0.210 HD
ENDBRANCH  26  31
ENDBRANCH  25  26
ENDBRANCH  24  25
BRANCH  24  33
HETATM   33  C8  UNL     1      -3.188  50.154 -27.431  1.00  0.00     0.169 C 
BRANCH  33  34
HETATM   34  O2  UNL     1      -3.370  50.727 -28.724  1.00  0.00    -0.400 OA
HETATM   35  H15 UNL     1      -3.889  50.086 -29.244  1.00  0.00     0.209 HD
ENDBRANCH  33  34
ENDBRANCH  24  33
ENDBRANCH   1  24
TORSDOF 7
ENDMDL
MODEL 6
REMARK minimizedAffinity -8.76560783
REMARK  7 active torsions:
REMARK  status: ('A' for Active; 'I' for Inactive)
REMARK    1  A    between atoms: C4_4  and  C5_5 
REMARK    2  A    between atoms: C5_5  and  O1_6 
REMARK    3  A    between atoms: C5_5  and  C6_7 
REMARK    4  A    between atoms: C6_7  and  C7_8 
REMARK    5  A    between atoms: C7_8  and  C8_9 
REMARK    6  A    between atoms: C7_8  and  C9_11 
REMARK    7  A    between atoms: C8_9  and  O2_10 
ROOT
HETATM    1  C9  UNL     1      -2.367  51.318 -24.661  1.00  0.00     0.001 C 
HETATM    2  C10 UNL     1      -2.625  52.609 -23.825  1.00  0.00     0.007 C 
HETATM    3  C11 UNL     1      -3.616  52.253 -22.705  1.00  0.00     0.015 C 
HETATM    4  C12 UNL     1      -4.157  50.861 -23.082  1.00  0.00    -0.013 C 
HETATM    5  C13 UNL     1      -5.323  51.111 -24.085  1.00  0.00     0.021 C 
HETATM    6  C14 UNL     1      -4.700  49.990 -21.963  1.00  0.00    -0.070 C 
HETATM    7  C15 UNL     1      -5.059  50.450 -20.754  1.00  0.00    -0.022 C 
HETATM    8  C16 UNL     1      -5.468  49.512 -19.667  1.00  0.00     0.034 C 
HETATM    9  C17 UNL     1      -6.396  48.371 -20.151  1.00  0.00     0.013 C 
HETATM   10  C18 UNL     1      -6.598  47.270 -19.053  1.00  0.00     0.018 C 
HETATM   11  C19 UNL     1      -7.361  47.872 -17.845  1.00  0.00     0.023 C 
HETATM   12  C20 UNL     1      -5.292  46.668 -18.504  1.00  0.00     0.023 C 
HETATM   13  C21 UNL     1      -7.459  46.146 -19.639  1.00  0.00     0.135 C 
HETATM   14  O3  UNL     1      -8.445  45.694 -19.049  1.00  0.00    -0.297 OA
HETATM   15  C22 UNL     1      -7.061  45.549 -20.967  1.00  0.00     0.080 C 
HETATM   16  C23 UNL     1      -5.939  46.297 -21.666  1.00  0.00     0.017 C 
HETATM   17  C24 UNL     1      -6.069  47.841 -21.619  1.00  0.00    -0.031 C 
HETATM   18  C25 UNL     1      -7.285  48.232 -22.515  1.00  0.00     0.016 C 
HETATM   19  C26 UNL     1      -4.738  48.484 -22.194  1.00  0.00     0.024 C 
HETATM   20  C27 UNL     1      -4.405  48.074 -23.653  1.00  0.00     0.010 C 
HETATM   21  C28 UNL     1      -3.266  48.846 -24.353  1.00  0.00     0.011 C 
HETATM   22  C29 UNL     1      -2.875  50.188 -23.698  1.00  0.00    -0.029 C 
HETATM   23  C30 UNL     1      -1.760  49.895 -22.644  1.00  0.00     0.016 C 
ENDROOT
BRANCH   1  24
HETATM   24  C7  UNL     1      -0.910  51.281 -25.240  1.00  0.00     0.017 C 
BRANCH  24  25
HETATM   25  C6  UNL     1      -0.312  52.727 -25.219  1.00  0.00     0.043 C 
BRANCH  25  26
HETATM   26  C5  UNL     1       0.807  53.087 -24.225  1.00  0.00     0.141 C 
BRANCH  26  27
HETATM   27  C4  UNL     1       0.573  52.597 -22.820  1.00  0.00     0.006 C 
HETATM   28  C2  UNL     1       0.958  53.202 -21.675  1.00  0.00    -0.089 C 
HETATM   29  C1  UNL     1       1.723  54.494 -21.603  1.00  0.00     0.042 C 
HETATM   30  C3  UNL     1       0.631  52.597 -20.336  1.00  0.00     0.042 C 
ENDBRANCH  26  27
BRANCH  26  31
HETATM   31  O1  UNL     1       1.050  54.487 -24.204  1.00  0.00    -0.392 OA
HETATM   32  H9  UNL     1       0.229  54.902 -23.864  1.00  0.00     0.210 HD
ENDBRANCH  26  31
ENDBRANCH  25  26
ENDBRANCH  24  25
BRANCH  24  33
HETATM   33  C8  UNL     1      -0.859  50.659 -26.641  1.00  0.00     0.169 C 
BRANCH  33  34
HETATM   34  O2  UNL     1       0.344  51.043 -27.304  1.00  0.00    -0.400 OA
HETATM   35  H15 UNL     1       0.398  50.508 -28.117  1.00  0.00     0.209 HD
ENDBRANCH  33  34
ENDBRANCH  24  33
ENDBRANCH   1  24
TORSDOF 7
ENDMDL
MODEL 7
REMARK minimizedAffinity -8.6684742
REMARK  7 active torsions:
REMARK  status: ('A' for Active; 'I' for Inactive)
REMARK    1  A    between atoms: C4_4  and  C5_5 
REMARK    2  A    between atoms: C5_5  and  O1_6 
REMARK    3  A    between atoms: C5_5  and  C6_7 
REMARK    4  A    between atoms: C6_7  and  C7_8 
REMARK    5  A    between atoms: C7_8  and  C8_9 
REMARK    6  A    between atoms: C7_8  and  C9_11 
REMARK    7  A    between atoms: C8_9  and  O2_10 
ROOT
HETATM    1  C9  UNL     1      -0.632  51.445 -20.895  1.00  0.00     0.001 C 
HETATM    2  C10 UNL     1       0.275  50.178 -20.826  1.00  0.00     0.007 C 
HETATM    3  C11 UNL     1      -0.643  48.947 -20.756  1.00  0.00     0.015 C 
HETATM    4  C12 UNL     1      -2.047  49.516 -20.475  1.00  0.00    -0.013 C 
HETATM    5  C13 UNL     1      -2.129  49.710 -18.931  1.00  0.00     0.021 C 
HETATM    6  C14 UNL     1      -3.242  48.676 -20.890  1.00  0.00    -0.070 C 
HETATM    7  C15 UNL     1      -3.186  47.362 -21.161  1.00  0.00    -0.022 C 
HETATM    8  C16 UNL     1      -4.380  46.634 -21.683  1.00  0.00     0.034 C 
HETATM    9  C17 UNL     1      -5.700  47.022 -20.971  1.00  0.00     0.013 C 
HETATM   10  C18 UNL     1      -6.957  46.439 -21.704  1.00  0.00     0.018 C 
HETATM   11  C19 UNL     1      -6.939  44.891 -21.619  1.00  0.00     0.023 C 
HETATM   12  C20 UNL     1      -7.055  46.805 -23.196  1.00  0.00     0.023 C 
HETATM   13  C21 UNL     1      -8.216  46.934 -20.984  1.00  0.00     0.135 C 
HETATM   14  O3  UNL     1      -9.128  46.171 -20.648  1.00  0.00    -0.297 OA
HETATM   15  C22 UNL     1      -8.359  48.412 -20.713  1.00  0.00     0.080 C 
HETATM   16  C23 UNL     1      -7.109  49.216 -21.020  1.00  0.00     0.017 C 
HETATM   17  C24 UNL     1      -5.787  48.557 -20.548  1.00  0.00    -0.031 C 
HETATM   18  C25 UNL     1      -5.783  48.591 -18.989  1.00  0.00     0.016 C 
HETATM   19  C26 UNL     1      -4.567  49.395 -21.117  1.00  0.00     0.024 C 
HETATM   20  C27 UNL     1      -4.546  50.882 -20.674  1.00  0.00     0.010 C 
HETATM   21  C28 UNL     1      -3.267  51.687 -20.987  1.00  0.00     0.011 C 
HETATM   22  C29 UNL     1      -2.017  50.843 -21.318  1.00  0.00    -0.029 C 
HETATM   23  C30 UNL     1      -2.003  50.599 -22.860  1.00  0.00     0.016 C 
ENDROOT
BRANCH   1  24
HETATM   24  C7  UNL     1       0.034  52.591 -21.734  1.00  0.00     0.017 C 
BRANCH  24  25
HETATM   25  C6  UNL     1       0.477  52.021 -23.122  1.00  0.00     0.043 C 
BRANCH  25  26
HETATM   26  C5  UNL     1       0.476  52.927 -24.367  1.00  0.00     0.141 C 
BRANCH  26  27
HETATM   27  C4  UNL     1       1.018  52.276 -25.612  1.00  0.00     0.006 C 
HETATM   28  C2  UNL     1       0.738  52.609 -26.890  1.00  0.00    -0.089 C 
HETATM   29  C1  UNL     1      -0.203  53.706 -27.303  1.00  0.00     0.042 C 
HETATM   30  C3  UNL     1       1.378  51.874 -28.037  1.00  0.00     0.042 C 
ENDBRANCH  26  27
BRANCH  26  31
HETATM   31  O1  UNL     1       1.175  54.141 -24.124  1.00  0.00    -0.392 OA
HETATM   32  H9  UNL     1       2.109  53.890 -23.961  1.00  0.00     0.210 HD
ENDBRANCH  26  31
ENDBRANCH  25  26
ENDBRANCH  24  25
BRANCH  24  33
HETATM   33  C8  UNL     1       1.198  53.255 -20.988  1.00  0.00     0.169 C 
BRANCH  33  34
HETATM   34  O2  UNL     1       0.747  54.438 -20.332  1.00  0.00    -0.400 OA
HETATM   35  H15 UNL     1       1.478  54.735 -19.758  1.00  0.00     0.209 HD
ENDBRANCH  33  34
ENDBRANCH  24  33
ENDBRANCH   1  24
TORSDOF 7
ENDMDL
MODEL 8
REMARK minimizedAffinity -8.61384678
REMARK  7 active torsions:
REMARK  status: ('A' for Active; 'I' for Inactive)
REMARK    1  A    between atoms: C4_4  and  C5_5 
REMARK    2  A    between atoms: C5_5  and  O1_6 
REMARK    3  A    between atoms: C5_5  and  C6_7 
REMARK    4  A    between atoms: C6_7  and  C7_8 
REMARK    5  A    between atoms: C7_8  and  C8_9 
REMARK    6  A    between atoms: C7_8  and  C9_11 
REMARK    7  A    between atoms: C8_9  and  O2_10 
ROOT
HETATM    1  C9  UNL     1      -0.492  51.221 -20.954  1.00  0.00     0.001 C 
HETATM    2  C10 UNL     1      -1.201  52.130 -22.006  1.00  0.00     0.007 C 
HETATM    3  C11 UNL     1      -2.646  51.632 -22.160  1.00  0.00     0.015 C 
HETATM    4  C12 UNL     1      -2.674  50.269 -21.442  1.00  0.00    -0.013 C 
HETATM    5  C13 UNL     1      -2.165  49.226 -22.482  1.00  0.00     0.021 C 
HETATM    6  C14 UNL     1      -4.013  49.774 -20.922  1.00  0.00    -0.070 C 
HETATM    7  C15 UNL     1      -5.202  50.248 -21.327  1.00  0.00    -0.022 C 
HETATM    8  C16 UNL     1      -6.469  49.796 -20.678  1.00  0.00     0.034 C 
HETATM    9  C17 UNL     1      -6.514  48.273 -20.406  1.00  0.00     0.013 C 
HETATM   10  C18 UNL     1      -7.732  47.872 -19.503  1.00  0.00     0.018 C 
HETATM   11  C19 UNL     1      -9.056  48.146 -20.262  1.00  0.00     0.023 C 
HETATM   12  C20 UNL     1      -7.815  48.633 -18.167  1.00  0.00     0.023 C 
HETATM   13  C21 UNL     1      -7.657  46.369 -19.218  1.00  0.00     0.135 C 
HETATM   14  O3  UNL     1      -8.627  45.619 -19.369  1.00  0.00    -0.297 OA
HETATM   15  C22 UNL     1      -6.361  45.796 -18.700  1.00  0.00     0.080 C 
HETATM   16  C23 UNL     1      -5.204  46.780 -18.716  1.00  0.00     0.017 C 
HETATM   17  C24 UNL     1      -5.108  47.638 -20.003  1.00  0.00    -0.031 C 
HETATM   18  C25 UNL     1      -4.699  46.685 -21.167  1.00  0.00     0.016 C 
HETATM   19  C26 UNL     1      -3.999  48.752 -19.792  1.00  0.00     0.024 C 
HETATM   20  C27 UNL     1      -2.584  48.198 -19.478  1.00  0.00     0.010 C 
HETATM   21  C28 UNL     1      -1.416  49.208 -19.503  1.00  0.00     0.011 C 
HETATM   22  C29 UNL     1      -1.706  50.538 -20.232  1.00  0.00    -0.029 C 
HETATM   23  C30 UNL     1      -2.287  51.538 -19.182  1.00  0.00     0.016 C 
ENDROOT
BRANCH   1  24
HETATM   24  C7  UNL     1       0.586  52.012 -20.134  1.00  0.00     0.017 C 
BRANCH  24  25
HETATM   25  C6  UNL     1      -0.020  52.426 -18.753  1.00  0.00     0.043 C 
BRANCH  25  26
HETATM   26  C5  UNL     1       0.629  51.938 -17.445  1.00  0.00     0.141 C 
BRANCH  26  27
HETATM   27  C4  UNL     1       2.052  52.394 -17.249  1.00  0.00     0.006 C 
HETATM   28  C2  UNL     1       2.783  52.306 -16.117  1.00  0.00    -0.089 C 
HETATM   29  C1  UNL     1       2.285  51.739 -14.816  1.00  0.00     0.042 C 
HETATM   30  C3  UNL     1       4.208  52.788 -16.080  1.00  0.00     0.042 C 
ENDBRANCH  26  27
BRANCH  26  31
HETATM   31  O1  UNL     1       0.566  50.523 -17.331  1.00  0.00    -0.392 OA
HETATM   32  H9  UNL     1       1.109  50.166 -18.065  1.00  0.00     0.210 HD
ENDBRANCH  26  31
ENDBRANCH  25  26
ENDBRANCH  24  25
BRANCH  24  33
HETATM   33  C8  UNL     1       1.131  53.219 -20.908  1.00  0.00     0.169 C 
BRANCH  33  34
HETATM   34  O2  UNL     1       1.387  54.299 -20.013  1.00  0.00    -0.400 OA
HETATM   35  H15 UNL     1       1.865  54.978 -20.524  1.00  0.00     0.209 HD
ENDBRANCH  33  34
ENDBRANCH  24  33
ENDBRANCH   1  24
TORSDOF 7
ENDMDL
MODEL 9
REMARK minimizedAffinity -8.50183296
REMARK  7 active torsions:
REMARK  status: ('A' for Active; 'I' for Inactive)
REMARK    1  A    between atoms: C4_4  and  C5_5 
REMARK    2  A    between atoms: C5_5  and  O1_6 
REMARK    3  A    between atoms: C5_5  and  C6_7 
REMARK    4  A    between atoms: C6_7  and  C7_8 
REMARK    5  A    between atoms: C7_8  and  C8_9 
REMARK    6  A    between atoms: C7_8  and  C9_11 
REMARK    7  A    between atoms: C8_9  and  O2_10 
ROOT
HETATM    1  C9  UNL     1      -3.206  51.465 -25.397  1.00  0.00     0.001 C 
HETATM    2  C10 UNL     1      -2.597  52.653 -24.592  1.00  0.00     0.007 C 
HETATM    3  C11 UNL     1      -2.776  52.349 -23.096  1.00  0.00     0.015 C 
HETATM    4  C12 UNL     1      -3.748  51.155 -23.049  1.00  0.00    -0.013 C 
HETATM    5  C13 UNL     1      -5.180  51.764 -23.133  1.00  0.00     0.021 C 
HETATM    6  C14 UNL     1      -3.707  50.262 -21.821  1.00  0.00    -0.070 C 
HETATM    7  C15 UNL     1      -3.153  50.613 -20.650  1.00  0.00    -0.022 C 
HETATM    8  C16 UNL     1      -3.043  49.633 -19.528  1.00  0.00     0.034 C 
HETATM    9  C17 UNL     1      -4.317  48.774 -19.332  1.00  0.00     0.013 C 
HETATM   10  C18 UNL     1      -4.081  47.594 -18.327  1.00  0.00     0.018 C 
HETATM   11  C19 UNL     1      -3.803  48.161 -16.911  1.00  0.00     0.023 C 
HETATM   12  C20 UNL     1      -2.897  46.677 -18.683  1.00  0.00     0.023 C 
HETATM   13  C21 UNL     1      -5.359  46.752 -18.253  1.00  0.00     0.135 C 
HETATM   14  O3  UNL     1      -5.873  46.425 -17.178  1.00  0.00    -0.297 OA
HETATM   15  C22 UNL     1      -5.988  46.277 -19.540  1.00  0.00     0.080 C 
HETATM   16  C23 UNL     1      -5.364  46.879 -20.787  1.00  0.00     0.017 C 
HETATM   17  C24 UNL     1      -5.067  48.398 -20.688  1.00  0.00    -0.031 C 
HETATM   18  C25 UNL     1      -6.439  49.138 -20.659  1.00  0.00     0.016 C 
HETATM   19  C26 UNL     1      -4.234  48.839 -21.963  1.00  0.00     0.024 C 
HETATM   20  C27 UNL     1      -4.945  48.576 -23.317  1.00  0.00     0.010 C 
HETATM   21  C28 UNL     1      -4.303  49.199 -24.576  1.00  0.00     0.011 C 
HETATM   22  C29 UNL     1      -3.292  50.335 -24.312  1.00  0.00    -0.029 C 
HETATM   23  C30 UNL     1      -1.880  49.687 -24.155  1.00  0.00     0.016 C 
ENDROOT
BRANCH   1  24
HETATM   24  C7  UNL     1      -2.442  51.223 -26.745  1.00  0.00     0.017 C 
BRANCH  24  25
HETATM   25  C6  UNL     1      -2.216  52.595 -27.461  1.00  0.00     0.043 C 
BRANCH  25  26
HETATM   26  C5  UNL     1      -0.791  53.154 -27.632  1.00  0.00     0.141 C 
BRANCH  26  27
HETATM   27  C4  UNL     1       0.232  52.542 -26.711  1.00  0.00     0.006 C 
HETATM   28  C2  UNL     1       1.328  51.841 -27.069  1.00  0.00    -0.089 C 
HETATM   29  C1  UNL     1       1.719  51.524 -28.486  1.00  0.00     0.042 C 
HETATM   30  C3  UNL     1       2.276  51.306 -26.029  1.00  0.00     0.042 C 
ENDBRANCH  26  27
BRANCH  26  31
HETATM   31  O1  UNL     1      -0.770  54.568 -27.491  1.00  0.00    -0.392 OA
HETATM   32  H9  UNL     1      -1.035  54.754 -26.566  1.00  0.00     0.210 HD
ENDBRANCH  26  31
ENDBRANCH  25  26
ENDBRANCH  24  25
BRANCH  24  33
HETATM   33  C8  UNL     1      -3.164  50.215 -27.648  1.00  0.00     0.169 C 
BRANCH  33  34
HETATM   34  O2  UNL     1      -3.318  50.755 -28.958  1.00  0.00    -0.400 OA
HETATM   35  H15 UNL     1      -3.642  50.030 -29.523  1.00  0.00     0.209 HD
ENDBRANCH  33  34
ENDBRANCH  24  33
ENDBRANCH   1  24
TORSDOF 7
ENDMDL
