MODEL 1
REMARK minimizedAffinity -8.75634575
REMARK  10 active torsions:
REMARK  status: ('A' for Active; 'I' for Inactive)
REMARK    1  A    between atoms: C2_2  and  C3_3 
REMARK    2  A    between atoms: C3_3  and  N1_4 
REMARK    3  A    between atoms: N1_4  and  C4_5 
REMARK    4  A    between atoms: C9_12  and  C11_14 
REMARK    5  A    between atoms: C11_14  and  O1_15 
REMARK    6  A    between atoms: C12_16  and  O2_17 
REMARK    7  A    between atoms: C17_22  and  C18_23 
REMARK    8  A    between atoms: C18_23  and  C19_24 
REMARK       I    between atoms: C19_24  and  N3_26 
REMARK    9  A    between atoms: N3_26  and  C20_27 
REMARK   10  A    between atoms: C20_27  and  C22_29 
ROOT
HETATM    1  C4  UNL     1      -4.999  48.430 -25.907  1.00  0.00     0.145 A 
HETATM    2  N2  UNL     1      -4.368  48.602 -24.765  1.00  0.00    -0.339 N 
ATOM      3  H2  UNL     1      -4.759  48.386 -23.849  1.00  0.00     0.168 HD
HETATM    4  C5  UNL     1      -3.105  49.115 -24.977  1.00  0.00     0.030 A 
HETATM    5  C6  UNL     1      -2.775  49.310 -26.292  1.00  0.00     0.009 A 
HETATM    6  C7  UNL     1      -1.531  49.935 -26.797  1.00  0.00     0.054 C 
HETATM    7  C8  UNL     1      -0.584  50.533 -25.685  1.00  0.00     0.012 C 
HETATM    8  C9  UNL     1       0.182  51.803 -26.282  1.00  0.00     0.008 C 
HETATM    9  C10 UNL     1       0.648  51.542 -27.750  1.00  0.00     0.020 C 
HETATM   10  C12 UNL     1      -0.807  53.009 -26.297  1.00  0.00     0.128 C 
HETATM   11  C13 UNL     1      -1.469  53.272 -24.948  1.00  0.00     0.033 C 
HETATM   12  C14 UNL     1      -2.213  52.048 -24.394  1.00  0.00     0.013 C 
HETATM   13  C15 UNL     1      -1.322  50.779 -24.272  1.00  0.00    -0.030 C 
HETATM   14  C16 UNL     1      -0.320  51.018 -23.113  1.00  0.00     0.016 C 
HETATM   15  C17 UNL     1      -2.158  49.464 -23.870  1.00  0.00     0.054 C 
HETATM   16  S1  UNL     1      -4.053  48.818 -27.299  1.00  0.00    -0.057 SA
ENDROOT
BRANCH  15  17
HETATM   17  C18 UNL     1      -2.863  49.492 -22.491  1.00  0.00     0.114 C 
BRANCH  17  18
HETATM   18  C19 UNL     1      -2.055  48.812 -21.395  1.00  0.00     0.218 C 
HETATM   19  O3  UNL     1      -1.500  47.725 -21.523  1.00  0.00    -0.274 OA
HETATM   20  N3  UNL     1      -1.999  49.548 -20.232  1.00  0.00    -0.353 N 
HETATM   21  H28 UNL     1      -2.582  50.370 -20.139  1.00  0.00     0.163 HD
BRANCH  20  22
HETATM   22  C20 UNL     1      -1.315  49.058 -19.046  1.00  0.00     0.113 C 
HETATM   23  C21 UNL     1      -2.297  48.393 -18.075  1.00  0.00     0.037 C 
BRANCH  22  24
HETATM   24  C22 UNL     1      -0.512  50.194 -18.434  1.00  0.00    -0.036 A 
HETATM   25  C23 UNL     1       0.056  50.022 -17.160  1.00  0.00     0.009 A 
HETATM   26  C24 UNL     1       0.829  51.029 -16.582  1.00  0.00     0.001 A 
HETATM   27  C25 UNL     1       1.052  52.217 -17.270  1.00  0.00     0.000 A 
HETATM   28  C26 UNL     1       0.500  52.400 -18.536  1.00  0.00     0.001 A 
HETATM   29  C27 UNL     1      -0.271  51.393 -19.119  1.00  0.00     0.009 A 
ENDBRANCH  22  24
ENDBRANCH  20  22
ENDBRANCH  17  18
ENDBRANCH  15  17
BRANCH   1  30
HETATM   30  N1  UNL     1      -6.284  48.015 -25.931  1.00  0.00    -0.367 N 
HETATM   31  H6  UNL     1      -6.623  47.649 -25.046  1.00  0.00     0.161 HD
BRANCH  30  32
HETATM   32  C3  UNL     1      -6.927  47.487 -27.104  1.00  0.00     0.148 C 
BRANCH  32  33
HETATM   33  C2  UNL     1      -5.945  47.632 -28.226  1.00  0.00    -0.018 C 
HETATM   34  C1  UNL     1      -6.083  47.108 -29.453  1.00  0.00     0.008 C 
ENDBRANCH  32  33
ENDBRANCH  30  32
ENDBRANCH   1  30
BRANCH   8  35
HETATM   35  C11 UNL     1       1.506  52.098 -25.518  1.00  0.00     0.176 C 
BRANCH  35  36
HETATM   36  O1  UNL     1       2.626  52.140 -26.409  1.00  0.00    -0.400 OA
HETATM   37  H15 UNL     1       3.420  52.303 -25.865  1.00  0.00     0.209 HD
ENDBRANCH  35  36
ENDBRANCH   8  35
BRANCH  10  38
HETATM   38  O2  UNL     1      -0.197  54.215 -26.760  1.00  0.00    -0.395 OA
HETATM   39  H17 UNL     1       0.710  54.229 -26.389  1.00  0.00     0.210 HD
ENDBRANCH  10  38
TORSDOF 10
ENDMDL
MODEL 2
REMARK minimizedAffinity -8.7005167
REMARK  10 active torsions:
REMARK  status: ('A' for Active; 'I' for Inactive)
REMARK    1  A    between atoms: C2_2  and  C3_3 
REMARK    2  A    between atoms: C3_3  and  N1_4 
REMARK    3  A    between atoms: N1_4  and  C4_5 
REMARK    4  A    between atoms: C9_12  and  C11_14 
REMARK    5  A    between atoms: C11_14  and  O1_15 
REMARK    6  A    between atoms: C12_16  and  O2_17 
REMARK    7  A    between atoms: C17_22  and  C18_23 
REMARK    8  A    between atoms: C18_23  and  C19_24 
REMARK       I    between atoms: C19_24  and  N3_26 
REMARK    9  A    between atoms: N3_26  and  C20_27 
REMARK   10  A    between atoms: C20_27  and  C22_29 
ROOT
HETATM    1  C4  UNL     1      -7.428  49.620 -23.730  1.00  0.00     0.145 A 
HETATM    2  N2  UNL     1      -6.527  50.556 -23.940  1.00  0.00    -0.339 N 
ATOM      3  H2  UNL     1      -6.459  51.115 -24.790  1.00  0.00     0.168 HD
HETATM    4  C5  UNL     1      -5.686  50.677 -22.853  1.00  0.00     0.030 A 
HETATM    5  C6  UNL     1      -5.971  49.840 -21.807  1.00  0.00     0.009 A 
HETATM    6  C7  UNL     1      -5.178  49.691 -20.566  1.00  0.00     0.054 C 
HETATM    7  C8  UNL     1      -3.819  50.495 -20.540  1.00  0.00     0.012 C 
HETATM    8  C9  UNL     1      -2.751  49.683 -19.670  1.00  0.00     0.008 C 
HETATM    9  C10 UNL     1      -3.410  49.079 -18.388  1.00  0.00     0.020 C 
HETATM   10  C12 UNL     1      -2.209  48.504 -20.535  1.00  0.00     0.128 C 
HETATM   11  C13 UNL     1      -1.682  48.940 -21.899  1.00  0.00     0.033 C 
HETATM   12  C14 UNL     1      -2.724  49.705 -22.729  1.00  0.00     0.013 C 
HETATM   13  C15 UNL     1      -3.309  50.949 -22.002  1.00  0.00    -0.030 C 
HETATM   14  C16 UNL     1      -2.194  52.023 -21.933  1.00  0.00     0.016 C 
HETATM   15  C17 UNL     1      -4.528  51.626 -22.805  1.00  0.00     0.054 C 
HETATM   16  S1  UNL     1      -7.336  48.893 -22.165  1.00  0.00    -0.057 SA
ENDROOT
BRANCH  15  17
HETATM   17  C18 UNL     1      -4.194  52.204 -24.203  1.00  0.00     0.114 C 
BRANCH  17  18
HETATM   18  C19 UNL     1      -3.695  51.150 -25.180  1.00  0.00     0.218 C 
HETATM   19  O3  UNL     1      -4.257  50.078 -25.381  1.00  0.00    -0.274 OA
HETATM   20  N3  UNL     1      -2.541  51.523 -25.834  1.00  0.00    -0.353 N 
HETATM   21  H28 UNL     1      -2.052  52.357 -25.533  1.00  0.00     0.163 HD
BRANCH  20  22
HETATM   22  C20 UNL     1      -1.873  50.641 -26.776  1.00  0.00     0.113 C 
HETATM   23  C21 UNL     1      -2.038  49.172 -26.374  1.00  0.00     0.037 C 
BRANCH  22  24
HETATM   24  C22 UNL     1      -0.427  51.084 -26.927  1.00  0.00    -0.036 A 
HETATM   25  C23 UNL     1       0.422  51.041 -25.808  1.00  0.00     0.009 A 
HETATM   26  C24 UNL     1       1.764  51.407 -25.916  1.00  0.00     0.001 A 
HETATM   27  C25 UNL     1       2.278  51.812 -27.143  1.00  0.00     0.000 A 
HETATM   28  C26 UNL     1       1.450  51.855 -28.262  1.00  0.00     0.001 A 
HETATM   29  C27 UNL     1       0.108  51.486 -28.158  1.00  0.00     0.009 A 
ENDBRANCH  22  24
ENDBRANCH  20  22
ENDBRANCH  17  18
ENDBRANCH  15  17
BRANCH   1  30
HETATM   30  N1  UNL     1      -8.303  49.273 -24.698  1.00  0.00    -0.367 N 
HETATM   31  H6  UNL     1      -9.141  49.848 -24.731  1.00  0.00     0.161 HD
BRANCH  30  32
HETATM   32  C3  UNL     1      -8.457  47.930 -25.188  1.00  0.00     0.148 C 
BRANCH  32  33
HETATM   33  C2  UNL     1      -7.147  47.554 -25.809  1.00  0.00    -0.018 C 
HETATM   34  C1  UNL     1      -6.902  47.490 -27.126  1.00  0.00     0.008 C 
ENDBRANCH  32  33
ENDBRANCH  30  32
ENDBRANCH   1  30
BRANCH   8  35
HETATM   35  C11 UNL     1      -1.630  50.608 -19.112  1.00  0.00     0.176 C 
BRANCH  35  36
HETATM   36  O1  UNL     1      -2.177  51.716 -18.388  1.00  0.00    -0.400 OA
HETATM   37  H15 UNL     1      -1.426  52.264 -18.090  1.00  0.00     0.209 HD
ENDBRANCH  35  36
ENDBRANCH   8  35
BRANCH  10  38
HETATM   38  O2  UNL     1      -1.198  47.750 -19.865  1.00  0.00    -0.395 OA
HETATM   39  H17 UNL     1      -0.646  48.395 -19.375  1.00  0.00     0.210 HD
ENDBRANCH  10  38
TORSDOF 10
ENDMDL
MODEL 3
REMARK minimizedAffinity -8.65646553
REMARK  10 active torsions:
REMARK  status: ('A' for Active; 'I' for Inactive)
REMARK    1  A    between atoms: C2_2  and  C3_3 
REMARK    2  A    between atoms: C3_3  and  N1_4 
REMARK    3  A    between atoms: N1_4  and  C4_5 
REMARK    4  A    between atoms: C9_12  and  C11_14 
REMARK    5  A    between atoms: C11_14  and  O1_15 
REMARK    6  A    between atoms: C12_16  and  O2_17 
REMARK    7  A    between atoms: C17_22  and  C18_23 
REMARK    8  A    between atoms: C18_23  and  C19_24 
REMARK       I    between atoms: C19_24  and  N3_26 
REMARK    9  A    between atoms: N3_26  and  C20_27 
REMARK   10  A    between atoms: C20_27  and  C22_29 
ROOT
HETATM    1  C4  UNL     1      -1.422  51.036 -25.920  1.00  0.00     0.145 A 
HETATM    2  N2  UNL     1      -1.088  50.920 -24.652  1.00  0.00    -0.339 N 
ATOM      3  H2  UNL     1      -0.130  50.905 -24.304  1.00  0.00     0.168 HD
HETATM    4  C5  UNL     1      -2.212  50.820 -23.859  1.00  0.00     0.030 A 
HETATM    5  C6  UNL     1      -3.403  50.884 -24.533  1.00  0.00     0.009 A 
HETATM    6  C7  UNL     1      -4.750  50.707 -23.946  1.00  0.00     0.054 C 
HETATM    7  C8  UNL     1      -4.766  50.280 -22.427  1.00  0.00     0.012 C 
HETATM    8  C9  UNL     1      -6.048  49.363 -22.158  1.00  0.00     0.008 C 
HETATM    9  C10 UNL     1      -7.305  49.917 -22.902  1.00  0.00     0.020 C 
HETATM   10  C12 UNL     1      -5.753  47.934 -22.708  1.00  0.00     0.128 C 
HETATM   11  C13 UNL     1      -4.450  47.335 -22.183  1.00  0.00     0.033 C 
HETATM   12  C14 UNL     1      -3.227  48.221 -22.462  1.00  0.00     0.013 C 
HETATM   13  C15 UNL     1      -3.366  49.668 -21.912  1.00  0.00    -0.030 C 
HETATM   14  C16 UNL     1      -3.283  49.594 -20.365  1.00  0.00     0.016 C 
HETATM   15  C17 UNL     1      -2.161  50.631 -22.373  1.00  0.00     0.054 C 
HETATM   16  S1  UNL     1      -3.126  51.102 -26.196  1.00  0.00    -0.057 SA
ENDROOT
BRANCH  15  17
HETATM   17  C18 UNL     1      -0.743  50.241 -21.887  1.00  0.00     0.114 C 
BRANCH  17  18
HETATM   18  C19 UNL     1      -0.007  51.389 -21.212  1.00  0.00     0.218 C 
HETATM   19  O3  UNL     1       1.096  51.797 -21.560  1.00  0.00    -0.274 OA
HETATM   20  N3  UNL     1      -0.712  51.941 -20.166  1.00  0.00    -0.353 N 
HETATM   21  H28 UNL     1      -1.554  51.481 -19.841  1.00  0.00     0.163 HD
BRANCH  20  22
HETATM   22  C20 UNL     1      -0.169  53.020 -19.357  1.00  0.00     0.113 C 
HETATM   23  C21 UNL     1       0.717  53.948 -20.195  1.00  0.00     0.037 C 
BRANCH  22  24
HETATM   24  C22 UNL     1       0.527  52.427 -18.144  1.00  0.00    -0.036 A 
HETATM   25  C23 UNL     1      -0.033  51.301 -17.516  1.00  0.00     0.009 A 
HETATM   26  C24 UNL     1       0.597  50.708 -16.421  1.00  0.00     0.001 A 
HETATM   27  C25 UNL     1       1.796  51.225 -15.945  1.00  0.00     0.000 A 
HETATM   28  C26 UNL     1       2.367  52.336 -16.560  1.00  0.00     0.001 A 
HETATM   29  C27 UNL     1       1.741  52.930 -17.658  1.00  0.00     0.009 A 
ENDBRANCH  22  24
ENDBRANCH  20  22
ENDBRANCH  17  18
ENDBRANCH  15  17
BRANCH   1  30
HETATM   30  N1  UNL     1      -0.476  51.063 -26.884  1.00  0.00    -0.367 N 
HETATM   31  H6  UNL     1       0.061  50.205 -26.968  1.00  0.00     0.161 HD
BRANCH  30  32
HETATM   32  C3  UNL     1       0.206  52.261 -27.296  1.00  0.00     0.148 C 
BRANCH  32  33
HETATM   33  C2  UNL     1       1.572  51.836 -27.741  1.00  0.00    -0.018 C 
HETATM   34  C1  UNL     1       2.609  51.581 -26.930  1.00  0.00     0.008 C 
ENDBRANCH  32  33
ENDBRANCH  30  32
ENDBRANCH   1  30
BRANCH   8  35
HETATM   35  C11 UNL     1      -6.469  49.374 -20.658  1.00  0.00     0.176 C 
BRANCH  35  36
HETATM   36  O1  UNL     1      -6.849  50.687 -20.231  1.00  0.00    -0.400 OA
HETATM   37  H15 UNL     1      -7.074  50.626 -19.283  1.00  0.00     0.209 HD
ENDBRANCH  35  36
ENDBRANCH   8  35
BRANCH  10  38
HETATM   38  O2  UNL     1      -6.819  47.017 -22.461  1.00  0.00    -0.395 OA
HETATM   39  H17 UNL     1      -7.161  47.221 -21.564  1.00  0.00     0.210 HD
ENDBRANCH  10  38
TORSDOF 10
ENDMDL
MODEL 4
REMARK minimizedAffinity -8.44522953
REMARK  10 active torsions:
REMARK  status: ('A' for Active; 'I' for Inactive)
REMARK    1  A    between atoms: C2_2  and  C3_3 
REMARK    2  A    between atoms: C3_3  and  N1_4 
REMARK    3  A    between atoms: N1_4  and  C4_5 
REMARK    4  A    between atoms: C9_12  and  C11_14 
REMARK    5  A    between atoms: C11_14  and  O1_15 
REMARK    6  A    between atoms: C12_16  and  O2_17 
REMARK    7  A    between atoms: C17_22  and  C18_23 
REMARK    8  A    between atoms: C18_23  and  C19_24 
REMARK       I    between atoms: C19_24  and  N3_26 
REMARK    9  A    between atoms: N3_26  and  C20_27 
REMARK   10  A    between atoms: C20_27  and  C22_29 
ROOT
HETATM    1  C4  UNL     1      -0.006  52.718 -24.727  1.00  0.00     0.145 A 
HETATM    2  N2  UNL     1       0.129  52.518 -23.433  1.00  0.00    -0.339 N 
ATOM      3  H2  UNL     1       1.010  52.591 -22.924  1.00  0.00     0.168 HD
HETATM    4  C5  UNL     1      -1.083  52.198 -22.858  1.00  0.00     0.030 A 
HETATM    5  C6  UNL     1      -2.144  52.178 -23.724  1.00  0.00     0.009 A 
HETATM    6  C7  UNL     1      -3.531  51.774 -23.398  1.00  0.00     0.054 C 
HETATM    7  C8  UNL     1      -3.734  51.199 -21.942  1.00  0.00     0.012 C 
HETATM    8  C9  UNL     1      -4.900  50.105 -21.973  1.00  0.00     0.008 C 
HETATM    9  C10 UNL     1      -6.084  50.567 -22.881  1.00  0.00     0.020 C 
HETATM   10  C12 UNL     1      -4.319  48.787 -22.571  1.00  0.00     0.128 C 
HETATM   11  C13 UNL     1      -3.048  48.309 -21.874  1.00  0.00     0.033 C 
HETATM   12  C14 UNL     1      -1.933  49.365 -21.866  1.00  0.00     0.013 C 
HETATM   13  C15 UNL     1      -2.364  50.721 -21.238  1.00  0.00    -0.030 C 
HETATM   14  C16 UNL     1      -2.525  50.503 -19.711  1.00  0.00     0.016 C 
HETATM   15  C17 UNL     1      -1.249  51.869 -21.406  1.00  0.00     0.054 C 
HETATM   16  S1  UNL     1      -1.634  52.595 -25.291  1.00  0.00    -0.057 SA
ENDROOT
BRANCH  15  17
HETATM   17  C18 UNL     1       0.112  51.615 -20.710  1.00  0.00     0.114 C 
BRANCH  17  18
HETATM   18  C19 UNL     1       0.238  52.325 -19.370  1.00  0.00     0.218 C 
HETATM   19  O3  UNL     1      -0.063  53.500 -19.183  1.00  0.00    -0.274 OA
HETATM   20  N3  UNL     1       0.720  51.509 -18.371  1.00  0.00    -0.353 N 
HETATM   21  H28 UNL     1       1.075  50.592 -18.611  1.00  0.00     0.163 HD
BRANCH  20  22
HETATM   22  C20 UNL     1       0.960  52.003 -17.025  1.00  0.00     0.113 C 
HETATM   23  C21 UNL     1       2.367  52.594 -16.893  1.00  0.00     0.037 C 
BRANCH  22  24
HETATM   24  C22 UNL     1       0.658  50.893 -16.031  1.00  0.00    -0.036 A 
HETATM   25  C23 UNL     1       0.674  51.183 -14.656  1.00  0.00     0.009 A 
HETATM   26  C24 UNL     1       0.368  50.198 -13.716  1.00  0.00     0.001 A 
HETATM   27  C25 UNL     1       0.034  48.915 -14.136  1.00  0.00     0.000 A 
HETATM   28  C26 UNL     1       0.009  48.614 -15.495  1.00  0.00     0.001 A 
HETATM   29  C27 UNL     1       0.311  49.598 -16.439  1.00  0.00     0.009 A 
ENDBRANCH  22  24
ENDBRANCH  20  22
ENDBRANCH  17  18
ENDBRANCH  15  17
BRANCH   1  30
HETATM   30  N1  UNL     1       1.071  52.961 -25.505  1.00  0.00    -0.367 N 
HETATM   31  H6  UNL     1       1.011  53.818 -26.047  1.00  0.00     0.161 HD
BRANCH  30  32
HETATM   32  C3  UNL     1       1.889  51.925 -26.077  1.00  0.00     0.148 C 
BRANCH  32  33
HETATM   33  C2  UNL     1       1.083  51.314 -27.183  1.00  0.00    -0.018 C 
HETATM   34  C1  UNL     1       0.912  51.844 -28.403  1.00  0.00     0.008 C 
ENDBRANCH  32  33
ENDBRANCH  30  32
ENDBRANCH   1  30
BRANCH   8  35
HETATM   35  C11 UNL     1      -5.556  49.912 -20.574  1.00  0.00     0.176 C 
BRANCH  35  36
HETATM   36  O1  UNL     1      -6.802  50.613 -20.480  1.00  0.00    -0.400 OA
HETATM   37  H15 UNL     1      -7.144  50.471 -19.576  1.00  0.00     0.209 HD
ENDBRANCH  35  36
ENDBRANCH   8  35
BRANCH  10  38
HETATM   38  O2  UNL     1      -5.270  47.723 -22.586  1.00  0.00    -0.395 OA
HETATM   39  H17 UNL     1      -5.779  47.791 -21.750  1.00  0.00     0.210 HD
ENDBRANCH  10  38
TORSDOF 10
ENDMDL
MODEL 5
REMARK minimizedAffinity -8.44318295
REMARK  10 active torsions:
REMARK  status: ('A' for Active; 'I' for Inactive)
REMARK    1  A    between atoms: C2_2  and  C3_3 
REMARK    2  A    between atoms: C3_3  and  N1_4 
REMARK    3  A    between atoms: N1_4  and  C4_5 
REMARK    4  A    between atoms: C9_12  and  C11_14 
REMARK    5  A    between atoms: C11_14  and  O1_15 
REMARK    6  A    between atoms: C12_16  and  O2_17 
REMARK    7  A    between atoms: C17_22  and  C18_23 
REMARK    8  A    between atoms: C18_23  and  C19_24 
REMARK       I    between atoms: C19_24  and  N3_26 
REMARK    9  A    between atoms: N3_26  and  C20_27 
REMARK   10  A    between atoms: C20_27  and  C22_29 
ROOT
HETATM    1  C4  UNL     1      -2.492  50.018 -26.127  1.00  0.00     0.145 A 
HETATM    2  N2  UNL     1      -3.044  50.753 -25.185  1.00  0.00    -0.339 N 
ATOM      3  H2  UNL     1      -2.659  51.630 -24.834  1.00  0.00     0.168 HD
HETATM    4  C5  UNL     1      -4.214  50.176 -24.736  1.00  0.00     0.030 A 
HETATM    5  C6  UNL     1      -4.558  49.007 -25.362  1.00  0.00     0.009 A 
HETATM    6  C7  UNL     1      -5.701  48.134 -25.015  1.00  0.00     0.054 C 
HETATM    7  C8  UNL     1      -6.496  48.557 -23.719  1.00  0.00     0.012 C 
HETATM    8  C9  UNL     1      -7.068  47.244 -23.007  1.00  0.00     0.008 C 
HETATM    9  C10 UNL     1      -7.626  46.231 -24.057  1.00  0.00     0.020 C 
HETATM   10  C12 UNL     1      -5.898  46.553 -22.242  1.00  0.00     0.128 C 
HETATM   11  C13 UNL     1      -5.152  47.487 -21.294  1.00  0.00     0.033 C 
HETATM   12  C14 UNL     1      -4.596  48.736 -21.995  1.00  0.00     0.013 C 
HETATM   13  C15 UNL     1      -5.676  49.557 -22.755  1.00  0.00    -0.030 C 
HETATM   14  C16 UNL     1      -6.582  50.237 -21.696  1.00  0.00     0.016 C 
HETATM   15  C17 UNL     1      -5.050  50.751 -23.634  1.00  0.00     0.054 C 
HETATM   16  S1  UNL     1      -3.415  48.623 -26.561  1.00  0.00    -0.057 SA
ENDROOT
BRANCH  15  17
HETATM   17  C18 UNL     1      -4.298  51.859 -22.854  1.00  0.00     0.114 C 
BRANCH  17  18
HETATM   18  C19 UNL     1      -3.226  51.311 -21.923  1.00  0.00     0.218 C 
HETATM   19  O3  UNL     1      -3.367  51.184 -20.711  1.00  0.00    -0.274 OA
HETATM   20  N3  UNL     1      -2.070  50.956 -22.582  1.00  0.00    -0.353 N 
HETATM   21  H28 UNL     1      -1.962  51.205 -23.558  1.00  0.00     0.163 HD
BRANCH  20  22
HETATM   22  C20 UNL     1      -0.905  50.453 -21.873  1.00  0.00     0.113 C 
HETATM   23  C21 UNL     1      -1.297  49.374 -20.858  1.00  0.00     0.037 C 
BRANCH  22  24
HETATM   24  C22 UNL     1      -0.149  51.626 -21.270  1.00  0.00    -0.036 A 
HETATM   25  C23 UNL     1       0.484  52.544 -22.124  1.00  0.00     0.009 A 
HETATM   26  C24 UNL     1       1.157  53.652 -21.608  1.00  0.00     0.001 A 
HETATM   27  C25 UNL     1       1.200  53.862 -20.234  1.00  0.00     0.000 A 
HETATM   28  C26 UNL     1       0.573  52.963 -19.375  1.00  0.00     0.001 A 
HETATM   29  C27 UNL     1      -0.105  51.856 -19.888  1.00  0.00     0.009 A 
ENDBRANCH  22  24
ENDBRANCH  20  22
ENDBRANCH  17  18
ENDBRANCH  15  17
BRANCH   1  30
HETATM   30  N1  UNL     1      -1.294  50.351 -26.651  1.00  0.00    -0.367 N 
HETATM   31  H6  UNL     1      -1.021  49.798 -27.459  1.00  0.00     0.161 HD
BRANCH  30  32
HETATM   32  C3  UNL     1      -0.207  50.886 -25.875  1.00  0.00     0.148 C 
BRANCH  32  33
HETATM   33  C2  UNL     1       0.887  51.207 -26.848  1.00  0.00    -0.018 C 
HETATM   34  C1  UNL     1       2.161  51.474 -26.524  1.00  0.00     0.008 C 
ENDBRANCH  32  33
ENDBRANCH  30  32
ENDBRANCH   1  30
BRANCH   8  35
HETATM   35  C11 UNL     1      -8.297  47.559 -22.104  1.00  0.00     0.176 C 
BRANCH  35  36
HETATM   36  O1  UNL     1      -8.122  48.789 -21.392  1.00  0.00    -0.400 OA
HETATM   37  H15 UNL     1      -8.912  48.911 -20.831  1.00  0.00     0.209 HD
ENDBRANCH  35  36
ENDBRANCH   8  35
BRANCH  10  38
HETATM   38  O2  UNL     1      -6.321  45.396 -21.519  1.00  0.00    -0.395 OA
HETATM   39  H17 UNL     1      -7.200  45.610 -21.139  1.00  0.00     0.210 HD
ENDBRANCH  10  38
TORSDOF 10
ENDMDL
MODEL 6
REMARK minimizedAffinity -8.43767166
REMARK  10 active torsions:
REMARK  status: ('A' for Active; 'I' for Inactive)
REMARK    1  A    between atoms: C2_2  and  C3_3 
REMARK    2  A    between atoms: C3_3  and  N1_4 
REMARK    3  A    between atoms: N1_4  and  C4_5 
REMARK    4  A    between atoms: C9_12  and  C11_14 
REMARK    5  A    between atoms: C11_14  and  O1_15 
REMARK    6  A    between atoms: C12_16  and  O2_17 
REMARK    7  A    between atoms: C17_22  and  C18_23 
REMARK    8  A    between atoms: C18_23  and  C19_24 
REMARK       I    between atoms: C19_24  and  N3_26 
REMARK    9  A    between atoms: N3_26  and  C20_27 
REMARK   10  A    between atoms: C20_27  and  C22_29 
ROOT
HETATM    1  C4  UNL     1      -0.682  51.303 -19.923  1.00  0.00     0.145 A 
HETATM    2  N2  UNL     1      -1.316  51.617 -21.032  1.00  0.00    -0.339 N 
ATOM      3  H2  UNL     1      -1.232  52.511 -21.515  1.00  0.00     0.168 HD
HETATM    4  C5  UNL     1      -2.110  50.571 -21.454  1.00  0.00     0.030 A 
HETATM    5  C6  UNL     1      -2.057  49.451 -20.667  1.00  0.00     0.009 A 
HETATM    6  C7  UNL     1      -2.874  48.228 -20.830  1.00  0.00     0.054 C 
HETATM    7  C8  UNL     1      -3.986  48.312 -21.947  1.00  0.00     0.012 C 
HETATM    8  C9  UNL     1      -5.233  47.413 -21.508  1.00  0.00     0.008 C 
HETATM    9  C10 UNL     1      -4.762  46.065 -20.873  1.00  0.00     0.020 C 
HETATM   10  C12 UNL     1      -6.047  48.195 -20.431  1.00  0.00     0.128 C 
HETATM   11  C13 UNL     1      -6.432  49.607 -20.865  1.00  0.00     0.033 C 
HETATM   12  C14 UNL     1      -5.223  50.463 -21.269  1.00  0.00     0.013 C 
HETATM   13  C15 UNL     1      -4.350  49.821 -22.385  1.00  0.00    -0.030 C 
HETATM   14  C16 UNL     1      -5.160  49.877 -23.706  1.00  0.00     0.016 C 
HETATM   15  C17 UNL     1      -2.992  50.638 -22.664  1.00  0.00     0.054 C 
HETATM   16  S1  UNL     1      -0.970  49.688 -19.381  1.00  0.00    -0.057 SA
ENDROOT
BRANCH  15  17
HETATM   17  C18 UNL     1      -3.155  52.089 -23.183  1.00  0.00     0.114 C 
BRANCH  17  18
HETATM   18  C19 UNL     1      -3.008  52.202 -24.693  1.00  0.00     0.218 C 
HETATM   19  O3  UNL     1      -3.638  52.993 -25.388  1.00  0.00    -0.274 OA
HETATM   20  N3  UNL     1      -2.081  51.326 -25.211  1.00  0.00    -0.353 N 
HETATM   21  H28 UNL     1      -1.690  50.609 -24.612  1.00  0.00     0.163 HD
BRANCH  20  22
HETATM   22  C20 UNL     1      -1.820  51.239 -26.639  1.00  0.00     0.113 C 
HETATM   23  C21 UNL     1      -2.404  49.952 -27.232  1.00  0.00     0.037 C 
BRANCH  22  24
HETATM   24  C22 UNL     1      -0.330  51.412 -26.880  1.00  0.00    -0.036 A 
HETATM   25  C23 UNL     1       0.571  51.118 -25.842  1.00  0.00     0.009 A 
HETATM   26  C24 UNL     1       1.947  51.232 -26.039  1.00  0.00     0.001 A 
HETATM   27  C25 UNL     1       2.443  51.633 -27.274  1.00  0.00     0.000 A 
HETATM   28  C26 UNL     1       1.564  51.924 -28.314  1.00  0.00     0.001 A 
HETATM   29  C27 UNL     1       0.186  51.807 -28.122  1.00  0.00     0.009 A 
ENDBRANCH  22  24
ENDBRANCH  20  22
ENDBRANCH  17  18
ENDBRANCH  15  17
BRANCH   1  30
HETATM   30  N1  UNL     1       0.088  52.211 -19.285  1.00  0.00    -0.367 N 
HETATM   31  H6  UNL     1       0.176  52.057 -18.285  1.00  0.00     0.161 HD
BRANCH  30  32
HETATM   32  C3  UNL     1       0.226  53.577 -19.714  1.00  0.00     0.148 C 
BRANCH  32  33
HETATM   33  C2  UNL     1       1.449  53.626 -20.578  1.00  0.00    -0.018 C 
HETATM   34  C1  UNL     1       1.628  54.445 -21.625  1.00  0.00     0.008 C 
ENDBRANCH  32  33
ENDBRANCH  30  32
ENDBRANCH   1  30
BRANCH   8  35
HETATM   35  C11 UNL     1      -6.091  46.968 -22.729  1.00  0.00     0.176 C 
BRANCH  35  36
HETATM   36  O1  UNL     1      -7.182  46.132 -22.325  1.00  0.00    -0.400 OA
HETATM   37  H15 UNL     1      -7.659  45.871 -23.136  1.00  0.00     0.209 HD
ENDBRANCH  35  36
ENDBRANCH   8  35
BRANCH  10  38
HETATM   38  O2  UNL     1      -7.222  47.498 -20.015  1.00  0.00    -0.395 OA
HETATM   39  H17 UNL     1      -7.598  47.080 -20.819  1.00  0.00     0.210 HD
ENDBRANCH  10  38
TORSDOF 10
ENDMDL
MODEL 7
REMARK minimizedAffinity -8.40990448
REMARK  10 active torsions:
REMARK  status: ('A' for Active; 'I' for Inactive)
REMARK    1  A    between atoms: C2_2  and  C3_3 
REMARK    2  A    between atoms: C3_3  and  N1_4 
REMARK    3  A    between atoms: N1_4  and  C4_5 
REMARK    4  A    between atoms: C9_12  and  C11_14 
REMARK    5  A    between atoms: C11_14  and  O1_15 
REMARK    6  A    between atoms: C12_16  and  O2_17 
REMARK    7  A    between atoms: C17_22  and  C18_23 
REMARK    8  A    between atoms: C18_23  and  C19_24 
REMARK       I    between atoms: C19_24  and  N3_26 
REMARK    9  A    between atoms: N3_26  and  C20_27 
REMARK   10  A    between atoms: C20_27  and  C22_29 
ROOT
HETATM    1  C4  UNL     1      -1.490  52.256 -25.775  1.00  0.00     0.145 A 
HETATM    2  N2  UNL     1      -2.406  51.324 -25.616  1.00  0.00    -0.339 N 
ATOM      3  H2  UNL     1      -3.129  51.100 -26.300  1.00  0.00     0.168 HD
HETATM    4  C5  UNL     1      -2.255  50.692 -24.399  1.00  0.00     0.030 A 
HETATM    5  C6  UNL     1      -1.203  51.138 -23.644  1.00  0.00     0.009 A 
HETATM    6  C7  UNL     1      -0.870  50.707 -22.268  1.00  0.00     0.054 C 
HETATM    7  C8  UNL     1      -1.923  49.741 -21.598  1.00  0.00     0.012 C 
HETATM    8  C9  UNL     1      -1.945  50.009 -20.021  1.00  0.00     0.008 C 
HETATM    9  C10 UNL     1      -0.501  50.215 -19.463  1.00  0.00     0.020 C 
HETATM   10  C12 UNL     1      -2.756  51.315 -19.757  1.00  0.00     0.128 C 
HETATM   11  C13 UNL     1      -4.141  51.313 -20.398  1.00  0.00     0.033 C 
HETATM   12  C14 UNL     1      -4.102  51.070 -21.914  1.00  0.00     0.013 C 
HETATM   13  C15 UNL     1      -3.367  49.760 -22.316  1.00  0.00    -0.030 C 
HETATM   14  C16 UNL     1      -4.260  48.567 -21.886  1.00  0.00     0.016 C 
HETATM   15  C17 UNL     1      -3.173  49.616 -23.907  1.00  0.00     0.054 C 
HETATM   16  S1  UNL     1      -0.356  52.356 -24.475  1.00  0.00    -0.057 SA
ENDROOT
BRANCH  15  17
HETATM   17  C18 UNL     1      -4.468  49.526 -24.753  1.00  0.00     0.114 C 
BRANCH  17  18
HETATM   18  C19 UNL     1      -4.315  48.647 -25.986  1.00  0.00     0.218 C 
HETATM   19  O3  UNL     1      -3.251  48.160 -26.355  1.00  0.00    -0.274 OA
HETATM   20  N3  UNL     1      -5.503  48.439 -26.651  1.00  0.00    -0.353 N 
HETATM   21  H28 UNL     1      -6.321  48.970 -26.378  1.00  0.00     0.163 HD
BRANCH  20  22
HETATM   22  C20 UNL     1      -5.570  47.665 -27.879  1.00  0.00     0.113 C 
HETATM   23  C21 UNL     1      -5.058  48.476 -29.074  1.00  0.00     0.037 C 
BRANCH  22  24
HETATM   24  C22 UNL     1      -6.983  47.133 -28.051  1.00  0.00    -0.036 A 
HETATM   25  C23 UNL     1      -7.614  47.256 -29.301  1.00  0.00     0.009 A 
HETATM   26  C24 UNL     1      -8.897  46.748 -29.506  1.00  0.00     0.001 A 
HETATM   27  C25 UNL     1      -9.564  46.105 -28.469  1.00  0.00     0.000 A 
HETATM   28  C26 UNL     1      -8.951  45.971 -27.227  1.00  0.00     0.001 A 
HETATM   29  C27 UNL     1      -7.665  46.474 -27.019  1.00  0.00     0.009 A 
ENDBRANCH  22  24
ENDBRANCH  20  22
ENDBRANCH  17  18
ENDBRANCH  15  17
BRANCH   1  30
HETATM   30  N1  UNL     1      -1.501  53.059 -26.860  1.00  0.00    -0.367 N 
HETATM   31  H6  UNL     1      -2.322  52.955 -27.450  1.00  0.00     0.161 HD
BRANCH  30  32
HETATM   32  C3  UNL     1      -0.310  53.503 -27.534  1.00  0.00     0.148 C 
BRANCH  32  33
HETATM   33  C2  UNL     1       0.250  52.302 -28.234  1.00  0.00    -0.018 C 
HETATM   34  C1  UNL     1       1.484  51.806 -28.059  1.00  0.00     0.008 C 
ENDBRANCH  32  33
ENDBRANCH  30  32
ENDBRANCH   1  30
BRANCH   8  35
HETATM   35  C11 UNL     1      -2.479  48.779 -19.228  1.00  0.00     0.176 C 
BRANCH  35  36
HETATM   36  O1  UNL     1      -1.626  47.640 -19.393  1.00  0.00    -0.400 OA
HETATM   37  H15 UNL     1      -2.030  46.905 -18.894  1.00  0.00     0.209 HD
ENDBRANCH  35  36
ENDBRANCH   8  35
BRANCH  10  38
HETATM   38  O2  UNL     1      -2.886  51.610 -18.366  1.00  0.00    -0.395 OA
HETATM   39  H17 UNL     1      -3.026  50.753 -17.910  1.00  0.00     0.210 HD
ENDBRANCH  10  38
TORSDOF 10
ENDMDL
MODEL 8
REMARK minimizedAffinity -8.17371082
REMARK  10 active torsions:
REMARK  status: ('A' for Active; 'I' for Inactive)
REMARK    1  A    between atoms: C2_2  and  C3_3 
REMARK    2  A    between atoms: C3_3  and  N1_4 
REMARK    3  A    between atoms: N1_4  and  C4_5 
REMARK    4  A    between atoms: C9_12  and  C11_14 
REMARK    5  A    between atoms: C11_14  and  O1_15 
REMARK    6  A    between atoms: C12_16  and  O2_17 
REMARK    7  A    between atoms: C17_22  and  C18_23 
REMARK    8  A    between atoms: C18_23  and  C19_24 
REMARK       I    between atoms: C19_24  and  N3_26 
REMARK    9  A    between atoms: N3_26  and  C20_27 
REMARK   10  A    between atoms: C20_27  and  C22_29 
ROOT
HETATM    1  C4  UNL     1      -7.165  47.693 -22.951  1.00  0.00     0.145 A 
HETATM    2  N2  UNL     1      -6.050  47.862 -22.274  1.00  0.00    -0.339 N 
ATOM      3  H2  UNL     1      -5.961  47.744 -21.265  1.00  0.00     0.168 HD
HETATM    4  C5  UNL     1      -5.017  48.223 -23.114  1.00  0.00     0.030 A 
HETATM    5  C6  UNL     1      -5.353  48.303 -24.439  1.00  0.00     0.009 A 
HETATM    6  C7  UNL     1      -4.472  48.759 -25.538  1.00  0.00     0.054 C 
HETATM    7  C8  UNL     1      -3.067  49.315 -25.081  1.00  0.00     0.012 C 
HETATM    8  C9  UNL     1      -2.604  50.458 -26.100  1.00  0.00     0.008 C 
HETATM    9  C10 UNL     1      -2.926  50.062 -27.576  1.00  0.00     0.020 C 
HETATM   10  C12 UNL     1      -3.394  51.761 -25.766  1.00  0.00     0.128 C 
HETATM   11  C13 UNL     1      -3.300  52.173 -24.299  1.00  0.00     0.033 C 
HETATM   12  C14 UNL     1      -3.762  51.070 -23.335  1.00  0.00     0.013 C 
HETATM   13  C15 UNL     1      -3.009  49.722 -23.522  1.00  0.00    -0.030 C 
HETATM   14  C16 UNL     1      -1.558  49.919 -23.013  1.00  0.00     0.016 C 
HETATM   15  C17 UNL     1      -3.631  48.532 -22.636  1.00  0.00     0.054 C 
HETATM   16  S1  UNL     1      -6.989  47.894 -24.658  1.00  0.00    -0.057 SA
ENDROOT
BRANCH  15  17
HETATM   17  C18 UNL     1      -3.576  48.716 -21.099  1.00  0.00     0.114 C 
BRANCH  17  18
HETATM   18  C19 UNL     1      -2.155  48.770 -20.555  1.00  0.00     0.218 C 
HETATM   19  O3  UNL     1      -1.361  47.837 -20.614  1.00  0.00    -0.274 OA
HETATM   20  N3  UNL     1      -1.840  49.986 -19.992  1.00  0.00    -0.353 N 
HETATM   21  H28 UNL     1      -2.573  50.671 -19.853  1.00  0.00     0.163 HD
BRANCH  20  22
HETATM   22  C20 UNL     1      -0.548  50.234 -19.373  1.00  0.00     0.113 C 
HETATM   23  C21 UNL     1      -0.636  50.130 -17.846  1.00  0.00     0.037 C 
BRANCH  22  24
HETATM   24  C22 UNL     1      -0.007  51.563 -19.874  1.00  0.00    -0.036 A 
HETATM   25  C23 UNL     1      -0.125  52.702 -19.058  1.00  0.00     0.009 A 
HETATM   26  C24 UNL     1       0.391  53.930 -19.469  1.00  0.00     0.001 A 
HETATM   27  C25 UNL     1       1.038  54.038 -20.696  1.00  0.00     0.000 A 
HETATM   28  C26 UNL     1       1.167  52.918 -21.513  1.00  0.00     0.001 A 
HETATM   29  C27 UNL     1       0.655  51.685 -21.103  1.00  0.00     0.009 A 
ENDBRANCH  22  24
ENDBRANCH  20  22
ENDBRANCH  17  18
ENDBRANCH  15  17
BRANCH   1  30
HETATM   30  N1  UNL     1      -8.325  47.419 -22.317  1.00  0.00    -0.367 N 
HETATM   31  H6  UNL     1      -8.811  48.237 -21.960  1.00  0.00     0.161 HD
BRANCH  30  32
HETATM   32  C3  UNL     1      -8.571  46.195 -21.602  1.00  0.00     0.148 C 
BRANCH  32  33
HETATM   33  C2  UNL     1      -9.496  46.544 -20.475  1.00  0.00    -0.018 C 
HETATM   34  C1  UNL     1     -10.832  46.618 -20.563  1.00  0.00     0.008 C 
ENDBRANCH  32  33
ENDBRANCH  30  32
ENDBRANCH   1  30
BRANCH   8  35
HETATM   35  C11 UNL     1      -1.059  50.653 -26.095  1.00  0.00     0.176 C 
BRANCH  35  36
HETATM   36  O1  UNL     1      -0.584  51.099 -27.370  1.00  0.00    -0.400 OA
HETATM   37  H15 UNL     1       0.387  51.176 -27.304  1.00  0.00     0.209 HD
ENDBRANCH  35  36
ENDBRANCH   8  35
BRANCH  10  38
HETATM   38  O2  UNL     1      -3.006  52.864 -26.586  1.00  0.00    -0.395 OA
HETATM   39  H17 UNL     1      -2.034  52.802 -26.696  1.00  0.00     0.210 HD
ENDBRANCH  10  38
TORSDOF 10
ENDMDL
MODEL 9
REMARK minimizedAffinity -8.16977024
REMARK  10 active torsions:
REMARK  status: ('A' for Active; 'I' for Inactive)
REMARK    1  A    between atoms: C2_2  and  C3_3 
REMARK    2  A    between atoms: C3_3  and  N1_4 
REMARK    3  A    between atoms: N1_4  and  C4_5 
REMARK    4  A    between atoms: C9_12  and  C11_14 
REMARK    5  A    between atoms: C11_14  and  O1_15 
REMARK    6  A    between atoms: C12_16  and  O2_17 
REMARK    7  A    between atoms: C17_22  and  C18_23 
REMARK    8  A    between atoms: C18_23  and  C19_24 
REMARK       I    between atoms: C19_24  and  N3_26 
REMARK    9  A    between atoms: N3_26  and  C20_27 
REMARK   10  A    between atoms: C20_27  and  C22_29 
ROOT
HETATM    1  C4  UNL     1       0.412  51.701 -18.076  1.00  0.00     0.145 A 
HETATM    2  N2  UNL     1       0.009  51.785 -19.326  1.00  0.00    -0.339 N 
ATOM      3  H2  UNL     1       0.209  52.569 -19.947  1.00  0.00     0.168 HD
HETATM    4  C5  UNL     1      -0.721  50.670 -19.680  1.00  0.00     0.030 A 
HETATM    5  C6  UNL     1      -0.850  49.727 -18.695  1.00  0.00     0.009 A 
HETATM    6  C7  UNL     1      -1.657  48.489 -18.771  1.00  0.00     0.054 C 
HETATM    7  C8  UNL     1      -2.535  48.342 -20.075  1.00  0.00     0.012 C 
HETATM    8  C9  UNL     1      -3.868  47.535 -19.716  1.00  0.00     0.008 C 
HETATM    9  C10 UNL     1      -3.565  46.343 -18.752  1.00  0.00     0.020 C 
HETATM   10  C12 UNL     1      -4.847  48.507 -18.988  1.00  0.00     0.128 C 
HETATM   11  C13 UNL     1      -5.103  49.802 -19.753  1.00  0.00     0.033 C 
HETATM   12  C14 UNL     1      -3.814  50.573 -20.077  1.00  0.00     0.013 C 
HETATM   13  C15 UNL     1      -2.765  49.732 -20.859  1.00  0.00    -0.030 C 
HETATM   14  C16 UNL     1      -3.308  49.520 -22.296  1.00  0.00     0.016 C 
HETATM   15  C17 UNL     1      -1.355  50.491 -21.026  1.00  0.00     0.054 C 
HETATM   16  S1  UNL     1      -0.020  50.221 -17.296  1.00  0.00    -0.057 SA
ENDROOT
BRANCH  15  17
HETATM   17  C18 UNL     1      -1.375  51.810 -21.838  1.00  0.00     0.114 C 
BRANCH  17  18
HETATM   18  C19 UNL     1      -0.640  51.703 -23.166  1.00  0.00     0.218 C 
HETATM   19  O3  UNL     1       0.525  52.048 -23.337  1.00  0.00    -0.274 OA
HETATM   20  N3  UNL     1      -1.415  51.166 -24.170  1.00  0.00    -0.353 N 
HETATM   21  H28 UNL     1      -2.404  51.023 -24.007  1.00  0.00     0.163 HD
BRANCH  20  22
HETATM   22  C20 UNL     1      -0.919  51.019 -25.529  1.00  0.00     0.113 C 
HETATM   23  C21 UNL     1      -0.475  52.367 -26.105  1.00  0.00     0.037 C 
BRANCH  22  24
HETATM   24  C22 UNL     1      -1.968  50.303 -26.363  1.00  0.00    -0.036 A 
HETATM   25  C23 UNL     1      -2.498  50.946 -27.495  1.00  0.00     0.009 A 
HETATM   26  C24 UNL     1      -3.436  50.306 -28.305  1.00  0.00     0.001 A 
HETATM   27  C25 UNL     1      -3.852  49.015 -28.000  1.00  0.00     0.000 A 
HETATM   28  C26 UNL     1      -3.333  48.363 -26.885  1.00  0.00     0.001 A 
HETATM   29  C27 UNL     1      -2.390  48.999 -26.074  1.00  0.00     0.009 A 
ENDBRANCH  22  24
ENDBRANCH  20  22
ENDBRANCH  17  18
ENDBRANCH  15  17
BRANCH   1  30
HETATM   30  N1  UNL     1       1.073  52.723 -17.492  1.00  0.00    -0.367 N 
HETATM   31  H6  UNL     1       1.649  53.268 -18.128  1.00  0.00     0.161 HD
BRANCH  30  32
HETATM   32  C3  UNL     1       1.513  52.708 -16.122  1.00  0.00     0.148 C 
BRANCH  32  33
HETATM   33  C2  UNL     1       2.910  52.166 -16.134  1.00  0.00    -0.018 C 
HETATM   34  C1  UNL     1       4.029  52.906 -16.155  1.00  0.00     0.008 C 
ENDBRANCH  32  33
ENDBRANCH  30  32
ENDBRANCH   1  30
BRANCH   8  35
HETATM   35  C11 UNL     1      -4.492  46.852 -20.969  1.00  0.00     0.176 C 
BRANCH  35  36
HETATM   36  O1  UNL     1      -4.390  45.425 -20.891  1.00  0.00    -0.400 OA
HETATM   37  H15 UNL     1      -4.775  45.065 -21.713  1.00  0.00     0.209 HD
ENDBRANCH  35  36
ENDBRANCH   8  35
BRANCH  10  38
HETATM   38  O2  UNL     1      -6.100  47.895 -18.677  1.00  0.00    -0.395 OA
HETATM   39  H17 UNL     1      -6.329  47.324 -19.441  1.00  0.00     0.210 HD
ENDBRANCH  10  38
TORSDOF 10
ENDMDL
