MODEL 1
REMARK minimizedAffinity -6.66681767
REMARK CNNscore 0.609237731
REMARK CNNaffinity 6.40696192
REMARK  6 active torsions:
REMARK  status: ('A' for Active; 'I' for Inactive)
REMARK    1  A    between atoms: C4_4  and  C5_5 
REMARK    2  A    between atoms: C5_5  and  C6_6 
REMARK    3  A    between atoms: C6_6  and  C7_7 
REMARK    4  A    between atoms: C7_7  and  C9_9 
REMARK    5  A    between atoms: C24_24  and  O1_25 
REMARK    6  A    between atoms: C27_28  and  O2_29 
ROOT
HETATM    1  C9  UNL     1      -1.910  11.047  16.557  1.00  0.00    -0.002 C 
HETATM    2  C10 UNL     1      -0.818  10.869  17.645  1.00  0.00     0.007 C 
HETATM    3  C11 UNL     1       0.350  10.099  16.985  1.00  0.00     0.015 C 
HETATM    4  C12 UNL     1       0.068  10.172  15.472  1.00  0.00    -0.013 C 
HETATM    5  C13 UNL     1       0.609  11.549  14.975  1.00  0.00     0.021 C 
HETATM    6  C14 UNL     1       0.698   9.152  14.527  1.00  0.00    -0.065 C 
HETATM    7  C15 UNL     1       0.079   8.840  13.357  1.00  0.00    -0.068 C 
HETATM    8  C16 UNL     1      -1.325   9.375  13.022  1.00  0.00     0.036 C 
HETATM    9  C17 UNL     1      -2.006  10.294  14.059  1.00  0.00     0.015 C 
HETATM   10  C18 UNL     1      -1.499  10.006  15.475  1.00  0.00    -0.029 C 
HETATM   11  C19 UNL     1      -1.942   8.567  15.870  1.00  0.00     0.016 C 
HETATM   12  C20 UNL     1       0.709   7.853  12.337  1.00  0.00    -0.014 C 
HETATM   13  C21 UNL     1      -0.038   6.508  12.538  1.00  0.00     0.020 C 
HETATM   14  C22 UNL     1       0.530   8.354  10.868  1.00  0.00     0.016 C 
HETATM   15  C23 UNL     1       1.712   8.086   9.922  1.00  0.00     0.033 C 
HETATM   16  C24 UNL     1       2.434   6.779  10.198  1.00  0.00     0.118 C 
HETATM   17  C25 UNL     1       2.909   6.672  11.652  1.00  0.00     0.039 C 
HETATM   18  C26 UNL     1       2.238   7.701  12.592  1.00  0.00     0.029 C 
HETATM   19  C27 UNL     1       2.541   7.421  14.066  1.00  0.00     0.127 C 
HETATM   20  C28 UNL     1       2.026   8.565  14.946  1.00  0.00     0.067 C 
ENDROOT
BRANCH   1  21
HETATM   21  C7  UNL     1      -3.373  11.153  17.073  1.00  0.00    -0.014 C 
HETATM   22  C8  UNL     1      -4.300   9.975  16.742  1.00  0.00     0.010 C 
BRANCH  21  23
HETATM   23  C6  UNL     1      -3.429  11.347  18.615  1.00  0.00     0.008 C 
BRANCH  23  24
HETATM   24  C5  UNL     1      -3.621  12.796  19.079  1.00  0.00     0.028 C 
BRANCH  24  25
HETATM   25  C4  UNL     1      -4.853  12.919  19.936  1.00  0.00    -0.025 C 
HETATM   26  C2  UNL     1      -6.019  13.525  19.637  1.00  0.00    -0.091 C 
HETATM   27  C1  UNL     1      -7.160  13.515  20.621  1.00  0.00     0.042 C 
HETATM   28  C3  UNL     1      -6.317  14.246  18.352  1.00  0.00     0.042 C 
ENDBRANCH  24  25
ENDBRANCH  23  24
ENDBRANCH  21  23
ENDBRANCH   1  21
BRANCH  19  29
HETATM   29  O2  UNL     1       3.950   7.274  14.271  1.00  0.00    -0.395 OA
HETATM   30  H44 UNL     1       4.377   8.104  13.999  1.00  0.00     0.210 HD
ENDBRANCH  19  29
BRANCH  16  31
HETATM   31  O1  UNL     1       1.572   5.689   9.889  1.00  0.00    -0.396 OA
HETATM   32  H39 UNL     1       1.344   5.751   8.946  1.00  0.00     0.210 HD
ENDBRANCH  16  31
TORSDOF 6
ENDMDL
MODEL 2
REMARK minimizedAffinity -7.75399494
REMARK CNNscore 0.51432234
REMARK CNNaffinity 6.68005323
REMARK  6 active torsions:
REMARK  status: ('A' for Active; 'I' for Inactive)
REMARK    1  A    between atoms: C4_4  and  C5_5 
REMARK    2  A    between atoms: C5_5  and  C6_6 
REMARK    3  A    between atoms: C6_6  and  C7_7 
REMARK    4  A    between atoms: C7_7  and  C9_9 
REMARK    5  A    between atoms: C24_24  and  O1_25 
REMARK    6  A    between atoms: C27_28  and  O2_29 
ROOT
HETATM    1  C9  UNL     1      -2.462   8.995  15.176  1.00  0.00    -0.002 C 
HETATM    2  C10 UNL     1      -1.419   8.805  16.309  1.00  0.00     0.007 C 
HETATM    3  C11 UNL     1      -0.079   8.443  15.627  1.00  0.00     0.015 C 
HETATM    4  C12 UNL     1      -0.286   8.784  14.139  1.00  0.00    -0.013 C 
HETATM    5  C13 UNL     1      -0.026  10.315  13.983  1.00  0.00     0.021 C 
HETATM    6  C14 UNL     1       0.598   8.138  13.076  1.00  0.00    -0.065 C 
HETATM    7  C15 UNL     1       0.125   7.970  11.812  1.00  0.00    -0.068 C 
HETATM    8  C16 UNL     1      -1.340   8.277  11.454  1.00  0.00     0.036 C 
HETATM    9  C17 UNL     1      -2.258   8.797  12.581  1.00  0.00     0.015 C 
HETATM   10  C18 UNL     1      -1.779   8.315  13.954  1.00  0.00    -0.029 C 
HETATM   11  C19 UNL     1      -1.925   6.766  14.008  1.00  0.00     0.016 C 
HETATM   12  C20 UNL     1       1.006   7.372  10.682  1.00  0.00    -0.014 C 
HETATM   13  C21 UNL     1       0.554   5.895  10.535  1.00  0.00     0.020 C 
HETATM   14  C22 UNL     1       0.805   8.133   9.333  1.00  0.00     0.016 C 
HETATM   15  C23 UNL     1       2.067   8.315   8.473  1.00  0.00     0.033 C 
HETATM   16  C24 UNL     1       3.036   7.148   8.552  1.00  0.00     0.118 C 
HETATM   17  C25 UNL     1       3.442   6.825   9.995  1.00  0.00     0.039 C 
HETATM   18  C26 UNL     1       2.516   7.473  11.051  1.00  0.00     0.029 C 
HETATM   19  C27 UNL     1       2.792   6.947  12.462  1.00  0.00     0.127 C 
HETATM   20  C28 UNL     1       1.996   7.748  13.498  1.00  0.00     0.067 C 
ENDROOT
BRANCH   1  21
HETATM   21  C7  UNL     1      -3.940   8.696  15.556  1.00  0.00    -0.014 C 
HETATM   22  C8  UNL     1      -4.757   9.876  16.100  1.00  0.00     0.010 C 
BRANCH  21  23
HETATM   23  C6  UNL     1      -4.739   8.116  14.354  1.00  0.00     0.008 C 
BRANCH  23  24
HETATM   24  C5  UNL     1      -6.194   7.745  14.662  1.00  0.00     0.028 C 
BRANCH  24  25
HETATM   25  C4  UNL     1      -6.674   6.664  13.730  1.00  0.00    -0.025 C 
HETATM   26  C2  UNL     1      -7.932   6.211  13.556  1.00  0.00    -0.091 C 
HETATM   27  C1  UNL     1      -8.224   5.135  12.542  1.00  0.00     0.042 C 
HETATM   28  C3  UNL     1      -9.141   6.698  14.305  1.00  0.00     0.042 C 
ENDBRANCH  24  25
ENDBRANCH  23  24
ENDBRANCH  21  23
ENDBRANCH   1  21
BRANCH  19  29
HETATM   29  O2  UNL     1       4.185   7.041  12.771  1.00  0.00    -0.395 OA
HETATM   30  H44 UNL     1       4.440   7.977  12.714  1.00  0.00     0.210 HD
ENDBRANCH  19  29
BRANCH  16  31
HETATM   31  O1  UNL     1       2.445   6.002   7.948  1.00  0.00    -0.396 OA
HETATM   32  H39 UNL     1       2.261   6.220   7.018  1.00  0.00     0.210 HD
ENDBRANCH  16  31
TORSDOF 6
ENDMDL
MODEL 3
REMARK minimizedAffinity -6.97893047
REMARK CNNscore 0.502800107
REMARK CNNaffinity 6.45335245
REMARK  6 active torsions:
REMARK  status: ('A' for Active; 'I' for Inactive)
REMARK    1  A    between atoms: C4_4  and  C5_5 
REMARK    2  A    between atoms: C5_5  and  C6_6 
REMARK    3  A    between atoms: C6_6  and  C7_7 
REMARK    4  A    between atoms: C7_7  and  C9_9 
REMARK    5  A    between atoms: C24_24  and  O1_25 
REMARK    6  A    between atoms: C27_28  and  O2_29 
ROOT
HETATM    1  C9  UNL     1      -0.510  12.975  17.459  1.00  0.00    -0.002 C 
HETATM    2  C10 UNL     1       0.694  12.942  16.480  1.00  0.00     0.007 C 
HETATM    3  C11 UNL     1       0.360  11.890  15.397  1.00  0.00     0.015 C 
HETATM    4  C12 UNL     1      -1.147  11.612  15.564  1.00  0.00    -0.013 C 
HETATM    5  C13 UNL     1      -1.904  12.740  14.795  1.00  0.00     0.021 C 
HETATM    6  C14 UNL     1      -1.749  10.316  15.030  1.00  0.00    -0.065 C 
HETATM    7  C15 UNL     1      -2.866   9.799  15.610  1.00  0.00    -0.068 C 
HETATM    8  C16 UNL     1      -3.459  10.405  16.893  1.00  0.00     0.036 C 
HETATM    9  C17 UNL     1      -2.749  11.634  17.500  1.00  0.00     0.015 C 
HETATM   10  C18 UNL     1      -1.262  11.652  17.135  1.00  0.00    -0.029 C 
HETATM   11  C19 UNL     1      -0.578  10.427  17.810  1.00  0.00     0.016 C 
HETATM   12  C20 UNL     1      -3.549   8.515  15.065  1.00  0.00    -0.014 C 
HETATM   13  C21 UNL     1      -3.106   7.370  16.014  1.00  0.00     0.020 C 
HETATM   14  C22 UNL     1      -5.106   8.647  15.071  1.00  0.00     0.016 C 
HETATM   15  C23 UNL     1      -5.836   8.002  13.881  1.00  0.00     0.033 C 
HETATM   16  C24 UNL     1      -5.181   6.727  13.379  1.00  0.00     0.118 C 
HETATM   17  C25 UNL     1      -3.704   6.932  13.022  1.00  0.00     0.039 C 
HETATM   18  C26 UNL     1      -3.112   8.240  13.596  1.00  0.00     0.029 C 
HETATM   19  C27 UNL     1      -1.591   8.307  13.435  1.00  0.00     0.127 C 
HETATM   20  C28 UNL     1      -1.069   9.691  13.834  1.00  0.00     0.067 C 
ENDROOT
BRANCH   1  21
HETATM   21  C7  UNL     1      -0.185  13.392  18.922  1.00  0.00    -0.014 C 
HETATM   22  C8  UNL     1      -1.226  14.271  19.628  1.00  0.00     0.010 C 
BRANCH  21  23
HETATM   23  C6  UNL     1       0.049  12.155  19.836  1.00  0.00     0.008 C 
BRANCH  23  24
HETATM   24  C5  UNL     1       1.506  11.928  20.257  1.00  0.00     0.028 C 
BRANCH  24  25
HETATM   25  C4  UNL     1       1.686  10.541  20.816  1.00  0.00    -0.025 C 
HETATM   26  C2  UNL     1       2.423  10.161  21.880  1.00  0.00    -0.091 C 
HETATM   27  C1  UNL     1       2.452   8.718  22.312  1.00  0.00     0.042 C 
HETATM   28  C3  UNL     1       3.260  11.077  22.727  1.00  0.00     0.042 C 
ENDBRANCH  24  25
ENDBRANCH  23  24
ENDBRANCH  21  23
ENDBRANCH   1  21
BRANCH  19  29
HETATM   29  O2  UNL     1      -1.217   8.040  12.080  1.00  0.00    -0.395 OA
HETATM   30  H44 UNL     1      -1.635   8.713  11.518  1.00  0.00     0.210 HD
ENDBRANCH  19  29
BRANCH  16  31
HETATM   31  O1  UNL     1      -5.304   5.712  14.369  1.00  0.00    -0.396 OA
HETATM   32  H39 UNL     1      -6.252   5.561  14.523  1.00  0.00     0.210 HD
ENDBRANCH  16  31
TORSDOF 6
ENDMDL
MODEL 4
REMARK minimizedAffinity -6.58190107
REMARK CNNscore 0.48469466
REMARK CNNaffinity 6.63459778
REMARK  6 active torsions:
REMARK  status: ('A' for Active; 'I' for Inactive)
REMARK    1  A    between atoms: C4_4  and  C5_5 
REMARK    2  A    between atoms: C5_5  and  C6_6 
REMARK    3  A    between atoms: C6_6  and  C7_7 
REMARK    4  A    between atoms: C7_7  and  C9_9 
REMARK    5  A    between atoms: C24_24  and  O1_25 
REMARK    6  A    between atoms: C27_28  and  O2_29 
ROOT
HETATM    1  C9  UNL     1      -2.646   9.949  15.192  1.00  0.00    -0.002 C 
HETATM    2  C10 UNL     1      -1.108  10.152  15.183  1.00  0.00     0.007 C 
HETATM    3  C11 UNL     1      -0.506   8.974  14.382  1.00  0.00     0.015 C 
HETATM    4  C12 UNL     1      -1.705   8.336  13.654  1.00  0.00    -0.013 C 
HETATM    5  C13 UNL     1      -1.950   9.175  12.361  1.00  0.00     0.021 C 
HETATM    6  C14 UNL     1      -1.621   6.894  13.161  1.00  0.00    -0.065 C 
HETATM    7  C15 UNL     1      -2.755   6.153  13.038  1.00  0.00    -0.068 C 
HETATM    8  C16 UNL     1      -4.116   6.680  13.526  1.00  0.00     0.036 C 
HETATM    9  C17 UNL     1      -4.156   8.090  14.153  1.00  0.00     0.015 C 
HETATM   10  C18 UNL     1      -2.805   8.458  14.775  1.00  0.00    -0.029 C 
HETATM   11  C19 UNL     1      -2.540   7.500  15.973  1.00  0.00     0.016 C 
HETATM   12  C20 UNL     1      -2.727   4.702  12.486  1.00  0.00    -0.014 C 
HETATM   13  C21 UNL     1      -2.831   3.779  13.729  1.00  0.00     0.020 C 
HETATM   14  C22 UNL     1      -3.922   4.434  11.515  1.00  0.00     0.016 C 
HETATM   15  C23 UNL     1      -3.610   3.541  10.303  1.00  0.00     0.033 C 
HETATM   16  C24 UNL     1      -2.605   2.440  10.595  1.00  0.00     0.118 C 
HETATM   17  C25 UNL     1      -1.295   2.988  11.176  1.00  0.00     0.039 C 
HETATM   18  C26 UNL     1      -1.415   4.442  11.689  1.00  0.00     0.029 C 
HETATM   19  C27 UNL     1      -0.177   4.881  12.476  1.00  0.00     0.127 C 
HETATM   20  C28 UNL     1      -0.248   6.378  12.797  1.00  0.00     0.067 C 
ENDROOT
BRANCH   1  21
HETATM   21  C7  UNL     1      -3.403  10.540  16.416  1.00  0.00    -0.014 C 
HETATM   22  C8  UNL     1      -2.537  10.995  17.598  1.00  0.00     0.010 C 
BRANCH  21  23
HETATM   23  C6  UNL     1      -4.287  11.755  16.016  1.00  0.00     0.008 C 
BRANCH  23  24
HETATM   24  C5  UNL     1      -3.927  13.074  16.710  1.00  0.00     0.028 C 
BRANCH  24  25
HETATM   25  C4  UNL     1      -5.146  13.686  17.350  1.00  0.00    -0.025 C 
HETATM   26  C2  UNL     1      -5.518  13.642  18.645  1.00  0.00    -0.091 C 
HETATM   27  C1  UNL     1      -6.765  14.351  19.106  1.00  0.00     0.042 C 
HETATM   28  C3  UNL     1      -4.777  12.923  19.737  1.00  0.00     0.042 C 
ENDBRANCH  24  25
ENDBRANCH  23  24
ENDBRANCH  21  23
ENDBRANCH   1  21
BRANCH  19  29
HETATM   29  O2  UNL     1       1.014   4.620  11.728  1.00  0.00    -0.395 OA
HETATM   30  H44 UNL     1       0.959   5.122  10.898  1.00  0.00     0.210 HD
ENDBRANCH  19  29
BRANCH  16  31
HETATM   31  O1  UNL     1      -3.180   1.502  11.498  1.00  0.00    -0.396 OA
HETATM   32  H39 UNL     1      -3.969   1.127  11.071  1.00  0.00     0.210 HD
ENDBRANCH  16  31
TORSDOF 6
ENDMDL
MODEL 5
REMARK minimizedAffinity -8.58387566
REMARK CNNscore 0.465193093
REMARK CNNaffinity 6.69075394
REMARK  6 active torsions:
REMARK  status: ('A' for Active; 'I' for Inactive)
REMARK    1  A    between atoms: C4_4  and  C5_5 
REMARK    2  A    between atoms: C5_5  and  C6_6 
REMARK    3  A    between atoms: C6_6  and  C7_7 
REMARK    4  A    between atoms: C7_7  and  C9_9 
REMARK    5  A    between atoms: C24_24  and  O1_25 
REMARK    6  A    between atoms: C27_28  and  O2_29 
ROOT
HETATM    1  C9  UNL     1       0.972   6.780  13.285  1.00  0.00    -0.002 C 
HETATM    2  C10 UNL     1       1.333   8.274  13.502  1.00  0.00     0.007 C 
HETATM    3  C11 UNL     1       0.054   8.971  14.023  1.00  0.00     0.015 C 
HETATM    4  C12 UNL     1      -0.887   7.822  14.432  1.00  0.00    -0.013 C 
HETATM    5  C13 UNL     1      -0.465   7.380  15.869  1.00  0.00     0.021 C 
HETATM    6  C14 UNL     1      -2.390   8.063  14.534  1.00  0.00    -0.065 C 
HETATM    7  C15 UNL     1      -3.256   7.032  14.343  1.00  0.00    -0.068 C 
HETATM    8  C16 UNL     1      -2.769   5.649  13.876  1.00  0.00     0.036 C 
HETATM    9  C17 UNL     1      -1.255   5.465  13.640  1.00  0.00     0.015 C 
HETATM   10  C18 UNL     1      -0.584   6.793  13.277  1.00  0.00    -0.029 C 
HETATM   11  C19 UNL     1      -1.143   7.264  11.903  1.00  0.00     0.016 C 
HETATM   12  C20 UNL     1      -4.791   7.215  14.494  1.00  0.00    -0.014 C 
HETATM   13  C21 UNL     1      -5.345   7.320  13.049  1.00  0.00     0.020 C 
HETATM   14  C22 UNL     1      -5.444   6.004  15.234  1.00  0.00     0.016 C 
HETATM   15  C23 UNL     1      -6.594   6.349  16.194  1.00  0.00     0.033 C 
HETATM   16  C24 UNL     1      -7.456   7.510  15.727  1.00  0.00     0.118 C 
HETATM   17  C25 UNL     1      -6.629   8.771  15.445  1.00  0.00     0.039 C 
HETATM   18  C26 UNL     1      -5.113   8.494  15.323  1.00  0.00     0.029 C 
HETATM   19  C27 UNL     1      -4.342   9.712  14.808  1.00  0.00     0.127 C 
HETATM   20  C28 UNL     1      -2.832   9.465  14.887  1.00  0.00     0.067 C 
ENDROOT
BRANCH   1  21
HETATM   21  C7  UNL     1       1.788   6.036  12.189  1.00  0.00    -0.014 C 
HETATM   22  C8  UNL     1       1.099   4.837  11.523  1.00  0.00     0.010 C 
BRANCH  21  23
HETATM   23  C6  UNL     1       2.223   6.995  11.044  1.00  0.00     0.008 C 
BRANCH  23  24
HETATM   24  C5  UNL     1       3.159   6.373  10.000  1.00  0.00     0.028 C 
BRANCH  24  25
HETATM   25  C4  UNL     1       2.502   6.350   8.645  1.00  0.00    -0.025 C 
HETATM   26  C2  UNL     1       2.438   7.340   7.733  1.00  0.00    -0.091 C 
HETATM   27  C1  UNL     1       1.760   7.115   6.407  1.00  0.00     0.042 C 
HETATM   28  C3  UNL     1       3.009   8.719   7.908  1.00  0.00     0.042 C 
ENDBRANCH  24  25
ENDBRANCH  23  24
ENDBRANCH  21  23
ENDBRANCH   1  21
BRANCH  19  29
HETATM   29  O2  UNL     1      -4.664  10.874  15.579  1.00  0.00    -0.395 OA
HETATM   30  H44 UNL     1      -4.418  10.696  16.502  1.00  0.00     0.210 HD
ENDBRANCH  19  29
BRANCH  16  31
HETATM   31  O1  UNL     1      -8.169   7.127  14.556  1.00  0.00    -0.396 OA
HETATM   32  H39 UNL     1      -8.730   6.368  14.786  1.00  0.00     0.210 HD
ENDBRANCH  16  31
TORSDOF 6
ENDMDL
MODEL 6
REMARK minimizedAffinity -9.24082756
REMARK CNNscore 0.441489935
REMARK CNNaffinity 6.72570848
REMARK  6 active torsions:
REMARK  status: ('A' for Active; 'I' for Inactive)
REMARK    1  A    between atoms: C4_4  and  C5_5 
REMARK    2  A    between atoms: C5_5  and  C6_6 
REMARK    3  A    between atoms: C6_6  and  C7_7 
REMARK    4  A    between atoms: C7_7  and  C9_9 
REMARK    5  A    between atoms: C24_24  and  O1_25 
REMARK    6  A    between atoms: C27_28  and  O2_29 
ROOT
HETATM    1  C9  UNL     1      -5.524   6.797  14.591  1.00  0.00    -0.002 C 
HETATM    2  C10 UNL     1      -5.402   8.124  15.385  1.00  0.00     0.007 C 
HETATM    3  C11 UNL     1      -4.005   8.708  15.069  1.00  0.00     0.015 C 
HETATM    4  C12 UNL     1      -3.511   7.913  13.845  1.00  0.00    -0.013 C 
HETATM    5  C13 UNL     1      -4.146   8.579  12.584  1.00  0.00     0.021 C 
HETATM    6  C14 UNL     1      -2.019   7.845  13.528  1.00  0.00    -0.065 C 
HETATM    7  C15 UNL     1      -1.517   6.775  12.856  1.00  0.00    -0.068 C 
HETATM    8  C16 UNL     1      -2.388   5.548  12.533  1.00  0.00     0.036 C 
HETATM    9  C17 UNL     1      -3.863   5.577  12.988  1.00  0.00     0.015 C 
HETATM   10  C18 UNL     1      -4.048   6.478  14.213  1.00  0.00    -0.029 C 
HETATM   11  C19 UNL     1      -3.277   5.845  15.408  1.00  0.00     0.016 C 
HETATM   12  C20 UNL     1      -0.018   6.688  12.460  1.00  0.00    -0.014 C 
HETATM   13  C21 UNL     1       0.635   5.738  13.498  1.00  0.00     0.020 C 
HETATM   14  C22 UNL     1       0.162   6.116  11.017  1.00  0.00     0.016 C 
HETATM   15  C23 UNL     1       1.296   6.741  10.188  1.00  0.00     0.033 C 
HETATM   16  C24 UNL     1       2.512   7.133  11.009  1.00  0.00     0.118 C 
HETATM   17  C25 UNL     1       2.153   8.068  12.170  1.00  0.00     0.039 C 
HETATM   18  C26 UNL     1       0.639   8.100  12.484  1.00  0.00     0.029 C 
HETATM   19  C27 UNL     1       0.335   8.844  13.787  1.00  0.00     0.127 C 
HETATM   20  C28 UNL     1      -1.177   9.023  13.962  1.00  0.00     0.067 C 
ENDROOT
BRANCH   1  21
HETATM   21  C7  UNL     1      -6.459   5.719  15.209  1.00  0.00    -0.014 C 
HETATM   22  C8  UNL     1      -7.263   6.141  16.446  1.00  0.00     0.010 C 
BRANCH  21  23
HETATM   23  C6  UNL     1      -7.485   5.182  14.171  1.00  0.00     0.008 C 
BRANCH  23  24
HETATM   24  C5  UNL     1      -7.193   3.773  13.640  1.00  0.00     0.028 C 
BRANCH  24  25
HETATM   25  C4  UNL     1      -6.369   3.841  12.382  1.00  0.00    -0.025 C 
HETATM   26  C2  UNL     1      -6.027   2.833  11.554  1.00  0.00    -0.091 C 
HETATM   27  C1  UNL     1      -5.217   3.105  10.313  1.00  0.00     0.042 C 
HETATM   28  C3  UNL     1      -6.393   1.388  11.749  1.00  0.00     0.042 C 
ENDBRANCH  24  25
ENDBRANCH  23  24
ENDBRANCH  21  23
ENDBRANCH   1  21
BRANCH  19  29
HETATM   29  O2  UNL     1       0.959  10.132  13.789  1.00  0.00    -0.395 OA
HETATM   30  H44 UNL     1       0.607  10.633  13.034  1.00  0.00     0.210 HD
ENDBRANCH  19  29
BRANCH  16  31
HETATM   31  O1  UNL     1       3.142   5.959  11.510  1.00  0.00    -0.396 OA
HETATM   32  H39 UNL     1       3.414   5.421  10.748  1.00  0.00     0.210 HD
ENDBRANCH  16  31
TORSDOF 6
ENDMDL
MODEL 7
REMARK minimizedAffinity -7.22694921
REMARK CNNscore 0.410541654
REMARK CNNaffinity 6.00708342
REMARK  6 active torsions:
REMARK  status: ('A' for Active; 'I' for Inactive)
REMARK    1  A    between atoms: C4_4  and  C5_5 
REMARK    2  A    between atoms: C5_5  and  C6_6 
REMARK    3  A    between atoms: C6_6  and  C7_7 
REMARK    4  A    between atoms: C7_7  and  C9_9 
REMARK    5  A    between atoms: C24_24  and  O1_25 
REMARK    6  A    between atoms: C27_28  and  O2_29 
ROOT
HETATM    1  C9  UNL     1       4.019   8.166  10.862  1.00  0.00    -0.002 C 
HETATM    2  C10 UNL     1       3.214   7.576  12.050  1.00  0.00     0.007 C 
HETATM    3  C11 UNL     1       4.005   7.912  13.337  1.00  0.00     0.015 C 
HETATM    4  C12 UNL     1       5.031   8.978  12.905  1.00  0.00    -0.013 C 
HETATM    5  C13 UNL     1       4.292  10.353  12.922  1.00  0.00     0.021 C 
HETATM    6  C14 UNL     1       6.288   9.211  13.738  1.00  0.00    -0.065 C 
HETATM    7  C15 UNL     1       7.414   9.690  13.145  1.00  0.00    -0.068 C 
HETATM    8  C16 UNL     1       7.507   9.865  11.619  1.00  0.00     0.036 C 
HETATM    9  C17 UNL     1       6.269   9.488  10.778  1.00  0.00     0.015 C 
HETATM   10  C18 UNL     1       5.423   8.423  11.483  1.00  0.00    -0.029 C 
HETATM   11  C19 UNL     1       6.258   7.112  11.568  1.00  0.00     0.016 C 
HETATM   12  C20 UNL     1       8.699   9.999  13.961  1.00  0.00    -0.014 C 
HETATM   13  C21 UNL     1       9.652   8.801  13.711  1.00  0.00     0.020 C 
HETATM   14  C22 UNL     1       9.371  11.329  13.492  1.00  0.00     0.016 C 
HETATM   15  C23 UNL     1       9.996  12.190  14.602  1.00  0.00     0.033 C 
HETATM   16  C24 UNL     1      10.613  11.382  15.730  1.00  0.00     0.118 C 
HETATM   17  C25 UNL     1       9.618  10.393  16.349  1.00  0.00     0.039 C 
HETATM   18  C26 UNL     1       8.365  10.157  15.474  1.00  0.00     0.029 C 
HETATM   19  C27 UNL     1       7.509   8.997  15.989  1.00  0.00     0.127 C 
HETATM   20  C28 UNL     1       6.187   8.921  15.218  1.00  0.00     0.067 C 
ENDROOT
BRANCH   1  21
HETATM   21  C7  UNL     1       3.851   7.437   9.498  1.00  0.00    -0.014 C 
HETATM   22  C8  UNL     1       3.332   5.994   9.556  1.00  0.00     0.010 C 
BRANCH  21  23
HETATM   23  C6  UNL     1       2.904   8.215   8.541  1.00  0.00     0.008 C 
BRANCH  23  24
HETATM   24  C5  UNL     1       1.471   7.672   8.466  1.00  0.00     0.028 C 
BRANCH  24  25
HETATM   25  C4  UNL     1       0.582   8.384   9.452  1.00  0.00    -0.025 C 
HETATM   26  C2  UNL     1      -0.079   7.863  10.505  1.00  0.00    -0.091 C 
HETATM   27  C1  UNL     1      -0.900   8.748  11.405  1.00  0.00     0.042 C 
HETATM   28  C3  UNL     1      -0.079   6.412  10.898  1.00  0.00     0.042 C 
ENDBRANCH  24  25
ENDBRANCH  23  24
ENDBRANCH  21  23
ENDBRANCH   1  21
BRANCH  19  29
HETATM   29  O2  UNL     1       7.227   9.160  17.383  1.00  0.00    -0.395 OA
HETATM   30  H44 UNL     1       6.745   9.997  17.492  1.00  0.00     0.210 HD
ENDBRANCH  19  29
BRANCH  16  31
HETATM   31  O1  UNL     1      11.751  10.680  15.242  1.00  0.00    -0.396 OA
HETATM   32  H39 UNL     1      12.388  11.340  14.918  1.00  0.00     0.210 HD
ENDBRANCH  16  31
TORSDOF 6
ENDMDL
MODEL 8
REMARK minimizedAffinity -7.63614321
REMARK CNNscore 0.404551297
REMARK CNNaffinity 6.33871603
REMARK  6 active torsions:
REMARK  status: ('A' for Active; 'I' for Inactive)
REMARK    1  A    between atoms: C4_4  and  C5_5 
REMARK    2  A    between atoms: C5_5  and  C6_6 
REMARK    3  A    between atoms: C6_6  and  C7_7 
REMARK    4  A    between atoms: C7_7  and  C9_9 
REMARK    5  A    between atoms: C24_24  and  O1_25 
REMARK    6  A    between atoms: C27_28  and  O2_29 
ROOT
HETATM    1  C9  UNL     1      -4.438   8.998  14.586  1.00  0.00    -0.002 C 
HETATM    2  C10 UNL     1      -4.330   9.281  16.108  1.00  0.00     0.007 C 
HETATM    3  C11 UNL     1      -2.822   9.297  16.454  1.00  0.00     0.015 C 
HETATM    4  C12 UNL     1      -2.104   9.384  15.094  1.00  0.00    -0.013 C 
HETATM    5  C13 UNL     1      -2.091  10.891  14.683  1.00  0.00     0.021 C 
HETATM    6  C14 UNL     1      -0.648   8.944  14.968  1.00  0.00    -0.065 C 
HETATM    7  C15 UNL     1      -0.178   8.493  13.774  1.00  0.00    -0.068 C 
HETATM    8  C16 UNL     1      -1.114   8.269  12.573  1.00  0.00     0.036 C 
HETATM    9  C17 UNL     1      -2.613   8.588  12.765  1.00  0.00     0.015 C 
HETATM   10  C18 UNL     1      -3.027   8.442  14.232  1.00  0.00    -0.029 C 
HETATM   11  C19 UNL     1      -2.887   6.945  14.635  1.00  0.00     0.016 C 
HETATM   12  C20 UNL     1       1.309   8.089  13.581  1.00  0.00    -0.014 C 
HETATM   13  C21 UNL     1       1.332   6.538  13.634  1.00  0.00     0.020 C 
HETATM   14  C22 UNL     1       1.867   8.589  12.211  1.00  0.00     0.016 C 
HETATM   15  C23 UNL     1       3.327   9.071  12.220  1.00  0.00     0.033 C 
HETATM   16  C24 UNL     1       4.224   8.295  13.169  1.00  0.00     0.118 C 
HETATM   17  C25 UNL     1       3.680   8.283  14.603  1.00  0.00     0.039 C 
HETATM   18  C26 UNL     1       2.197   8.711  14.699  1.00  0.00     0.029 C 
HETATM   19  C27 UNL     1       1.613   8.462  16.092  1.00  0.00     0.127 C 
HETATM   20  C28 UNL     1       0.212   9.075  16.203  1.00  0.00     0.067 C 
ENDROOT
BRANCH   1  21
HETATM   21  C7  UNL     1      -5.737   8.282  14.119  1.00  0.00    -0.014 C 
HETATM   22  C8  UNL     1      -5.555   6.941  13.395  1.00  0.00     0.010 C 
BRANCH  21  23
HETATM   23  C6  UNL     1      -6.711   8.021  15.304  1.00  0.00     0.008 C 
BRANCH  23  24
HETATM   24  C5  UNL     1      -8.063   8.737  15.200  1.00  0.00     0.028 C 
BRANCH  24  25
HETATM   25  C4  UNL     1      -9.155   7.759  14.854  1.00  0.00    -0.025 C 
HETATM   26  C2  UNL     1     -10.395   8.022  14.394  1.00  0.00    -0.091 C 
HETATM   27  C1  UNL     1     -11.343   6.898  14.069  1.00  0.00     0.042 C 
HETATM   28  C3  UNL     1     -10.958   9.395  14.154  1.00  0.00     0.042 C 
ENDBRANCH  24  25
ENDBRANCH  23  24
ENDBRANCH  21  23
ENDBRANCH   1  21
BRANCH  19  29
HETATM   29  O2  UNL     1       2.453   9.034  17.100  1.00  0.00    -0.395 OA
HETATM   30  H44 UNL     1       2.508   9.990  16.933  1.00  0.00     0.210 HD
ENDBRANCH  19  29
BRANCH  16  31
HETATM   31  O1  UNL     1       4.369   6.961  12.696  1.00  0.00    -0.396 OA
HETATM   32  H39 UNL     1       4.776   7.003  11.814  1.00  0.00     0.210 HD
ENDBRANCH  16  31
TORSDOF 6
ENDMDL
MODEL 9
REMARK minimizedAffinity -8.3782053
REMARK CNNscore 0.382544309
REMARK CNNaffinity 6.70056343
REMARK  6 active torsions:
REMARK  status: ('A' for Active; 'I' for Inactive)
REMARK    1  A    between atoms: C4_4  and  C5_5 
REMARK    2  A    between atoms: C5_5  and  C6_6 
REMARK    3  A    between atoms: C6_6  and  C7_7 
REMARK    4  A    between atoms: C7_7  and  C9_9 
REMARK    5  A    between atoms: C24_24  and  O1_25 
REMARK    6  A    between atoms: C27_28  and  O2_29 
ROOT
HETATM    1  C9  UNL     1       2.351   7.318  11.742  1.00  0.00    -0.002 C 
HETATM    2  C10 UNL     1       2.441   5.803  11.419  1.00  0.00     0.007 C 
HETATM    3  C11 UNL     1       1.055   5.195  11.737  1.00  0.00     0.015 C 
HETATM    4  C12 UNL     1       0.113   6.406  11.884  1.00  0.00    -0.013 C 
HETATM    5  C13 UNL     1      -0.326   6.817  10.444  1.00  0.00     0.021 C 
HETATM    6  C14 UNL     1      -1.196   6.269  12.657  1.00  0.00    -0.065 C 
HETATM    7  C15 UNL     1      -1.743   7.358  13.261  1.00  0.00    -0.068 C 
HETATM    8  C16 UNL     1      -1.000   8.704  13.318  1.00  0.00     0.036 C 
HETATM    9  C17 UNL     1       0.391   8.784  12.652  1.00  0.00     0.015 C 
HETATM   10  C18 UNL     1       1.073   7.412  12.626  1.00  0.00    -0.029 C 
HETATM   11  C19 UNL     1       1.362   6.982  14.094  1.00  0.00     0.016 C 
HETATM   12  C20 UNL     1      -3.102   7.281  14.008  1.00  0.00    -0.014 C 
HETATM   13  C21 UNL     1      -2.747   7.215  15.518  1.00  0.00     0.020 C 
HETATM   14  C22 UNL     1      -3.989   8.533  13.717  1.00  0.00     0.016 C 
HETATM   15  C23 UNL     1      -5.498   8.268  13.588  1.00  0.00     0.033 C 
HETATM   16  C24 UNL     1      -6.008   7.170  14.504  1.00  0.00     0.118 C 
HETATM   17  C25 UNL     1      -5.240   5.855  14.321  1.00  0.00     0.039 C 
HETATM   18  C26 UNL     1      -3.907   6.027  13.556  1.00  0.00     0.029 C 
HETATM   19  C27 UNL     1      -3.051   4.758  13.595  1.00  0.00     0.127 C 
HETATM   20  C28 UNL     1      -1.838   4.901  12.670  1.00  0.00     0.067 C 
ENDROOT
BRANCH   1  21
HETATM   21  C7  UNL     1       3.683   8.004  12.158  1.00  0.00    -0.014 C 
HETATM   22  C8  UNL     1       4.836   7.072  12.554  1.00  0.00     0.010 C 
BRANCH  21  23
HETATM   23  C6  UNL     1       4.226   8.936  11.037  1.00  0.00     0.008 C 
BRANCH  23  24
HETATM   24  C5  UNL     1       4.505   8.243   9.698  1.00  0.00     0.028 C 
BRANCH  24  25
HETATM   25  C4  UNL     1       3.336   8.405   8.763  1.00  0.00    -0.025 C 
HETATM   26  C2  UNL     1       2.632   7.443   8.134  1.00  0.00    -0.091 C 
HETATM   27  C1  UNL     1       1.462   7.802   7.256  1.00  0.00     0.042 C 
HETATM   28  C3  UNL     1       2.906   5.968   8.225  1.00  0.00     0.042 C 
ENDBRANCH  24  25
ENDBRANCH  23  24
ENDBRANCH  21  23
ENDBRANCH   1  21
BRANCH  19  29
HETATM   29  O2  UNL     1      -3.817   3.621  13.187  1.00  0.00    -0.395 OA
HETATM   30  H44 UNL     1      -4.125   3.781  12.279  1.00  0.00     0.210 HD
ENDBRANCH  19  29
BRANCH  16  31
HETATM   31  O1  UNL     1      -5.912   7.602  15.857  1.00  0.00    -0.396 OA
HETATM   32  H39 UNL     1      -6.462   8.398  15.953  1.00  0.00     0.210 HD
ENDBRANCH  16  31
TORSDOF 6
ENDMDL
