MODEL 1
REMARK minimizedAffinity -8.50644588
REMARK CNNscore 0.598783612
REMARK CNNaffinity 6.49874735
REMARK  7 active torsions:
REMARK  status: ('A' for Active; 'I' for Inactive)
REMARK    1  A    between atoms: C2_2  and  C4_4 
REMARK    2  A    between atoms: C7_7  and  O1_9 
REMARK    3  A    between atoms: C9_10  and  C10_11 
REMARK    4  A    between atoms: C11_12  and  C12_13 
REMARK    5  A    between atoms: C14_15  and  C15_16 
REMARK    6  A    between atoms: C24_26  and  C26_28 
REMARK    7  A    between atoms: C29_32  and  O4_34 
ROOT
HETATM    1  C15 UNL     1      -4.820  47.914 -28.671  1.00  0.00     0.149 C 
HETATM    2  C16 UNL     1      -5.721  46.788 -29.190  1.00  0.00     0.054 C 
HETATM    3  C17 UNL     1      -6.530  47.388 -30.368  1.00  0.00     0.050 C 
HETATM    4  C18 UNL     1      -5.548  48.519 -30.772  1.00  0.00     0.272 C 
HETATM    5  O2  UNL     1      -4.427  48.082 -31.537  1.00  0.00    -0.360 OA
HETATM    6  C19 UNL     1      -4.659  48.066 -32.933  1.00  0.00     0.171 C 
HETATM    7  C20 UNL     1      -5.127  46.697 -33.392  1.00  0.00     0.027 C 
HETATM    8  C21 UNL     1      -5.627  45.780 -32.279  1.00  0.00     0.012 C 
HETATM    9  C22 UNL     1      -6.834  46.286 -31.457  1.00  0.00     0.032 C 
HETATM   10  C23 UNL     1      -8.042  46.610 -32.364  1.00  0.00    -0.066 C 
HETATM   11  C24 UNL     1      -8.793  45.685 -33.014  1.00  0.00    -0.021 C 
HETATM   12  C25 UNL     1      -9.950  46.009 -33.919  1.00  0.00     0.052 C 
HETATM   13  C27 UNL     1      -8.371  48.081 -32.437  1.00  0.00     0.038 C 
HETATM   14  C28 UNL     1      -8.654  48.681 -31.063  1.00  0.00     0.042 C 
HETATM   15  C29 UNL     1      -7.918  47.993 -29.886  1.00  0.00     0.067 C 
HETATM   16  C30 UNL     1      -8.856  46.953 -29.232  1.00  0.00     0.047 C 
HETATM   17  O5  UNL     1      -5.006  49.028 -29.546  1.00  0.00    -0.351 OA
ENDROOT
BRANCH   1  18
HETATM   18  C14 UNL     1      -5.126  48.347 -27.265  1.00  0.00     0.011 C 
HETATM   19  C12 UNL     1      -4.266  48.507 -26.235  1.00  0.00    -0.064 C 
HETATM   20  C13 UNL     1      -2.776  48.313 -26.358  1.00  0.00     0.048 C 
BRANCH  19  21
HETATM   21  C11 UNL     1      -4.803  48.928 -24.942  1.00  0.00     0.003 C 
HETATM   22  C10 UNL     1      -4.406  48.495 -23.733  1.00  0.00    -0.018 C 
BRANCH  22  23
HETATM   23  C9  UNL     1      -4.938  48.945 -22.387  1.00  0.00     0.050 C 
HETATM   24  C4  UNL     1      -4.581  48.093 -21.127  1.00  0.00     0.024 C 
HETATM   25  C5  UNL     1      -5.722  48.443 -20.157  1.00  0.00     0.013 C 
HETATM   26  C6  UNL     1      -6.955  48.426 -21.047  1.00  0.00     0.039 C 
HETATM   27  C7  UNL     1      -6.497  49.124 -22.337  1.00  0.00     0.062 C 
HETATM   28  C8  UNL     1      -7.292  48.601 -23.532  1.00  0.00     0.046 C 
BRANCH  24  29
HETATM   29  C2  UNL     1      -3.170  48.304 -20.578  1.00  0.00    -0.088 C 
HETATM   30  C1  UNL     1      -2.857  49.139 -19.570  1.00  0.00     0.014 C 
HETATM   31  C3  UNL     1      -2.079  47.465 -21.198  1.00  0.00     0.043 C 
ENDBRANCH  24  29
BRANCH  27  32
HETATM   32  O1  UNL     1      -6.802  50.524 -22.238  1.00  0.00    -0.390 OA
HETATM   33  H14 UNL     1      -6.387  50.874 -21.432  1.00  0.00     0.210 HD
ENDBRANCH  27  32
ENDBRANCH  22  23
ENDBRANCH  19  21
ENDBRANCH   1  18
BRANCH  15  34
HETATM   34  O4  UNL     1      -7.732  48.996 -28.884  1.00  0.00    -0.389 OA
HETATM   35  H44 UNL     1      -8.593  49.396 -28.671  1.00  0.00     0.210 HD
ENDBRANCH  15  34
BRANCH  11  36
HETATM   36  C26 UNL     1      -8.539  44.215 -32.900  1.00  0.00     0.265 C 
HETATM   37  O3  UNL     1      -9.353  43.409 -32.472  1.00  0.00    -0.302 OA
ENDBRANCH  11  36
TORSDOF 7
ENDMDL
MODEL 2
REMARK minimizedAffinity -7.61847258
REMARK CNNscore 0.50818342
REMARK CNNaffinity 6.5357213
REMARK  7 active torsions:
REMARK  status: ('A' for Active; 'I' for Inactive)
REMARK    1  A    between atoms: C2_2  and  C4_4 
REMARK    2  A    between atoms: C7_7  and  O1_9 
REMARK    3  A    between atoms: C9_10  and  C10_11 
REMARK    4  A    between atoms: C11_12  and  C12_13 
REMARK    5  A    between atoms: C14_15  and  C15_16 
REMARK    6  A    between atoms: C24_26  and  C26_28 
REMARK    7  A    between atoms: C29_32  and  O4_34 
ROOT
HETATM    1  C15 UNL     1       0.200  53.870  -9.407  1.00  0.00     0.149 C 
HETATM    2  C16 UNL     1       1.522  53.665  -8.659  1.00  0.00     0.054 C 
HETATM    3  C17 UNL     1       2.116  55.079  -8.434  1.00  0.00     0.050 C 
HETATM    4  C18 UNL     1       0.800  55.896  -8.488  1.00  0.00     0.272 C 
HETATM    5  O2  UNL     1       0.023  55.844  -7.293  1.00  0.00    -0.360 OA
HETATM    6  C19 UNL     1       0.362  56.841  -6.348  1.00  0.00     0.171 C 
HETATM    7  C20 UNL     1       1.383  56.323  -5.351  1.00  0.00     0.027 C 
HETATM    8  C21 UNL     1       2.113  55.052  -5.779  1.00  0.00     0.012 C 
HETATM    9  C22 UNL     1       2.935  55.134  -7.085  1.00  0.00     0.032 C 
HETATM   10  C23 UNL     1       3.981  56.270  -7.027  1.00  0.00    -0.066 C 
HETATM   11  C24 UNL     1       5.096  56.256  -6.253  1.00  0.00    -0.021 C 
HETATM   12  C25 UNL     1       6.096  57.378  -6.178  1.00  0.00     0.052 C 
HETATM   13  C27 UNL     1       3.690  57.415  -7.965  1.00  0.00     0.038 C 
HETATM   14  C28 UNL     1       3.584  56.961  -9.419  1.00  0.00     0.042 C 
HETATM   15  C29 UNL     1       3.092  55.506  -9.614  1.00  0.00     0.067 C 
HETATM   16  C30 UNL     1       4.311  54.569  -9.782  1.00  0.00     0.047 C 
HETATM   17  O5  UNL     1      -0.007  55.280  -9.502  1.00  0.00    -0.351 OA
ENDROOT
BRANCH   1  18
HETATM   18  C14 UNL     1       0.181  53.284 -10.791  1.00  0.00     0.011 C 
HETATM   19  C12 UNL     1      -0.892  52.949 -11.540  1.00  0.00    -0.064 C 
HETATM   20  C13 UNL     1      -2.316  53.167 -11.098  1.00  0.00     0.048 C 
BRANCH  19  21
HETATM   21  C11 UNL     1      -0.661  52.377 -12.866  1.00  0.00     0.003 C 
HETATM   22  C10 UNL     1       0.313  51.516 -13.207  1.00  0.00    -0.018 C 
BRANCH  22  23
HETATM   23  C9  UNL     1       0.543  50.898 -14.572  1.00  0.00     0.050 C 
HETATM   24  C4  UNL     1       1.177  51.787 -15.690  1.00  0.00     0.024 C 
HETATM   25  C5  UNL     1       0.692  51.096 -16.976  1.00  0.00     0.013 C 
HETATM   26  C6  UNL     1      -0.762  50.776 -16.673  1.00  0.00     0.039 C 
HETATM   27  C7  UNL     1      -0.742  50.273 -15.221  1.00  0.00     0.062 C 
HETATM   28  C8  UNL     1      -2.077  50.571 -14.539  1.00  0.00     0.046 C 
BRANCH  24  29
HETATM   29  C2  UNL     1       2.690  51.982 -15.585  1.00  0.00    -0.088 C 
HETATM   30  C1  UNL     1       3.411  52.811 -16.363  1.00  0.00     0.014 C 
HETATM   31  C3  UNL     1       3.388  51.216 -14.489  1.00  0.00     0.043 C 
ENDBRANCH  24  29
BRANCH  27  32
HETATM   32  O1  UNL     1      -0.611  48.843 -15.230  1.00  0.00    -0.390 OA
HETATM   33  H14 UNL     1       0.184  48.609 -15.739  1.00  0.00     0.210 HD
ENDBRANCH  27  32
ENDBRANCH  22  23
ENDBRANCH  19  21
ENDBRANCH   1  18
BRANCH  15  34
HETATM   34  O4  UNL     1       2.429  55.470 -10.880  1.00  0.00    -0.389 OA
HETATM   35  H44 UNL     1       3.031  55.809 -11.564  1.00  0.00     0.210 HD
ENDBRANCH  15  34
BRANCH  11  36
HETATM   36  C26 UNL     1       5.452  55.103  -5.369  1.00  0.00     0.265 C 
HETATM   37  O3  UNL     1       6.598  54.762  -5.114  1.00  0.00    -0.302 OA
ENDBRANCH  11  36
TORSDOF 7
ENDMDL
MODEL 3
REMARK minimizedAffinity -8.42877293
REMARK CNNscore 0.456976384
REMARK CNNaffinity 6.47431707
REMARK  7 active torsions:
REMARK  status: ('A' for Active; 'I' for Inactive)
REMARK    1  A    between atoms: C2_2  and  C4_4 
REMARK    2  A    between atoms: C7_7  and  O1_9 
REMARK    3  A    between atoms: C9_10  and  C10_11 
REMARK    4  A    between atoms: C11_12  and  C12_13 
REMARK    5  A    between atoms: C14_15  and  C15_16 
REMARK    6  A    between atoms: C24_26  and  C26_28 
REMARK    7  A    between atoms: C29_32  and  O4_34 
ROOT
HETATM    1  C15 UNL     1      -6.609  47.295 -27.064  1.00  0.00     0.149 C 
HETATM    2  C16 UNL     1      -7.729  46.359 -26.597  1.00  0.00     0.054 C 
HETATM    3  C17 UNL     1      -9.045  46.933 -27.183  1.00  0.00     0.050 C 
HETATM    4  C18 UNL     1      -8.448  47.696 -28.394  1.00  0.00     0.272 C 
HETATM    5  O2  UNL     1      -8.111  46.868 -29.505  1.00  0.00    -0.360 OA
HETATM    6  C19 UNL     1      -9.176  46.674 -30.416  1.00  0.00     0.171 C 
HETATM    7  C20 UNL     1      -9.948  45.408 -30.090  1.00  0.00     0.027 C 
HETATM    8  C21 UNL     1      -9.707  44.849 -28.690  1.00  0.00     0.012 C 
HETATM    9  C22 UNL     1     -10.067  45.773 -27.505  1.00  0.00     0.032 C 
HETATM   10  C23 UNL     1     -11.541  46.231 -27.571  1.00  0.00    -0.066 C 
HETATM   11  C24 UNL     1     -12.613  45.426 -27.350  1.00  0.00    -0.021 C 
HETATM   12  C25 UNL     1     -14.046  45.870 -27.445  1.00  0.00     0.052 C 
HETATM   13  C27 UNL     1     -11.711  47.703 -27.859  1.00  0.00     0.038 C 
HETATM   14  C28 UNL     1     -11.003  48.580 -26.830  1.00  0.00     0.042 C 
HETATM   15  C29 UNL     1      -9.752  47.940 -26.177  1.00  0.00     0.067 C 
HETATM   16  C30 UNL     1     -10.150  47.295 -24.829  1.00  0.00     0.047 C 
HETATM   17  O5  UNL     1      -7.208  48.255 -27.936  1.00  0.00    -0.351 OA
ENDROOT
BRANCH   1  18
HETATM   18  C14 UNL     1      -5.914  48.024 -25.949  1.00  0.00     0.011 C 
HETATM   19  C12 UNL     1      -4.632  48.449 -25.900  1.00  0.00    -0.064 C 
HETATM   20  C13 UNL     1      -3.661  48.292 -27.042  1.00  0.00     0.048 C 
BRANCH  19  21
HETATM   21  C11 UNL     1      -4.172  49.131 -24.692  1.00  0.00     0.003 C 
HETATM   22  C10 UNL     1      -3.013  48.917 -24.046  1.00  0.00    -0.018 C 
BRANCH  22  23
HETATM   23  C9  UNL     1      -2.516  49.638 -22.808  1.00  0.00     0.050 C 
HETATM   24  C4  UNL     1      -1.286  50.591 -22.950  1.00  0.00     0.024 C 
HETATM   25  C5  UNL     1      -0.722  50.619 -21.520  1.00  0.00     0.013 C 
HETATM   26  C6  UNL     1      -0.801  49.164 -21.085  1.00  0.00     0.039 C 
HETATM   27  C7  UNL     1      -2.167  48.690 -21.606  1.00  0.00     0.062 C 
HETATM   28  C8  UNL     1      -2.130  47.190 -21.896  1.00  0.00     0.046 C 
BRANCH  24  29
HETATM   29  C2  UNL     1      -1.592  51.960 -23.558  1.00  0.00    -0.088 C 
HETATM   30  C1  UNL     1      -2.822  52.497 -23.655  1.00  0.00     0.014 C 
HETATM   31  C3  UNL     1      -0.404  52.763 -24.029  1.00  0.00     0.043 C 
ENDBRANCH  24  29
BRANCH  27  32
HETATM   32  O1  UNL     1      -3.145  48.871 -20.571  1.00  0.00    -0.390 OA
HETATM   33  H14 UNL     1      -3.131  49.803 -20.293  1.00  0.00     0.210 HD
ENDBRANCH  27  32
ENDBRANCH  22  23
ENDBRANCH  19  21
ENDBRANCH   1  18
BRANCH  15  34
HETATM   34  O4  UNL     1      -8.885  49.020 -25.821  1.00  0.00    -0.389 OA
HETATM   35  H44 UNL     1      -9.375  49.653 -25.269  1.00  0.00     0.210 HD
ENDBRANCH  15  34
BRANCH  11  36
HETATM   36  C26 UNL     1     -12.475  43.981 -26.989  1.00  0.00     0.265 C 
HETATM   37  O3  UNL     1     -13.401  43.279 -26.608  1.00  0.00    -0.302 OA
ENDBRANCH  11  36
TORSDOF 7
ENDMDL
MODEL 4
REMARK minimizedAffinity -6.82691956
REMARK CNNscore 0.399428964
REMARK CNNaffinity 6.0195756
REMARK  7 active torsions:
REMARK  status: ('A' for Active; 'I' for Inactive)
REMARK    1  A    between atoms: C2_2  and  C4_4 
REMARK    2  A    between atoms: C7_7  and  O1_9 
REMARK    3  A    between atoms: C9_10  and  C10_11 
REMARK    4  A    between atoms: C11_12  and  C12_13 
REMARK    5  A    between atoms: C14_15  and  C15_16 
REMARK    6  A    between atoms: C24_26  and  C26_28 
REMARK    7  A    between atoms: C29_32  and  O4_34 
ROOT
HETATM    1  C15 UNL     1      -8.850  48.110 -25.719  1.00  0.00     0.149 C 
HETATM    2  C16 UNL     1      -8.981  46.963 -26.728  1.00  0.00     0.054 C 
HETATM    3  C17 UNL     1     -10.103  46.039 -26.188  1.00  0.00     0.050 C 
HETATM    4  C18 UNL     1     -10.878  47.081 -25.342  1.00  0.00     0.272 C 
HETATM    5  O2  UNL     1     -11.719  47.949 -26.099  1.00  0.00    -0.360 OA
HETATM    6  C19 UNL     1     -13.026  47.446 -26.299  1.00  0.00     0.171 C 
HETATM    7  C20 UNL     1     -13.124  46.693 -27.613  1.00  0.00     0.027 C 
HETATM    8  C21 UNL     1     -11.786  46.289 -28.226  1.00  0.00     0.012 C 
HETATM    9  C22 UNL     1     -10.889  45.360 -27.378  1.00  0.00     0.032 C 
HETATM   10  C23 UNL     1     -11.628  44.061 -26.987  1.00  0.00    -0.066 C 
HETATM   11  C24 UNL     1     -11.950  43.063 -27.850  1.00  0.00    -0.021 C 
HETATM   12  C25 UNL     1     -12.696  41.814 -27.469  1.00  0.00     0.052 C 
HETATM   13  C27 UNL     1     -11.931  43.952 -25.512  1.00  0.00     0.038 C 
HETATM   14  C28 UNL     1     -10.673  44.042 -24.653  1.00  0.00     0.042 C 
HETATM   15  C29 UNL     1      -9.524  44.882 -25.264  1.00  0.00     0.067 C 
HETATM   16  C30 UNL     1      -8.532  43.944 -25.990  1.00  0.00     0.047 C 
HETATM   17  O5  UNL     1      -9.882  47.927 -24.748  1.00  0.00    -0.351 OA
ENDROOT
BRANCH   1  18
HETATM   18  C14 UNL     1      -7.525  48.158 -25.013  1.00  0.00     0.011 C 
HETATM   19  C12 UNL     1      -6.290  48.044 -25.547  1.00  0.00    -0.064 C 
HETATM   20  C13 UNL     1      -6.034  47.889 -27.025  1.00  0.00     0.048 C 
BRANCH  19  21
HETATM   21  C11 UNL     1      -5.136  48.109 -24.651  1.00  0.00     0.003 C 
HETATM   22  C10 UNL     1      -5.064  48.781 -23.489  1.00  0.00    -0.018 C 
BRANCH  22  23
HETATM   23  C9  UNL     1      -3.882  48.832 -22.541  1.00  0.00     0.050 C 
HETATM   24  C4  UNL     1      -2.444  48.748 -23.145  1.00  0.00     0.024 C 
HETATM   25  C5  UNL     1      -1.618  48.216 -21.962  1.00  0.00     0.013 C 
HETATM   26  C6  UNL     1      -2.509  47.134 -21.373  1.00  0.00     0.039 C 
HETATM   27  C7  UNL     1      -3.917  47.746 -21.407  1.00  0.00     0.062 C 
HETATM   28  C8  UNL     1      -4.970  46.646 -21.536  1.00  0.00     0.046 C 
BRANCH  24  29
HETATM   29  C2  UNL     1      -1.926  50.043 -23.773  1.00  0.00    -0.088 C 
HETATM   30  C1  UNL     1      -1.326  51.037 -23.092  1.00  0.00     0.014 C 
HETATM   31  C3  UNL     1      -2.068  50.163 -25.270  1.00  0.00     0.043 C 
ENDBRANCH  24  29
BRANCH  27  32
HETATM   32  O1  UNL     1      -4.171  48.393 -20.150  1.00  0.00    -0.390 OA
HETATM   33  H14 UNL     1      -3.464  49.040 -19.989  1.00  0.00     0.210 HD
ENDBRANCH  27  32
ENDBRANCH  22  23
ENDBRANCH  19  21
ENDBRANCH   1  18
BRANCH  15  34
HETATM   34  O4  UNL     1      -8.782  45.413 -24.163  1.00  0.00    -0.389 OA
HETATM   35  H44 UNL     1      -8.511  44.683 -23.581  1.00  0.00     0.210 HD
ENDBRANCH  15  34
BRANCH  11  36
HETATM   36  C26 UNL     1     -11.596  43.108 -29.303  1.00  0.00     0.265 C 
HETATM   37  O3  UNL     1     -10.554  42.666 -29.768  1.00  0.00    -0.302 OA
ENDBRANCH  11  36
TORSDOF 7
ENDMDL
MODEL 5
REMARK minimizedAffinity -7.93694162
REMARK CNNscore 0.349418789
REMARK CNNaffinity 6.06430435
REMARK  7 active torsions:
REMARK  status: ('A' for Active; 'I' for Inactive)
REMARK    1  A    between atoms: C2_2  and  C4_4 
REMARK    2  A    between atoms: C7_7  and  O1_9 
REMARK    3  A    between atoms: C9_10  and  C10_11 
REMARK    4  A    between atoms: C11_12  and  C12_13 
REMARK    5  A    between atoms: C14_15  and  C15_16 
REMARK    6  A    between atoms: C24_26  and  C26_28 
REMARK    7  A    between atoms: C29_32  and  O4_34 
ROOT
HETATM    1  C15 UNL     1      -7.251  47.266 -28.076  1.00  0.00     0.149 C 
HETATM    2  C16 UNL     1      -8.304  46.183 -27.811  1.00  0.00     0.054 C 
HETATM    3  C17 UNL     1      -9.680  46.838 -28.095  1.00  0.00     0.050 C 
HETATM    4  C18 UNL     1      -9.214  47.944 -29.077  1.00  0.00     0.272 C 
HETATM    5  O2  UNL     1      -8.963  47.487 -30.405  1.00  0.00    -0.360 OA
HETATM    6  C19 UNL     1     -10.103  47.512 -31.242  1.00  0.00     0.171 C 
HETATM    7  C20 UNL     1     -10.814  46.171 -31.235  1.00  0.00     0.027 C 
HETATM    8  C21 UNL     1     -10.432  45.246 -30.082  1.00  0.00     0.012 C 
HETATM    9  C22 UNL     1     -10.702  45.772 -28.655  1.00  0.00     0.032 C 
HETATM   10  C23 UNL     1     -12.186  46.159 -28.464  1.00  0.00    -0.066 C 
HETATM   11  C24 UNL     1     -13.214  45.275 -28.398  1.00  0.00    -0.021 C 
HETATM   12  C25 UNL     1     -14.660  45.659 -28.242  1.00  0.00     0.052 C 
HETATM   13  C27 UNL     1     -12.413  47.642 -28.297  1.00  0.00     0.038 C 
HETATM   14  C28 UNL     1     -11.632  48.219 -27.119  1.00  0.00     0.042 C 
HETATM   15  C29 UNL     1     -10.313  47.478 -26.785  1.00  0.00     0.067 C 
HETATM   16  C30 UNL     1     -10.570  46.456 -25.655  1.00  0.00     0.047 C 
HETATM   17  O5  UNL     1      -7.950  48.406 -28.581  1.00  0.00    -0.351 OA
ENDROOT
BRANCH   1  18
HETATM   18  C14 UNL     1      -6.472  47.676 -26.859  1.00  0.00     0.011 C 
HETATM   19  C12 UNL     1      -5.196  48.114 -26.793  1.00  0.00    -0.064 C 
HETATM   20  C13 UNL     1      -4.323  48.317 -28.006  1.00  0.00     0.048 C 
BRANCH  19  21
HETATM   21  C11 UNL     1      -4.642  48.445 -25.481  1.00  0.00     0.003 C 
HETATM   22  C10 UNL     1      -5.337  48.793 -24.385  1.00  0.00    -0.018 C 
BRANCH  22  23
HETATM   23  C9  UNL     1      -4.772  49.111 -23.014  1.00  0.00     0.050 C 
HETATM   24  C4  UNL     1      -3.226  49.282 -22.871  1.00  0.00     0.024 C 
HETATM   25  C5  UNL     1      -2.994  48.969 -21.384  1.00  0.00     0.013 C 
HETATM   26  C6  UNL     1      -3.882  47.759 -21.139  1.00  0.00     0.039 C 
HETATM   27  C7  UNL     1      -5.179  48.086 -21.896  1.00  0.00     0.062 C 
HETATM   28  C8  UNL     1      -5.863  46.798 -22.354  1.00  0.00     0.046 C 
BRANCH  24  29
HETATM   29  C2  UNL     1      -2.675  50.626 -23.349  1.00  0.00    -0.088 C 
HETATM   30  C1  UNL     1      -3.066  51.825 -22.879  1.00  0.00     0.014 C 
HETATM   31  C3  UNL     1      -1.580  50.569 -24.386  1.00  0.00     0.043 C 
ENDBRANCH  24  29
BRANCH  27  32
HETATM   32  O1  UNL     1      -6.095  48.722 -20.991  1.00  0.00    -0.390 OA
HETATM   33  H14 UNL     1      -5.657  49.500 -20.606  1.00  0.00     0.210 HD
ENDBRANCH  27  32
ENDBRANCH  22  23
ENDBRANCH  19  21
ENDBRANCH   1  18
BRANCH  15  34
HETATM   34  O4  UNL     1      -9.440  48.451 -26.204  1.00  0.00    -0.389 OA
HETATM   35  H44 UNL     1      -9.890  48.874 -25.453  1.00  0.00     0.210 HD
ENDBRANCH  15  34
BRANCH  11  36
HETATM   36  C26 UNL     1     -13.012  43.795 -28.484  1.00  0.00     0.265 C 
HETATM   37  O3  UNL     1     -13.884  42.970 -28.249  1.00  0.00    -0.302 OA
ENDBRANCH  11  36
TORSDOF 7
ENDMDL
MODEL 6
REMARK minimizedAffinity -7.57376528
REMARK CNNscore 0.348071814
REMARK CNNaffinity 6.33558083
REMARK  7 active torsions:
REMARK  status: ('A' for Active; 'I' for Inactive)
REMARK    1  A    between atoms: C2_2  and  C4_4 
REMARK    2  A    between atoms: C7_7  and  O1_9 
REMARK    3  A    between atoms: C9_10  and  C10_11 
REMARK    4  A    between atoms: C11_12  and  C12_13 
REMARK    5  A    between atoms: C14_15  and  C15_16 
REMARK    6  A    between atoms: C24_26  and  C26_28 
REMARK    7  A    between atoms: C29_32  and  O4_34 
ROOT
HETATM    1  C15 UNL     1      -0.703  48.731 -16.589  1.00  0.00     0.149 C 
HETATM    2  C16 UNL     1       0.679  48.835 -15.934  1.00  0.00     0.054 C 
HETATM    3  C17 UNL     1       0.542  49.882 -14.799  1.00  0.00     0.050 C 
HETATM    4  C18 UNL     1      -0.981  49.745 -14.539  1.00  0.00     0.272 C 
HETATM    5  O2  UNL     1      -1.348  48.604 -13.767  1.00  0.00    -0.360 OA
HETATM    6  C19 UNL     1      -1.339  48.832 -12.371  1.00  0.00     0.171 C 
HETATM    7  C20 UNL     1      -0.005  48.441 -11.763  1.00  0.00     0.027 C 
HETATM    8  C21 UNL     1       1.137  48.283 -12.763  1.00  0.00     0.012 C 
HETATM    9  C22 UNL     1       1.504  49.532 -13.597  1.00  0.00     0.032 C 
HETATM   10  C23 UNL     1       1.848  50.736 -12.691  1.00  0.00    -0.066 C 
HETATM   11  C24 UNL     1       2.967  50.839 -11.930  1.00  0.00    -0.021 C 
HETATM   12  C25 UNL     1       3.282  52.000 -11.028  1.00  0.00     0.052 C 
HETATM   13  C27 UNL     1       0.837  51.855 -12.756  1.00  0.00     0.038 C 
HETATM   14  C28 UNL     1       0.649  52.385 -14.175  1.00  0.00     0.042 C 
HETATM   15  C29 UNL     1       0.899  51.348 -15.297  1.00  0.00     0.067 C 
HETATM   16  C30 UNL     1       2.348  51.493 -15.817  1.00  0.00     0.047 C 
HETATM   17  O5  UNL     1      -1.586  49.555 -15.825  1.00  0.00    -0.351 OA
ENDROOT
BRANCH   1  18
HETATM   18  C14 UNL     1      -0.739  49.182 -18.022  1.00  0.00     0.011 C 
HETATM   19  C12 UNL     1      -1.422  48.638 -19.052  1.00  0.00    -0.064 C 
HETATM   20  C13 UNL     1      -2.346  47.455 -18.904  1.00  0.00     0.048 C 
BRANCH  19  21
HETATM   21  C11 UNL     1      -1.290  49.249 -20.374  1.00  0.00     0.003 C 
HETATM   22  C10 UNL     1      -2.256  49.881 -21.062  1.00  0.00    -0.018 C 
BRANCH  22  23
HETATM   23  C9  UNL     1      -2.121  50.541 -22.421  1.00  0.00     0.050 C 
HETATM   24  C4  UNL     1      -1.784  52.066 -22.473  1.00  0.00     0.024 C 
HETATM   25  C5  UNL     1      -2.327  52.477 -23.851  1.00  0.00     0.013 C 
HETATM   26  C6  UNL     1      -3.663  51.756 -23.930  1.00  0.00     0.039 C 
HETATM   27  C7  UNL     1      -3.372  50.362 -23.352  1.00  0.00     0.062 C 
HETATM   28  C8  UNL     1      -4.633  49.781 -22.712  1.00  0.00     0.046 C 
BRANCH  24  29
HETATM   29  C2  UNL     1      -0.318  52.416 -22.217  1.00  0.00    -0.088 C 
HETATM   30  C1  UNL     1       0.624  52.512 -23.174  1.00  0.00     0.014 C 
HETATM   31  C3  UNL     1       0.058  52.720 -20.788  1.00  0.00     0.043 C 
ENDBRANCH  24  29
BRANCH  27  32
HETATM   32  O1  UNL     1      -3.029  49.477 -24.429  1.00  0.00    -0.390 OA
HETATM   33  H14 UNL     1      -2.284  49.863 -24.920  1.00  0.00     0.210 HD
ENDBRANCH  27  32
ENDBRANCH  22  23
ENDBRANCH  19  21
ENDBRANCH   1  18
BRANCH  15  34
HETATM   34  O4  UNL     1       0.077  51.740 -16.400  1.00  0.00    -0.389 OA
HETATM   35  H44 UNL     1       0.270  52.666 -16.627  1.00  0.00     0.210 HD
ENDBRANCH  15  34
BRANCH  11  36
HETATM   36  C26 UNL     1       4.024  49.780 -11.903  1.00  0.00     0.265 C 
HETATM   37  O3  UNL     1       4.931  49.696 -12.719  1.00  0.00    -0.302 OA
ENDBRANCH  11  36
TORSDOF 7
ENDMDL
MODEL 7
REMARK minimizedAffinity -8.32021427
REMARK CNNscore 0.335424066
REMARK CNNaffinity 6.09171724
REMARK  7 active torsions:
REMARK  status: ('A' for Active; 'I' for Inactive)
REMARK    1  A    between atoms: C2_2  and  C4_4 
REMARK    2  A    between atoms: C7_7  and  O1_9 
REMARK    3  A    between atoms: C9_10  and  C10_11 
REMARK    4  A    between atoms: C11_12  and  C12_13 
REMARK    5  A    between atoms: C14_15  and  C15_16 
REMARK    6  A    between atoms: C24_26  and  C26_28 
REMARK    7  A    between atoms: C29_32  and  O4_34 
ROOT
HETATM    1  C15 UNL     1      -7.259  47.192 -27.885  1.00  0.00     0.149 C 
HETATM    2  C16 UNL     1      -8.331  46.167 -27.498  1.00  0.00     0.054 C 
HETATM    3  C17 UNL     1      -9.696  46.826 -27.821  1.00  0.00     0.050 C 
HETATM    4  C18 UNL     1      -9.224  47.820 -28.913  1.00  0.00     0.272 C 
HETATM    5  O2  UNL     1      -9.009  47.231 -30.194  1.00  0.00    -0.360 OA
HETATM    6  C19 UNL     1     -10.164  47.204 -31.010  1.00  0.00     0.171 C 
HETATM    7  C20 UNL     1     -10.906  45.888 -30.862  1.00  0.00     0.027 C 
HETATM    8  C21 UNL     1     -10.524  45.069 -29.632  1.00  0.00     0.012 C 
HETATM    9  C22 UNL     1     -10.753  45.737 -28.257  1.00  0.00     0.032 C 
HETATM   10  C23 UNL     1     -12.224  46.177 -28.080  1.00  0.00    -0.066 C 
HETATM   11  C24 UNL     1     -13.271  45.329 -27.912  1.00  0.00    -0.021 C 
HETATM   12  C25 UNL     1     -14.704  45.763 -27.769  1.00  0.00     0.052 C 
HETATM   13  C27 UNL     1     -12.413  47.674 -28.053  1.00  0.00     0.038 C 
HETATM   14  C28 UNL     1     -11.596  48.342 -26.950  1.00  0.00     0.042 C 
HETATM   15  C29 UNL     1     -10.289  47.605 -26.569  1.00  0.00     0.067 C 
HETATM   16  C30 UNL     1     -10.548  46.702 -25.340  1.00  0.00     0.047 C 
HETATM   17  O5  UNL     1      -7.940  48.296 -28.485  1.00  0.00    -0.351 OA
ENDROOT
BRANCH   1  18
HETATM   18  C14 UNL     1      -6.447  47.698 -26.726  1.00  0.00     0.011 C 
HETATM   19  C12 UNL     1      -5.170  48.138 -26.730  1.00  0.00    -0.064 C 
HETATM   20  C13 UNL     1      -4.331  48.242 -27.978  1.00  0.00     0.048 C 
BRANCH  19  21
HETATM   21  C11 UNL     1      -4.581  48.573 -25.465  1.00  0.00     0.003 C 
HETATM   22  C10 UNL     1      -3.307  48.952 -25.264  1.00  0.00    -0.018 C 
BRANCH  22  23
HETATM   23  C9  UNL     1      -2.695  49.429 -23.962  1.00  0.00     0.050 C 
HETATM   24  C4  UNL     1      -3.527  49.267 -22.649  1.00  0.00     0.024 C 
HETATM   25  C5  UNL     1      -2.924  50.351 -21.740  1.00  0.00     0.013 C 
HETATM   26  C6  UNL     1      -2.769  51.542 -22.672  1.00  0.00     0.039 C 
HETATM   27  C7  UNL     1      -2.237  50.931 -23.977  1.00  0.00     0.062 C 
HETATM   28  C8  UNL     1      -2.674  51.775 -25.174  1.00  0.00     0.046 C 
BRANCH  24  29
HETATM   29  C2  UNL     1      -3.543  47.856 -22.061  1.00  0.00    -0.088 C 
HETATM   30  C1  UNL     1      -4.656  47.133 -21.835  1.00  0.00     0.014 C 
HETATM   31  C3  UNL     1      -2.198  47.238 -21.768  1.00  0.00     0.043 C 
ENDBRANCH  24  29
BRANCH  27  32
HETATM   32  O1  UNL     1      -0.802  50.981 -23.959  1.00  0.00    -0.390 OA
HETATM   33  H14 UNL     1      -0.488  50.530 -23.157  1.00  0.00     0.210 HD
ENDBRANCH  27  32
ENDBRANCH  22  23
ENDBRANCH  19  21
ENDBRANCH   1  18
BRANCH  15  34
HETATM   34  O4  UNL     1      -9.383  48.607 -26.099  1.00  0.00    -0.389 OA
HETATM   35  H44 UNL     1      -9.809  49.112 -25.385  1.00  0.00     0.210 HD
ENDBRANCH  15  34
BRANCH  11  36
HETATM   36  C26 UNL     1     -13.106  43.843 -27.858  1.00  0.00     0.265 C 
HETATM   37  O3  UNL     1     -13.923  43.046 -28.298  1.00  0.00    -0.302 OA
ENDBRANCH  11  36
TORSDOF 7
ENDMDL
MODEL 8
REMARK minimizedAffinity -7.56019402
REMARK CNNscore 0.279174447
REMARK CNNaffinity 5.40531778
REMARK  7 active torsions:
REMARK  status: ('A' for Active; 'I' for Inactive)
REMARK    1  A    between atoms: C2_2  and  C4_4 
REMARK    2  A    between atoms: C7_7  and  O1_9 
REMARK    3  A    between atoms: C9_10  and  C10_11 
REMARK    4  A    between atoms: C11_12  and  C12_13 
REMARK    5  A    between atoms: C14_15  and  C15_16 
REMARK    6  A    between atoms: C24_26  and  C26_28 
REMARK    7  A    between atoms: C29_32  and  O4_34 
ROOT
HETATM    1  C15 UNL     1     -12.909  45.331 -28.784  1.00  0.00     0.149 C 
HETATM    2  C16 UNL     1     -11.932  46.429 -29.219  1.00  0.00     0.054 C 
HETATM    3  C17 UNL     1     -10.549  46.030 -28.644  1.00  0.00     0.050 C 
HETATM    4  C18 UNL     1     -10.774  44.499 -28.536  1.00  0.00     0.272 C 
HETATM    5  O2  UNL     1     -10.657  43.796 -29.771  1.00  0.00    -0.360 OA
HETATM    6  C19 UNL     1      -9.339  43.373 -30.064  1.00  0.00     0.171 C 
HETATM    7  C20 UNL     1      -8.617  44.395 -30.922  1.00  0.00     0.027 C 
HETATM    8  C21 UNL     1      -9.259  45.780 -30.952  1.00  0.00     0.012 C 
HETATM    9  C22 UNL     1      -9.386  46.513 -29.598  1.00  0.00     0.032 C 
HETATM   10  C23 UNL     1      -8.015  46.656 -28.900  1.00  0.00    -0.066 C 
HETATM   11  C24 UNL     1      -7.014  47.472 -29.319  1.00  0.00    -0.021 C 
HETATM   12  C25 UNL     1      -5.671  47.585 -28.652  1.00  0.00     0.052 C 
HETATM   13  C27 UNL     1      -7.881  45.830 -27.644  1.00  0.00     0.038 C 
HETATM   14  C28 UNL     1      -8.958  46.163 -26.615  1.00  0.00     0.042 C 
HETATM   15  C29 UNL     1     -10.297  46.665 -27.210  1.00  0.00     0.067 C 
HETATM   16  C30 UNL     1     -10.314  48.211 -27.203  1.00  0.00     0.047 C 
HETATM   17  O5  UNL     1     -12.136  44.329 -28.120  1.00  0.00    -0.351 OA
ENDROOT
BRANCH   1  18
HETATM   18  C14 UNL     1     -13.990  45.804 -27.854  1.00  0.00     0.011 C 
HETATM   19  C12 UNL     1     -15.170  45.209 -27.575  1.00  0.00    -0.064 C 
HETATM   20  C13 UNL     1     -15.587  43.879 -28.148  1.00  0.00     0.048 C 
BRANCH  19  21
HETATM   21  C11 UNL     1     -16.076  45.871 -26.638  1.00  0.00     0.003 C 
HETATM   22  C10 UNL     1     -16.585  45.344 -25.510  1.00  0.00    -0.018 C 
BRANCH  22  23
HETATM   23  C9  UNL     1     -17.504  46.033 -24.520  1.00  0.00     0.050 C 
HETATM   24  C4  UNL     1     -17.244  45.814 -22.994  1.00  0.00     0.024 C 
HETATM   25  C5  UNL     1     -18.626  46.095 -22.381  1.00  0.00     0.013 C 
HETATM   26  C6  UNL     1     -19.580  45.392 -23.332  1.00  0.00     0.039 C 
HETATM   27  C7  UNL     1     -19.028  45.719 -24.728  1.00  0.00     0.062 C 
HETATM   28  C8  UNL     1     -19.376  44.600 -25.710  1.00  0.00     0.046 C 
BRANCH  24  29
HETATM   29  C2  UNL     1     -16.091  46.630 -22.409  1.00  0.00    -0.088 C 
HETATM   30  C1  UNL     1     -15.831  46.753 -21.094  1.00  0.00     0.014 C 
HETATM   31  C3  UNL     1     -15.168  47.292 -23.402  1.00  0.00     0.043 C 
ENDBRANCH  24  29
BRANCH  27  32
HETATM   32  O1  UNL     1     -19.683  46.898 -25.221  1.00  0.00    -0.390 OA
HETATM   33  H14 UNL     1     -19.561  47.612 -24.572  1.00  0.00     0.210 HD
ENDBRANCH  27  32
ENDBRANCH  22  23
ENDBRANCH  19  21
ENDBRANCH   1  18
BRANCH  15  34
HETATM   34  O4  UNL     1     -11.319  46.286 -26.283  1.00  0.00    -0.389 OA
HETATM   35  H44 UNL     1     -11.091  46.628 -25.402  1.00  0.00     0.210 HD
ENDBRANCH  15  34
BRANCH  11  36
HETATM   36  C26 UNL     1      -7.144  48.359 -30.517  1.00  0.00     0.265 C 
HETATM   37  O3  UNL     1      -8.027  49.193 -30.659  1.00  0.00    -0.302 OA
ENDBRANCH  11  36
TORSDOF 7
ENDMDL
MODEL 9
REMARK minimizedAffinity -8.78785706
REMARK CNNscore 0.274451911
REMARK CNNaffinity 5.98410082
REMARK  7 active torsions:
REMARK  status: ('A' for Active; 'I' for Inactive)
REMARK    1  A    between atoms: C2_2  and  C4_4 
REMARK    2  A    between atoms: C7_7  and  O1_9 
REMARK    3  A    between atoms: C9_10  and  C10_11 
REMARK    4  A    between atoms: C11_12  and  C12_13 
REMARK    5  A    between atoms: C14_15  and  C15_16 
REMARK    6  A    between atoms: C24_26  and  C26_28 
REMARK    7  A    between atoms: C29_32  and  O4_34 
ROOT
HETATM    1  C15 UNL     1      -4.738  47.813 -28.742  1.00  0.00     0.149 C 
HETATM    2  C16 UNL     1      -5.709  46.742 -29.253  1.00  0.00     0.054 C 
HETATM    3  C17 UNL     1      -6.556  47.420 -30.361  1.00  0.00     0.050 C 
HETATM    4  C18 UNL     1      -5.555  48.528 -30.775  1.00  0.00     0.272 C 
HETATM    5  O2  UNL     1      -4.494  48.082 -31.617  1.00  0.00    -0.360 OA
HETATM    6  C19 UNL     1      -4.802  48.131 -32.997  1.00  0.00     0.171 C 
HETATM    7  C20 UNL     1      -5.347  46.800 -33.482  1.00  0.00     0.027 C 
HETATM    8  C21 UNL     1      -5.822  45.858 -32.379  1.00  0.00     0.012 C 
HETATM    9  C22 UNL     1      -6.962  46.374 -31.472  1.00  0.00     0.032 C 
HETATM   10  C23 UNL     1      -8.203  46.780 -32.298  1.00  0.00    -0.066 C 
HETATM   11  C24 UNL     1      -9.025  45.910 -32.940  1.00  0.00    -0.021 C 
HETATM   12  C25 UNL     1     -10.215  46.313 -33.767  1.00  0.00     0.052 C 
HETATM   13  C27 UNL     1      -8.478  48.264 -32.297  1.00  0.00     0.038 C 
HETATM   14  C28 UNL     1      -8.662  48.818 -30.887  1.00  0.00     0.042 C 
HETATM   15  C29 UNL     1      -7.892  48.056 -29.780  1.00  0.00     0.067 C 
HETATM   16  C30 UNL     1      -8.834  47.026 -29.115  1.00  0.00     0.047 C 
HETATM   17  O5  UNL     1      -4.927  48.968 -29.562  1.00  0.00    -0.351 OA
ENDROOT
BRANCH   1  18
HETATM   18  C14 UNL     1      -4.951  48.199 -27.306  1.00  0.00     0.011 C 
HETATM   19  C12 UNL     1      -4.017  48.461 -26.365  1.00  0.00    -0.064 C 
HETATM   20  C13 UNL     1      -2.535  48.451 -26.639  1.00  0.00     0.048 C 
BRANCH  19  21
HETATM   21  C11 UNL     1      -4.467  48.807 -25.018  1.00  0.00     0.003 C 
HETATM   22  C10 UNL     1      -4.798  50.033 -24.576  1.00  0.00    -0.018 C 
BRANCH  22  23
HETATM   23  C9  UNL     1      -5.291  50.396 -23.189  1.00  0.00     0.050 C 
HETATM   24  C4  UNL     1      -4.341  50.142 -21.975  1.00  0.00     0.024 C 
HETATM   25  C5  UNL     1      -5.329  50.023 -20.802  1.00  0.00     0.013 C 
HETATM   26  C6  UNL     1      -6.451  49.173 -21.375  1.00  0.00     0.039 C 
HETATM   27  C7  UNL     1      -6.655  49.727 -22.794  1.00  0.00     0.062 C 
HETATM   28  C8  UNL     1      -7.181  48.630 -23.719  1.00  0.00     0.046 C 
BRANCH  24  29
HETATM   29  C2  UNL     1      -3.230  51.176 -21.791  1.00  0.00    -0.088 C 
HETATM   30  C1  UNL     1      -2.469  51.294 -20.687  1.00  0.00     0.014 C 
HETATM   31  C3  UNL     1      -2.960  52.083 -22.966  1.00  0.00     0.043 C 
ENDBRANCH  24  29
BRANCH  27  32
HETATM   32  O1  UNL     1      -7.676  50.736 -22.754  1.00  0.00    -0.390 OA
HETATM   33  H14 UNL     1      -7.418  51.409 -22.102  1.00  0.00     0.210 HD
ENDBRANCH  27  32
ENDBRANCH  22  23
ENDBRANCH  19  21
ENDBRANCH   1  18
BRANCH  15  34
HETATM   34  O4  UNL     1      -7.613  49.010 -28.752  1.00  0.00    -0.389 OA
HETATM   35  H44 UNL     1      -8.445  49.432 -28.476  1.00  0.00     0.210 HD
ENDBRANCH  15  34
BRANCH  11  36
HETATM   36  C26 UNL     1      -8.822  44.428 -32.898  1.00  0.00     0.265 C 
HETATM   37  O3  UNL     1      -9.703  43.609 -33.119  1.00  0.00    -0.302 OA
ENDBRANCH  11  36
TORSDOF 7
ENDMDL
