MODEL 1
REMARK minimizedAffinity -7.0764389
REMARK CNNscore 0.681839883
REMARK CNNaffinity 6.41712046
REMARK  13 active torsions:
REMARK  status: ('A' for Active; 'I' for Inactive)
REMARK    1  A    between atoms: C4_4  and  C5_5 
REMARK    2  A    between atoms: C5_5  and  C6_6 
REMARK    3  A    between atoms: C6_6  and  C7_7 
REMARK    4  A    between atoms: C9_9  and  C10_10 
REMARK    5  A    between atoms: C11_11  and  C12_12 
REMARK    6  A    between atoms: C14_14  and  C15_15 
REMARK    7  A    between atoms: C18_18  and  O1_19 
REMARK    8  A    between atoms: C19_21  and  C20_22 
REMARK    9  A    between atoms: C20_22  and  C21_23 
REMARK   10  A    between atoms: C21_23  and  C22_24 
REMARK   11  A    between atoms: C22_24  and  O3_25 
REMARK   12  A    between atoms: C24_27  and  C26_29 
REMARK   13  A    between atoms: C29_33  and  O5_35 
ROOT
HETATM    1  C15 UNL     1      -0.088   8.592  12.689  1.00  0.00     0.149 C 
HETATM    2  C16 UNL     1       1.307   9.116  12.292  1.00  0.00     0.054 C 
HETATM    3  C17 UNL     1       2.201   7.855  12.394  1.00  0.00     0.050 C 
HETATM    4  C18 UNL     1       1.524   7.253  13.637  1.00  0.00     0.270 C 
HETATM    5  O2  UNL     1       0.125   7.363  13.411  1.00  0.00    -0.351 OA
HETATM    6  C19 UNL     1       1.985   7.006  11.057  1.00  0.00     0.032 C 
HETATM    7  C23 UNL     1       2.675   7.705   9.861  1.00  0.00    -0.066 C 
HETATM    8  C24 UNL     1       2.009   8.054   8.730  1.00  0.00    -0.021 C 
HETATM    9  C25 UNL     1       0.552   7.775   8.458  1.00  0.00     0.052 C 
HETATM   10  C27 UNL     1       4.146   7.961  10.131  1.00  0.00     0.038 C 
HETATM   11  C28 UNL     1       4.340   8.810  11.385  1.00  0.00     0.042 C 
HETATM   12  C29 UNL     1       3.717   8.161  12.633  1.00  0.00     0.067 C 
HETATM   13  C30 UNL     1       4.034   9.056  13.844  1.00  0.00     0.047 C 
ENDROOT
BRANCH   4  14
HETATM   14  O1  UNL     1       1.900   5.927  13.902  1.00  0.00    -0.370 OA
HETATM   15  H26 UNL     1       1.303   5.646  14.619  1.00  0.00     0.212 HD
ENDBRANCH   4  14
BRANCH   6  16
HETATM   16  C20 UNL     1       2.388   5.506  11.061  1.00  0.00     0.012 C 
BRANCH  16  17
HETATM   17  C21 UNL     1       3.527   5.208  10.076  1.00  0.00     0.027 C 
BRANCH  17  18
HETATM   18  C22 UNL     1       3.349   3.850   9.410  1.00  0.00     0.164 C 
BRANCH  18  19
HETATM   19  O3  UNL     1       4.445   3.003   9.732  1.00  0.00    -0.401 OA
HETATM   20  H34 UNL     1       4.484   2.932  10.701  1.00  0.00     0.209 HD
ENDBRANCH  18  19
ENDBRANCH  17  18
ENDBRANCH  16  17
ENDBRANCH   6  16
BRANCH  12  21
HETATM   21  O5  UNL     1       4.444   6.947  12.874  1.00  0.00    -0.389 OA
HETATM   22  H46 UNL     1       3.922   6.389  13.482  1.00  0.00     0.210 HD
ENDBRANCH  12  21
BRANCH   1  23
HETATM   23  C14 UNL     1      -0.843   9.533  13.584  1.00  0.00     0.011 C 
HETATM   24  C12 UNL     1      -2.178   9.607  13.780  1.00  0.00    -0.063 C 
HETATM   25  C13 UNL     1      -3.177   8.680  13.135  1.00  0.00     0.048 C 
BRANCH  24  26
HETATM   26  C11 UNL     1      -2.691  10.635  14.691  1.00  0.00     0.006 C 
HETATM   27  C10 UNL     1      -2.164  10.989  15.877  1.00  0.00     0.001 C 
BRANCH  27  28
HETATM   28  C9  UNL     1      -2.746  12.023  16.710  1.00  0.00     0.002 C 
HETATM   29  C7  UNL     1      -2.441  12.303  17.993  1.00  0.00    -0.084 C 
HETATM   30  C8  UNL     1      -1.426  11.579  18.839  1.00  0.00     0.043 C 
BRANCH  29  31
HETATM   31  C6  UNL     1      -3.164  13.433  18.709  1.00  0.00     0.037 C 
BRANCH  31  32
HETATM   32  C5  UNL     1      -4.655  13.138  18.911  1.00  0.00     0.031 C 
BRANCH  32  33
HETATM   33  C4  UNL     1      -5.020  13.134  20.372  1.00  0.00    -0.024 C 
HETATM   34  C2  UNL     1      -6.229  13.355  20.923  1.00  0.00    -0.091 C 
HETATM   35  C1  UNL     1      -7.480  13.699  20.163  1.00  0.00     0.042 C 
HETATM   36  C3  UNL     1      -6.416  13.274  22.417  1.00  0.00     0.042 C 
ENDBRANCH  32  33
ENDBRANCH  31  32
ENDBRANCH  29  31
ENDBRANCH  27  28
ENDBRANCH  24  26
ENDBRANCH   1  23
BRANCH   8  37
HETATM   37  C26 UNL     1       2.677   8.763   7.589  1.00  0.00     0.265 C 
HETATM   38  O4  UNL     1       3.602   9.554   7.754  1.00  0.00    -0.302 OA
ENDBRANCH   8  37
TORSDOF 13
ENDMDL
MODEL 2
REMARK minimizedAffinity -5.86482763
REMARK CNNscore 0.410364509
REMARK CNNaffinity 6.02069044
REMARK  13 active torsions:
REMARK  status: ('A' for Active; 'I' for Inactive)
REMARK    1  A    between atoms: C4_4  and  C5_5 
REMARK    2  A    between atoms: C5_5  and  C6_6 
REMARK    3  A    between atoms: C6_6  and  C7_7 
REMARK    4  A    between atoms: C9_9  and  C10_10 
REMARK    5  A    between atoms: C11_11  and  C12_12 
REMARK    6  A    between atoms: C14_14  and  C15_15 
REMARK    7  A    between atoms: C18_18  and  O1_19 
REMARK    8  A    between atoms: C19_21  and  C20_22 
REMARK    9  A    between atoms: C20_22  and  C21_23 
REMARK   10  A    between atoms: C21_23  and  C22_24 
REMARK   11  A    between atoms: C22_24  and  O3_25 
REMARK   12  A    between atoms: C24_27  and  C26_29 
REMARK   13  A    between atoms: C29_33  and  O5_35 
ROOT
HETATM    1  C15 UNL     1     -10.595  11.065  22.608  1.00  0.00     0.149 C 
HETATM    2  C16 UNL     1     -10.128  11.419  21.182  1.00  0.00     0.054 C 
HETATM    3  C17 UNL     1     -10.613  12.879  21.003  1.00  0.00     0.050 C 
HETATM    4  C18 UNL     1     -11.945  12.721  21.757  1.00  0.00     0.270 C 
HETATM    5  O2  UNL     1     -11.638  12.002  22.943  1.00  0.00    -0.351 OA
HETATM    6  C19 UNL     1      -9.556  13.829  21.736  1.00  0.00     0.032 C 
HETATM    7  C23 UNL     1      -8.243  13.899  20.920  1.00  0.00    -0.066 C 
HETATM    8  C24 UNL     1      -7.033  13.579  21.445  1.00  0.00    -0.021 C 
HETATM    9  C25 UNL     1      -6.788  13.165  22.875  1.00  0.00     0.052 C 
HETATM   10  C27 UNL     1      -8.494  14.340  19.489  1.00  0.00     0.038 C 
HETATM   11  C28 UNL     1      -9.470  13.402  18.784  1.00  0.00     0.042 C 
HETATM   12  C29 UNL     1     -10.822  13.308  19.512  1.00  0.00     0.067 C 
HETATM   13  C30 UNL     1     -11.749  12.403  18.682  1.00  0.00     0.047 C 
ENDROOT
BRANCH   4  14
HETATM   14  O1  UNL     1     -12.583  13.938  22.043  1.00  0.00    -0.370 OA
HETATM   15  H26 UNL     1     -13.324  13.691  22.625  1.00  0.00     0.212 HD
ENDBRANCH   4  14
BRANCH   6  16
HETATM   16  C20 UNL     1      -9.993  15.271  22.109  1.00  0.00     0.012 C 
BRANCH  16  17
HETATM   17  C21 UNL     1     -10.197  15.444  23.621  1.00  0.00     0.027 C 
BRANCH  17  18
HETATM   18  C22 UNL     1      -9.493  14.349  24.409  1.00  0.00     0.164 C 
BRANCH  18  19
HETATM   19  O3  UNL     1      -8.491  14.917  25.243  1.00  0.00    -0.401 OA
HETATM   20  H34 UNL     1      -8.928  15.562  25.825  1.00  0.00     0.209 HD
ENDBRANCH  18  19
ENDBRANCH  17  18
ENDBRANCH  16  17
ENDBRANCH   6  16
BRANCH  12  21
HETATM   21  O5  UNL     1     -11.420  14.611  19.442  1.00  0.00    -0.389 OA
HETATM   22  H46 UNL     1     -12.136  14.658  20.104  1.00  0.00     0.210 HD
ENDBRANCH  12  21
BRANCH   1  23
HETATM   23  C14 UNL     1     -11.161   9.678  22.720  1.00  0.00     0.011 C 
HETATM   24  C12 UNL     1     -11.370   8.949  23.838  1.00  0.00    -0.063 C 
HETATM   25  C13 UNL     1     -11.098   9.452  25.234  1.00  0.00     0.048 C 
BRANCH  24  26
HETATM   26  C11 UNL     1     -11.914   7.595  23.695  1.00  0.00     0.006 C 
HETATM   27  C10 UNL     1     -13.201   7.231  23.841  1.00  0.00     0.001 C 
BRANCH  27  28
HETATM   28  C9  UNL     1     -13.643   5.860  23.678  1.00  0.00     0.002 C 
HETATM   29  C7  UNL     1     -14.011   5.254  22.531  1.00  0.00    -0.084 C 
HETATM   30  C8  UNL     1     -14.047   5.891  21.166  1.00  0.00     0.043 C 
BRANCH  29  31
HETATM   31  C6  UNL     1     -14.451   3.799  22.556  1.00  0.00     0.037 C 
BRANCH  31  32
HETATM   32  C5  UNL     1     -13.337   2.859  23.032  1.00  0.00     0.031 C 
BRANCH  32  33
HETATM   33  C4  UNL     1     -13.409   2.632  24.519  1.00  0.00    -0.024 C 
HETATM   34  C2  UNL     1     -12.527   1.978  25.299  1.00  0.00    -0.091 C 
HETATM   35  C1  UNL     1     -11.280   1.291  24.815  1.00  0.00     0.042 C 
HETATM   36  C3  UNL     1     -12.747   1.881  26.788  1.00  0.00     0.042 C 
ENDBRANCH  32  33
ENDBRANCH  31  32
ENDBRANCH  29  31
ENDBRANCH  27  28
ENDBRANCH  24  26
ENDBRANCH   1  23
BRANCH   8  37
HETATM   37  C26 UNL     1      -5.770  13.617  20.637  1.00  0.00     0.265 C 
HETATM   38  O4  UNL     1      -5.623  12.963  19.608  1.00  0.00    -0.302 OA
ENDBRANCH   8  37
TORSDOF 13
ENDMDL
MODEL 3
REMARK minimizedAffinity -6.87793064
REMARK CNNscore 0.372471631
REMARK CNNaffinity 6.07218027
REMARK  13 active torsions:
REMARK  status: ('A' for Active; 'I' for Inactive)
REMARK    1  A    between atoms: C4_4  and  C5_5 
REMARK    2  A    between atoms: C5_5  and  C6_6 
REMARK    3  A    between atoms: C6_6  and  C7_7 
REMARK    4  A    between atoms: C9_9  and  C10_10 
REMARK    5  A    between atoms: C11_11  and  C12_12 
REMARK    6  A    between atoms: C14_14  and  C15_15 
REMARK    7  A    between atoms: C18_18  and  O1_19 
REMARK    8  A    between atoms: C19_21  and  C20_22 
REMARK    9  A    between atoms: C20_22  and  C21_23 
REMARK   10  A    between atoms: C21_23  and  C22_24 
REMARK   11  A    between atoms: C22_24  and  O3_25 
REMARK   12  A    between atoms: C24_27  and  C26_29 
REMARK   13  A    between atoms: C29_33  and  O5_35 
ROOT
HETATM    1  C15 UNL     1       3.056   8.798  12.952  1.00  0.00     0.149 C 
HETATM    2  C16 UNL     1       3.594  10.049  13.675  1.00  0.00     0.054 C 
HETATM    3  C17 UNL     1       4.748   9.487  14.543  1.00  0.00     0.050 C 
HETATM    4  C18 UNL     1       4.062   8.163  14.920  1.00  0.00     0.270 C 
HETATM    5  O2  UNL     1       3.498   7.659  13.717  1.00  0.00    -0.351 OA
HETATM    6  C19 UNL     1       6.022   9.315  13.592  1.00  0.00     0.032 C 
HETATM    7  C23 UNL     1       6.621  10.699  13.245  1.00  0.00    -0.066 C 
HETATM    8  C24 UNL     1       6.793  11.126  11.967  1.00  0.00    -0.021 C 
HETATM    9  C25 UNL     1       6.481  10.319  10.732  1.00  0.00     0.052 C 
HETATM   10  C27 UNL     1       6.956  11.496  14.492  1.00  0.00     0.038 C 
HETATM   11  C28 UNL     1       5.724  11.693  15.372  1.00  0.00     0.042 C 
HETATM   12  C29 UNL     1       5.090  10.358  15.798  1.00  0.00     0.067 C 
HETATM   13  C30 UNL     1       3.910  10.668  16.735  1.00  0.00     0.047 C 
ENDROOT
BRANCH   4  14
HETATM   14  O1  UNL     1       4.923   7.228  15.517  1.00  0.00    -0.370 OA
HETATM   15  H26 UNL     1       4.392   6.413  15.574  1.00  0.00     0.212 HD
ENDBRANCH   4  14
BRANCH   6  16
HETATM   16  C20 UNL     1       7.168   8.375  14.055  1.00  0.00     0.012 C 
BRANCH  16  17
HETATM   17  C21 UNL     1       7.747   7.551  12.897  1.00  0.00     0.027 C 
BRANCH  17  18
HETATM   18  C22 UNL     1       6.647   6.903  12.067  1.00  0.00     0.164 C 
BRANCH  18  19
HETATM   19  O3  UNL     1       7.054   6.814  10.707  1.00  0.00    -0.401 OA
HETATM   20  H34 UNL     1       7.880   6.302  10.683  1.00  0.00     0.209 HD
ENDBRANCH  18  19
ENDBRANCH  17  18
ENDBRANCH  16  17
ENDBRANCH   6  16
BRANCH  12  21
HETATM   21  O5  UNL     1       6.052   9.690  16.627  1.00  0.00    -0.389 OA
HETATM   22  H46 UNL     1       5.800   8.749  16.697  1.00  0.00     0.210 HD
ENDBRANCH  12  21
BRANCH   1  23
HETATM   23  C14 UNL     1       1.556   8.755  12.878  1.00  0.00     0.011 C 
HETATM   24  C12 UNL     1       0.779   8.540  11.794  1.00  0.00    -0.063 C 
HETATM   25  C13 UNL     1       1.319   8.248  10.416  1.00  0.00     0.048 C 
BRANCH  24  26
HETATM   26  C11 UNL     1      -0.677   8.570  11.963  1.00  0.00     0.006 C 
HETATM   27  C10 UNL     1      -1.416   7.711  12.687  1.00  0.00     0.001 C 
BRANCH  27  28
HETATM   28  C9  UNL     1      -2.857   7.824  12.794  1.00  0.00     0.002 C 
HETATM   29  C7  UNL     1      -3.716   6.891  13.250  1.00  0.00    -0.084 C 
HETATM   30  C8  UNL     1      -3.348   5.513  13.737  1.00  0.00     0.043 C 
BRANCH  29  31
HETATM   31  C6  UNL     1      -5.205   7.192  13.288  1.00  0.00     0.037 C 
BRANCH  31  32
HETATM   32  C5  UNL     1      -5.925   6.444  14.415  1.00  0.00     0.031 C 
BRANCH  32  33
HETATM   33  C4  UNL     1      -6.484   5.131  13.933  1.00  0.00    -0.024 C 
HETATM   34  C2  UNL     1      -7.685   4.900  13.370  1.00  0.00    -0.091 C 
HETATM   35  C1  UNL     1      -8.752   5.935  13.143  1.00  0.00     0.042 C 
HETATM   36  C3  UNL     1      -8.062   3.514  12.912  1.00  0.00     0.042 C 
ENDBRANCH  32  33
ENDBRANCH  31  32
ENDBRANCH  29  31
ENDBRANCH  27  28
ENDBRANCH  24  26
ENDBRANCH   1  23
BRANCH   8  37
HETATM   37  C26 UNL     1       7.343  12.483  11.639  1.00  0.00     0.265 C 
HETATM   38  O4  UNL     1       6.699  13.515  11.807  1.00  0.00    -0.302 OA
ENDBRANCH   8  37
TORSDOF 13
ENDMDL
MODEL 4
REMARK minimizedAffinity -6.219028
REMARK CNNscore 0.33631134
REMARK CNNaffinity 5.50696898
REMARK  13 active torsions:
REMARK  status: ('A' for Active; 'I' for Inactive)
REMARK    1  A    between atoms: C4_4  and  C5_5 
REMARK    2  A    between atoms: C5_5  and  C6_6 
REMARK    3  A    between atoms: C6_6  and  C7_7 
REMARK    4  A    between atoms: C9_9  and  C10_10 
REMARK    5  A    between atoms: C11_11  and  C12_12 
REMARK    6  A    between atoms: C14_14  and  C15_15 
REMARK    7  A    between atoms: C18_18  and  O1_19 
REMARK    8  A    between atoms: C19_21  and  C20_22 
REMARK    9  A    between atoms: C20_22  and  C21_23 
REMARK   10  A    between atoms: C21_23  and  C22_24 
REMARK   11  A    between atoms: C22_24  and  O3_25 
REMARK   12  A    between atoms: C24_27  and  C26_29 
REMARK   13  A    between atoms: C29_33  and  O5_35 
ROOT
HETATM    1  C15 UNL     1      -8.629  -9.688   8.526  1.00  0.00     0.149 C 
HETATM    2  C16 UNL     1      -7.614 -10.544   9.310  1.00  0.00     0.054 C 
HETATM    3  C17 UNL     1      -7.373  -9.716  10.597  1.00  0.00     0.050 C 
HETATM    4  C18 UNL     1      -7.416  -8.330   9.932  1.00  0.00     0.270 C 
HETATM    5  O2  UNL     1      -8.538  -8.352   9.059  1.00  0.00    -0.351 OA
HETATM    6  C19 UNL     1      -8.594 -10.005  11.588  1.00  0.00     0.032 C 
HETATM    7  C23 UNL     1      -8.477 -11.429  12.181  1.00  0.00    -0.066 C 
HETATM    8  C24 UNL     1      -9.464 -12.355  12.069  1.00  0.00    -0.021 C 
HETATM    9  C25 UNL     1     -10.801 -12.124  11.410  1.00  0.00     0.052 C 
HETATM   10  C27 UNL     1      -7.139 -11.646  12.864  1.00  0.00     0.038 C 
HETATM   11  C28 UNL     1      -5.980 -11.412  11.898  1.00  0.00     0.042 C 
HETATM   12  C29 UNL     1      -5.999  -9.998  11.294  1.00  0.00     0.067 C 
HETATM   13  C30 UNL     1      -4.755  -9.845  10.400  1.00  0.00     0.047 C 
ENDROOT
BRANCH   4  14
HETATM   14  O1  UNL     1      -7.494  -7.265  10.843  1.00  0.00    -0.370 OA
HETATM   15  H26 UNL     1      -7.647  -6.481  10.285  1.00  0.00     0.212 HD
ENDBRANCH   4  14
BRANCH   6  16
HETATM   16  C20 UNL     1      -8.861  -9.001  12.742  1.00  0.00     0.012 C 
BRANCH  16  17
HETATM   17  C21 UNL     1     -10.355  -8.885  13.077  1.00  0.00     0.027 C 
BRANCH  17  18
HETATM   18  C22 UNL     1     -10.675  -9.510  14.428  1.00  0.00     0.164 C 
BRANCH  18  19
HETATM   19  O3  UNL     1      -9.473  -9.745  15.151  1.00  0.00    -0.401 OA
HETATM   20  H34 UNL     1      -9.016  -8.892  15.243  1.00  0.00     0.209 HD
ENDBRANCH  18  19
ENDBRANCH  17  18
ENDBRANCH  16  17
ENDBRANCH   6  16
BRANCH  12  21
HETATM   21  O5  UNL     1      -5.787  -9.082  12.378  1.00  0.00    -0.389 OA
HETATM   22  H46 UNL     1      -6.051  -8.189  12.084  1.00  0.00     0.210 HD
ENDBRANCH  12  21
BRANCH   1  23
HETATM   23  C14 UNL     1      -8.337  -9.623   7.053  1.00  0.00     0.011 C 
HETATM   24  C12 UNL     1      -7.198  -9.226   6.445  1.00  0.00    -0.063 C 
HETATM   25  C13 UNL     1      -5.952  -8.805   7.183  1.00  0.00     0.048 C 
BRANCH  24  26
HETATM   26  C11 UNL     1      -7.157  -9.222   4.979  1.00  0.00     0.006 C 
HETATM   27  C10 UNL     1      -7.290 -10.290   4.173  1.00  0.00     0.001 C 
BRANCH  27  28
HETATM   28  C9  UNL     1      -7.235 -10.185   2.728  1.00  0.00     0.002 C 
HETATM   29  C7  UNL     1      -6.131 -10.109   1.959  1.00  0.00    -0.084 C 
HETATM   30  C8  UNL     1      -4.707 -10.107   2.452  1.00  0.00     0.043 C 
BRANCH  29  31
HETATM   31  C6  UNL     1      -6.272 -10.001   0.449  1.00  0.00     0.037 C 
BRANCH  31  32
HETATM   32  C5  UNL     1      -7.730 -10.103  -0.012  1.00  0.00     0.031 C 
BRANCH  32  33
HETATM   33  C4  UNL     1      -8.260  -8.765  -0.456  1.00  0.00    -0.024 C 
HETATM   34  C2  UNL     1      -8.156  -8.197  -1.672  1.00  0.00    -0.091 C 
HETATM   35  C1  UNL     1      -7.431  -8.789  -2.849  1.00  0.00     0.042 C 
HETATM   36  C3  UNL     1      -8.786  -6.854  -1.947  1.00  0.00     0.042 C 
ENDBRANCH  32  33
ENDBRANCH  31  32
ENDBRANCH  29  31
ENDBRANCH  27  28
ENDBRANCH  24  26
ENDBRANCH   1  23
BRANCH   8  37
HETATM   37  C26 UNL     1      -9.329 -13.745  12.617  1.00  0.00     0.265 C 
HETATM   38  O4  UNL     1      -9.598 -14.026  13.781  1.00  0.00    -0.302 OA
ENDBRANCH   8  37
TORSDOF 13
ENDMDL
MODEL 5
REMARK minimizedAffinity -5.97377539
REMARK CNNscore 0.334342301
REMARK CNNaffinity 5.45585108
REMARK  13 active torsions:
REMARK  status: ('A' for Active; 'I' for Inactive)
REMARK    1  A    between atoms: C4_4  and  C5_5 
REMARK    2  A    between atoms: C5_5  and  C6_6 
REMARK    3  A    between atoms: C6_6  and  C7_7 
REMARK    4  A    between atoms: C9_9  and  C10_10 
REMARK    5  A    between atoms: C11_11  and  C12_12 
REMARK    6  A    between atoms: C14_14  and  C15_15 
REMARK    7  A    between atoms: C18_18  and  O1_19 
REMARK    8  A    between atoms: C19_21  and  C20_22 
REMARK    9  A    between atoms: C20_22  and  C21_23 
REMARK   10  A    between atoms: C21_23  and  C22_24 
REMARK   11  A    between atoms: C22_24  and  O3_25 
REMARK   12  A    between atoms: C24_27  and  C26_29 
REMARK   13  A    between atoms: C29_33  and  O5_35 
ROOT
HETATM    1  C15 UNL     1      -8.368  -9.472   8.457  1.00  0.00     0.149 C 
HETATM    2  C16 UNL     1      -7.453 -10.400   9.281  1.00  0.00     0.054 C 
HETATM    3  C17 UNL     1      -7.245  -9.613  10.599  1.00  0.00     0.050 C 
HETATM    4  C18 UNL     1      -7.170  -8.214   9.964  1.00  0.00     0.270 C 
HETATM    5  O2  UNL     1      -8.235  -8.154   9.025  1.00  0.00    -0.351 OA
HETATM    6  C19 UNL     1      -8.539  -9.850  11.508  1.00  0.00     0.032 C 
HETATM    7  C23 UNL     1      -8.540 -11.290  12.074  1.00  0.00    -0.066 C 
HETATM    8  C24 UNL     1      -9.569 -12.155  11.880  1.00  0.00    -0.021 C 
HETATM    9  C25 UNL     1     -10.847 -11.835  11.148  1.00  0.00     0.052 C 
HETATM   10  C27 UNL     1      -7.261 -11.598  12.830  1.00  0.00     0.038 C 
HETATM   11  C28 UNL     1      -6.033 -11.411  11.942  1.00  0.00     0.042 C 
HETATM   12  C29 UNL     1      -5.935  -9.987  11.370  1.00  0.00     0.067 C 
HETATM   13  C30 UNL     1      -4.632  -9.888  10.557  1.00  0.00     0.047 C 
ENDROOT
BRANCH   4  14
HETATM   14  O1  UNL     1      -7.243  -7.164  10.894  1.00  0.00    -0.370 OA
HETATM   15  H26 UNL     1      -7.317  -6.362  10.346  1.00  0.00     0.212 HD
ENDBRANCH   4  14
BRANCH   6  16
HETATM   16  C20 UNL     1      -8.820  -8.855  12.666  1.00  0.00     0.012 C 
BRANCH  16  17
HETATM   17  C21 UNL     1     -10.322  -8.682  12.933  1.00  0.00     0.027 C 
BRANCH  17  18
HETATM   18  C22 UNL     1     -10.729  -9.299  14.263  1.00  0.00     0.164 C 
BRANCH  18  19
HETATM   19  O3  UNL     1     -10.857  -8.284  15.251  1.00  0.00    -0.401 OA
HETATM   20  H34 UNL     1     -11.515  -7.645  14.928  1.00  0.00     0.209 HD
ENDBRANCH  18  19
ENDBRANCH  17  18
ENDBRANCH  16  17
ENDBRANCH   6  16
BRANCH  12  21
HETATM   21  O5  UNL     1      -5.739  -9.107  12.486  1.00  0.00    -0.389 OA
HETATM   22  H46 UNL     1      -5.933  -8.194  12.198  1.00  0.00     0.210 HD
ENDBRANCH  12  21
BRANCH   1  23
HETATM   23  C14 UNL     1      -7.983  -9.394   7.007  1.00  0.00     0.011 C 
HETATM   24  C12 UNL     1      -8.762  -9.064   5.953  1.00  0.00    -0.063 C 
HETATM   25  C13 UNL     1     -10.208  -8.653   6.071  1.00  0.00     0.048 C 
BRANCH  24  26
HETATM   26  C11 UNL     1      -8.166  -9.084   4.614  1.00  0.00     0.006 C 
HETATM   27  C10 UNL     1      -8.596  -9.795   3.557  1.00  0.00     0.001 C 
BRANCH  27  28
HETATM   28  C9  UNL     1      -7.937  -9.747   2.267  1.00  0.00     0.002 C 
HETATM   29  C7  UNL     1      -8.475  -9.364   1.091  1.00  0.00    -0.084 C 
HETATM   30  C8  UNL     1      -9.896  -8.912   0.874  1.00  0.00     0.043 C 
BRANCH  29  31
HETATM   31  C6  UNL     1      -7.622  -9.381  -0.167  1.00  0.00     0.037 C 
BRANCH  31  32
HETATM   32  C5  UNL     1      -7.859 -10.634  -1.018  1.00  0.00     0.031 C 
BRANCH  32  33
HETATM   33  C4  UNL     1      -6.685 -10.916  -1.918  1.00  0.00    -0.024 C 
HETATM   34  C2  UNL     1      -5.397 -11.092  -1.567  1.00  0.00    -0.091 C 
HETATM   35  C1  UNL     1      -4.857 -10.998  -0.167  1.00  0.00     0.042 C 
HETATM   36  C3  UNL     1      -4.355 -11.405  -2.611  1.00  0.00     0.042 C 
ENDBRANCH  32  33
ENDBRANCH  31  32
ENDBRANCH  29  31
ENDBRANCH  27  28
ENDBRANCH  24  26
ENDBRANCH   1  23
BRANCH   8  37
HETATM   37  C26 UNL     1      -9.546 -13.561  12.403  1.00  0.00     0.265 C 
HETATM   38  O4  UNL     1      -8.584 -14.308  12.249  1.00  0.00    -0.302 OA
ENDBRANCH   8  37
TORSDOF 13
ENDMDL
MODEL 6
REMARK minimizedAffinity -8.19753551
REMARK CNNscore 0.302704692
REMARK CNNaffinity 6.04427671
REMARK  13 active torsions:
REMARK  status: ('A' for Active; 'I' for Inactive)
REMARK    1  A    between atoms: C4_4  and  C5_5 
REMARK    2  A    between atoms: C5_5  and  C6_6 
REMARK    3  A    between atoms: C6_6  and  C7_7 
REMARK    4  A    between atoms: C9_9  and  C10_10 
REMARK    5  A    between atoms: C11_11  and  C12_12 
REMARK    6  A    between atoms: C14_14  and  C15_15 
REMARK    7  A    between atoms: C18_18  and  O1_19 
REMARK    8  A    between atoms: C19_21  and  C20_22 
REMARK    9  A    between atoms: C20_22  and  C21_23 
REMARK   10  A    between atoms: C21_23  and  C22_24 
REMARK   11  A    between atoms: C22_24  and  O3_25 
REMARK   12  A    between atoms: C24_27  and  C26_29 
REMARK   13  A    between atoms: C29_33  and  O5_35 
ROOT
HETATM    1  C15 UNL     1      -4.213   6.321  13.526  1.00  0.00     0.149 C 
HETATM    2  C16 UNL     1      -3.685   7.747  13.268  1.00  0.00     0.054 C 
HETATM    3  C17 UNL     1      -2.647   7.950  14.399  1.00  0.00     0.050 C 
HETATM    4  C18 UNL     1      -3.427   7.208  15.497  1.00  0.00     0.270 C 
HETATM    5  O2  UNL     1      -3.899   6.009  14.897  1.00  0.00    -0.351 OA
HETATM    6  C19 UNL     1      -1.298   7.219  13.948  1.00  0.00     0.032 C 
HETATM    7  C23 UNL     1      -0.604   8.023  12.822  1.00  0.00    -0.066 C 
HETATM    8  C24 UNL     1      -0.292   7.481  11.617  1.00  0.00    -0.021 C 
HETATM    9  C25 UNL     1      -0.526   6.044  11.223  1.00  0.00     0.052 C 
HETATM   10  C27 UNL     1      -0.350   9.462  13.234  1.00  0.00     0.038 C 
HETATM   11  C28 UNL     1      -1.649  10.165  13.621  1.00  0.00     0.042 C 
HETATM   12  C29 UNL     1      -2.383   9.449  14.767  1.00  0.00     0.067 C 
HETATM   13  C30 UNL     1      -3.630  10.276  15.125  1.00  0.00     0.047 C 
ENDROOT
BRANCH   4  14
HETATM   14  O1  UNL     1      -2.672   6.944  16.651  1.00  0.00    -0.370 OA
HETATM   15  H26 UNL     1      -3.245   6.366  17.187  1.00  0.00     0.212 HD
ENDBRANCH   4  14
BRANCH   6  16
HETATM   16  C20 UNL     1      -0.248   6.869  15.036  1.00  0.00     0.012 C 
BRANCH  16  17
HETATM   17  C21 UNL     1       1.140   6.597  14.439  1.00  0.00     0.027 C 
BRANCH  17  18
HETATM   18  C22 UNL     1       2.219   7.412  15.138  1.00  0.00     0.164 C 
BRANCH  18  19
HETATM   19  O3  UNL     1       3.151   6.543  15.769  1.00  0.00    -0.401 OA
HETATM   20  H34 UNL     1       3.520   5.962  15.082  1.00  0.00     0.209 HD
ENDBRANCH  18  19
ENDBRANCH  17  18
ENDBRANCH  16  17
ENDBRANCH   6  16
BRANCH  12  21
HETATM   21  O5  UNL     1      -1.536   9.542  15.922  1.00  0.00    -0.389 OA
HETATM   22  H46 UNL     1      -1.838   8.888  16.581  1.00  0.00     0.210 HD
ENDBRANCH  12  21
BRANCH   1  23
HETATM   23  C14 UNL     1      -5.700   6.197  13.348  1.00  0.00     0.011 C 
HETATM   24  C12 UNL     1      -6.408   5.107  12.981  1.00  0.00    -0.063 C 
HETATM   25  C13 UNL     1      -5.796   3.754  12.719  1.00  0.00     0.048 C 
BRANCH  24  26
HETATM   26  C11 UNL     1      -7.863   5.235  12.847  1.00  0.00     0.006 C 
HETATM   27  C10 UNL     1      -8.624   6.241  13.315  1.00  0.00     0.001 C 
BRANCH  27  28
HETATM   28  C9  UNL     1     -10.061   6.278  13.131  1.00  0.00     0.002 C 
HETATM   29  C7  UNL     1     -10.951   7.022  13.818  1.00  0.00    -0.084 C 
HETATM   30  C8  UNL     1     -10.628   7.973  14.943  1.00  0.00     0.043 C 
BRANCH  29  31
HETATM   31  C6  UNL     1     -12.431   6.927  13.482  1.00  0.00     0.037 C 
BRANCH  31  32
HETATM   32  C5  UNL     1     -13.210   6.095  14.507  1.00  0.00     0.031 C 
BRANCH  32  33
HETATM   33  C4  UNL     1     -14.696   6.199  14.281  1.00  0.00    -0.024 C 
HETATM   34  C2  UNL     1     -15.620   5.226  14.399  1.00  0.00    -0.091 C 
HETATM   35  C1  UNL     1     -15.333   3.793  14.750  1.00  0.00     0.042 C 
HETATM   36  C3  UNL     1     -17.079   5.525  14.166  1.00  0.00     0.042 C 
ENDBRANCH  32  33
ENDBRANCH  31  32
ENDBRANCH  29  31
ENDBRANCH  27  28
ENDBRANCH  24  26
ENDBRANCH   1  23
BRANCH   8  37
HETATM   37  C26 UNL     1       0.349   8.278  10.519  1.00  0.00     0.265 C 
HETATM   38  O4  UNL     1      -0.302   8.861   9.657  1.00  0.00    -0.302 OA
ENDBRANCH   8  37
TORSDOF 13
ENDMDL
MODEL 7
REMARK minimizedAffinity -8.67058849
REMARK CNNscore 0.273700804
REMARK CNNaffinity 6.71449327
REMARK  13 active torsions:
REMARK  status: ('A' for Active; 'I' for Inactive)
REMARK    1  A    between atoms: C4_4  and  C5_5 
REMARK    2  A    between atoms: C5_5  and  C6_6 
REMARK    3  A    between atoms: C6_6  and  C7_7 
REMARK    4  A    between atoms: C9_9  and  C10_10 
REMARK    5  A    between atoms: C11_11  and  C12_12 
REMARK    6  A    between atoms: C14_14  and  C15_15 
REMARK    7  A    between atoms: C18_18  and  O1_19 
REMARK    8  A    between atoms: C19_21  and  C20_22 
REMARK    9  A    between atoms: C20_22  and  C21_23 
REMARK   10  A    between atoms: C21_23  and  C22_24 
REMARK   11  A    between atoms: C22_24  and  O3_25 
REMARK   12  A    between atoms: C24_27  and  C26_29 
REMARK   13  A    between atoms: C29_33  and  O5_35 
ROOT
HETATM    1  C15 UNL     1       0.466   5.912  11.519  1.00  0.00     0.149 C 
HETATM    2  C16 UNL     1       0.333   6.138  10.000  1.00  0.00     0.054 C 
HETATM    3  C17 UNL     1       1.277   7.337   9.737  1.00  0.00     0.050 C 
HETATM    4  C18 UNL     1       0.961   8.104  11.032  1.00  0.00     0.270 C 
HETATM    5  O2  UNL     1       0.984   7.137  12.073  1.00  0.00    -0.351 OA
HETATM    6  C19 UNL     1       2.769   6.765   9.663  1.00  0.00     0.032 C 
HETATM    7  C23 UNL     1       2.979   5.986   8.342  1.00  0.00    -0.066 C 
HETATM    8  C24 UNL     1       3.394   4.693   8.310  1.00  0.00    -0.021 C 
HETATM    9  C25 UNL     1       3.748   3.864   9.518  1.00  0.00     0.052 C 
HETATM   10  C27 UNL     1       2.645   6.835   7.130  1.00  0.00     0.038 C 
HETATM   11  C28 UNL     1       1.205   7.340   7.187  1.00  0.00     0.042 C 
HETATM   12  C29 UNL     1       0.924   8.164   8.455  1.00  0.00     0.067 C 
HETATM   13  C30 UNL     1      -0.523   8.683   8.375  1.00  0.00     0.047 C 
ENDROOT
BRANCH   4  14
HETATM   14  O1  UNL     1       1.844   9.164  11.294  1.00  0.00    -0.370 OA
HETATM   15  H26 UNL     1       1.605   9.460  12.191  1.00  0.00     0.212 HD
ENDBRANCH   4  14
BRANCH   6  16
HETATM   16  C20 UNL     1       3.950   7.754   9.856  1.00  0.00     0.012 C 
BRANCH  16  17
HETATM   17  C21 UNL     1       5.061   7.168  10.737  1.00  0.00     0.027 C 
BRANCH  17  18
HETATM   18  C22 UNL     1       5.155   7.892  12.073  1.00  0.00     0.164 C 
BRANCH  18  19
HETATM   19  O3  UNL     1       5.327   6.950  13.125  1.00  0.00    -0.401 OA
HETATM   20  H34 UNL     1       6.130   6.438  12.930  1.00  0.00     0.209 HD
ENDBRANCH  18  19
ENDBRANCH  17  18
ENDBRANCH  16  17
ENDBRANCH   6  16
BRANCH  12  21
HETATM   21  O5  UNL     1       1.742   9.340   8.373  1.00  0.00    -0.389 OA
HETATM   22  H46 UNL     1       1.789   9.746   9.260  1.00  0.00     0.210 HD
ENDBRANCH  12  21
BRANCH   1  23
HETATM   23  C14 UNL     1      -0.845   5.615  12.191  1.00  0.00     0.011 C 
HETATM   24  C12 UNL     1      -1.529   4.449  12.210  1.00  0.00    -0.063 C 
HETATM   25  C13 UNL     1      -1.041   3.177  11.565  1.00  0.00     0.048 C 
BRANCH  24  26
HETATM   26  C11 UNL     1      -2.812   4.407  12.917  1.00  0.00     0.006 C 
HETATM   27  C10 UNL     1      -4.031   4.572  12.372  1.00  0.00     0.001 C 
BRANCH  27  28
HETATM   28  C9  UNL     1      -5.248   4.511  13.158  1.00  0.00     0.002 C 
HETATM   29  C7  UNL     1      -6.285   3.666  12.989  1.00  0.00    -0.084 C 
HETATM   30  C8  UNL     1      -6.397   2.604  11.926  1.00  0.00     0.043 C 
BRANCH  29  31
HETATM   31  C6  UNL     1      -7.486   3.753  13.918  1.00  0.00     0.037 C 
BRANCH  31  32
HETATM   32  C5  UNL     1      -7.826   5.198  14.300  1.00  0.00     0.031 C 
BRANCH  32  33
HETATM   33  C4  UNL     1      -8.877   5.774  13.388  1.00  0.00    -0.024 C 
HETATM   34  C2  UNL     1      -9.832   6.673  13.692  1.00  0.00    -0.091 C 
HETATM   35  C1  UNL     1     -10.067   7.265  15.054  1.00  0.00     0.042 C 
HETATM   36  C3  UNL     1     -10.783   7.167  12.631  1.00  0.00     0.042 C 
ENDBRANCH  32  33
ENDBRANCH  31  32
ENDBRANCH  29  31
ENDBRANCH  27  28
ENDBRANCH  24  26
ENDBRANCH   1  23
BRANCH   8  37
HETATM   37  C26 UNL     1       3.562   3.935   7.026  1.00  0.00     0.265 C 
HETATM   38  O4  UNL     1       4.664   3.653   6.564  1.00  0.00    -0.302 OA
ENDBRANCH   8  37
TORSDOF 13
ENDMDL
MODEL 8
REMARK minimizedAffinity -5.70775366
REMARK CNNscore 0.270854145
REMARK CNNaffinity 5.1601696
REMARK  13 active torsions:
REMARK  status: ('A' for Active; 'I' for Inactive)
REMARK    1  A    between atoms: C4_4  and  C5_5 
REMARK    2  A    between atoms: C5_5  and  C6_6 
REMARK    3  A    between atoms: C6_6  and  C7_7 
REMARK    4  A    between atoms: C9_9  and  C10_10 
REMARK    5  A    between atoms: C11_11  and  C12_12 
REMARK    6  A    between atoms: C14_14  and  C15_15 
REMARK    7  A    between atoms: C18_18  and  O1_19 
REMARK    8  A    between atoms: C19_21  and  C20_22 
REMARK    9  A    between atoms: C20_22  and  C21_23 
REMARK   10  A    between atoms: C21_23  and  C22_24 
REMARK   11  A    between atoms: C22_24  and  O3_25 
REMARK   12  A    between atoms: C24_27  and  C26_29 
REMARK   13  A    between atoms: C29_33  and  O5_35 
ROOT
HETATM    1  C15 UNL     1     -10.029 -10.614  13.314  1.00  0.00     0.149 C 
HETATM    2  C16 UNL     1      -9.460  -9.585  12.317  1.00  0.00     0.054 C 
HETATM    3  C17 UNL     1      -8.984 -10.465  11.134  1.00  0.00     0.050 C 
HETATM    4  C18 UNL     1      -8.461 -11.638  11.979  1.00  0.00     0.270 C 
HETATM    5  O2  UNL     1      -9.460 -11.890  12.957  1.00  0.00    -0.351 OA
HETATM    6  C19 UNL     1     -10.271 -10.816  10.252  1.00  0.00     0.032 C 
HETATM    7  C23 UNL     1     -10.738  -9.569   9.465  1.00  0.00    -0.066 C 
HETATM    8  C24 UNL     1     -11.998  -9.069   9.560  1.00  0.00    -0.021 C 
HETATM    9  C25 UNL     1     -13.110  -9.667  10.384  1.00  0.00     0.052 C 
HETATM   10  C27 UNL     1      -9.621  -8.987   8.618  1.00  0.00     0.038 C 
HETATM   11  C28 UNL     1      -8.414  -8.613   9.475  1.00  0.00     0.042 C 
HETATM   12  C29 UNL     1      -7.860  -9.813  10.261  1.00  0.00     0.067 C 
HETATM   13  C30 UNL     1      -6.609  -9.345  11.026  1.00  0.00     0.047 C 
ENDROOT
BRANCH   4  14
HETATM   14  O1  UNL     1      -8.170 -12.790  11.231  1.00  0.00    -0.370 OA
HETATM   15  H26 UNL     1      -7.984 -13.472  11.902  1.00  0.00     0.212 HD
ENDBRANCH   4  14
BRANCH   6  16
HETATM   16  C20 UNL     1     -10.191 -12.023   9.278  1.00  0.00     0.012 C 
BRANCH  16  17
HETATM   17  C21 UNL     1     -11.109 -13.177   9.705  1.00  0.00     0.027 C 
BRANCH  17  18
HETATM   18  C22 UNL     1     -11.956 -12.800  10.913  1.00  0.00     0.164 C 
BRANCH  18  19
HETATM   19  O3  UNL     1     -13.289 -13.262  10.735  1.00  0.00    -0.401 OA
HETATM   20  H34 UNL     1     -13.248 -14.225  10.603  1.00  0.00     0.209 HD
ENDBRANCH  18  19
ENDBRANCH  17  18
ENDBRANCH  16  17
ENDBRANCH   6  16
BRANCH  12  21
HETATM   21  O5  UNL     1      -7.369 -10.750   9.292  1.00  0.00    -0.389 OA
HETATM   22  H46 UNL     1      -7.255 -11.616   9.728  1.00  0.00     0.210 HD
ENDBRANCH  12  21
BRANCH   1  23
HETATM   23  C14 UNL     1      -9.662 -10.324  14.742  1.00  0.00     0.011 C 
HETATM   24  C12 UNL     1     -10.455  -9.850  15.728  1.00  0.00    -0.063 C 
HETATM   25  C13 UNL     1     -11.926  -9.565  15.561  1.00  0.00     0.048 C 
BRANCH  24  26
HETATM   26  C11 UNL     1      -9.860  -9.618  17.048  1.00  0.00     0.006 C 
HETATM   27  C10 UNL     1     -10.271 -10.148  18.214  1.00  0.00     0.001 C 
BRANCH  27  28
HETATM   28  C9  UNL     1      -9.615  -9.858  19.474  1.00  0.00     0.002 C 
HETATM   29  C7  UNL     1      -9.896 -10.389  20.680  1.00  0.00    -0.084 C 
HETATM   30  C8  UNL     1     -10.975 -11.401  20.972  1.00  0.00     0.043 C 
BRANCH  29  31
HETATM   31  C6  UNL     1      -9.095  -9.958  21.898  1.00  0.00     0.037 C 
BRANCH  31  32
HETATM   32  C5  UNL     1      -8.218 -11.087  22.450  1.00  0.00     0.031 C 
BRANCH  32  33
HETATM   33  C4  UNL     1      -8.593 -11.431  23.868  1.00  0.00    -0.024 C 
HETATM   34  C2  UNL     1      -8.310 -12.558  24.548  1.00  0.00    -0.091 C 
HETATM   35  C1  UNL     1      -7.575 -13.746  23.994  1.00  0.00     0.042 C 
HETATM   36  C3  UNL     1      -8.741 -12.713  25.985  1.00  0.00     0.042 C 
ENDBRANCH  32  33
ENDBRANCH  31  32
ENDBRANCH  29  31
ENDBRANCH  27  28
ENDBRANCH  24  26
ENDBRANCH   1  23
BRANCH   8  37
HETATM   37  C26 UNL     1     -12.432  -7.839   8.820  1.00  0.00     0.265 C 
HETATM   38  O4  UNL     1     -12.133  -7.631   7.647  1.00  0.00    -0.302 OA
ENDBRANCH   8  37
TORSDOF 13
ENDMDL
MODEL 9
REMARK minimizedAffinity -4.96379614
REMARK CNNscore 0.259190351
REMARK CNNaffinity 5.67843056
REMARK  13 active torsions:
REMARK  status: ('A' for Active; 'I' for Inactive)
REMARK    1  A    between atoms: C4_4  and  C5_5 
REMARK    2  A    between atoms: C5_5  and  C6_6 
REMARK    3  A    between atoms: C6_6  and  C7_7 
REMARK    4  A    between atoms: C9_9  and  C10_10 
REMARK    5  A    between atoms: C11_11  and  C12_12 
REMARK    6  A    between atoms: C14_14  and  C15_15 
REMARK    7  A    between atoms: C18_18  and  O1_19 
REMARK    8  A    between atoms: C19_21  and  C20_22 
REMARK    9  A    between atoms: C20_22  and  C21_23 
REMARK   10  A    between atoms: C21_23  and  C22_24 
REMARK   11  A    between atoms: C22_24  and  O3_25 
REMARK   12  A    between atoms: C24_27  and  C26_29 
REMARK   13  A    between atoms: C29_33  and  O5_35 
ROOT
HETATM    1  C15 UNL     1     -12.325   9.184  22.307  1.00  0.00     0.149 C 
HETATM    2  C16 UNL     1     -13.562   9.986  21.856  1.00  0.00     0.054 C 
HETATM    3  C17 UNL     1     -13.107  11.458  22.015  1.00  0.00     0.050 C 
HETATM    4  C18 UNL     1     -12.290  11.257  23.303  1.00  0.00     0.270 C 
HETATM    5  O2  UNL     1     -11.518  10.081  23.095  1.00  0.00    -0.351 OA
HETATM    6  C19 UNL     1     -12.225  11.828  20.733  1.00  0.00     0.032 C 
HETATM    7  C23 UNL     1     -13.130  11.979  19.487  1.00  0.00    -0.066 C 
HETATM    8  C24 UNL     1     -12.940  11.262  18.349  1.00  0.00    -0.021 C 
HETATM    9  C25 UNL     1     -11.822  10.276  18.120  1.00  0.00     0.052 C 
HETATM   10  C27 UNL     1     -14.238  12.990  19.715  1.00  0.00     0.038 C 
HETATM   11  C28 UNL     1     -15.101  12.605  20.914  1.00  0.00     0.042 C 
HETATM   12  C29 UNL     1     -14.280  12.476  22.209  1.00  0.00     0.067 C 
HETATM   13  C30 UNL     1     -15.252  12.161  23.360  1.00  0.00     0.047 C 
ENDROOT
BRANCH   4  14
HETATM   14  O1  UNL     1     -11.479  12.353  23.638  1.00  0.00    -0.370 OA
HETATM   15  H26 UNL     1     -10.936  12.032  24.380  1.00  0.00     0.212 HD
ENDBRANCH   4  14
BRANCH   6  16
HETATM   16  C20 UNL     1     -11.278  13.055  20.817  1.00  0.00     0.012 C 
BRANCH  16  17
HETATM   17  C21 UNL     1      -9.800  12.646  20.870  1.00  0.00     0.027 C 
BRANCH  17  18
HETATM   18  C22 UNL     1      -8.889  13.858  21.008  1.00  0.00     0.164 C 
BRANCH  18  19
HETATM   19  O3  UNL     1      -7.568  13.439  21.328  1.00  0.00    -0.401 OA
HETATM   20  H34 UNL     1      -7.273  12.839  20.622  1.00  0.00     0.209 HD
ENDBRANCH  18  19
ENDBRANCH  17  18
ENDBRANCH  16  17
ENDBRANCH   6  16
BRANCH  12  21
HETATM   21  O5  UNL     1     -13.769  13.783  22.506  1.00  0.00    -0.389 OA
HETATM   22  H46 UNL     1     -13.045  13.691  23.155  1.00  0.00     0.210 HD
ENDBRANCH  12  21
BRANCH   1  23
HETATM   23  C14 UNL     1     -12.667   7.995  23.159  1.00  0.00     0.011 C 
HETATM   24  C12 UNL     1     -13.256   6.838  22.782  1.00  0.00    -0.063 C 
HETATM   25  C13 UNL     1     -13.643   6.517  21.360  1.00  0.00     0.048 C 
BRANCH  24  26
HETATM   26  C11 UNL     1     -13.515   5.823  23.806  1.00  0.00     0.006 C 
HETATM   27  C10 UNL     1     -13.296   4.500  23.696  1.00  0.00     0.001 C 
BRANCH  27  28
HETATM   28  C9  UNL     1     -13.586   3.572  24.770  1.00  0.00     0.002 C 
HETATM   29  C7  UNL     1     -12.828   2.533  25.176  1.00  0.00    -0.084 C 
HETATM   30  C8  UNL     1     -11.509   2.114  24.578  1.00  0.00     0.043 C 
BRANCH  29  31
HETATM   31  C6  UNL     1     -13.300   1.662  26.329  1.00  0.00     0.037 C 
BRANCH  31  32
HETATM   32  C5  UNL     1     -12.329   1.685  27.515  1.00  0.00     0.031 C 
BRANCH  32  33
HETATM   33  C4  UNL     1     -12.439   2.973  28.288  1.00  0.00    -0.024 C 
HETATM   34  C2  UNL     1     -13.283   3.263  29.297  1.00  0.00    -0.091 C 
HETATM   35  C1  UNL     1     -14.340   2.340  29.838  1.00  0.00     0.042 C 
HETATM   36  C3  UNL     1     -13.224   4.604  29.983  1.00  0.00     0.042 C 
ENDBRANCH  32  33
ENDBRANCH  31  32
ENDBRANCH  29  31
ENDBRANCH  27  28
ENDBRANCH  24  26
ENDBRANCH   1  23
BRANCH   8  37
HETATM   37  C26 UNL     1     -13.843  11.389  17.158  1.00  0.00     0.265 C 
HETATM   38  O4  UNL     1     -13.758  10.649  16.182  1.00  0.00    -0.302 OA
ENDBRANCH   8  37
TORSDOF 13
ENDMDL
