MODEL 1
REMARK minimizedAffinity -9.77527142
REMARK  9 active torsions:
REMARK  status: ('A' for Active; 'I' for Inactive)
REMARK    1  A    between atoms: C2_2  and  C4_4 
REMARK    2  A    between atoms: C4_4  and  O1_5 
REMARK    3  A    between atoms: C4_4  and  C5_7 
REMARK    4  A    between atoms: O1_5  and  O2_6 
REMARK    5  A    between atoms: C5_7  and  O3_8 
REMARK    6  A    between atoms: C5_7  and  C6_9 
REMARK    7  A    between atoms: C6_9  and  C7_10 
REMARK    8  A    between atoms: C7_10  and  C9_12 
REMARK    9  A    between atoms: C20_23  and  O4_24 
ROOT
HETATM    1  C9  UNL     1      -1.027  49.569 -18.457  1.00  0.00    -0.002 C 
HETATM    2  C10 UNL     1      -2.110  48.463 -18.339  1.00  0.00     0.006 C 
HETATM    3  C11 UNL     1      -2.695  48.232 -19.743  1.00  0.00     0.011 C 
HETATM    4  C12 UNL     1      -1.749  48.977 -20.701  1.00  0.00    -0.032 C 
HETATM    5  C13 UNL     1      -0.566  48.004 -21.005  1.00  0.00     0.016 C 
HETATM    6  C14 UNL     1      -2.414  49.447 -22.022  1.00  0.00     0.004 C 
HETATM    7  C15 UNL     1      -2.753  48.308 -22.996  1.00  0.00     0.006 C 
HETATM    8  C16 UNL     1      -3.462  48.857 -24.230  1.00  0.00     0.006 C 
HETATM    9  C17 UNL     1      -2.494  49.698 -25.069  1.00  0.00     0.001 C 
HETATM   10  C18 UNL     1      -3.174  50.412 -26.268  1.00  0.00     0.015 C 
HETATM   11  C19 UNL     1      -3.828  49.408 -27.230  1.00  0.00     0.013 C 
HETATM   12  C20 UNL     1      -2.168  51.304 -27.042  1.00  0.00     0.122 C 
HETATM   13  C21 UNL     1      -0.723  51.153 -26.563  1.00  0.00     0.033 C 
HETATM   14  C22 UNL     1      -0.580  51.371 -25.052  1.00  0.00     0.013 C 
HETATM   15  C23 UNL     1      -1.716  50.735 -24.254  1.00  0.00    -0.027 A 
HETATM   16  C24 UNL     1      -2.461  51.670 -23.332  1.00  0.00     0.021 A 
HETATM   17  C25 UNL     1      -1.609  50.574 -22.715  1.00  0.00    -0.027 A 
HETATM   18  C26 UNL     1      -0.291  50.994 -22.065  1.00  0.00     0.011 C 
HETATM   19  C27 UNL     1      -0.213  50.968 -20.530  1.00  0.00     0.011 C 
HETATM   20  C28 UNL     1      -1.366  50.234 -19.835  1.00  0.00    -0.032 C 
HETATM   21  C29 UNL     1      -2.532  51.249 -19.640  1.00  0.00     0.016 C 
ENDROOT
BRANCH   1  22
HETATM   22  C7  UNL     1      -0.913  50.446 -17.174  1.00  0.00    -0.011 C 
HETATM   23  C8  UNL     1      -2.274  50.701 -16.531  1.00  0.00     0.010 C 
BRANCH  22  24
HETATM   24  C6  UNL     1      -0.114  51.773 -17.371  1.00  0.00     0.039 C 
BRANCH  24  25
HETATM   25  C5  UNL     1       1.259  51.968 -16.692  1.00  0.00     0.154 C 
BRANCH  25  26
HETATM   26  C4  UNL     1       1.513  51.164 -15.383  1.00  0.00     0.216 C 
BRANCH  26  27
HETATM   27  C2  UNL     1       2.870  51.425 -14.738  1.00  0.00    -0.059 C 
HETATM   28  C1  UNL     1       3.170  51.039 -13.484  1.00  0.00     0.016 C 
HETATM   29  C3  UNL     1       3.906  52.100 -15.595  1.00  0.00     0.045 C 
ENDBRANCH  26  27
BRANCH  26  30
HETATM   30  O1  UNL     1       0.507  51.565 -14.413  1.00  0.00    -0.231 OA
BRANCH  30  31
HETATM   31  O2  UNL     1       0.768  52.955 -14.066  1.00  0.00    -0.250 OA
HETATM   32  H7  UNL     1      -0.049  53.318 -14.457  1.00  0.00     0.253 HD
ENDBRANCH  30  31
ENDBRANCH  26  30
ENDBRANCH  25  26
BRANCH  25  33
HETATM   33  O3  UNL     1       1.496  53.364 -16.484  1.00  0.00    -0.393 OA
HETATM   34  H9  UNL     1       2.232  53.416 -15.837  1.00  0.00     0.210 HD
ENDBRANCH  25  33
ENDBRANCH  24  25
ENDBRANCH  22  24
ENDBRANCH   1  22
BRANCH  12  35
HETATM   35  O4  UNL     1      -2.571  52.671 -26.899  1.00  0.00    -0.395 OA
HETATM   36  H35 UNL     1      -1.970  53.210 -27.441  1.00  0.00     0.210 HD
ENDBRANCH  12  35
TORSDOF 9
ENDMDL
MODEL 2
REMARK minimizedAffinity -9.7309885
REMARK  9 active torsions:
REMARK  status: ('A' for Active; 'I' for Inactive)
REMARK    1  A    between atoms: C2_2  and  C4_4 
REMARK    2  A    between atoms: C4_4  and  O1_5 
REMARK    3  A    between atoms: C4_4  and  C5_7 
REMARK    4  A    between atoms: O1_5  and  O2_6 
REMARK    5  A    between atoms: C5_7  and  O3_8 
REMARK    6  A    between atoms: C5_7  and  C6_9 
REMARK    7  A    between atoms: C6_9  and  C7_10 
REMARK    8  A    between atoms: C7_10  and  C9_12 
REMARK    9  A    between atoms: C20_23  and  O4_24 
ROOT
HETATM    1  C9  UNL     1      -1.065  50.457 -22.476  1.00  0.00    -0.002 C 
HETATM    2  C10 UNL     1      -1.131  50.273 -20.936  1.00  0.00     0.006 C 
HETATM    3  C11 UNL     1      -2.458  49.566 -20.608  1.00  0.00     0.011 C 
HETATM    4  C12 UNL     1      -3.000  49.079 -21.964  1.00  0.00    -0.032 C 
HETATM    5  C13 UNL     1      -2.310  47.708 -22.253  1.00  0.00     0.016 C 
HETATM    6  C14 UNL     1      -4.543  48.928 -22.020  1.00  0.00     0.004 C 
HETATM    7  C15 UNL     1      -5.091  47.748 -21.203  1.00  0.00     0.006 C 
HETATM    8  C16 UNL     1      -6.615  47.721 -21.262  1.00  0.00     0.006 C 
HETATM    9  C17 UNL     1      -7.084  47.358 -22.675  1.00  0.00     0.001 C 
HETATM   10  C18 UNL     1      -8.623  47.450 -22.858  1.00  0.00     0.015 C 
HETATM   11  C19 UNL     1      -9.367  46.511 -21.895  1.00  0.00     0.013 C 
HETATM   12  C20 UNL     1      -9.041  47.141 -24.320  1.00  0.00     0.122 C 
HETATM   13  C21 UNL     1      -7.884  46.661 -25.197  1.00  0.00     0.033 C 
HETATM   14  C22 UNL     1      -6.690  47.624 -25.173  1.00  0.00     0.013 C 
HETATM   15  C23 UNL     1      -6.407  48.177 -23.778  1.00  0.00    -0.027 A 
HETATM   16  C24 UNL     1      -6.375  49.683 -23.674  1.00  0.00     0.021 A 
HETATM   17  C25 UNL     1      -5.079  48.918 -23.473  1.00  0.00    -0.027 A 
HETATM   18  C26 UNL     1      -4.047  48.978 -24.600  1.00  0.00     0.011 C 
HETATM   19  C27 UNL     1      -2.783  49.821 -24.363  1.00  0.00     0.011 C 
HETATM   20  C28 UNL     1      -2.557  50.256 -22.910  1.00  0.00    -0.032 C 
HETATM   21  C29 UNL     1      -3.339  51.584 -22.681  1.00  0.00     0.016 C 
ENDROOT
BRANCH   1  22
HETATM   22  C7  UNL     1      -0.294  51.743 -22.901  1.00  0.00    -0.011 C 
HETATM   23  C8  UNL     1       0.177  52.553 -21.696  1.00  0.00     0.010 C 
BRANCH  22  24
HETATM   24  C6  UNL     1      -1.054  52.637 -23.931  1.00  0.00     0.039 C 
BRANCH  24  25
HETATM   25  C5  UNL     1      -0.809  52.470 -25.446  1.00  0.00     0.154 C 
BRANCH  25  26
HETATM   26  C4  UNL     1       0.568  52.956 -25.989  1.00  0.00     0.216 C 
BRANCH  26  27
HETATM   27  C2  UNL     1       1.262  51.967 -26.918  1.00  0.00    -0.059 C 
HETATM   28  C1  UNL     1       0.858  51.743 -28.183  1.00  0.00     0.016 C 
HETATM   29  C3  UNL     1       2.479  51.270 -26.373  1.00  0.00     0.045 C 
ENDBRANCH  26  27
BRANCH  26  30
HETATM   30  O1  UNL     1       0.338  54.165 -26.764  1.00  0.00    -0.231 OA
BRANCH  30  31
HETATM   31  O2  UNL     1       0.211  55.267 -25.822  1.00  0.00    -0.250 OA
HETATM   32  H7  UNL     1       1.024  55.734 -26.093  1.00  0.00     0.253 HD
ENDBRANCH  30  31
ENDBRANCH  26  30
ENDBRANCH  25  26
BRANCH  25  33
HETATM   33  O3  UNL     1      -1.883  53.071 -26.175  1.00  0.00    -0.393 OA
HETATM   34  H9  UNL     1      -1.559  53.166 -27.097  1.00  0.00     0.210 HD
ENDBRANCH  25  33
ENDBRANCH  24  25
ENDBRANCH  22  24
ENDBRANCH   1  22
BRANCH  12  35
HETATM   35  O4  UNL     1      -9.604  48.329 -24.891  1.00  0.00    -0.395 OA
HETATM   36  H35 UNL     1      -9.918  48.102 -25.783  1.00  0.00     0.210 HD
ENDBRANCH  12  35
TORSDOF 9
ENDMDL
MODEL 3
REMARK minimizedAffinity -9.51204681
REMARK  9 active torsions:
REMARK  status: ('A' for Active; 'I' for Inactive)
REMARK    1  A    between atoms: C2_2  and  C4_4 
REMARK    2  A    between atoms: C4_4  and  O1_5 
REMARK    3  A    between atoms: C4_4  and  C5_7 
REMARK    4  A    between atoms: O1_5  and  O2_6 
REMARK    5  A    between atoms: C5_7  and  O3_8 
REMARK    6  A    between atoms: C5_7  and  C6_9 
REMARK    7  A    between atoms: C6_9  and  C7_10 
REMARK    8  A    between atoms: C7_10  and  C9_12 
REMARK    9  A    between atoms: C20_23  and  O4_24 
ROOT
HETATM    1  C9  UNL     1      -3.711  50.585 -24.905  1.00  0.00    -0.002 C 
HETATM    2  C10 UNL     1      -5.077  50.022 -24.429  1.00  0.00     0.006 C 
HETATM    3  C11 UNL     1      -5.061  50.001 -22.890  1.00  0.00     0.011 C 
HETATM    4  C12 UNL     1      -3.824  50.824 -22.489  1.00  0.00    -0.032 C 
HETATM    5  C13 UNL     1      -4.267  52.322 -22.491  1.00  0.00     0.016 C 
HETATM    6  C14 UNL     1      -3.219  50.442 -21.113  1.00  0.00     0.004 C 
HETATM    7  C15 UNL     1      -4.077  50.859 -19.910  1.00  0.00     0.006 C 
HETATM    8  C16 UNL     1      -3.438  50.382 -18.609  1.00  0.00     0.006 C 
HETATM    9  C17 UNL     1      -2.142  51.154 -18.341  1.00  0.00     0.001 C 
HETATM   10  C18 UNL     1      -1.353  50.631 -17.111  1.00  0.00     0.015 C 
HETATM   11  C19 UNL     1      -2.187  50.716 -15.823  1.00  0.00     0.013 C 
HETATM   12  C20 UNL     1      -0.017  51.397 -16.924  1.00  0.00     0.122 C 
HETATM   13  C21 UNL     1       0.143  52.586 -17.873  1.00  0.00     0.033 C 
HETATM   14  C22 UNL     1      -0.048  52.193 -19.344  1.00  0.00     0.013 C 
HETATM   15  C23 UNL     1      -1.198  51.207 -19.546  1.00  0.00    -0.027 A 
HETATM   16  C24 UNL     1      -0.835  49.930 -20.265  1.00  0.00     0.021 A 
HETATM   17  C25 UNL     1      -1.752  50.918 -20.965  1.00  0.00    -0.027 A 
HETATM   18  C26 UNL     1      -1.161  51.729 -22.118  1.00  0.00     0.011 C 
HETATM   19  C27 UNL     1      -1.600  51.364 -23.545  1.00  0.00     0.011 C 
HETATM   20  C28 UNL     1      -2.814  50.431 -23.630  1.00  0.00    -0.032 C 
HETATM   21  C29 UNL     1      -2.297  48.964 -23.543  1.00  0.00     0.016 C 
ENDROOT
BRANCH   1  22
HETATM   22  C7  UNL     1      -3.248  49.981 -26.265  1.00  0.00    -0.011 C 
HETATM   23  C8  UNL     1      -3.105  48.462 -26.199  1.00  0.00     0.010 C 
BRANCH  22  24
HETATM   24  C6  UNL     1      -1.971  50.651 -26.864  1.00  0.00     0.039 C 
BRANCH  24  25
HETATM   25  C5  UNL     1      -1.948  52.165 -27.165  1.00  0.00     0.154 C 
BRANCH  25  26
HETATM   26  C4  UNL     1      -0.627  52.923 -26.841  1.00  0.00     0.216 C 
BRANCH  26  27
HETATM   27  C2  UNL     1       0.641  52.122 -27.115  1.00  0.00    -0.059 C 
HETATM   28  C1  UNL     1       1.078  51.845 -28.358  1.00  0.00     0.016 C 
HETATM   29  C3  UNL     1       1.435  51.685 -25.914  1.00  0.00     0.045 C 
ENDBRANCH  26  27
BRANCH  26  30
HETATM   30  O1  UNL     1      -0.568  54.099 -27.694  1.00  0.00    -0.231 OA
BRANCH  30  31
HETATM   31  O2  UNL     1      -1.769  54.098 -28.517  1.00  0.00    -0.250 OA
HETATM   32  H7  UNL     1      -2.166  54.900 -28.128  1.00  0.00     0.253 HD
ENDBRANCH  30  31
ENDBRANCH  26  30
ENDBRANCH  25  26
BRANCH  25  33
HETATM   33  O3  UNL     1      -3.064  52.797 -26.530  1.00  0.00    -0.393 OA
HETATM   34  H9  UNL     1      -2.863  53.757 -26.532  1.00  0.00     0.210 HD
ENDBRANCH  25  33
ENDBRANCH  24  25
ENDBRANCH  22  24
ENDBRANCH   1  22
BRANCH  12  35
HETATM   35  O4  UNL     1       1.064  50.481 -17.130  1.00  0.00    -0.395 OA
HETATM   36  H35 UNL     1       1.891  50.959 -16.947  1.00  0.00     0.210 HD
ENDBRANCH  12  35
TORSDOF 9
ENDMDL
MODEL 4
REMARK minimizedAffinity -9.23216629
REMARK  9 active torsions:
REMARK  status: ('A' for Active; 'I' for Inactive)
REMARK    1  A    between atoms: C2_2  and  C4_4 
REMARK    2  A    between atoms: C4_4  and  O1_5 
REMARK    3  A    between atoms: C4_4  and  C5_7 
REMARK    4  A    between atoms: O1_5  and  O2_6 
REMARK    5  A    between atoms: C5_7  and  O3_8 
REMARK    6  A    between atoms: C5_7  and  C6_9 
REMARK    7  A    between atoms: C6_9  and  C7_10 
REMARK    8  A    between atoms: C7_10  and  C9_12 
REMARK    9  A    between atoms: C20_23  and  O4_24 
ROOT
HETATM    1  C9  UNL     1      -1.082  50.995 -23.373  1.00  0.00    -0.002 C 
HETATM    2  C10 UNL     1      -0.606  52.471 -23.439  1.00  0.00     0.006 C 
HETATM    3  C11 UNL     1      -0.158  52.879 -22.025  1.00  0.00     0.011 C 
HETATM    4  C12 UNL     1      -0.093  51.565 -21.227  1.00  0.00    -0.032 C 
HETATM    5  C13 UNL     1       1.307  50.937 -21.518  1.00  0.00     0.016 C 
HETATM    6  C14 UNL     1      -0.303  51.731 -19.699  1.00  0.00     0.004 C 
HETATM    7  C15 UNL     1       0.868  52.409 -18.973  1.00  0.00     0.006 C 
HETATM    8  C16 UNL     1       0.543  52.591 -17.493  1.00  0.00     0.006 C 
HETATM    9  C17 UNL     1       0.494  51.230 -16.790  1.00  0.00     0.001 C 
HETATM   10  C18 UNL     1       0.028  51.314 -15.312  1.00  0.00     0.015 C 
HETATM   11  C19 UNL     1       0.956  52.207 -14.473  1.00  0.00     0.013 C 
HETATM   12  C20 UNL     1      -0.071  49.906 -14.666  1.00  0.00     0.122 C 
HETATM   13  C21 UNL     1       0.463  48.786 -15.560  1.00  0.00     0.033 C 
HETATM   14  C22 UNL     1      -0.185  48.785 -16.951  1.00  0.00     0.013 C 
HETATM   15  C23 UNL     1      -0.362  50.191 -17.519  1.00  0.00    -0.027 A 
HETATM   16  C24 UNL     1      -1.769  50.546 -17.936  1.00  0.00     0.021 A 
HETATM   17  C25 UNL     1      -0.711  50.402 -19.016  1.00  0.00    -0.027 A 
HETATM   18  C26 UNL     1      -0.771  49.153 -19.894  1.00  0.00     0.011 C 
HETATM   19  C27 UNL     1      -1.245  49.326 -21.347  1.00  0.00     0.011 C 
HETATM   20  C28 UNL     1      -1.311  50.777 -21.838  1.00  0.00    -0.032 C 
HETATM   21  C29 UNL     1      -2.703  51.354 -21.442  1.00  0.00     0.016 C 
ENDROOT
BRANCH   1  22
HETATM   22  C7  UNL     1      -2.225  50.680 -24.386  1.00  0.00    -0.011 C 
HETATM   23  C8  UNL     1      -2.918  49.357 -24.074  1.00  0.00     0.010 C 
BRANCH  22  24
HETATM   24  C6  UNL     1      -1.795  50.765 -25.885  1.00  0.00     0.039 C 
BRANCH  24  25
HETATM   25  C5  UNL     1      -1.882  52.102 -26.651  1.00  0.00     0.154 C 
BRANCH  25  26
HETATM   26  C4  UNL     1      -0.577  52.949 -26.728  1.00  0.00     0.216 C 
BRANCH  26  27
HETATM   27  C2  UNL     1       0.652  52.171 -27.184  1.00  0.00    -0.059 C 
HETATM   28  C1  UNL     1       0.839  51.781 -28.459  1.00  0.00     0.016 C 
HETATM   29  C3  UNL     1       1.701  51.894 -26.142  1.00  0.00     0.045 C 
ENDBRANCH  26  27
BRANCH  26  30
HETATM   30  O1  UNL     1      -0.789  54.004 -27.705  1.00  0.00    -0.231 OA
BRANCH  30  31
HETATM   31  O2  UNL     1      -0.180  55.216 -27.175  1.00  0.00    -0.250 OA
HETATM   32  H7  UNL     1       0.521  55.288 -27.851  1.00  0.00     0.253 HD
ENDBRANCH  30  31
ENDBRANCH  26  30
ENDBRANCH  25  26
BRANCH  25  33
HETATM   33  O3  UNL     1      -2.963  52.882 -26.132  1.00  0.00    -0.393 OA
HETATM   34  H9  UNL     1      -2.815  53.795 -26.461  1.00  0.00     0.210 HD
ENDBRANCH  25  33
ENDBRANCH  24  25
ENDBRANCH  22  24
ENDBRANCH   1  22
BRANCH  12  35
HETATM   35  O4  UNL     1      -1.445  49.646 -14.355  1.00  0.00    -0.395 OA
HETATM   36  H35 UNL     1      -1.482  48.791 -13.894  1.00  0.00     0.210 HD
ENDBRANCH  12  35
TORSDOF 9
ENDMDL
MODEL 5
REMARK minimizedAffinity -9.03131294
REMARK  9 active torsions:
REMARK  status: ('A' for Active; 'I' for Inactive)
REMARK    1  A    between atoms: C2_2  and  C4_4 
REMARK    2  A    between atoms: C4_4  and  O1_5 
REMARK    3  A    between atoms: C4_4  and  C5_7 
REMARK    4  A    between atoms: O1_5  and  O2_6 
REMARK    5  A    between atoms: C5_7  and  O3_8 
REMARK    6  A    between atoms: C5_7  and  C6_9 
REMARK    7  A    between atoms: C6_9  and  C7_10 
REMARK    8  A    between atoms: C7_10  and  C9_12 
REMARK    9  A    between atoms: C20_23  and  O4_24 
ROOT
HETATM    1  C9  UNL     1      -0.325  50.600 -21.743  1.00  0.00    -0.002 C 
HETATM    2  C10 UNL     1      -0.053  50.451 -20.222  1.00  0.00     0.006 C 
HETATM    3  C11 UNL     1      -1.214  49.641 -19.618  1.00  0.00     0.011 C 
HETATM    4  C12 UNL     1      -1.979  49.073 -20.827  1.00  0.00    -0.032 C 
HETATM    5  C13 UNL     1      -1.243  47.760 -21.243  1.00  0.00     0.016 C 
HETATM    6  C14 UNL     1      -3.480  48.788 -20.558  1.00  0.00     0.004 C 
HETATM    7  C15 UNL     1      -3.738  47.587 -19.636  1.00  0.00     0.006 C 
HETATM    8  C16 UNL     1      -5.232  47.427 -19.374  1.00  0.00     0.006 C 
HETATM    9  C17 UNL     1      -5.950  46.988 -20.655  1.00  0.00     0.001 C 
HETATM   10  C18 UNL     1      -7.495  46.941 -20.513  1.00  0.00     0.015 C 
HETATM   11  C19 UNL     1      -7.935  45.967 -19.409  1.00  0.00     0.013 C 
HETATM   12  C20 UNL     1      -8.178  46.559 -21.853  1.00  0.00     0.122 C 
HETATM   13  C21 UNL     1      -7.189  46.158 -22.949  1.00  0.00     0.033 C 
HETATM   14  C22 UNL     1      -6.108  47.221 -23.182  1.00  0.00     0.013 C 
HETATM   15  C23 UNL     1      -5.593  47.833 -21.881  1.00  0.00    -0.027 A 
HETATM   16  C24 UNL     1      -5.676  49.338 -21.798  1.00  0.00     0.021 A 
HETATM   17  C25 UNL     1      -4.302  48.694 -21.867  1.00  0.00    -0.027 A 
HETATM   18  C26 UNL     1      -3.537  48.814 -23.184  1.00  0.00     0.011 C 
HETATM   19  C27 UNL     1      -2.333  49.768 -23.224  1.00  0.00     0.011 C 
HETATM   20  C28 UNL     1      -1.850  50.259 -21.854  1.00  0.00    -0.032 C 
HETATM   21  C29 UNL     1      -2.684  51.520 -21.476  1.00  0.00     0.016 C 
ENDROOT
BRANCH   1  22
HETATM   22  C7  UNL     1       0.222  51.937 -22.329  1.00  0.00    -0.011 C 
HETATM   23  C8  UNL     1       0.351  53.020 -21.262  1.00  0.00     0.010 C 
BRANCH  22  24
HETATM   24  C6  UNL     1      -0.554  52.454 -23.582  1.00  0.00     0.039 C 
BRANCH  24  25
HETATM   25  C5  UNL     1       0.209  52.896 -24.849  1.00  0.00     0.154 C 
BRANCH  25  26
HETATM   26  C4  UNL     1       0.845  51.766 -25.712  1.00  0.00     0.216 C 
BRANCH  26  27
HETATM   27  C2  UNL     1       0.015  51.357 -26.923  1.00  0.00    -0.059 C 
HETATM   28  C1  UNL     1       0.276  51.793 -28.170  1.00  0.00     0.016 C 
HETATM   29  C3  UNL     1      -1.104  50.381 -26.676  1.00  0.00     0.045 C 
ENDBRANCH  26  27
BRANCH  26  30
HETATM   30  O1  UNL     1       2.114  52.258 -26.224  1.00  0.00    -0.231 OA
BRANCH  30  31
HETATM   31  O2  UNL     1       3.014  51.118 -26.321  1.00  0.00    -0.250 OA
HETATM   32  H7  UNL     1       3.084  51.119 -27.294  1.00  0.00     0.253 HD
ENDBRANCH  30  31
ENDBRANCH  26  30
ENDBRANCH  25  26
BRANCH  25  33
HETATM   33  O3  UNL     1       1.188  53.879 -24.500  1.00  0.00    -0.393 OA
HETATM   34  H9  UNL     1       1.799  53.930 -25.267  1.00  0.00     0.210 HD
ENDBRANCH  25  33
ENDBRANCH  24  25
ENDBRANCH  22  24
ENDBRANCH   1  22
BRANCH  12  35
HETATM   35  O4  UNL     1      -8.951  47.678 -22.302  1.00  0.00    -0.395 OA
HETATM   36  H35 UNL     1      -9.423  47.402 -23.106  1.00  0.00     0.210 HD
ENDBRANCH  12  35
TORSDOF 9
ENDMDL
MODEL 6
REMARK minimizedAffinity -8.95146465
REMARK  9 active torsions:
REMARK  status: ('A' for Active; 'I' for Inactive)
REMARK    1  A    between atoms: C2_2  and  C4_4 
REMARK    2  A    between atoms: C4_4  and  O1_5 
REMARK    3  A    between atoms: C4_4  and  C5_7 
REMARK    4  A    between atoms: O1_5  and  O2_6 
REMARK    5  A    between atoms: C5_7  and  O3_8 
REMARK    6  A    between atoms: C5_7  and  C6_9 
REMARK    7  A    between atoms: C6_9  and  C7_10 
REMARK    8  A    between atoms: C7_10  and  C9_12 
REMARK    9  A    between atoms: C20_23  and  O4_24 
ROOT
HETATM    1  C9  UNL     1      -0.868  49.891 -18.390  1.00  0.00    -0.002 C 
HETATM    2  C10 UNL     1      -1.954  48.798 -18.195  1.00  0.00     0.006 C 
HETATM    3  C11 UNL     1      -2.576  48.509 -19.572  1.00  0.00     0.011 C 
HETATM    4  C12 UNL     1      -1.650  49.204 -20.586  1.00  0.00    -0.032 C 
HETATM    5  C13 UNL     1      -0.482  48.210 -20.876  1.00  0.00     0.016 C 
HETATM    6  C14 UNL     1      -2.347  49.619 -21.909  1.00  0.00     0.004 C 
HETATM    7  C15 UNL     1      -2.717  48.440 -22.822  1.00  0.00     0.006 C 
HETATM    8  C16 UNL     1      -3.455  48.938 -24.061  1.00  0.00     0.006 C 
HETATM    9  C17 UNL     1      -2.504  49.734 -24.961  1.00  0.00     0.001 C 
HETATM   10  C18 UNL     1      -3.210  50.398 -26.173  1.00  0.00     0.015 C 
HETATM   11  C19 UNL     1      -3.895  49.357 -27.073  1.00  0.00     0.013 C 
HETATM   12  C20 UNL     1      -2.220  51.248 -27.013  1.00  0.00     0.122 C 
HETATM   13  C21 UNL     1      -0.764  51.108 -26.564  1.00  0.00     0.033 C 
HETATM   14  C22 UNL     1      -0.580  51.393 -25.068  1.00  0.00     0.013 C 
HETATM   15  C23 UNL     1      -1.699  50.801 -24.213  1.00  0.00    -0.027 A 
HETATM   16  C24 UNL     1      -2.415  51.781 -23.316  1.00  0.00     0.021 A 
HETATM   17  C25 UNL     1      -1.554  50.709 -22.672  1.00  0.00    -0.027 A 
HETATM   18  C26 UNL     1      -0.217  51.147 -22.076  1.00  0.00     0.011 C 
HETATM   19  C27 UNL     1      -0.099  51.190 -20.544  1.00  0.00     0.011 C 
HETATM   20  C28 UNL     1      -1.238  50.496 -19.787  1.00  0.00    -0.032 C 
HETATM   21  C29 UNL     1      -2.393  51.527 -19.608  1.00  0.00     0.016 C 
ENDROOT
BRANCH   1  22
HETATM   22  C7  UNL     1      -0.716  50.823 -17.150  1.00  0.00    -0.011 C 
HETATM   23  C8  UNL     1       0.746  51.149 -16.854  1.00  0.00     0.010 C 
BRANCH  22  24
HETATM   24  C6  UNL     1      -1.462  50.321 -15.873  1.00  0.00     0.039 C 
BRANCH  24  25
HETATM   25  C5  UNL     1      -2.284  51.301 -15.010  1.00  0.00     0.154 C 
BRANCH  25  26
HETATM   26  C4  UNL     1      -2.130  51.171 -13.465  1.00  0.00     0.216 C 
BRANCH  26  27
HETATM   27  C2  UNL     1      -0.987  51.990 -12.876  1.00  0.00    -0.059 C 
HETATM   28  C1  UNL     1       0.093  52.360 -13.592  1.00  0.00     0.016 C 
HETATM   29  C3  UNL     1      -1.137  52.427 -11.444  1.00  0.00     0.045 C 
ENDBRANCH  26  27
BRANCH  26  30
HETATM   30  O1  UNL     1      -3.353  51.663 -12.853  1.00  0.00    -0.231 OA
BRANCH  30  31
HETATM   31  O2  UNL     1      -3.569  53.017 -13.343  1.00  0.00    -0.250 OA
HETATM   32  H7  UNL     1      -4.381  52.820 -13.848  1.00  0.00     0.253 HD
ENDBRANCH  30  31
ENDBRANCH  26  30
ENDBRANCH  25  26
BRANCH  25  33
HETATM   33  O3  UNL     1      -3.662  51.234 -15.389  1.00  0.00    -0.393 OA
HETATM   34  H9  UNL     1      -4.160  51.664 -14.660  1.00  0.00     0.210 HD
ENDBRANCH  25  33
ENDBRANCH  24  25
ENDBRANCH  22  24
ENDBRANCH   1  22
BRANCH  12  35
HETATM   35  O4  UNL     1      -2.611  52.623 -26.921  1.00  0.00    -0.395 OA
HETATM   36  H35 UNL     1      -2.022  53.133 -27.501  1.00  0.00     0.210 HD
ENDBRANCH  12  35
TORSDOF 9
ENDMDL
MODEL 7
REMARK minimizedAffinity -8.9420929
REMARK  9 active torsions:
REMARK  status: ('A' for Active; 'I' for Inactive)
REMARK    1  A    between atoms: C2_2  and  C4_4 
REMARK    2  A    between atoms: C4_4  and  O1_5 
REMARK    3  A    between atoms: C4_4  and  C5_7 
REMARK    4  A    between atoms: O1_5  and  O2_6 
REMARK    5  A    between atoms: C5_7  and  O3_8 
REMARK    6  A    between atoms: C5_7  and  C6_9 
REMARK    7  A    between atoms: C6_9  and  C7_10 
REMARK    8  A    between atoms: C7_10  and  C9_12 
REMARK    9  A    between atoms: C20_23  and  O4_24 
ROOT
HETATM    1  C9  UNL     1      -3.809  50.244 -24.202  1.00  0.00    -0.002 C 
HETATM    2  C10 UNL     1      -5.251  49.777 -23.866  1.00  0.00     0.006 C 
HETATM    3  C11 UNL     1      -5.315  49.515 -22.351  1.00  0.00     0.011 C 
HETATM    4  C12 UNL     1      -4.017  50.116 -21.784  1.00  0.00    -0.032 C 
HETATM    5  C13 UNL     1      -4.291  51.637 -21.559  1.00  0.00     0.016 C 
HETATM    6  C14 UNL     1      -3.527  49.456 -20.467  1.00  0.00     0.004 C 
HETATM    7  C15 UNL     1      -4.394  49.779 -19.241  1.00  0.00     0.006 C 
HETATM    8  C16 UNL     1      -3.878  49.034 -18.013  1.00  0.00     0.006 C 
HETATM    9  C17 UNL     1      -2.520  49.598 -17.584  1.00  0.00     0.001 C 
HETATM   10  C18 UNL     1      -1.856  48.801 -16.428  1.00  0.00     0.015 C 
HETATM   11  C19 UNL     1      -2.740  48.782 -15.171  1.00  0.00     0.013 C 
HETATM   12  C20 UNL     1      -0.455  49.369 -16.078  1.00  0.00     0.122 C 
HETATM   13  C21 UNL     1      -0.118  50.664 -16.819  1.00  0.00     0.033 C 
HETATM   14  C22 UNL     1      -0.277  50.529 -18.338  1.00  0.00     0.013 C 
HETATM   15  C23 UNL     1      -1.516  49.728 -18.733  1.00  0.00    -0.027 A 
HETATM   16  C24 UNL     1      -1.260  48.545 -19.636  1.00  0.00     0.021 A 
HETATM   17  C25 UNL     1      -2.027  49.730 -20.198  1.00  0.00    -0.027 A 
HETATM   18  C26 UNL     1      -1.292  50.636 -21.185  1.00  0.00     0.011 C 
HETATM   19  C27 UNL     1      -1.696  50.551 -22.666  1.00  0.00     0.011 C 
HETATM   20  C28 UNL     1      -2.999  49.790 -22.939  1.00  0.00    -0.032 C 
HETATM   21  C29 UNL     1      -2.652  48.278 -23.072  1.00  0.00     0.016 C 
ENDROOT
BRANCH   1  22
HETATM   22  C7  UNL     1      -3.346  49.809 -25.625  1.00  0.00    -0.011 C 
HETATM   23  C8  UNL     1      -3.906  48.444 -26.017  1.00  0.00     0.010 C 
BRANCH  22  24
HETATM   24  C6  UNL     1      -1.803  49.883 -25.849  1.00  0.00     0.039 C 
BRANCH  24  25
HETATM   25  C5  UNL     1      -1.139  51.199 -26.306  1.00  0.00     0.154 C 
BRANCH  25  26
HETATM   26  C4  UNL     1       0.304  51.472 -25.786  1.00  0.00     0.216 C 
BRANCH  26  27
HETATM   27  C2  UNL     1       1.362  51.555 -26.880  1.00  0.00    -0.059 C 
HETATM   28  C1  UNL     1       2.682  51.479 -26.628  1.00  0.00     0.016 C 
HETATM   29  C3  UNL     1       0.862  51.675 -28.294  1.00  0.00     0.045 C 
ENDBRANCH  26  27
BRANCH  26  30
HETATM   30  O1  UNL     1       0.297  52.761 -25.114  1.00  0.00    -0.231 OA
BRANCH  30  31
HETATM   31  O2  UNL     1       0.430  53.786 -26.140  1.00  0.00    -0.250 OA
HETATM   32  H7  UNL     1      -0.457  54.174 -26.019  1.00  0.00     0.253 HD
ENDBRANCH  30  31
ENDBRANCH  26  30
ENDBRANCH  25  26
BRANCH  25  33
HETATM   33  O3  UNL     1      -2.002  52.300 -26.007  1.00  0.00    -0.393 OA
HETATM   34  H9  UNL     1      -1.442  53.103 -26.073  1.00  0.00     0.210 HD
ENDBRANCH  25  33
ENDBRANCH  24  25
ENDBRANCH  22  24
ENDBRANCH   1  22
BRANCH  12  35
HETATM   35  O4  UNL     1       0.528  48.376 -16.393  1.00  0.00    -0.395 OA
HETATM   36  H35 UNL     1       1.391  48.720 -16.109  1.00  0.00     0.210 HD
ENDBRANCH  12  35
TORSDOF 9
ENDMDL
MODEL 8
REMARK minimizedAffinity -8.80925465
REMARK  9 active torsions:
REMARK  status: ('A' for Active; 'I' for Inactive)
REMARK    1  A    between atoms: C2_2  and  C4_4 
REMARK    2  A    between atoms: C4_4  and  O1_5 
REMARK    3  A    between atoms: C4_4  and  C5_7 
REMARK    4  A    between atoms: O1_5  and  O2_6 
REMARK    5  A    between atoms: C5_7  and  O3_8 
REMARK    6  A    between atoms: C5_7  and  C6_9 
REMARK    7  A    between atoms: C6_9  and  C7_10 
REMARK    8  A    between atoms: C7_10  and  C9_12 
REMARK    9  A    between atoms: C20_23  and  O4_24 
ROOT
HETATM    1  C9  UNL     1      -2.100  51.101 -22.628  1.00  0.00    -0.002 C 
HETATM    2  C10 UNL     1      -3.145  52.177 -23.027  1.00  0.00     0.006 C 
HETATM    3  C11 UNL     1      -4.532  51.657 -22.611  1.00  0.00     0.011 C 
HETATM    4  C12 UNL     1      -4.252  50.439 -21.713  1.00  0.00    -0.032 C 
HETATM    5  C13 UNL     1      -4.000  50.994 -20.276  1.00  0.00     0.016 C 
HETATM    6  C14 UNL     1      -5.389  49.383 -21.692  1.00  0.00     0.004 C 
HETATM    7  C15 UNL     1      -6.654  49.835 -20.947  1.00  0.00     0.006 C 
HETATM    8  C16 UNL     1      -7.737  48.764 -21.038  1.00  0.00     0.006 C 
HETATM    9  C17 UNL     1      -7.330  47.529 -20.228  1.00  0.00     0.001 C 
HETATM   10  C18 UNL     1      -8.311  46.336 -20.384  1.00  0.00     0.015 C 
HETATM   11  C19 UNL     1      -9.732  46.706 -19.933  1.00  0.00     0.013 C 
HETATM   12  C20 UNL     1      -7.819  45.089 -19.601  1.00  0.00     0.122 C 
HETATM   13  C21 UNL     1      -6.591  45.360 -18.732  1.00  0.00     0.033 C 
HETATM   14  C22 UNL     1      -5.436  45.985 -19.525  1.00  0.00     0.013 C 
HETATM   15  C23 UNL     1      -5.908  47.041 -20.522  1.00  0.00    -0.027 A 
HETATM   16  C24 UNL     1      -5.479  46.817 -21.952  1.00  0.00     0.021 A 
HETATM   17  C25 UNL     1      -4.896  48.000 -21.200  1.00  0.00    -0.027 A 
HETATM   18  C26 UNL     1      -3.438  47.896 -20.751  1.00  0.00     0.011 C 
HETATM   19  C27 UNL     1      -2.399  48.743 -21.504  1.00  0.00     0.011 C 
HETATM   20  C28 UNL     1      -2.985  49.825 -22.418  1.00  0.00    -0.032 C 
HETATM   21  C29 UNL     1      -3.281  49.175 -23.802  1.00  0.00     0.016 C 
ENDROOT
BRANCH   1  22
HETATM   22  C7  UNL     1      -0.878  51.054 -23.595  1.00  0.00    -0.011 C 
HETATM   23  C8  UNL     1       0.085  52.214 -23.358  1.00  0.00     0.010 C 
BRANCH  22  24
HETATM   24  C6  UNL     1      -1.258  50.924 -25.104  1.00  0.00     0.039 C 
BRANCH  24  25
HETATM   25  C5  UNL     1      -1.011  52.095 -26.079  1.00  0.00     0.154 C 
BRANCH  25  26
HETATM   26  C4  UNL     1       0.427  52.692 -26.103  1.00  0.00     0.216 C 
BRANCH  26  27
HETATM   27  C2  UNL     1       1.430  51.886 -26.922  1.00  0.00    -0.059 C 
HETATM   28  C1  UNL     1       2.507  51.290 -26.377  1.00  0.00     0.016 C 
HETATM   29  C3  UNL     1       1.135  51.732 -28.389  1.00  0.00     0.045 C 
ENDBRANCH  26  27
BRANCH  26  30
HETATM   30  O1  UNL     1       0.352  54.008 -26.717  1.00  0.00    -0.231 OA
BRANCH  30  31
HETATM   31  O2  UNL     1       0.246  54.983 -25.641  1.00  0.00    -0.250 OA
HETATM   32  H7  UNL     1       1.111  55.407 -25.795  1.00  0.00     0.253 HD
ENDBRANCH  30  31
ENDBRANCH  26  30
ENDBRANCH  25  26
BRANCH  25  33
HETATM   33  O3  UNL     1      -1.982  53.121 -25.852  1.00  0.00    -0.393 OA
HETATM   34  H9  UNL     1      -1.632  53.922 -26.298  1.00  0.00     0.210 HD
ENDBRANCH  25  33
ENDBRANCH  24  25
ENDBRANCH  22  24
ENDBRANCH   1  22
BRANCH  12  35
HETATM   35  O4  UNL     1      -7.511  44.055 -20.544  1.00  0.00    -0.395 OA
HETATM   36  H35 UNL     1      -7.267  43.263 -20.036  1.00  0.00     0.210 HD
ENDBRANCH  12  35
TORSDOF 9
ENDMDL
MODEL 9
REMARK minimizedAffinity -8.80652809
REMARK  9 active torsions:
REMARK  status: ('A' for Active; 'I' for Inactive)
REMARK    1  A    between atoms: C2_2  and  C4_4 
REMARK    2  A    between atoms: C4_4  and  O1_5 
REMARK    3  A    between atoms: C4_4  and  C5_7 
REMARK    4  A    between atoms: O1_5  and  O2_6 
REMARK    5  A    between atoms: C5_7  and  O3_8 
REMARK    6  A    between atoms: C5_7  and  C6_9 
REMARK    7  A    between atoms: C6_9  and  C7_10 
REMARK    8  A    between atoms: C7_10  and  C9_12 
REMARK    9  A    between atoms: C20_23  and  O4_24 
ROOT
HETATM    1  C9  UNL     1      -2.453  50.639 -23.828  1.00  0.00    -0.002 C 
HETATM    2  C10 UNL     1      -2.384  51.051 -22.333  1.00  0.00     0.006 C 
HETATM    3  C11 UNL     1      -3.599  50.430 -21.622  1.00  0.00     0.011 C 
HETATM    4  C12 UNL     1      -4.186  49.426 -22.631  1.00  0.00    -0.032 C 
HETATM    5  C13 UNL     1      -3.377  48.102 -22.464  1.00  0.00     0.016 C 
HETATM    6  C14 UNL     1      -5.704  49.157 -22.457  1.00  0.00     0.004 C 
HETATM    7  C15 UNL     1      -6.059  48.341 -21.205  1.00  0.00     0.006 C 
HETATM    8  C16 UNL     1      -7.572  48.186 -21.082  1.00  0.00     0.006 C 
HETATM    9  C17 UNL     1      -8.104  47.281 -22.198  1.00  0.00     0.001 C 
HETATM   10  C18 UNL     1      -9.654  47.186 -22.231  1.00  0.00     0.015 C 
HETATM   11  C19 UNL     1     -10.218  46.634 -20.913  1.00  0.00     0.013 C 
HETATM   12  C20 UNL     1     -10.145  46.316 -23.418  1.00  0.00     0.122 C 
HETATM   13  C21 UNL     1      -9.011  45.622 -24.176  1.00  0.00     0.033 C 
HETATM   14  C22 UNL     1      -7.929  46.604 -24.643  1.00  0.00     0.013 C 
HETATM   15  C23 UNL     1      -7.603  47.664 -23.593  1.00  0.00    -0.027 A 
HETATM   16  C24 UNL     1      -7.725  49.095 -24.060  1.00  0.00     0.021 A 
HETATM   17  C25 UNL     1      -6.343  48.557 -23.734  1.00  0.00    -0.027 A 
HETATM   18  C26 UNL     1      -5.411  48.258 -24.908  1.00  0.00     0.011 C 
HETATM   19  C27 UNL     1      -4.230  49.214 -25.142  1.00  0.00     0.011 C 
HETATM   20  C28 UNL     1      -3.944  50.184 -23.990  1.00  0.00    -0.032 C 
HETATM   21  C29 UNL     1      -4.844  51.440 -24.185  1.00  0.00     0.016 C 
ENDROOT
BRANCH   1  22
HETATM   22  C7  UNL     1      -1.858  51.719 -24.782  1.00  0.00    -0.011 C 
HETATM   23  C8  UNL     1      -2.793  52.031 -25.948  1.00  0.00     0.010 C 
BRANCH  22  24
HETATM   24  C6  UNL     1      -0.409  51.412 -25.276  1.00  0.00     0.039 C 
BRANCH  24  25
HETATM   25  C5  UNL     1       0.788  52.233 -24.751  1.00  0.00     0.154 C 
BRANCH  25  26
HETATM   26  C4  UNL     1       0.457  53.422 -23.800  1.00  0.00     0.216 C 
BRANCH  26  27
HETATM   27  C2  UNL     1       0.956  53.241 -22.371  1.00  0.00    -0.059 C 
HETATM   28  C1  UNL     1       0.928  52.057 -21.730  1.00  0.00     0.016 C 
HETATM   29  C3  UNL     1       1.545  54.454 -21.703  1.00  0.00     0.045 C 
ENDBRANCH  26  27
BRANCH  26  30
HETATM   30  O1  UNL     1       1.115  54.607 -24.325  1.00  0.00    -0.231 OA
BRANCH  30  31
HETATM   31  O2  UNL     1       0.280  55.128 -25.398  1.00  0.00    -0.250 OA
HETATM   32  H7  UNL     1       0.035  55.959 -24.949  1.00  0.00     0.253 HD
ENDBRANCH  30  31
ENDBRANCH  26  30
ENDBRANCH  25  26
BRANCH  25  33
HETATM   33  O3  UNL     1       1.587  52.674 -25.853  1.00  0.00    -0.393 OA
HETATM   34  H9  UNL     1       2.163  53.385 -25.498  1.00  0.00     0.210 HD
ENDBRANCH  25  33
ENDBRANCH  24  25
ENDBRANCH  22  24
ENDBRANCH   1  22
BRANCH  12  35
HETATM   35  O4  UNL     1     -10.872  47.155 -24.324  1.00  0.00    -0.395 OA
HETATM   36  H35 UNL     1     -11.227  46.585 -25.027  1.00  0.00     0.210 HD
ENDBRANCH  12  35
TORSDOF 9
ENDMDL
