MODEL 1
REMARK minimizedAffinity -8.14689064
REMARK CNNscore 0.68538928
REMARK CNNaffinity 7.38727713
REMARK  14 active torsions:
REMARK  status: ('A' for Active; 'I' for Inactive)
REMARK    1  A    between atoms: C19_21  and  O3_22 
REMARK    2  A    between atoms: C19_21  and  C20_23 
REMARK    3  A    between atoms: C20_23  and  C21_25 
REMARK    4  A    between atoms: C21_25  and  O5_26 
REMARK    5  A    between atoms: O5_26  and  C22_27 
REMARK    6  A    between atoms: C22_27  and  C23_29 
REMARK    7  A    between atoms: C23_29  and  C24_30 
REMARK    8  A    between atoms: C24_30  and  C25_31 
REMARK       I    between atoms: C25_31  and  N1_33 
REMARK    9  A    between atoms: N1_33  and  C26_34 
REMARK   10  A    between atoms: C26_34  and  C27_35 
REMARK   11  A    between atoms: C26_34  and  C30_40 
REMARK   12  A    between atoms: C27_35  and  C28_36 
REMARK   13  A    between atoms: C28_36  and  C29_37 
REMARK       I    between atoms: C29_37  and  N2_38 
REMARK   14  A    between atoms: C30_40  and  O10_42 
ROOT
HETATM    1  C20 UNL     1      -5.590  48.220 -26.241  1.00  0.00     0.185 C 
HETATM    2  O4  UNL     1      -6.464  47.351 -26.163  1.00  0.00    -0.292 OA
ENDROOT
BRANCH   1   3
HETATM    3  C19 UNL     1      -5.057  48.966 -24.983  1.00  0.00     0.128 C 
HETATM    4  C14 UNL     1      -3.612  49.545 -25.137  1.00  0.00     0.005 C 
HETATM    5  C13 UNL     1      -3.500  50.936 -25.772  1.00  0.00     0.091 C 
HETATM    6  C15 UNL     1      -2.705  48.558 -25.921  1.00  0.00     0.019 C 
HETATM    7  C16 UNL     1      -3.213  49.695 -23.645  1.00  0.00     0.002 C 
HETATM    8  C12 UNL     1      -2.095  51.494 -25.577  1.00  0.00     0.133 C 
HETATM    9  C11 UNL     1      -1.560  51.540 -24.130  1.00  0.00     0.072 C 
HETATM   10  O2  UNL     1      -1.489  51.950 -26.544  1.00  0.00    -0.297 OA
HETATM   11  C2  UNL     1      -0.103  52.107 -23.963  1.00  0.00    -0.009 C 
HETATM   12  C10 UNL     1      -1.760  50.155 -23.446  1.00  0.00     0.003 C 
HETATM   13  C1  UNL     1       0.942  51.296 -24.764  1.00  0.00     0.021 C 
HETATM   14  C3  UNL     1      -0.086  53.593 -24.436  1.00  0.00     0.022 C 
HETATM   15  C7  UNL     1       0.289  52.035 -22.476  1.00  0.00    -0.067 C 
HETATM   16  C4  UNL     1       1.137  54.373 -23.971  1.00  0.00     0.084 C 
HETATM   17  C5  UNL     1       1.251  54.311 -22.472  1.00  0.00     0.149 C 
HETATM   18  O1  UNL     1       1.711  55.233 -21.803  1.00  0.00    -0.293 OA
HETATM   19  C6  UNL     1       0.862  53.050 -21.802  1.00  0.00     0.053 C 
HETATM   20  C8  UNL     1       0.029  50.728 -21.763  1.00  0.00     0.035 C 
HETATM   21  C9  UNL     1      -1.405  50.251 -21.957  1.00  0.00     0.010 C 
HETATM   22  C17 UNL     1      -3.625  48.365 -23.034  1.00  0.00     0.009 C 
HETATM   23  C18 UNL     1      -4.923  47.993 -23.772  1.00  0.00     0.047 C 
BRANCH   3  24
HETATM   24  O3  UNL     1      -5.946  49.999 -24.543  1.00  0.00    -0.381 OA
HETATM   25  H25 UNL     1      -6.129  50.586 -25.298  1.00  0.00     0.211 HD
ENDBRANCH   3  24
ENDBRANCH   1   3
BRANCH   1  26
HETATM   26  C21 UNL     1      -4.883  48.468 -27.574  1.00  0.00     0.260 C 
BRANCH  26  27
HETATM   27  O5  UNL     1      -5.183  47.519 -28.598  1.00  0.00    -0.314 OA
BRANCH  27  28
HETATM   28  C22 UNL     1      -5.955  48.011 -29.611  1.00  0.00     0.259 C 
HETATM   29  O6  UNL     1      -5.567  48.807 -30.451  1.00  0.00    -0.265 OA
BRANCH  28  30
HETATM   30  C23 UNL     1      -7.315  47.349 -29.644  1.00  0.00     0.120 C 
BRANCH  30  31
HETATM   31  C24 UNL     1      -8.007  47.404 -31.003  1.00  0.00     0.112 C 
BRANCH  31  32
HETATM   32  C25 UNL     1      -7.129  46.854 -32.109  1.00  0.00     0.218 C 
HETATM   33  O7  UNL     1      -6.918  45.660 -32.272  1.00  0.00    -0.274 OA
HETATM   34  N1  UNL     1      -6.588  47.831 -32.907  1.00  0.00    -0.347 N 
HETATM   35  H32 UNL     1      -6.625  48.804 -32.620  1.00  0.00     0.163 HD
BRANCH  34  36
HETATM   36  C26 UNL     1      -5.670  47.518 -34.007  1.00  0.00     0.182 C 
BRANCH  36  37
HETATM   37  C27 UNL     1      -6.117  48.167 -35.323  1.00  0.00     0.045 C 
BRANCH  37  38
HETATM   38  C28 UNL     1      -7.370  47.527 -35.929  1.00  0.00     0.105 C 
BRANCH  38  39
HETATM   39  C29 UNL     1      -7.659  48.057 -37.317  1.00  0.00     0.215 C 
HETATM   40  N2  UNL     1      -6.745  48.967 -37.766  1.00  0.00    -0.370 N 
HETATM   41  H38 UNL     1      -5.843  49.087 -37.327  1.00  0.00     0.159 HD
HETATM   42  H39 UNL     1      -6.859  49.295 -38.717  1.00  0.00     0.159 HD
HETATM   43  O8  UNL     1      -8.612  47.726 -38.009  1.00  0.00    -0.274 OA
ENDBRANCH  38  39
ENDBRANCH  37  38
ENDBRANCH  36  37
BRANCH  36  44
HETATM   44  C30 UNL     1      -4.239  47.932 -33.647  1.00  0.00     0.163 C 
HETATM   45  O9  UNL     1      -3.471  47.339 -32.905  1.00  0.00    -0.648 OA
BRANCH  44  46
HETATM   46  O10 UNL     1      -3.833  49.066 -34.267  1.00  0.00    -0.775 OA
HETATM   47  H40 UNL     1      -2.925  49.202 -33.919  1.00  0.00     0.167 HD
ENDBRANCH  44  46
ENDBRANCH  36  44
ENDBRANCH  34  36
ENDBRANCH  31  32
ENDBRANCH  30  31
ENDBRANCH  28  30
ENDBRANCH  27  28
ENDBRANCH  26  27
ENDBRANCH   1  26
TORSDOF 14
ENDMDL
MODEL 2
REMARK minimizedAffinity -7.80585003
REMARK CNNscore 0.628252745
REMARK CNNaffinity 6.37214613
REMARK  14 active torsions:
REMARK  status: ('A' for Active; 'I' for Inactive)
REMARK    1  A    between atoms: C19_21  and  O3_22 
REMARK    2  A    between atoms: C19_21  and  C20_23 
REMARK    3  A    between atoms: C20_23  and  C21_25 
REMARK    4  A    between atoms: C21_25  and  O5_26 
REMARK    5  A    between atoms: O5_26  and  C22_27 
REMARK    6  A    between atoms: C22_27  and  C23_29 
REMARK    7  A    between atoms: C23_29  and  C24_30 
REMARK    8  A    between atoms: C24_30  and  C25_31 
REMARK       I    between atoms: C25_31  and  N1_33 
REMARK    9  A    between atoms: N1_33  and  C26_34 
REMARK   10  A    between atoms: C26_34  and  C27_35 
REMARK   11  A    between atoms: C26_34  and  C30_40 
REMARK   12  A    between atoms: C27_35  and  C28_36 
REMARK   13  A    between atoms: C28_36  and  C29_37 
REMARK       I    between atoms: C29_37  and  N2_38 
REMARK   14  A    between atoms: C30_40  and  O10_42 
ROOT
HETATM    1  C20 UNL     1      -8.935  47.798 -28.871  1.00  0.00     0.185 C 
HETATM    2  O4  UNL     1      -8.326  48.799 -29.263  1.00  0.00    -0.292 OA
ENDROOT
BRANCH   1   3
HETATM    3  C19 UNL     1     -10.437  47.565 -29.205  1.00  0.00     0.128 C 
HETATM    4  C14 UNL     1     -11.279  46.976 -28.026  1.00  0.00     0.005 C 
HETATM    5  C13 UNL     1     -11.857  47.989 -27.030  1.00  0.00     0.091 C 
HETATM    6  C15 UNL     1     -10.463  45.911 -27.245  1.00  0.00     0.019 C 
HETATM    7  C16 UNL     1     -12.477  46.380 -28.812  1.00  0.00     0.002 C 
HETATM    8  C12 UNL     1     -12.891  47.317 -26.134  1.00  0.00     0.133 C 
HETATM    9  C11 UNL     1     -14.041  46.569 -26.840  1.00  0.00     0.072 C 
HETATM   10  O2  UNL     1     -12.816  47.462 -24.916  1.00  0.00    -0.297 OA
HETATM   11  C2  UNL     1     -15.083  45.875 -25.889  1.00  0.00    -0.009 C 
HETATM   12  C10 UNL     1     -13.466  45.609 -27.922  1.00  0.00     0.003 C 
HETATM   13  C1  UNL     1     -14.427  44.833 -24.954  1.00  0.00     0.021 C 
HETATM   14  C3  UNL     1     -15.792  46.970 -25.035  1.00  0.00     0.022 C 
HETATM   15  C7  UNL     1     -16.126  45.138 -26.750  1.00  0.00    -0.067 C 
HETATM   16  C4  UNL     1     -17.078  46.497 -24.369  1.00  0.00     0.084 C 
HETATM   17  C5  UNL     1     -18.028  45.958 -25.403  1.00  0.00     0.149 C 
HETATM   18  O1  UNL     1     -19.248  46.056 -25.297  1.00  0.00    -0.293 OA
HETATM   19  C6  UNL     1     -17.455  45.216 -26.548  1.00  0.00     0.053 C 
HETATM   20  C8  UNL     1     -15.598  44.263 -27.863  1.00  0.00     0.035 C 
HETATM   21  C9  UNL     1     -14.608  45.007 -28.750  1.00  0.00     0.010 C 
HETATM   22  C17 UNL     1     -11.811  45.624 -29.951  1.00  0.00     0.009 C 
HETATM   23  C18 UNL     1     -10.599  46.495 -30.328  1.00  0.00     0.047 C 
BRANCH   3  24
HETATM   24  O3  UNL     1     -11.074  48.744 -29.711  1.00  0.00    -0.381 OA
HETATM   25  H25 UNL     1     -10.922  49.468 -29.079  1.00  0.00     0.211 HD
ENDBRANCH   3  24
ENDBRANCH   1   3
BRANCH   1  26
HETATM   26  C21 UNL     1      -8.171  46.669 -28.178  1.00  0.00     0.260 C 
BRANCH  26  27
HETATM   27  O5  UNL     1      -6.771  46.900 -28.020  1.00  0.00    -0.314 OA
BRANCH  27  28
HETATM   28  C22 UNL     1      -6.431  47.504 -26.844  1.00  0.00     0.259 C 
HETATM   29  O6  UNL     1      -7.129  47.510 -25.843  1.00  0.00    -0.265 OA
BRANCH  28  30
HETATM   30  C23 UNL     1      -5.024  48.057 -26.890  1.00  0.00     0.120 C 
BRANCH  30  31
HETATM   31  C24 UNL     1      -4.448  48.424 -25.526  1.00  0.00     0.112 C 
BRANCH  31  32
HETATM   32  C25 UNL     1      -3.293  49.399 -25.642  1.00  0.00     0.218 C 
HETATM   33  O7  UNL     1      -2.345  49.234 -26.400  1.00  0.00    -0.274 OA
HETATM   34  N1  UNL     1      -3.411  50.482 -24.808  1.00  0.00    -0.347 N 
HETATM   35  H32 UNL     1      -4.100  50.479 -24.062  1.00  0.00     0.163 HD
BRANCH  34  36
HETATM   36  C26 UNL     1      -2.379  51.520 -24.728  1.00  0.00     0.182 C 
BRANCH  36  37
HETATM   37  C27 UNL     1      -1.069  50.977 -24.145  1.00  0.00     0.045 C 
BRANCH  37  38
HETATM   38  C28 UNL     1      -0.278  52.015 -23.341  1.00  0.00     0.105 C 
BRANCH  38  39
HETATM   39  C29 UNL     1      -0.090  51.588 -21.901  1.00  0.00     0.215 C 
HETATM   40  N2  UNL     1       0.911  52.252 -21.252  1.00  0.00    -0.370 N 
HETATM   41  H38 UNL     1       1.315  53.106 -21.612  1.00  0.00     0.159 HD
HETATM   42  H39 UNL     1       1.026  52.050 -20.266  1.00  0.00     0.159 HD
HETATM   43  O8  UNL     1      -0.751  50.732 -21.331  1.00  0.00    -0.274 OA
ENDBRANCH  38  39
ENDBRANCH  37  38
ENDBRANCH  36  37
BRANCH  36  44
HETATM   44  C30 UNL     1      -2.148  52.155 -26.105  1.00  0.00     0.163 C 
HETATM   45  O9  UNL     1      -2.857  52.979 -26.658  1.00  0.00    -0.648 OA
BRANCH  44  46
HETATM   46  O10 UNL     1      -1.009  51.734 -26.708  1.00  0.00    -0.775 OA
HETATM   47  H40 UNL     1      -1.022  52.206 -27.569  1.00  0.00     0.167 HD
ENDBRANCH  44  46
ENDBRANCH  36  44
ENDBRANCH  34  36
ENDBRANCH  31  32
ENDBRANCH  30  31
ENDBRANCH  28  30
ENDBRANCH  27  28
ENDBRANCH  26  27
ENDBRANCH   1  26
TORSDOF 14
ENDMDL
MODEL 3
REMARK minimizedAffinity -8.49539375
REMARK CNNscore 0.553846419
REMARK CNNaffinity 7.07534599
REMARK  14 active torsions:
REMARK  status: ('A' for Active; 'I' for Inactive)
REMARK    1  A    between atoms: C19_21  and  O3_22 
REMARK    2  A    between atoms: C19_21  and  C20_23 
REMARK    3  A    between atoms: C20_23  and  C21_25 
REMARK    4  A    between atoms: C21_25  and  O5_26 
REMARK    5  A    between atoms: O5_26  and  C22_27 
REMARK    6  A    between atoms: C22_27  and  C23_29 
REMARK    7  A    between atoms: C23_29  and  C24_30 
REMARK    8  A    between atoms: C24_30  and  C25_31 
REMARK       I    between atoms: C25_31  and  N1_33 
REMARK    9  A    between atoms: N1_33  and  C26_34 
REMARK   10  A    between atoms: C26_34  and  C27_35 
REMARK   11  A    between atoms: C26_34  and  C30_40 
REMARK   12  A    between atoms: C27_35  and  C28_36 
REMARK   13  A    between atoms: C28_36  and  C29_37 
REMARK       I    between atoms: C29_37  and  N2_38 
REMARK   14  A    between atoms: C30_40  and  O10_42 
ROOT
HETATM    1  C20 UNL     1       0.741  53.049 -25.143  1.00  0.00     0.185 C 
HETATM    2  O4  UNL     1       1.864  52.577 -25.343  1.00  0.00    -0.292 OA
ENDROOT
BRANCH   1   3
HETATM    3  C19 UNL     1      -0.525  52.493 -25.860  1.00  0.00     0.128 C 
HETATM    4  C14 UNL     1      -1.449  51.615 -24.954  1.00  0.00     0.005 C 
HETATM    5  C13 UNL     1      -2.490  52.366 -24.114  1.00  0.00     0.091 C 
HETATM    6  C15 UNL     1      -0.603  50.711 -24.016  1.00  0.00     0.019 C 
HETATM    7  C16 UNL     1      -2.227  50.822 -26.036  1.00  0.00     0.002 C 
HETATM    8  C12 UNL     1      -3.504  51.388 -23.533  1.00  0.00     0.133 C 
HETATM    9  C11 UNL     1      -4.218  50.452 -24.531  1.00  0.00     0.072 C 
HETATM   10  O2  UNL     1      -3.767  51.436 -22.333  1.00  0.00    -0.297 OA
HETATM   11  C2  UNL     1      -5.247  49.445 -23.899  1.00  0.00    -0.009 C 
HETATM   12  C10 UNL     1      -3.171  49.760 -25.452  1.00  0.00     0.003 C 
HETATM   13  C1  UNL     1      -4.595  48.511 -22.853  1.00  0.00     0.021 C 
HETATM   14  C3  UNL     1      -6.398  50.257 -23.228  1.00  0.00     0.022 C 
HETATM   15  C7  UNL     1      -5.826  48.560 -25.018  1.00  0.00    -0.067 C 
HETATM   16  C4  UNL     1      -7.642  49.431 -22.929  1.00  0.00     0.084 C 
HETATM   17  C5  UNL     1      -8.143  48.775 -24.187  1.00  0.00     0.149 C 
HETATM   18  O1  UNL     1      -9.335  48.567 -24.396  1.00  0.00    -0.293 OA
HETATM   19  C6  UNL     1      -7.138  48.298 -25.164  1.00  0.00     0.053 C 
HETATM   20  C8  UNL     1      -4.838  47.942 -25.980  1.00  0.00     0.035 C 
HETATM   21  C9  UNL     1      -3.886  48.978 -26.562  1.00  0.00     0.010 C 
HETATM   22  C17 UNL     1      -1.134  50.354 -26.985  1.00  0.00     0.009 C 
HETATM   23  C18 UNL     1      -0.130  51.520 -27.014  1.00  0.00     0.047 C 
BRANCH   3  24
HETATM   24  O3  UNL     1      -1.299  53.525 -26.482  1.00  0.00    -0.381 OA
HETATM   25  H25 UNL     1      -1.495  54.205 -25.813  1.00  0.00     0.211 HD
ENDBRANCH   3  24
ENDBRANCH   1   3
BRANCH   1  26
HETATM   26  C21 UNL     1       0.542  54.095 -24.047  1.00  0.00     0.260 C 
BRANCH  26  27
HETATM   27  O5  UNL     1       0.319  53.562 -22.741  1.00  0.00    -0.314 OA
BRANCH  27  28
HETATM   28  C22 UNL     1       1.275  53.898 -21.826  1.00  0.00     0.259 C 
HETATM   29  O6  UNL     1       1.982  54.890 -21.898  1.00  0.00    -0.265 OA
BRANCH  28  30
HETATM   30  C23 UNL     1       1.264  52.958 -20.641  1.00  0.00     0.120 C 
BRANCH  30  31
HETATM   31  C24 UNL     1       0.239  53.311 -19.568  1.00  0.00     0.112 C 
BRANCH  31  32
HETATM   32  C25 UNL     1       0.370  52.425 -18.345  1.00  0.00     0.218 C 
HETATM   33  O7  UNL     1      -0.270  51.394 -18.188  1.00  0.00    -0.274 OA
HETATM   34  N1  UNL     1       1.274  52.899 -17.427  1.00  0.00    -0.347 N 
HETATM   35  H32 UNL     1       1.628  53.847 -17.503  1.00  0.00     0.163 HD
BRANCH  34  36
HETATM   36  C26 UNL     1       1.518  52.219 -16.152  1.00  0.00     0.182 C 
BRANCH  36  37
HETATM   37  C27 UNL     1       1.073  50.752 -16.195  1.00  0.00     0.045 C 
BRANCH  37  38
HETATM   38  C28 UNL     1       0.325  50.300 -14.937  1.00  0.00     0.105 C 
BRANCH  38  39
HETATM   39  C29 UNL     1       1.237  49.582 -13.965  1.00  0.00     0.215 C 
HETATM   40  N2  UNL     1       1.071  49.961 -12.664  1.00  0.00    -0.370 N 
HETATM   41  H38 UNL     1       0.261  50.478 -12.351  1.00  0.00     0.159 HD
HETATM   42  H39 UNL     1       1.610  49.456 -11.971  1.00  0.00     0.159 HD
HETATM   43  O8  UNL     1       2.061  48.734 -14.275  1.00  0.00    -0.274 OA
ENDBRANCH  38  39
ENDBRANCH  37  38
ENDBRANCH  36  37
BRANCH  36  44
HETATM   44  C30 UNL     1       2.994  52.336 -15.754  1.00  0.00     0.163 C 
HETATM   45  O9  UNL     1       3.956  52.327 -16.505  1.00  0.00    -0.648 OA
BRANCH  44  46
HETATM   46  O10 UNL     1       3.183  52.487 -14.421  1.00  0.00    -0.775 OA
HETATM   47  H40 UNL     1       4.160  52.523 -14.333  1.00  0.00     0.167 HD
ENDBRANCH  44  46
ENDBRANCH  36  44
ENDBRANCH  34  36
ENDBRANCH  31  32
ENDBRANCH  30  31
ENDBRANCH  28  30
ENDBRANCH  27  28
ENDBRANCH  26  27
ENDBRANCH   1  26
TORSDOF 14
ENDMDL
MODEL 4
REMARK minimizedAffinity -8.11707592
REMARK CNNscore 0.553804457
REMARK CNNaffinity 6.37630129
REMARK  14 active torsions:
REMARK  status: ('A' for Active; 'I' for Inactive)
REMARK    1  A    between atoms: C19_21  and  O3_22 
REMARK    2  A    between atoms: C19_21  and  C20_23 
REMARK    3  A    between atoms: C20_23  and  C21_25 
REMARK    4  A    between atoms: C21_25  and  O5_26 
REMARK    5  A    between atoms: O5_26  and  C22_27 
REMARK    6  A    between atoms: C22_27  and  C23_29 
REMARK    7  A    between atoms: C23_29  and  C24_30 
REMARK    8  A    between atoms: C24_30  and  C25_31 
REMARK       I    between atoms: C25_31  and  N1_33 
REMARK    9  A    between atoms: N1_33  and  C26_34 
REMARK   10  A    between atoms: C26_34  and  C27_35 
REMARK   11  A    between atoms: C26_34  and  C30_40 
REMARK   12  A    between atoms: C27_35  and  C28_36 
REMARK   13  A    between atoms: C28_36  and  C29_37 
REMARK       I    between atoms: C29_37  and  N2_38 
REMARK   14  A    between atoms: C30_40  and  O10_42 
ROOT
HETATM    1  C20 UNL     1      -9.319  47.055 -27.675  1.00  0.00     0.185 C 
HETATM    2  O4  UNL     1      -9.028  47.128 -26.477  1.00  0.00    -0.292 OA
ENDROOT
BRANCH   1   3
HETATM    3  C19 UNL     1     -10.797  47.078 -28.165  1.00  0.00     0.128 C 
HETATM    4  C14 UNL     1     -11.826  46.486 -27.146  1.00  0.00     0.005 C 
HETATM    5  C13 UNL     1     -12.366  47.453 -26.085  1.00  0.00     0.091 C 
HETATM    6  C15 UNL     1     -11.241  45.235 -26.437  1.00  0.00     0.019 C 
HETATM    7  C16 UNL     1     -13.005  46.159 -28.101  1.00  0.00     0.002 C 
HETATM    8  C12 UNL     1     -13.565  46.839 -25.373  1.00  0.00     0.133 C 
HETATM    9  C11 UNL     1     -14.725  46.347 -26.265  1.00  0.00     0.072 C 
HETATM   10  O2  UNL     1     -13.599  46.834 -24.145  1.00  0.00    -0.297 OA
HETATM   11  C2  UNL     1     -15.942  45.706 -25.502  1.00  0.00    -0.009 C 
HETATM   12  C10 UNL     1     -14.172  45.442 -27.405  1.00  0.00     0.003 C 
HETATM   13  C1  UNL     1     -15.528  44.483 -24.651  1.00  0.00     0.021 C 
HETATM   14  C3  UNL     1     -16.585  46.789 -24.583  1.00  0.00     0.022 C 
HETATM   15  C7  UNL     1     -16.978  45.227 -26.536  1.00  0.00    -0.067 C 
HETATM   16  C4  UNL     1     -17.983  46.432 -24.095  1.00  0.00     0.084 C 
HETATM   17  C5  UNL     1     -18.885  46.154 -25.267  1.00  0.00     0.149 C 
HETATM   18  O1  UNL     1     -20.086  46.412 -25.256  1.00  0.00    -0.293 OA
HETATM   19  C6  UNL     1     -18.298  45.471 -26.442  1.00  0.00     0.053 C 
HETATM   20  C8  UNL     1     -16.457  44.417 -27.700  1.00  0.00     0.035 C 
HETATM   21  C9  UNL     1     -15.292  45.106 -28.398  1.00  0.00     0.010 C 
HETATM   22  C17 UNL     1     -12.329  45.448 -29.264  1.00  0.00     0.009 C 
HETATM   23  C18 UNL     1     -10.981  46.174 -29.422  1.00  0.00     0.047 C 
BRANCH   3  24
HETATM   24  O3  UNL     1     -11.218  48.384 -28.572  1.00  0.00    -0.381 OA
HETATM   25  H25 UNL     1     -11.038  49.004 -27.843  1.00  0.00     0.211 HD
ENDBRANCH   3  24
ENDBRANCH   1   3
BRANCH   1  26
HETATM   26  C21 UNL     1      -8.214  47.110 -28.729  1.00  0.00     0.260 C 
BRANCH  26  27
HETATM   27  O5  UNL     1      -7.124  47.975 -28.412  1.00  0.00    -0.314 OA
BRANCH  27  28
HETATM   28  C22 UNL     1      -6.000  47.759 -29.156  1.00  0.00     0.259 C 
HETATM   29  O6  UNL     1      -5.940  47.007 -30.116  1.00  0.00    -0.265 OA
BRANCH  28  30
HETATM   30  C23 UNL     1      -4.868  48.666 -28.728  1.00  0.00     0.120 C 
BRANCH  30  31
HETATM   31  C24 UNL     1      -4.050  48.138 -27.553  1.00  0.00     0.112 C 
BRANCH  31  32
HETATM   32  C25 UNL     1      -3.160  49.210 -26.955  1.00  0.00     0.218 C 
HETATM   33  O7  UNL     1      -2.279  48.977 -26.138  1.00  0.00    -0.274 OA
HETATM   34  N1  UNL     1      -3.446  50.471 -27.416  1.00  0.00    -0.347 N 
HETATM   35  H32 UNL     1      -4.303  50.643 -27.932  1.00  0.00     0.163 HD
BRANCH  34  36
HETATM   36  C26 UNL     1      -2.736  51.658 -26.930  1.00  0.00     0.182 C 
BRANCH  36  37
HETATM   37  C27 UNL     1      -3.024  51.926 -25.448  1.00  0.00     0.045 C 
BRANCH  37  38
HETATM   38  C28 UNL     1      -4.316  51.275 -24.946  1.00  0.00     0.105 C 
BRANCH  38  39
HETATM   39  C29 UNL     1      -4.594  51.614 -23.497  1.00  0.00     0.215 C 
HETATM   40  N2  UNL     1      -5.750  52.314 -23.302  1.00  0.00    -0.370 N 
HETATM   41  H38 UNL     1      -6.466  52.382 -24.011  1.00  0.00     0.159 HD
HETATM   42  H39 UNL     1      -6.012  52.501 -22.342  1.00  0.00     0.159 HD
HETATM   43  O8  UNL     1      -3.875  51.309 -22.556  1.00  0.00    -0.274 OA
ENDBRANCH  38  39
ENDBRANCH  37  38
ENDBRANCH  36  37
BRANCH  36  44
HETATM   44  C30 UNL     1      -1.230  51.523 -27.183  1.00  0.00     0.163 C 
HETATM   45  O9  UNL     1      -0.377  51.202 -26.370  1.00  0.00    -0.648 OA
BRANCH  44  46
HETATM   46  O10 UNL     1      -0.874  51.776 -28.466  1.00  0.00    -0.775 OA
HETATM   47  H40 UNL     1       0.103  51.672 -28.455  1.00  0.00     0.167 HD
ENDBRANCH  44  46
ENDBRANCH  36  44
ENDBRANCH  34  36
ENDBRANCH  31  32
ENDBRANCH  30  31
ENDBRANCH  28  30
ENDBRANCH  27  28
ENDBRANCH  26  27
ENDBRANCH   1  26
TORSDOF 14
ENDMDL
MODEL 5
REMARK minimizedAffinity -7.77947187
REMARK CNNscore 0.398563504
REMARK CNNaffinity 6.31388855
REMARK  14 active torsions:
REMARK  status: ('A' for Active; 'I' for Inactive)
REMARK    1  A    between atoms: C19_21  and  O3_22 
REMARK    2  A    between atoms: C19_21  and  C20_23 
REMARK    3  A    between atoms: C20_23  and  C21_25 
REMARK    4  A    between atoms: C21_25  and  O5_26 
REMARK    5  A    between atoms: O5_26  and  C22_27 
REMARK    6  A    between atoms: C22_27  and  C23_29 
REMARK    7  A    between atoms: C23_29  and  C24_30 
REMARK    8  A    between atoms: C24_30  and  C25_31 
REMARK       I    between atoms: C25_31  and  N1_33 
REMARK    9  A    between atoms: N1_33  and  C26_34 
REMARK   10  A    between atoms: C26_34  and  C27_35 
REMARK   11  A    between atoms: C26_34  and  C30_40 
REMARK   12  A    between atoms: C27_35  and  C28_36 
REMARK   13  A    between atoms: C28_36  and  C29_37 
REMARK       I    between atoms: C29_37  and  N2_38 
REMARK   14  A    between atoms: C30_40  and  O10_42 
ROOT
HETATM    1  C20 UNL     1       7.475  64.209 -34.707  1.00  0.00     0.185 C 
HETATM    2  O4  UNL     1       7.773  64.560 -33.562  1.00  0.00    -0.292 OA
ENDROOT
BRANCH   1   3
HETATM    3  C19 UNL     1       5.999  64.181 -35.202  1.00  0.00     0.128 C 
HETATM    4  C14 UNL     1       5.548  65.467 -35.969  1.00  0.00     0.005 C 
HETATM    5  C13 UNL     1       5.849  65.504 -37.473  1.00  0.00     0.091 C 
HETATM    6  C15 UNL     1       6.142  66.740 -35.306  1.00  0.00     0.019 C 
HETATM    7  C16 UNL     1       4.008  65.355 -35.818  1.00  0.00     0.002 C 
HETATM    8  C12 UNL     1       5.093  66.649 -38.135  1.00  0.00     0.133 C 
HETATM    9  C11 UNL     1       3.567  66.698 -37.909  1.00  0.00     0.072 C 
HETATM   10  O2  UNL     1       5.700  67.424 -38.871  1.00  0.00    -0.297 OA
HETATM   11  C2  UNL     1       2.818  67.900 -38.593  1.00  0.00    -0.009 C 
HETATM   12  C10 UNL     1       3.250  66.564 -36.390  1.00  0.00     0.003 C 
HETATM   13  C1  UNL     1       3.349  69.273 -38.120  1.00  0.00     0.021 C 
HETATM   14  C3  UNL     1       2.984  67.780 -40.139  1.00  0.00     0.022 C 
HETATM   15  C7  UNL     1       1.324  67.825 -38.227  1.00  0.00    -0.067 C 
HETATM   16  C4  UNL     1       2.000  68.631 -40.931  1.00  0.00     0.084 C 
HETATM   17  C5  UNL     1       0.588  68.292 -40.539  1.00  0.00     0.149 C 
HETATM   18  O1  UNL     1      -0.350  68.342 -41.331  1.00  0.00    -0.293 OA
HETATM   19  C6  UNL     1       0.326  67.962 -39.120  1.00  0.00     0.053 C 
HETATM   20  C8  UNL     1       0.987  67.611 -36.770  1.00  0.00     0.035 C 
HETATM   21  C9  UNL     1       1.737  66.423 -36.181  1.00  0.00     0.010 C 
HETATM   22  C17 UNL     1       3.821  65.036 -34.343  1.00  0.00     0.009 C 
HETATM   23  C18 UNL     1       5.009  64.120 -33.998  1.00  0.00     0.047 C 
BRANCH   3  24
HETATM   24  O3  UNL     1       5.708  63.022 -35.991  1.00  0.00    -0.381 OA
HETATM   25  H25 UNL     1       6.363  62.970 -36.710  1.00  0.00     0.211 HD
ENDBRANCH   3  24
ENDBRANCH   1   3
BRANCH   1  26
HETATM   26  C21 UNL     1       8.579  63.951 -35.732  1.00  0.00     0.260 C 
BRANCH  26  27
HETATM   27  O5  UNL     1       9.311  62.741 -35.534  1.00  0.00    -0.314 OA
BRANCH  27  28
HETATM   28  C22 UNL     1      10.529  62.912 -34.942  1.00  0.00     0.259 C 
HETATM   29  O6  UNL     1      10.732  62.830 -33.741  1.00  0.00    -0.265 OA
BRANCH  28  30
HETATM   30  C23 UNL     1      11.626  63.089 -35.968  1.00  0.00     0.120 C 
BRANCH  30  31
HETATM   31  C24 UNL     1      11.522  62.151 -37.167  1.00  0.00     0.112 C 
BRANCH  31  32
HETATM   32  C25 UNL     1      12.877  61.615 -37.585  1.00  0.00     0.218 C 
HETATM   33  O7  UNL     1      13.938  62.119 -37.241  1.00  0.00    -0.274 OA
HETATM   34  N1  UNL     1      12.795  60.510 -38.395  1.00  0.00    -0.347 N 
HETATM   35  H32 UNL     1      11.908  60.249 -38.814  1.00  0.00     0.163 HD
BRANCH  34  36
HETATM   36  C26 UNL     1      13.987  59.862 -38.951  1.00  0.00     0.182 C 
BRANCH  36  37
HETATM   37  C27 UNL     1      14.607  58.866 -37.964  1.00  0.00     0.045 C 
BRANCH  37  38
HETATM   38  C28 UNL     1      15.987  59.287 -37.451  1.00  0.00     0.105 C 
BRANCH  38  39
HETATM   39  C29 UNL     1      16.467  58.397 -36.325  1.00  0.00     0.215 C 
HETATM   40  N2  UNL     1      16.698  57.104 -36.699  1.00  0.00    -0.370 N 
HETATM   41  H38 UNL     1      16.781  56.829 -37.668  1.00  0.00     0.159 HD
HETATM   42  H39 UNL     1      17.088  56.489 -35.995  1.00  0.00     0.159 HD
HETATM   43  O8  UNL     1      16.645  58.760 -35.171  1.00  0.00    -0.274 OA
ENDBRANCH  38  39
ENDBRANCH  37  38
ENDBRANCH  36  37
BRANCH  36  44
HETATM   44  C30 UNL     1      13.657  59.183 -40.285  1.00  0.00     0.163 C 
HETATM   45  O9  UNL     1      13.737  59.678 -41.398  1.00  0.00    -0.648 OA
BRANCH  44  46
HETATM   46  O10 UNL     1      13.264  57.892 -40.151  1.00  0.00    -0.775 OA
HETATM   47  H40 UNL     1      13.072  57.617 -41.073  1.00  0.00     0.167 HD
ENDBRANCH  44  46
ENDBRANCH  36  44
ENDBRANCH  34  36
ENDBRANCH  31  32
ENDBRANCH  30  31
ENDBRANCH  28  30
ENDBRANCH  27  28
ENDBRANCH  26  27
ENDBRANCH   1  26
TORSDOF 14
ENDMDL
MODEL 6
REMARK minimizedAffinity -8.22270393
REMARK CNNscore 0.376186669
REMARK CNNaffinity 6.5135746
REMARK  14 active torsions:
REMARK  status: ('A' for Active; 'I' for Inactive)
REMARK    1  A    between atoms: C19_21  and  O3_22 
REMARK    2  A    between atoms: C19_21  and  C20_23 
REMARK    3  A    between atoms: C20_23  and  C21_25 
REMARK    4  A    between atoms: C21_25  and  O5_26 
REMARK    5  A    between atoms: O5_26  and  C22_27 
REMARK    6  A    between atoms: C22_27  and  C23_29 
REMARK    7  A    between atoms: C23_29  and  C24_30 
REMARK    8  A    between atoms: C24_30  and  C25_31 
REMARK       I    between atoms: C25_31  and  N1_33 
REMARK    9  A    between atoms: N1_33  and  C26_34 
REMARK   10  A    between atoms: C26_34  and  C27_35 
REMARK   11  A    between atoms: C26_34  and  C30_40 
REMARK   12  A    between atoms: C27_35  and  C28_36 
REMARK   13  A    between atoms: C28_36  and  C29_37 
REMARK       I    between atoms: C29_37  and  N2_38 
REMARK   14  A    between atoms: C30_40  and  O10_42 
ROOT
HETATM    1  C20 UNL     1      -3.972  48.569 -18.851  1.00  0.00     0.185 C 
HETATM    2  O4  UNL     1      -5.156  48.911 -18.770  1.00  0.00    -0.292 OA
ENDROOT
BRANCH   1   3
HETATM    3  C19 UNL     1      -3.315  48.197 -20.213  1.00  0.00     0.128 C 
HETATM    4  C14 UNL     1      -2.983  49.420 -21.128  1.00  0.00     0.005 C 
HETATM    5  C13 UNL     1      -1.633  50.106 -20.884  1.00  0.00     0.091 C 
HETATM    6  C15 UNL     1      -4.110  50.486 -21.053  1.00  0.00     0.019 C 
HETATM    7  C16 UNL     1      -2.891  48.718 -22.509  1.00  0.00     0.002 C 
HETATM    8  C12 UNL     1      -1.312  51.062 -22.027  1.00  0.00     0.133 C 
HETATM    9  C11 UNL     1      -1.346  50.475 -23.454  1.00  0.00     0.072 C 
HETATM   10  O2  UNL     1      -0.968  52.214 -21.769  1.00  0.00    -0.297 OA
HETATM   11  C2  UNL     1      -1.025  51.490 -24.612  1.00  0.00    -0.009 C 
HETATM   12  C10 UNL     1      -2.674  49.694 -23.676  1.00  0.00     0.003 C 
HETATM   13  C1  UNL     1      -2.001  52.688 -24.635  1.00  0.00     0.021 C 
HETATM   14  C3  UNL     1       0.435  52.008 -24.434  1.00  0.00     0.022 C 
HETATM   15  C7  UNL     1      -1.151  50.758 -25.961  1.00  0.00    -0.067 C 
HETATM   16  C4  UNL     1       1.007  52.677 -25.678  1.00  0.00     0.084 C 
HETATM   17  C5  UNL     1       0.936  51.737 -26.850  1.00  0.00     0.149 C 
HETATM   18  O1  UNL     1       1.775  51.733 -27.748  1.00  0.00    -0.293 OA
HETATM   19  C6  UNL     1      -0.240  50.843 -26.948  1.00  0.00     0.053 C 
HETATM   20  C8  UNL     1      -2.392  49.922 -26.172  1.00  0.00     0.035 C 
HETATM   21  C9  UNL     1      -2.630  48.955 -25.019  1.00  0.00     0.010 C 
HETATM   22  C17 UNL     1      -4.132  47.839 -22.541  1.00  0.00     0.009 C 
HETATM   23  C18 UNL     1      -4.290  47.351 -21.090  1.00  0.00     0.047 C 
BRANCH   3  24
HETATM   24  O3  UNL     1      -2.148  47.383 -20.052  1.00  0.00    -0.381 OA
HETATM   25  H25 UNL     1      -1.543  47.835 -19.437  1.00  0.00     0.211 HD
ENDBRANCH   3  24
ENDBRANCH   1   3
BRANCH   1  26
HETATM   26  C21 UNL     1      -3.068  48.666 -17.623  1.00  0.00     0.260 C 
BRANCH  26  27
HETATM   27  O5  UNL     1      -1.839  49.360 -17.835  1.00  0.00    -0.314 OA
BRANCH  27  28
HETATM   28  C22 UNL     1      -1.784  50.595 -17.256  1.00  0.00     0.259 C 
HETATM   29  O6  UNL     1      -2.759  51.230 -16.889  1.00  0.00    -0.265 OA
BRANCH  28  30
HETATM   30  C23 UNL     1      -0.356  51.029 -17.006  1.00  0.00     0.120 C 
BRANCH  30  31
HETATM   31  C24 UNL     1       0.419  50.122 -16.055  1.00  0.00     0.112 C 
BRANCH  31  32
HETATM   32  C25 UNL     1       1.255  50.916 -15.071  1.00  0.00     0.218 C 
HETATM   33  O7  UNL     1       1.289  52.139 -15.047  1.00  0.00    -0.274 OA
HETATM   34  N1  UNL     1       1.978  50.125 -14.212  1.00  0.00    -0.347 N 
HETATM   35  H32 UNL     1       2.075  49.131 -14.395  1.00  0.00     0.163 HD
BRANCH  34  36
HETATM   36  C26 UNL     1       2.889  50.691 -13.213  1.00  0.00     0.182 C 
BRANCH  36  37
HETATM   37  C27 UNL     1       2.203  50.866 -11.853  1.00  0.00     0.045 C 
BRANCH  37  38
HETATM   38  C28 UNL     1       2.165  52.319 -11.368  1.00  0.00     0.105 C 
BRANCH  38  39
HETATM   39  C29 UNL     1       0.836  52.979 -11.669  1.00  0.00     0.215 C 
HETATM   40  N2  UNL     1       0.807  54.317 -11.401  1.00  0.00    -0.370 N 
HETATM   41  H38 UNL     1       1.649  54.857 -11.256  1.00  0.00     0.159 HD
HETATM   42  H39 UNL     1      -0.039  54.814 -11.654  1.00  0.00     0.159 HD
HETATM   43  O8  UNL     1      -0.148  52.404 -12.113  1.00  0.00    -0.274 OA
ENDBRANCH  38  39
ENDBRANCH  37  38
ENDBRANCH  36  37
BRANCH  36  44
HETATM   44  C30 UNL     1       4.151  49.829 -13.087  1.00  0.00     0.163 C 
HETATM   45  O9  UNL     1       4.978  49.612 -13.958  1.00  0.00    -0.648 OA
BRANCH  44  46
HETATM   46  O10 UNL     1       4.322  49.301 -11.851  1.00  0.00    -0.775 OA
HETATM   47  H40 UNL     1       5.143  48.770 -11.943  1.00  0.00     0.167 HD
ENDBRANCH  44  46
ENDBRANCH  36  44
ENDBRANCH  34  36
ENDBRANCH  31  32
ENDBRANCH  30  31
ENDBRANCH  28  30
ENDBRANCH  27  28
ENDBRANCH  26  27
ENDBRANCH   1  26
TORSDOF 14
ENDMDL
MODEL 7
REMARK minimizedAffinity -8.83825779
REMARK CNNscore 0.338013858
REMARK CNNaffinity 7.25437689
REMARK  14 active torsions:
REMARK  status: ('A' for Active; 'I' for Inactive)
REMARK    1  A    between atoms: C19_21  and  O3_22 
REMARK    2  A    between atoms: C19_21  and  C20_23 
REMARK    3  A    between atoms: C20_23  and  C21_25 
REMARK    4  A    between atoms: C21_25  and  O5_26 
REMARK    5  A    between atoms: O5_26  and  C22_27 
REMARK    6  A    between atoms: C22_27  and  C23_29 
REMARK    7  A    between atoms: C23_29  and  C24_30 
REMARK    8  A    between atoms: C24_30  and  C25_31 
REMARK       I    between atoms: C25_31  and  N1_33 
REMARK    9  A    between atoms: N1_33  and  C26_34 
REMARK   10  A    between atoms: C26_34  and  C27_35 
REMARK   11  A    between atoms: C26_34  and  C30_40 
REMARK   12  A    between atoms: C27_35  and  C28_36 
REMARK   13  A    between atoms: C28_36  and  C29_37 
REMARK       I    between atoms: C29_37  and  N2_38 
REMARK   14  A    between atoms: C30_40  and  O10_42 
ROOT
HETATM    1  C20 UNL     1      -3.778  49.563 -19.613  1.00  0.00     0.185 C 
HETATM    2  O4  UNL     1      -4.514  49.297 -18.658  1.00  0.00    -0.292 OA
ENDROOT
BRANCH   1   3
HETATM    3  C19 UNL     1      -2.270  49.900 -19.422  1.00  0.00     0.128 C 
HETATM    4  C14 UNL     1      -1.801  49.944 -17.930  1.00  0.00     0.005 C 
HETATM    5  C13 UNL     1      -1.382  48.606 -17.309  1.00  0.00     0.091 C 
HETATM    6  C15 UNL     1      -2.884  50.600 -17.032  1.00  0.00     0.019 C 
HETATM    7  C16 UNL     1      -0.514  50.801 -18.069  1.00  0.00     0.002 C 
HETATM    8  C12 UNL     1      -0.668  48.840 -15.983  1.00  0.00     0.133 C 
HETATM    9  C11 UNL     1       0.539  49.803 -16.005  1.00  0.00     0.072 C 
HETATM   10  O2  UNL     1      -1.019  48.207 -14.990  1.00  0.00    -0.297 OA
HETATM   11  C2  UNL     1       1.246  50.035 -14.619  1.00  0.00    -0.009 C 
HETATM   12  C10 UNL     1       0.148  51.128 -16.722  1.00  0.00     0.003 C 
HETATM   13  C1  UNL     1       0.282  50.604 -13.552  1.00  0.00     0.021 C 
HETATM   14  C3  UNL     1       1.833  48.679 -14.122  1.00  0.00     0.022 C 
HETATM   15  C7  UNL     1       2.386  51.052 -14.809  1.00  0.00    -0.067 C 
HETATM   16  C4  UNL     1       2.866  48.825 -13.012  1.00  0.00     0.084 C 
HETATM   17  C5  UNL     1       3.979  49.733 -13.457  1.00  0.00     0.149 C 
HETATM   18  O1  UNL     1       5.141  49.590 -13.084  1.00  0.00    -0.293 OA
HETATM   19  C6  UNL     1       3.628  50.886 -14.316  1.00  0.00     0.053 C 
HETATM   20  C8  UNL     1       2.058  52.312 -15.576  1.00  0.00     0.035 C 
HETATM   21  C9  UNL     1       1.391  52.008 -16.911  1.00  0.00     0.010 C 
HETATM   22  C17 UNL     1      -0.958  51.965 -18.942  1.00  0.00     0.009 C 
HETATM   23  C18 UNL     1      -1.950  51.337 -19.938  1.00  0.00     0.047 C 
BRANCH   3  24
HETATM   24  O3  UNL     1      -1.415  49.029 -20.171  1.00  0.00    -0.381 OA
HETATM   25  H25 UNL     1      -1.642  48.110 -19.945  1.00  0.00     0.211 HD
ENDBRANCH   3  24
ENDBRANCH   1   3
BRANCH   1  26
HETATM   26  C21 UNL     1      -4.300  49.401 -21.041  1.00  0.00     0.260 C 
BRANCH  26  27
HETATM   27  O5  UNL     1      -4.109  50.539 -21.882  1.00  0.00    -0.314 OA
BRANCH  27  28
HETATM   28  C22 UNL     1      -4.347  50.305 -23.206  1.00  0.00     0.259 C 
HETATM   29  O6  UNL     1      -5.303  50.744 -23.825  1.00  0.00    -0.265 OA
BRANCH  28  30
HETATM   30  C23 UNL     1      -3.211  49.540 -23.847  1.00  0.00     0.120 C 
BRANCH  30  31
HETATM   31  C24 UNL     1      -1.821  49.993 -23.409  1.00  0.00     0.112 C 
BRANCH  31  32
HETATM   32  C25 UNL     1      -1.504  51.394 -23.893  1.00  0.00     0.218 C 
HETATM   33  O7  UNL     1      -1.405  52.359 -23.146  1.00  0.00    -0.274 OA
HETATM   34  N1  UNL     1      -1.345  51.476 -25.254  1.00  0.00    -0.347 N 
HETATM   35  H32 UNL     1      -1.630  50.703 -25.847  1.00  0.00     0.163 HD
BRANCH  34  36
HETATM   36  C26 UNL     1      -1.081  52.748 -25.932  1.00  0.00     0.182 C 
BRANCH  36  37
HETATM   37  C27 UNL     1       0.410  53.104 -25.914  1.00  0.00     0.045 C 
BRANCH  37  38
HETATM   38  C28 UNL     1       1.334  51.886 -26.015  1.00  0.00     0.105 C 
BRANCH  38  39
HETATM   39  C29 UNL     1       1.971  51.774 -27.383  1.00  0.00     0.215 C 
HETATM   40  N2  UNL     1       3.323  51.964 -27.383  1.00  0.00    -0.370 N 
HETATM   41  H38 UNL     1       3.873  51.935 -26.535  1.00  0.00     0.159 HD
HETATM   42  H39 UNL     1       3.802  51.828 -28.265  1.00  0.00     0.159 HD
HETATM   43  O8  UNL     1       1.369  51.535 -28.420  1.00  0.00    -0.274 OA
ENDBRANCH  38  39
ENDBRANCH  37  38
ENDBRANCH  36  37
BRANCH  36  44
HETATM   44  C30 UNL     1      -1.622  52.714 -27.367  1.00  0.00     0.163 C 
HETATM   45  O9  UNL     1      -2.050  53.660 -28.009  1.00  0.00    -0.648 OA
BRANCH  44  46
HETATM   46  O10 UNL     1      -1.570  51.484 -27.934  1.00  0.00    -0.775 OA
HETATM   47  H40 UNL     1      -1.965  51.627 -28.821  1.00  0.00     0.167 HD
ENDBRANCH  44  46
ENDBRANCH  36  44
ENDBRANCH  34  36
ENDBRANCH  31  32
ENDBRANCH  30  31
ENDBRANCH  28  30
ENDBRANCH  27  28
ENDBRANCH  26  27
ENDBRANCH   1  26
TORSDOF 14
ENDMDL
MODEL 8
REMARK minimizedAffinity -8.02862358
REMARK CNNscore 0.308209896
REMARK CNNaffinity 5.96631479
REMARK  14 active torsions:
REMARK  status: ('A' for Active; 'I' for Inactive)
REMARK    1  A    between atoms: C19_21  and  O3_22 
REMARK    2  A    between atoms: C19_21  and  C20_23 
REMARK    3  A    between atoms: C20_23  and  C21_25 
REMARK    4  A    between atoms: C21_25  and  O5_26 
REMARK    5  A    between atoms: O5_26  and  C22_27 
REMARK    6  A    between atoms: C22_27  and  C23_29 
REMARK    7  A    between atoms: C23_29  and  C24_30 
REMARK    8  A    between atoms: C24_30  and  C25_31 
REMARK       I    between atoms: C25_31  and  N1_33 
REMARK    9  A    between atoms: N1_33  and  C26_34 
REMARK   10  A    between atoms: C26_34  and  C27_35 
REMARK   11  A    between atoms: C26_34  and  C30_40 
REMARK   12  A    between atoms: C27_35  and  C28_36 
REMARK   13  A    between atoms: C28_36  and  C29_37 
REMARK       I    between atoms: C29_37  and  N2_38 
REMARK   14  A    between atoms: C30_40  and  O10_42 
ROOT
HETATM    1  C20 UNL     1      -7.205  48.369 -23.183  1.00  0.00     0.185 C 
HETATM    2  O4  UNL     1      -7.795  47.437 -22.630  1.00  0.00    -0.292 OA
ENDROOT
BRANCH   1   3
HETATM    3  C19 UNL     1      -6.602  49.556 -22.376  1.00  0.00     0.128 C 
HETATM    4  C14 UNL     1      -5.046  49.509 -22.218  1.00  0.00     0.005 C 
HETATM    5  C13 UNL     1      -4.227  50.121 -23.361  1.00  0.00     0.091 C 
HETATM    6  C15 UNL     1      -4.562  48.053 -21.976  1.00  0.00     0.019 C 
HETATM    7  C16 UNL     1      -4.864  50.432 -20.985  1.00  0.00     0.002 C 
HETATM    8  C12 UNL     1      -2.772  50.283 -22.939  1.00  0.00     0.133 C 
HETATM    9  C11 UNL     1      -2.509  51.065 -21.635  1.00  0.00     0.072 C 
HETATM   10  O2  UNL     1      -1.881  49.867 -23.677  1.00  0.00    -0.297 OA
HETATM   11  C2  UNL     1      -0.999  51.203 -21.219  1.00  0.00    -0.009 C 
HETATM   12  C10 UNL     1      -3.410  50.511 -20.493  1.00  0.00     0.003 C 
HETATM   13  C1  UNL     1      -0.313  49.831 -21.023  1.00  0.00     0.021 C 
HETATM   14  C3  UNL     1      -0.247  52.011 -22.321  1.00  0.00     0.022 C 
HETATM   15  C7  UNL     1      -0.921  51.960 -19.880  1.00  0.00    -0.067 C 
HETATM   16  C4  UNL     1       1.104  52.553 -21.873  1.00  0.00     0.084 C 
HETATM   17  C5  UNL     1       0.941  53.398 -20.639  1.00  0.00     0.149 C 
HETATM   18  O1  UNL     1       1.651  54.372 -20.404  1.00  0.00    -0.293 OA
HETATM   19  C6  UNL     1      -0.071  52.977 -19.643  1.00  0.00     0.053 C 
HETATM   20  C8  UNL     1      -1.845  51.498 -18.779  1.00  0.00     0.035 C 
HETATM   21  C9  UNL     1      -3.290  51.403 -19.251  1.00  0.00     0.010 C 
HETATM   22  C17 UNL     1      -5.916  49.929 -20.009  1.00  0.00     0.009 C 
HETATM   23  C18 UNL     1      -7.110  49.543 -20.902  1.00  0.00     0.047 C 
BRANCH   3  24
HETATM   24  O3  UNL     1      -6.994  50.830 -22.901  1.00  0.00    -0.381 OA
HETATM   25  H25 UNL     1      -6.775  50.850 -23.849  1.00  0.00     0.211 HD
ENDBRANCH   3  24
ENDBRANCH   1   3
BRANCH   1  26
HETATM   26  C21 UNL     1      -6.903  48.294 -24.680  1.00  0.00     0.260 C 
BRANCH  26  27
HETATM   27  O5  UNL     1      -7.964  47.772 -25.480  1.00  0.00    -0.314 OA
BRANCH  27  28
HETATM   28  C22 UNL     1      -7.551  47.154 -26.626  1.00  0.00     0.259 C 
HETATM   29  O6  UNL     1      -6.890  47.690 -27.501  1.00  0.00    -0.265 OA
BRANCH  28  30
HETATM   30  C23 UNL     1      -7.902  45.682 -26.620  1.00  0.00     0.120 C 
BRANCH  30  31
HETATM   31  C24 UNL     1      -8.705  45.223 -27.833  1.00  0.00     0.112 C 
BRANCH  31  32
HETATM   32  C25 UNL     1      -7.844  45.113 -29.075  1.00  0.00     0.218 C 
HETATM   33  O7  UNL     1      -7.000  44.241 -29.236  1.00  0.00    -0.274 OA
HETATM   34  N1  UNL     1      -8.099  46.094 -30.000  1.00  0.00    -0.347 N 
HETATM   35  H32 UNL     1      -8.657  46.903 -29.745  1.00  0.00     0.163 HD
BRANCH  34  36
HETATM   36  C26 UNL     1      -7.344  46.200 -31.252  1.00  0.00     0.182 C 
BRANCH  36  37
HETATM   37  C27 UNL     1      -8.220  45.893 -32.473  1.00  0.00     0.045 C 
BRANCH  37  38
HETATM   38  C28 UNL     1      -9.432  46.820 -32.607  1.00  0.00     0.105 C 
BRANCH  38  39
HETATM   39  C29 UNL     1     -10.722  46.119 -32.237  1.00  0.00     0.215 C 
HETATM   40  N2  UNL     1     -11.604  45.994 -33.271  1.00  0.00    -0.370 N 
HETATM   41  H38 UNL     1     -11.328  46.129 -34.234  1.00  0.00     0.159 HD
HETATM   42  H39 UNL     1     -12.450  45.469 -33.088  1.00  0.00     0.159 HD
HETATM   43  O8  UNL     1     -10.990  45.687 -31.124  1.00  0.00    -0.274 OA
ENDBRANCH  38  39
ENDBRANCH  37  38
ENDBRANCH  36  37
BRANCH  36  44
HETATM   44  C30 UNL     1      -6.695  47.584 -31.373  1.00  0.00     0.163 C 
HETATM   45  O9  UNL     1      -6.940  48.568 -30.694  1.00  0.00    -0.648 OA
BRANCH  44  46
HETATM   46  O10 UNL     1      -5.741  47.650 -32.334  1.00  0.00    -0.775 OA
HETATM   47  H40 UNL     1      -5.449  48.586 -32.298  1.00  0.00     0.167 HD
ENDBRANCH  44  46
ENDBRANCH  36  44
ENDBRANCH  34  36
ENDBRANCH  31  32
ENDBRANCH  30  31
ENDBRANCH  28  30
ENDBRANCH  27  28
ENDBRANCH  26  27
ENDBRANCH   1  26
TORSDOF 14
ENDMDL
MODEL 9
REMARK minimizedAffinity -7.77675152
REMARK CNNscore 0.306320667
REMARK CNNaffinity 6.19788313
REMARK  14 active torsions:
REMARK  status: ('A' for Active; 'I' for Inactive)
REMARK    1  A    between atoms: C19_21  and  O3_22 
REMARK    2  A    between atoms: C19_21  and  C20_23 
REMARK    3  A    between atoms: C20_23  and  C21_25 
REMARK    4  A    between atoms: C21_25  and  O5_26 
REMARK    5  A    between atoms: O5_26  and  C22_27 
REMARK    6  A    between atoms: C22_27  and  C23_29 
REMARK    7  A    between atoms: C23_29  and  C24_30 
REMARK    8  A    between atoms: C24_30  and  C25_31 
REMARK       I    between atoms: C25_31  and  N1_33 
REMARK    9  A    between atoms: N1_33  and  C26_34 
REMARK   10  A    between atoms: C26_34  and  C27_35 
REMARK   11  A    between atoms: C26_34  and  C30_40 
REMARK   12  A    between atoms: C27_35  and  C28_36 
REMARK   13  A    between atoms: C28_36  and  C29_37 
REMARK       I    between atoms: C29_37  and  N2_38 
REMARK   14  A    between atoms: C30_40  and  O10_42 
ROOT
HETATM    1  C20 UNL     1      -8.312  47.433 -29.102  1.00  0.00     0.185 C 
HETATM    2  O4  UNL     1      -8.839  46.945 -28.098  1.00  0.00    -0.292 OA
ENDROOT
BRANCH   1   3
HETATM    3  C19 UNL     1      -9.069  47.544 -30.457  1.00  0.00     0.128 C 
HETATM    4  C14 UNL     1      -9.069  46.232 -31.309  1.00  0.00     0.005 C 
HETATM    5  C13 UNL     1     -10.174  45.216 -30.995  1.00  0.00     0.091 C 
HETATM    6  C15 UNL     1      -7.692  45.520 -31.222  1.00  0.00     0.019 C 
HETATM    7  C16 UNL     1      -9.375  46.814 -32.715  1.00  0.00     0.002 C 
HETATM    8  C12 UNL     1     -10.240  44.154 -32.085  1.00  0.00     0.133 C 
HETATM    9  C11 UNL     1     -10.394  44.656 -33.536  1.00  0.00     0.072 C 
HETATM   10  O2  UNL     1     -10.251  42.967 -31.768  1.00  0.00    -0.297 OA
HETATM   11  C2  UNL     1     -10.445  43.536 -34.639  1.00  0.00    -0.009 C 
HETATM   12  C10 UNL     1      -9.335  45.759 -33.832  1.00  0.00     0.003 C 
HETATM   13  C1  UNL     1      -9.177  42.651 -34.641  1.00  0.00     0.021 C 
HETATM   14  C3  UNL     1     -11.703  42.648 -34.395  1.00  0.00     0.022 C 
HETATM   15  C7  UNL     1     -10.548  44.207 -36.022  1.00  0.00    -0.067 C 
HETATM   16  C4  UNL     1     -12.091  41.788 -35.591  1.00  0.00     0.084 C 
HETATM   17  C5  UNL     1     -12.301  42.652 -36.804  1.00  0.00     0.149 C 
HETATM   18  O1  UNL     1     -13.124  42.382 -37.675  1.00  0.00    -0.293 OA
HETATM   19  C6  UNL     1     -11.418  43.827 -36.976  1.00  0.00     0.053 C 
HETATM   20  C8  UNL     1      -9.587  45.338 -36.306  1.00  0.00     0.035 C 
HETATM   21  C9  UNL     1      -9.604  46.390 -35.204  1.00  0.00     0.010 C 
HETATM   22  C17 UNL     1      -8.423  47.995 -32.822  1.00  0.00     0.009 C 
HETATM   23  C18 UNL     1      -8.380  48.579 -31.399  1.00  0.00     0.047 C 
BRANCH   3  24
HETATM   24  O3  UNL     1     -10.412  48.014 -30.297  1.00  0.00    -0.381 OA
HETATM   25  H25 UNL     1     -10.859  47.446 -29.644  1.00  0.00     0.211 HD
ENDBRANCH   3  24
ENDBRANCH   1   3
BRANCH   1  26
HETATM   26  C21 UNL     1      -6.941  48.101 -28.990  1.00  0.00     0.260 C 
BRANCH  26  27
HETATM   27  O5  UNL     1      -6.165  47.694 -27.863  1.00  0.00    -0.314 OA
BRANCH  27  28
HETATM   28  C22 UNL     1      -4.866  48.113 -27.895  1.00  0.00     0.259 C 
HETATM   29  O6  UNL     1      -4.242  48.352 -28.916  1.00  0.00    -0.265 OA
BRANCH  28  30
HETATM   30  C23 UNL     1      -4.332  48.372 -26.504  1.00  0.00     0.120 C 
BRANCH  30  31
HETATM   31  C24 UNL     1      -2.837  48.672 -26.450  1.00  0.00     0.112 C 
BRANCH  31  32
HETATM   32  C25 UNL     1      -2.561  50.094 -26.002  1.00  0.00     0.218 C 
HETATM   33  O7  UNL     1      -3.275  50.705 -25.217  1.00  0.00    -0.274 OA
HETATM   34  N1  UNL     1      -1.432  50.631 -26.569  1.00  0.00    -0.347 N 
HETATM   35  H32 UNL     1      -0.987  50.170 -27.356  1.00  0.00     0.163 HD
BRANCH  34  36
HETATM   36  C26 UNL     1      -1.010  52.011 -26.307  1.00  0.00     0.182 C 
BRANCH  36  37
HETATM   37  C27 UNL     1       0.400  52.070 -25.707  1.00  0.00     0.045 C 
BRANCH  37  38
HETATM   38  C28 UNL     1       0.525  53.043 -24.530  1.00  0.00     0.105 C 
BRANCH  38  39
HETATM   39  C29 UNL     1       0.219  52.372 -23.208  1.00  0.00     0.215 C 
HETATM   40  N2  UNL     1       0.835  52.951 -22.136  1.00  0.00    -0.370 N 
HETATM   41  H38 UNL     1       1.248  53.871 -22.183  1.00  0.00     0.159 HD
HETATM   42  H39 UNL     1       0.602  52.579 -21.223  1.00  0.00     0.159 HD
HETATM   43  O8  UNL     1      -0.509  51.400 -23.068  1.00  0.00    -0.274 OA
ENDBRANCH  38  39
ENDBRANCH  37  38
ENDBRANCH  36  37
BRANCH  36  44
HETATM   44  C30 UNL     1      -1.101  52.852 -27.585  1.00  0.00     0.163 C 
HETATM   45  O9  UNL     1      -1.841  53.803 -27.784  1.00  0.00    -0.648 OA
BRANCH  44  46
HETATM   46  O10 UNL     1      -0.228  52.467 -28.548  1.00  0.00    -0.775 OA
HETATM   47  H40 UNL     1      -0.426  53.077 -29.291  1.00  0.00     0.167 HD
ENDBRANCH  44  46
ENDBRANCH  36  44
ENDBRANCH  34  36
ENDBRANCH  31  32
ENDBRANCH  30  31
ENDBRANCH  28  30
ENDBRANCH  27  28
ENDBRANCH  26  27
ENDBRANCH   1  26
TORSDOF 14
ENDMDL
