MODEL 1
REMARK minimizedAffinity -8.49687958
REMARK  11 active torsions:
REMARK  status: ('A' for Active; 'I' for Inactive)
REMARK    1  A    between atoms: C2_2  and  C3_3 
REMARK    2  A    between atoms: C2_2  and  C4_5 
REMARK    3  A    between atoms: C3_3  and  O1_4 
REMARK    4  A    between atoms: C13_14  and  C14_15 
REMARK    5  A    between atoms: C14_15  and  C16_17 
REMARK    6  A    between atoms: C16_17  and  C17_18 
REMARK    7  A    between atoms: C17_18  and  C18_19 
REMARK    8  A    between atoms: C27_28  and  C28_29 
REMARK    9  A    between atoms: C28_29  and  C29_30 
REMARK   10  A    between atoms: C29_30  and  C30_31 
REMARK   11  A    between atoms: C30_31  and  O3_33 
ROOT
HETATM    1  C4  UNL     1       1.577   7.737  10.301  1.00  0.00     0.025 C 
HETATM    2  C5  UNL     1       1.803   8.847  11.344  1.00  0.00     0.010 C 
HETATM    3  C6  UNL     1       0.827   8.898  12.520  1.00  0.00     0.007 C 
HETATM    4  C7  UNL     1      -0.408   7.975  12.447  1.00  0.00     0.004 C 
HETATM    5  C8  UNL     1       0.035   6.532  12.117  1.00  0.00    -0.027 A 
HETATM    6  C9  UNL     1      -0.071   5.531  13.267  1.00  0.00     0.011 C 
HETATM    7  C10 UNL     1      -1.422   5.539  14.024  1.00  0.00     0.011 C 
HETATM    8  C11 UNL     1      -2.265   6.806  13.798  1.00  0.00    -0.032 C 
HETATM    9  C12 UNL     1      -3.119   6.605  12.517  1.00  0.00     0.016 C 
HETATM   10  C13 UNL     1      -3.212   7.211  14.972  1.00  0.00    -0.002 C 
HETATM   11  C22 UNL     1      -3.430   8.729  14.739  1.00  0.00     0.006 C 
HETATM   12  C23 UNL     1      -2.301   9.207  13.794  1.00  0.00     0.011 C 
HETATM   13  C24 UNL     1      -1.293   8.041  13.745  1.00  0.00    -0.032 C 
HETATM   14  C25 UNL     1      -0.402   8.207  15.026  1.00  0.00     0.016 C 
HETATM   15  C26 UNL     1      -0.266   5.933  10.757  1.00  0.00     0.022 A 
HETATM   16  C27 UNL     1       1.133   6.430  11.013  1.00  0.00    -0.024 A 
ENDROOT
BRANCH  10  17
HETATM   17  C14 UNL     1      -4.479   6.352  15.282  1.00  0.00    -0.014 C 
HETATM   18  C15 UNL     1      -5.709   7.281  15.292  1.00  0.00     0.010 C 
BRANCH  17  19
HETATM   19  C16 UNL     1      -4.743   5.159  14.328  1.00  0.00     0.008 C 
BRANCH  19  20
HETATM   20  C17 UNL     1      -6.148   5.100  13.699  1.00  0.00     0.028 C 
BRANCH  20  21
HETATM   21  C18 UNL     1      -6.486   3.766  13.094  1.00  0.00    -0.025 C 
HETATM   22  C19 UNL     1      -5.821   3.097  12.130  1.00  0.00    -0.091 C 
HETATM   23  C20 UNL     1      -6.325   1.762  11.640  1.00  0.00     0.042 C 
HETATM   24  C21 UNL     1      -4.555   3.553  11.454  1.00  0.00     0.042 C 
ENDBRANCH  20  21
ENDBRANCH  19  20
ENDBRANCH  17  19
ENDBRANCH  10  17
BRANCH  16  25
HETATM   25  C28 UNL     1       2.259   5.416  11.199  1.00  0.00     0.021 C 
BRANCH  25  26
HETATM   26  C29 UNL     1       3.392   5.588  10.187  1.00  0.00     0.111 C 
BRANCH  26  27
HETATM   27  C30 UNL     1       3.470   4.413   9.255  1.00  0.00     0.139 C 
HETATM   28  O2  UNL     1       3.735   4.417   8.064  1.00  0.00    -0.650 OA
BRANCH  27  29
HETATM   29  O3  UNL     1       3.194   3.252   9.886  1.00  0.00    -0.776 OA
HETATM   30  H48 UNL     1       3.261   2.583   9.173  1.00  0.00     0.167 HD
ENDBRANCH  27  29
ENDBRANCH  26  27
ENDBRANCH  25  26
ENDBRANCH  16  25
BRANCH   1  31
HETATM   31  C2  UNL     1       0.787   8.178   9.055  1.00  0.00    -0.061 C 
HETATM   32  C1  UNL     1      -0.387   8.839   9.092  1.00  0.00     0.017 C 
BRANCH  31  33
HETATM   33  C3  UNL     1       1.450   7.925   7.722  1.00  0.00     0.198 C 
BRANCH  33  34
HETATM   34  O1  UNL     1       2.620   8.715   7.604  1.00  0.00    -0.397 OA
HETATM   35  H5  UNL     1       3.005   8.519   6.734  1.00  0.00     0.209 HD
ENDBRANCH  33  34
ENDBRANCH  31  33
ENDBRANCH   1  31
TORSDOF 11
ENDMDL
MODEL 2
REMARK minimizedAffinity -8.24111366
REMARK  11 active torsions:
REMARK  status: ('A' for Active; 'I' for Inactive)
REMARK    1  A    between atoms: C2_2  and  C3_3 
REMARK    2  A    between atoms: C2_2  and  C4_5 
REMARK    3  A    between atoms: C3_3  and  O1_4 
REMARK    4  A    between atoms: C13_14  and  C14_15 
REMARK    5  A    between atoms: C14_15  and  C16_17 
REMARK    6  A    between atoms: C16_17  and  C17_18 
REMARK    7  A    between atoms: C17_18  and  C18_19 
REMARK    8  A    between atoms: C27_28  and  C28_29 
REMARK    9  A    between atoms: C28_29  and  C29_30 
REMARK   10  A    between atoms: C29_30  and  C30_31 
REMARK   11  A    between atoms: C30_31  and  O3_33 
ROOT
HETATM    1  C4  UNL     1       0.733   7.932  12.154  1.00  0.00     0.025 C 
HETATM    2  C5  UNL     1       0.113   9.257  12.635  1.00  0.00     0.010 C 
HETATM    3  C6  UNL     1      -1.286   9.181  13.250  1.00  0.00     0.007 C 
HETATM    4  C7  UNL     1      -2.026   7.831  13.144  1.00  0.00     0.004 C 
HETATM    5  C8  UNL     1      -1.107   6.689  13.636  1.00  0.00    -0.027 A 
HETATM    6  C9  UNL     1      -1.486   6.071  14.981  1.00  0.00     0.011 C 
HETATM    7  C10 UNL     1      -2.980   5.688  15.132  1.00  0.00     0.011 C 
HETATM    8  C11 UNL     1      -3.911   6.363  14.110  1.00  0.00    -0.032 C 
HETATM    9  C12 UNL     1      -3.940   5.493  12.824  1.00  0.00     0.016 C 
HETATM   10  C13 UNL     1      -5.379   6.604  14.585  1.00  0.00    -0.002 C 
HETATM   11  C22 UNL     1      -5.856   7.764  13.671  1.00  0.00     0.006 C 
HETATM   12  C23 UNL     1      -4.587   8.423  13.079  1.00  0.00     0.011 C 
HETATM   13  C24 UNL     1      -3.411   7.837  13.887  1.00  0.00    -0.032 C 
HETATM   14  C25 UNL     1      -3.342   8.693  15.201  1.00  0.00     0.016 C 
HETATM   15  C26 UNL     1      -0.532   5.693  12.647  1.00  0.00     0.022 A 
HETATM   16  C27 UNL     1       0.370   6.792  13.144  1.00  0.00    -0.024 A 
ENDROOT
BRANCH  10  17
HETATM   17  C14 UNL     1      -6.351   5.393  14.758  1.00  0.00    -0.014 C 
HETATM   18  C15 UNL     1      -7.084   5.544  16.105  1.00  0.00     0.010 C 
BRANCH  17  19
HETATM   19  C16 UNL     1      -7.389   5.185  13.626  1.00  0.00     0.008 C 
BRANCH  19  20
HETATM   20  C17 UNL     1      -7.299   3.844  12.872  1.00  0.00     0.028 C 
BRANCH  20  21
HETATM   21  C18 UNL     1      -6.417   3.891  11.655  1.00  0.00    -0.025 C 
HETATM   22  C19 UNL     1      -5.823   2.860  11.019  1.00  0.00    -0.091 C 
HETATM   23  C20 UNL     1      -4.957   3.108   9.809  1.00  0.00     0.042 C 
HETATM   24  C21 UNL     1      -5.938   1.408  11.396  1.00  0.00     0.042 C 
ENDBRANCH  20  21
ENDBRANCH  19  20
ENDBRANCH  17  19
ENDBRANCH  10  17
BRANCH  16  25
HETATM   25  C28 UNL     1       1.488   6.449  14.126  1.00  0.00     0.021 C 
BRANCH  25  26
HETATM   26  C29 UNL     1       2.359   7.653  14.484  1.00  0.00     0.111 C 
BRANCH  26  27
HETATM   27  C30 UNL     1       2.304   7.943  15.958  1.00  0.00     0.139 C 
HETATM   28  O2  UNL     1       2.876   8.831  16.568  1.00  0.00    -0.650 OA
BRANCH  27  29
HETATM   29  O3  UNL     1       1.511   7.069  16.613  1.00  0.00    -0.776 OA
HETATM   30  H48 UNL     1       1.579   7.355  17.547  1.00  0.00     0.167 HD
ENDBRANCH  27  29
ENDBRANCH  26  27
ENDBRANCH  25  26
ENDBRANCH  16  25
BRANCH   1  31
HETATM   31  C2  UNL     1       0.566   7.655  10.649  1.00  0.00    -0.061 C 
HETATM   32  C1  UNL     1       1.167   6.644   9.991  1.00  0.00     0.017 C 
BRANCH  31  33
HETATM   33  C3  UNL     1      -0.421   8.531   9.915  1.00  0.00     0.198 C 
BRANCH  33  34
HETATM   34  O1  UNL     1       0.172   9.050   8.739  1.00  0.00    -0.397 OA
HETATM   35  H5  UNL     1      -0.498   9.607   8.308  1.00  0.00     0.209 HD
ENDBRANCH  33  34
ENDBRANCH  31  33
ENDBRANCH   1  31
TORSDOF 11
ENDMDL
MODEL 3
REMARK minimizedAffinity -8.00126076
REMARK  11 active torsions:
REMARK  status: ('A' for Active; 'I' for Inactive)
REMARK    1  A    between atoms: C2_2  and  C3_3 
REMARK    2  A    between atoms: C2_2  and  C4_5 
REMARK    3  A    between atoms: C3_3  and  O1_4 
REMARK    4  A    between atoms: C13_14  and  C14_15 
REMARK    5  A    between atoms: C14_15  and  C16_17 
REMARK    6  A    between atoms: C16_17  and  C17_18 
REMARK    7  A    between atoms: C17_18  and  C18_19 
REMARK    8  A    between atoms: C27_28  and  C28_29 
REMARK    9  A    between atoms: C28_29  and  C29_30 
REMARK   10  A    between atoms: C29_30  and  C30_31 
REMARK   11  A    between atoms: C30_31  and  O3_33 
ROOT
HETATM    1  C4  UNL     1       1.509   5.869  11.034  1.00  0.00     0.025 C 
HETATM    2  C5  UNL     1       2.358   6.440  12.185  1.00  0.00     0.010 C 
HETATM    3  C6  UNL     1       1.603   7.120  13.328  1.00  0.00     0.007 C 
HETATM    4  C7  UNL     1       0.091   7.357  13.127  1.00  0.00     0.004 C 
HETATM    5  C8  UNL     1      -0.590   6.045  12.676  1.00  0.00    -0.027 A 
HETATM    6  C9  UNL     1      -1.477   5.370  13.721  1.00  0.00     0.011 C 
HETATM    7  C10 UNL     1      -2.488   6.305  14.430  1.00  0.00     0.011 C 
HETATM    8  C11 UNL     1      -2.161   7.803  14.298  1.00  0.00    -0.032 C 
HETATM    9  C12 UNL     1      -2.784   8.327  12.977  1.00  0.00     0.016 C 
HETATM   10  C13 UNL     1      -2.645   8.710  15.474  1.00  0.00    -0.002 C 
HETATM   11  C22 UNL     1      -1.702   9.938  15.380  1.00  0.00     0.006 C 
HETATM   12  C23 UNL     1      -0.487   9.510  14.523  1.00  0.00     0.011 C 
HETATM   13  C24 UNL     1      -0.601   7.977  14.395  1.00  0.00    -0.032 C 
HETATM   14  C25 UNL     1       0.024   7.402  15.715  1.00  0.00     0.016 C 
HETATM   15  C26 UNL     1      -1.101   5.900  11.255  1.00  0.00     0.022 A 
HETATM   16  C27 UNL     1       0.208   5.240  11.603  1.00  0.00    -0.024 A 
ENDROOT
BRANCH  10  17
HETATM   17  C14 UNL     1      -4.169   8.998  15.659  1.00  0.00    -0.014 C 
HETATM   18  C15 UNL     1      -4.377  10.525  15.696  1.00  0.00     0.010 C 
BRANCH  17  19
HETATM   19  C16 UNL     1      -5.113   8.375  14.599  1.00  0.00     0.008 C 
BRANCH  19  20
HETATM   20  C17 UNL     1      -5.886   7.119  15.045  1.00  0.00     0.028 C 
BRANCH  20  21
HETATM   21  C18 UNL     1      -6.971   6.703  14.090  1.00  0.00    -0.025 C 
HETATM   22  C19 UNL     1      -6.982   5.644  13.254  1.00  0.00    -0.091 C 
HETATM   23  C20 UNL     1      -8.168   5.395  12.355  1.00  0.00     0.042 C 
HETATM   24  C21 UNL     1      -5.889   4.620  13.115  1.00  0.00     0.042 C 
ENDBRANCH  20  21
ENDBRANCH  19  20
ENDBRANCH  17  19
ENDBRANCH  10  17
BRANCH  16  25
HETATM   25  C28 UNL     1       0.263   3.719  11.729  1.00  0.00     0.021 C 
BRANCH  25  26
HETATM   26  C29 UNL     1      -1.085   3.049  11.461  1.00  0.00     0.111 C 
BRANCH  26  27
HETATM   27  C30 UNL     1      -0.904   1.709  10.807  1.00  0.00     0.139 C 
HETATM   28  O2  UNL     1      -0.358   0.719  11.265  1.00  0.00    -0.650 OA
BRANCH  27  29
HETATM   29  O3  UNL     1      -1.430   1.681   9.564  1.00  0.00    -0.776 OA
HETATM   30  H48 UNL     1      -1.230   0.774   9.251  1.00  0.00     0.167 HD
ENDBRANCH  27  29
ENDBRANCH  26  27
ENDBRANCH  25  26
ENDBRANCH  16  25
BRANCH   1  31
HETATM   31  C2  UNL     1       1.380   6.795   9.811  1.00  0.00    -0.061 C 
HETATM   32  C1  UNL     1       0.718   7.969   9.810  1.00  0.00     0.017 C 
BRANCH  31  33
HETATM   33  C3  UNL     1       2.144   6.378   8.577  1.00  0.00     0.198 C 
BRANCH  33  34
HETATM   34  O1  UNL     1       2.750   5.115   8.785  1.00  0.00    -0.397 OA
HETATM   35  H5  UNL     1       3.229   4.895   7.968  1.00  0.00     0.209 HD
ENDBRANCH  33  34
ENDBRANCH  31  33
ENDBRANCH   1  31
TORSDOF 11
ENDMDL
MODEL 4
REMARK minimizedAffinity -7.99932909
REMARK  11 active torsions:
REMARK  status: ('A' for Active; 'I' for Inactive)
REMARK    1  A    between atoms: C2_2  and  C3_3 
REMARK    2  A    between atoms: C2_2  and  C4_5 
REMARK    3  A    between atoms: C3_3  and  O1_4 
REMARK    4  A    between atoms: C13_14  and  C14_15 
REMARK    5  A    between atoms: C14_15  and  C16_17 
REMARK    6  A    between atoms: C16_17  and  C17_18 
REMARK    7  A    between atoms: C17_18  and  C18_19 
REMARK    8  A    between atoms: C27_28  and  C28_29 
REMARK    9  A    between atoms: C28_29  and  C29_30 
REMARK   10  A    between atoms: C29_30  and  C30_31 
REMARK   11  A    between atoms: C30_31  and  O3_33 
ROOT
HETATM    1  C4  UNL     1       0.378   7.157  12.099  1.00  0.00     0.025 C 
HETATM    2  C5  UNL     1       0.742   8.072  13.283  1.00  0.00     0.010 C 
HETATM    3  C6  UNL     1      -0.377   8.390  14.277  1.00  0.00     0.007 C 
HETATM    4  C7  UNL     1      -1.803   7.943  13.894  1.00  0.00     0.004 C 
HETATM    5  C8  UNL     1      -1.793   6.453  13.483  1.00  0.00    -0.027 A 
HETATM    6  C9  UNL     1      -2.439   5.490  14.478  1.00  0.00     0.011 C 
HETATM    7  C10 UNL     1      -3.837   5.916  14.993  1.00  0.00     0.011 C 
HETATM    8  C11 UNL     1      -4.165   7.403  14.773  1.00  0.00    -0.032 C 
HETATM    9  C12 UNL     1      -4.769   7.567  13.353  1.00  0.00     0.016 C 
HETATM   10  C13 UNL     1      -5.141   8.044  15.811  1.00  0.00    -0.002 C 
HETATM   11  C22 UNL     1      -4.808   9.556  15.717  1.00  0.00     0.006 C 
HETATM   12  C23 UNL     1      -3.424   9.672  15.035  1.00  0.00     0.011 C 
HETATM   13  C24 UNL     1      -2.856   8.238  15.024  1.00  0.00    -0.032 C 
HETATM   14  C25 UNL     1      -2.228   8.028  16.447  1.00  0.00     0.016 C 
HETATM   15  C26 UNL     1      -1.999   6.061  12.032  1.00  0.00     0.022 A 
HETATM   16  C27 UNL     1      -0.593   6.043  12.574  1.00  0.00    -0.024 A 
ENDROOT
BRANCH  10  17
HETATM   17  C14 UNL     1      -6.653   7.649  15.804  1.00  0.00    -0.014 C 
HETATM   18  C15 UNL     1      -7.403   8.602  14.853  1.00  0.00     0.010 C 
BRANCH  17  19
HETATM   19  C16 UNL     1      -6.971   6.181  15.420  1.00  0.00     0.008 C 
BRANCH  19  20
HETATM   20  C17 UNL     1      -7.659   5.979  14.056  1.00  0.00     0.028 C 
BRANCH  20  21
HETATM   21  C18 UNL     1      -7.884   4.535  13.699  1.00  0.00    -0.025 C 
HETATM   22  C19 UNL     1      -7.050   3.701  13.044  1.00  0.00    -0.091 C 
HETATM   23  C20 UNL     1      -7.459   2.276  12.766  1.00  0.00     0.042 C 
HETATM   24  C21 UNL     1      -5.675   4.048  12.538  1.00  0.00     0.042 C 
ENDBRANCH  20  21
ENDBRANCH  19  20
ENDBRANCH  17  19
ENDBRANCH  10  17
BRANCH  16  25
HETATM   25  C28 UNL     1       0.087   4.700  12.831  1.00  0.00     0.021 C 
BRANCH  25  26
HETATM   26  C29 UNL     1       0.357   3.913  11.549  1.00  0.00     0.111 C 
BRANCH  26  27
HETATM   27  C30 UNL     1      -0.549   2.720  11.443  1.00  0.00     0.139 C 
HETATM   28  O2  UNL     1      -1.733   2.650  11.730  1.00  0.00    -0.650 OA
BRANCH  27  29
HETATM   29  O3  UNL     1       0.100   1.635  10.971  1.00  0.00    -0.776 OA
HETATM   30  H48 UNL     1      -0.588   0.938  10.969  1.00  0.00     0.167 HD
ENDBRANCH  27  29
ENDBRANCH  26  27
ENDBRANCH  25  26
ENDBRANCH  16  25
BRANCH   1  31
HETATM   31  C2  UNL     1       0.033   7.901  10.796  1.00  0.00    -0.061 C 
HETATM   32  C1  UNL     1      -0.862   8.904  10.707  1.00  0.00     0.017 C 
BRANCH  31  33
HETATM   33  C3  UNL     1       0.842   7.523   9.578  1.00  0.00     0.198 C 
BRANCH  33  34
HETATM   34  O1  UNL     1       0.997   8.646   8.730  1.00  0.00    -0.397 OA
HETATM   35  H5  UNL     1       1.518   8.351   7.964  1.00  0.00     0.209 HD
ENDBRANCH  33  34
ENDBRANCH  31  33
ENDBRANCH   1  31
TORSDOF 11
ENDMDL
MODEL 5
REMARK minimizedAffinity -7.90760279
REMARK  11 active torsions:
REMARK  status: ('A' for Active; 'I' for Inactive)
REMARK    1  A    between atoms: C2_2  and  C3_3 
REMARK    2  A    between atoms: C2_2  and  C4_5 
REMARK    3  A    between atoms: C3_3  and  O1_4 
REMARK    4  A    between atoms: C13_14  and  C14_15 
REMARK    5  A    between atoms: C14_15  and  C16_17 
REMARK    6  A    between atoms: C16_17  and  C17_18 
REMARK    7  A    between atoms: C17_18  and  C18_19 
REMARK    8  A    between atoms: C27_28  and  C28_29 
REMARK    9  A    between atoms: C28_29  and  C29_30 
REMARK   10  A    between atoms: C29_30  and  C30_31 
REMARK   11  A    between atoms: C30_31  and  O3_33 
ROOT
HETATM    1  C4  UNL     1      -3.768   6.734  13.627  1.00  0.00     0.025 C 
HETATM    2  C5  UNL     1      -3.685   8.085  12.893  1.00  0.00     0.010 C 
HETATM    3  C6  UNL     1      -2.315   8.488  12.344  1.00  0.00     0.007 C 
HETATM    4  C7  UNL     1      -1.111   7.614  12.753  1.00  0.00     0.004 C 
HETATM    5  C8  UNL     1      -1.430   6.125  12.490  1.00  0.00    -0.027 A 
HETATM    6  C9  UNL     1      -0.687   5.488  11.316  1.00  0.00     0.011 C 
HETATM    7  C10 UNL     1       0.841   5.743  11.289  1.00  0.00     0.011 C 
HETATM    8  C11 UNL     1       1.301   6.918  12.168  1.00  0.00    -0.032 C 
HETATM    9  C12 UNL     1       1.535   6.390  13.609  1.00  0.00     0.016 C 
HETATM   10  C13 UNL     1       2.590   7.659  11.691  1.00  0.00    -0.002 C 
HETATM   11  C22 UNL     1       2.454   9.057  12.351  1.00  0.00     0.006 C 
HETATM   12  C23 UNL     1       0.970   9.222  12.757  1.00  0.00     0.011 C 
HETATM   13  C24 UNL     1       0.228   8.063  12.061  1.00  0.00    -0.032 C 
HETATM   14  C25 UNL     1      -0.034   8.557  10.595  1.00  0.00     0.016 C 
HETATM   15  C26 UNL     1      -1.662   5.178  13.652  1.00  0.00     0.022 A 
HETATM   16  C27 UNL     1      -2.869   5.690  12.910  1.00  0.00    -0.024 A 
ENDROOT
BRANCH  10  17
HETATM   17  C14 UNL     1       3.980   6.955  11.803  1.00  0.00    -0.014 C 
HETATM   18  C15 UNL     1       4.270   6.233  10.472  1.00  0.00     0.010 C 
BRANCH  17  19
HETATM   19  C16 UNL     1       5.179   7.867  12.167  1.00  0.00     0.008 C 
BRANCH  19  20
HETATM   20  C17 UNL     1       5.928   7.504  13.463  1.00  0.00     0.028 C 
BRANCH  20  21
HETATM   21  C18 UNL     1       7.425   7.571  13.337  1.00  0.00    -0.025 C 
HETATM   22  C19 UNL     1       8.325   7.919  14.280  1.00  0.00    -0.091 C 
HETATM   23  C20 UNL     1       9.799   7.936  13.959  1.00  0.00     0.042 C 
HETATM   24  C21 UNL     1       8.008   8.306  15.700  1.00  0.00     0.042 C 
ENDBRANCH  20  21
ENDBRANCH  19  20
ENDBRANCH  17  19
ENDBRANCH  10  17
BRANCH  16  25
HETATM   25  C28 UNL     1      -3.637   4.739  11.995  1.00  0.00     0.021 C 
BRANCH  25  26
HETATM   26  C29 UNL     1      -3.859   3.361  12.617  1.00  0.00     0.111 C 
BRANCH  26  27
HETATM   27  C30 UNL     1      -3.264   2.277  11.764  1.00  0.00     0.139 C 
HETATM   28  O2  UNL     1      -2.104   2.159  11.405  1.00  0.00    -0.650 OA
BRANCH  27  29
HETATM   29  O3  UNL     1      -4.188   1.370  11.385  1.00  0.00    -0.776 OA
HETATM   30  H48 UNL     1      -3.680   0.743  10.830  1.00  0.00     0.167 HD
ENDBRANCH  27  29
ENDBRANCH  26  27
ENDBRANCH  25  26
ENDBRANCH  16  25
BRANCH   1  31
HETATM   31  C2  UNL     1      -3.672   6.830  15.160  1.00  0.00    -0.061 C 
HETATM   32  C1  UNL     1      -4.136   5.894  16.012  1.00  0.00     0.017 C 
BRANCH  31  33
HETATM   33  C3  UNL     1      -2.913   8.016  15.707  1.00  0.00     0.198 C 
BRANCH  33  34
HETATM   34  O1  UNL     1      -2.475   7.745  17.026  1.00  0.00    -0.397 OA
HETATM   35  H5  UNL     1      -1.999   8.535  17.332  1.00  0.00     0.209 HD
ENDBRANCH  33  34
ENDBRANCH  31  33
ENDBRANCH   1  31
TORSDOF 11
ENDMDL
MODEL 6
REMARK minimizedAffinity -7.88189077
REMARK  11 active torsions:
REMARK  status: ('A' for Active; 'I' for Inactive)
REMARK    1  A    between atoms: C2_2  and  C3_3 
REMARK    2  A    between atoms: C2_2  and  C4_5 
REMARK    3  A    between atoms: C3_3  and  O1_4 
REMARK    4  A    between atoms: C13_14  and  C14_15 
REMARK    5  A    between atoms: C14_15  and  C16_17 
REMARK    6  A    between atoms: C16_17  and  C17_18 
REMARK    7  A    between atoms: C17_18  and  C18_19 
REMARK    8  A    between atoms: C27_28  and  C28_29 
REMARK    9  A    between atoms: C28_29  and  C29_30 
REMARK   10  A    between atoms: C29_30  and  C30_31 
REMARK   11  A    between atoms: C30_31  and  O3_33 
ROOT
HETATM    1  C4  UNL     1      -4.985   6.310  13.752  1.00  0.00     0.025 C 
HETATM    2  C5  UNL     1      -5.033   7.745  13.195  1.00  0.00     0.010 C 
HETATM    3  C6  UNL     1      -3.703   8.356  12.749  1.00  0.00     0.007 C 
HETATM    4  C7  UNL     1      -2.421   7.568  13.087  1.00  0.00     0.004 C 
HETATM    5  C8  UNL     1      -2.572   6.099  12.630  1.00  0.00    -0.027 A 
HETATM    6  C9  UNL     1      -1.740   5.698  11.412  1.00  0.00     0.011 C 
HETATM    7  C10 UNL     1      -0.249   6.112  11.469  1.00  0.00     0.011 C 
HETATM    8  C11 UNL     1       0.064   7.207  12.504  1.00  0.00    -0.032 C 
HETATM    9  C12 UNL     1       0.323   6.527  13.874  1.00  0.00     0.016 C 
HETATM   10  C13 UNL     1       1.275   8.134  12.167  1.00  0.00    -0.002 C 
HETATM   11  C22 UNL     1       0.976   9.414  12.991  1.00  0.00     0.006 C 
HETATM   12  C23 UNL     1      -0.526   9.370  13.363  1.00  0.00     0.011 C 
HETATM   13  C24 UNL     1      -1.124   8.238  12.503  1.00  0.00    -0.032 C 
HETATM   14  C25 UNL     1      -1.407   8.885  11.101  1.00  0.00     0.016 C 
HETATM   15  C26 UNL     1      -2.724   4.992  13.656  1.00  0.00     0.022 A 
HETATM   16  C27 UNL     1      -3.964   5.466  12.943  1.00  0.00    -0.024 A 
ENDROOT
BRANCH  10  17
HETATM   17  C14 UNL     1       2.730   7.569  12.238  1.00  0.00    -0.014 C 
HETATM   18  C15 UNL     1       3.121   7.409  13.720  1.00  0.00     0.010 C 
BRANCH  17  19
HETATM   19  C16 UNL     1       2.980   6.234  11.492  1.00  0.00     0.008 C 
BRANCH  19  20
HETATM   20  C17 UNL     1       3.777   6.340  10.177  1.00  0.00     0.028 C 
BRANCH  20  21
HETATM   21  C18 UNL     1       2.918   6.311   8.943  1.00  0.00    -0.025 C 
HETATM   22  C19 UNL     1       2.657   7.321   8.087  1.00  0.00    -0.091 C 
HETATM   23  C20 UNL     1       1.754   7.101   6.899  1.00  0.00     0.042 C 
HETATM   24  C21 UNL     1       3.204   8.720   8.184  1.00  0.00     0.042 C 
ENDBRANCH  20  21
ENDBRANCH  19  20
ENDBRANCH  17  19
ENDBRANCH  10  17
BRANCH  16  25
HETATM   25  C28 UNL     1      -4.605   4.565  11.890  1.00  0.00     0.021 C 
BRANCH  25  26
HETATM   26  C29 UNL     1      -5.238   3.307  12.485  1.00  0.00     0.111 C 
BRANCH  26  27
HETATM   27  C30 UNL     1      -5.159   2.154  11.526  1.00  0.00     0.139 C 
HETATM   28  O2  UNL     1      -6.074   1.611  10.930  1.00  0.00    -0.650 OA
BRANCH  27  29
HETATM   29  O3  UNL     1      -3.891   1.721  11.364  1.00  0.00    -0.776 OA
HETATM   30  H48 UNL     1      -3.983   0.970  10.742  1.00  0.00     0.167 HD
ENDBRANCH  27  29
ENDBRANCH  26  27
ENDBRANCH  25  26
ENDBRANCH  16  25
BRANCH   1  31
HETATM   31  C2  UNL     1      -4.933   6.219  15.288  1.00  0.00    -0.061 C 
HETATM   32  C1  UNL     1      -5.969   5.848  16.065  1.00  0.00     0.017 C 
BRANCH  31  33
HETATM   33  C3  UNL     1      -3.586   6.473  15.924  1.00  0.00     0.198 C 
BRANCH  33  34
HETATM   34  O1  UNL     1      -3.517   7.805  16.398  1.00  0.00    -0.397 OA
HETATM   35  H5  UNL     1      -2.636   7.918  16.793  1.00  0.00     0.209 HD
ENDBRANCH  33  34
ENDBRANCH  31  33
ENDBRANCH   1  31
TORSDOF 11
ENDMDL
MODEL 7
REMARK minimizedAffinity -7.84148788
REMARK  11 active torsions:
REMARK  status: ('A' for Active; 'I' for Inactive)
REMARK    1  A    between atoms: C2_2  and  C3_3 
REMARK    2  A    between atoms: C2_2  and  C4_5 
REMARK    3  A    between atoms: C3_3  and  O1_4 
REMARK    4  A    between atoms: C13_14  and  C14_15 
REMARK    5  A    between atoms: C14_15  and  C16_17 
REMARK    6  A    between atoms: C16_17  and  C17_18 
REMARK    7  A    between atoms: C17_18  and  C18_19 
REMARK    8  A    between atoms: C27_28  and  C28_29 
REMARK    9  A    between atoms: C28_29  and  C29_30 
REMARK   10  A    between atoms: C29_30  and  C30_31 
REMARK   11  A    between atoms: C30_31  and  O3_33 
ROOT
HETATM    1  C4  UNL     1       5.220   8.493  11.648  1.00  0.00     0.025 C 
HETATM    2  C5  UNL     1       4.622   8.382  10.233  1.00  0.00     0.010 C 
HETATM    3  C6  UNL     1       3.160   7.941  10.135  1.00  0.00     0.007 C 
HETATM    4  C7  UNL     1       2.487   7.451  11.434  1.00  0.00     0.004 C 
HETATM    5  C8  UNL     1       2.712   8.483  12.563  1.00  0.00    -0.027 A 
HETATM    6  C9  UNL     1       1.480   9.288  12.975  1.00  0.00     0.011 C 
HETATM    7  C10 UNL     1       0.203   8.450  13.234  1.00  0.00     0.011 C 
HETATM    8  C11 UNL     1       0.245   7.034  12.634  1.00  0.00    -0.032 C 
HETATM    9  C12 UNL     1       0.928   6.088  13.658  1.00  0.00     0.016 C 
HETATM   10  C13 UNL     1      -1.137   6.424  12.235  1.00  0.00    -0.002 C 
HETATM   11  C22 UNL     1      -0.755   5.359  11.173  1.00  0.00     0.006 C 
HETATM   12  C23 UNL     1       0.672   5.702  10.683  1.00  0.00     0.011 C 
HETATM   13  C24 UNL     1       0.965   7.111  11.238  1.00  0.00    -0.032 C 
HETATM   14  C25 UNL     1       0.291   8.105  10.227  1.00  0.00     0.016 C 
HETATM   15  C26 UNL     1       3.645   8.163  13.714  1.00  0.00     0.022 A 
HETATM   16  C27 UNL     1       4.157   9.067  12.623  1.00  0.00    -0.024 A 
ENDROOT
BRANCH  10  17
HETATM   17  C14 UNL     1      -2.146   5.988  13.345  1.00  0.00    -0.014 C 
HETATM   18  C15 UNL     1      -2.103   7.029  14.480  1.00  0.00     0.010 C 
BRANCH  17  19
HETATM   19  C16 UNL     1      -3.613   5.783  12.889  1.00  0.00     0.008 C 
BRANCH  19  20
HETATM   20  C17 UNL     1      -4.000   4.343  12.500  1.00  0.00     0.028 C 
BRANCH  20  21
HETATM   21  C18 UNL     1      -5.420   3.985  12.840  1.00  0.00    -0.025 C 
HETATM   22  C19 UNL     1      -6.165   2.975  12.343  1.00  0.00    -0.091 C 
HETATM   23  C20 UNL     1      -7.588   2.779  12.803  1.00  0.00     0.042 C 
HETATM   24  C21 UNL     1      -5.708   1.960  11.331  1.00  0.00     0.042 C 
ENDBRANCH  20  21
ENDBRANCH  19  20
ENDBRANCH  17  19
ENDBRANCH  10  17
BRANCH  16  25
HETATM   25  C28 UNL     1       4.327  10.557  12.913  1.00  0.00     0.021 C 
BRANCH  25  26
HETATM   26  C29 UNL     1       5.790  10.977  13.049  1.00  0.00     0.111 C 
BRANCH  26  27
HETATM   27  C30 UNL     1       6.124  12.097  12.105  1.00  0.00     0.139 C 
HETATM   28  O2  UNL     1       5.380  12.963  11.677  1.00  0.00    -0.650 OA
BRANCH  27  29
HETATM   29  O3  UNL     1       7.419  12.066  11.727  1.00  0.00    -0.776 OA
HETATM   30  H48 UNL     1       7.496  12.824  11.110  1.00  0.00     0.167 HD
ENDBRANCH  27  29
ENDBRANCH  26  27
ENDBRANCH  25  26
ENDBRANCH  16  25
BRANCH   1  31
HETATM   31  C2  UNL     1       6.020   7.260  12.105  1.00  0.00    -0.061 C 
HETATM   32  C1  UNL     1       6.052   6.086  11.446  1.00  0.00     0.017 C 
BRANCH  31  33
HETATM   33  C3  UNL     1       6.895   7.448  13.322  1.00  0.00     0.198 C 
BRANCH  33  34
HETATM   34  O1  UNL     1       6.537   6.516  14.326  1.00  0.00    -0.397 OA
HETATM   35  H5  UNL     1       7.123   6.680  15.084  1.00  0.00     0.209 HD
ENDBRANCH  33  34
ENDBRANCH  31  33
ENDBRANCH   1  31
TORSDOF 11
ENDMDL
MODEL 8
REMARK minimizedAffinity -7.81728697
REMARK  11 active torsions:
REMARK  status: ('A' for Active; 'I' for Inactive)
REMARK    1  A    between atoms: C2_2  and  C3_3 
REMARK    2  A    between atoms: C2_2  and  C4_5 
REMARK    3  A    between atoms: C3_3  and  O1_4 
REMARK    4  A    between atoms: C13_14  and  C14_15 
REMARK    5  A    between atoms: C14_15  and  C16_17 
REMARK    6  A    between atoms: C16_17  and  C17_18 
REMARK    7  A    between atoms: C17_18  and  C18_19 
REMARK    8  A    between atoms: C27_28  and  C28_29 
REMARK    9  A    between atoms: C28_29  and  C29_30 
REMARK   10  A    between atoms: C29_30  and  C30_31 
REMARK   11  A    between atoms: C30_31  and  O3_33 
ROOT
HETATM    1  C4  UNL     1       3.998   6.680  10.370  1.00  0.00     0.025 C 
HETATM    2  C5  UNL     1       3.339   5.295  10.228  1.00  0.00     0.010 C 
HETATM    3  C6  UNL     1       1.973   5.110  10.891  1.00  0.00     0.007 C 
HETATM    4  C7  UNL     1       1.479   6.248  11.809  1.00  0.00     0.004 C 
HETATM    5  C8  UNL     1       1.593   7.602  11.073  1.00  0.00    -0.027 A 
HETATM    6  C9  UNL     1       0.269   8.230  10.639  1.00  0.00     0.011 C 
HETATM    7  C10 UNL     1      -0.824   8.283  11.735  1.00  0.00     0.011 C 
HETATM    8  C11 UNL     1      -0.575   7.335  12.921  1.00  0.00    -0.032 C 
HETATM    9  C12 UNL     1       0.326   8.066  13.952  1.00  0.00     0.016 C 
HETATM   10  C13 UNL     1      -1.853   6.814  13.654  1.00  0.00    -0.002 C 
HETATM   11  C22 UNL     1      -1.361   5.505  14.326  1.00  0.00     0.006 C 
HETATM   12  C23 UNL     1      -0.049   5.097  13.614  1.00  0.00     0.011 C 
HETATM   13  C24 UNL     1       0.030   5.996  12.362  1.00  0.00    -0.032 C 
HETATM   14  C25 UNL     1      -0.869   5.290  11.287  1.00  0.00     0.016 C 
HETATM   15  C26 UNL     1       2.640   8.615  11.496  1.00  0.00     0.022 A 
HETATM   16  C27 UNL     1       2.916   7.789  10.267  1.00  0.00    -0.024 A 
ENDROOT
BRANCH  10  17
HETATM   17  C14 UNL     1      -2.698   7.789  14.534  1.00  0.00    -0.014 C 
HETATM   18  C15 UNL     1      -3.432   8.775  13.605  1.00  0.00     0.010 C 
BRANCH  17  19
HETATM   19  C16 UNL     1      -3.719   7.128  15.494  1.00  0.00     0.008 C 
BRANCH  19  20
HETATM   20  C17 UNL     1      -5.089   6.781  14.881  1.00  0.00     0.028 C 
BRANCH  20  21
HETATM   21  C18 UNL     1      -5.067   5.566  13.994  1.00  0.00    -0.025 C 
HETATM   22  C19 UNL     1      -6.109   4.957  13.392  1.00  0.00    -0.091 C 
HETATM   23  C20 UNL     1      -5.888   3.732  12.540  1.00  0.00     0.042 C 
HETATM   24  C21 UNL     1      -7.548   5.390  13.470  1.00  0.00     0.042 C 
ENDBRANCH  20  21
ENDBRANCH  19  20
ENDBRANCH  17  19
ENDBRANCH  10  17
BRANCH  16  25
HETATM   25  C28 UNL     1       2.843   8.453   8.894  1.00  0.00     0.021 C 
BRANCH  25  26
HETATM   26  C29 UNL     1       2.819   7.446   7.744  1.00  0.00     0.111 C 
BRANCH  26  27
HETATM   27  C30 UNL     1       1.534   7.536   6.970  1.00  0.00     0.139 C 
HETATM   28  O2  UNL     1       1.327   7.191   5.819  1.00  0.00    -0.650 OA
BRANCH  27  29
HETATM   29  O3  UNL     1       0.542   8.080   7.706  1.00  0.00    -0.776 OA
HETATM   30  H48 UNL     1      -0.218   8.097   7.089  1.00  0.00     0.167 HD
ENDBRANCH  27  29
ENDBRANCH  26  27
ENDBRANCH  25  26
ENDBRANCH  16  25
BRANCH   1  31
HETATM   31  C2  UNL     1       5.028   6.787  11.509  1.00  0.00    -0.061 C 
HETATM   32  C1  UNL     1       6.186   6.099  11.556  1.00  0.00     0.017 C 
BRANCH  31  33
HETATM   33  C3  UNL     1       4.735   7.814  12.577  1.00  0.00     0.198 C 
BRANCH  33  34
HETATM   34  O1  UNL     1       4.852   7.227  13.860  1.00  0.00    -0.397 OA
HETATM   35  H5  UNL     1       4.651   7.923  14.508  1.00  0.00     0.209 HD
ENDBRANCH  33  34
ENDBRANCH  31  33
ENDBRANCH   1  31
TORSDOF 11
ENDMDL
MODEL 9
REMARK minimizedAffinity -7.72600317
REMARK  11 active torsions:
REMARK  status: ('A' for Active; 'I' for Inactive)
REMARK    1  A    between atoms: C2_2  and  C3_3 
REMARK    2  A    between atoms: C2_2  and  C4_5 
REMARK    3  A    between atoms: C3_3  and  O1_4 
REMARK    4  A    between atoms: C13_14  and  C14_15 
REMARK    5  A    between atoms: C14_15  and  C16_17 
REMARK    6  A    between atoms: C16_17  and  C17_18 
REMARK    7  A    between atoms: C17_18  and  C18_19 
REMARK    8  A    between atoms: C27_28  and  C28_29 
REMARK    9  A    between atoms: C28_29  and  C29_30 
REMARK   10  A    between atoms: C29_30  and  C30_31 
REMARK   11  A    between atoms: C30_31  and  O3_33 
ROOT
HETATM    1  C4  UNL     1      -5.892   6.408  13.895  1.00  0.00     0.025 C 
HETATM    2  C5  UNL     1      -5.871   7.693  13.047  1.00  0.00     0.010 C 
HETATM    3  C6  UNL     1      -4.525   8.407  12.910  1.00  0.00     0.007 C 
HETATM    4  C7  UNL     1      -3.368   7.899  13.795  1.00  0.00     0.004 C 
HETATM    5  C8  UNL     1      -3.233   6.366  13.653  1.00  0.00    -0.027 A 
HETATM    6  C9  UNL     1      -2.011   5.881  12.874  1.00  0.00     0.011 C 
HETATM    7  C10 UNL     1      -0.665   6.521  13.297  1.00  0.00     0.011 C 
HETATM    8  C11 UNL     1      -0.811   7.821  14.107  1.00  0.00    -0.032 C 
HETATM    9  C12 UNL     1      -0.969   7.450  15.605  1.00  0.00     0.016 C 
HETATM   10  C13 UNL     1       0.360   8.844  13.965  1.00  0.00    -0.002 C 
HETATM   11  C22 UNL     1      -0.304  10.193  14.349  1.00  0.00     0.006 C 
HETATM   12  C23 UNL     1      -1.834   9.989  14.237  1.00  0.00     0.011 C 
HETATM   13  C24 UNL     1      -2.012   8.641  13.509  1.00  0.00    -0.032 C 
HETATM   14  C25 UNL     1      -1.863   8.971  11.982  1.00  0.00     0.016 C 
HETATM   15  C26 UNL     1      -3.627   5.455  14.800  1.00  0.00     0.022 A 
HETATM   16  C27 UNL     1      -4.591   5.596  13.651  1.00  0.00    -0.024 A 
ENDROOT
BRANCH  10  17
HETATM   17  C14 UNL     1       1.750   8.531  14.607  1.00  0.00    -0.014 C 
HETATM   18  C15 UNL     1       1.523   8.048  16.053  1.00  0.00     0.010 C 
BRANCH  17  19
HETATM   19  C16 UNL     1       2.632   7.504  13.853  1.00  0.00     0.008 C 
BRANCH  19  20
HETATM   20  C17 UNL     1       2.947   7.840  12.383  1.00  0.00     0.028 C 
BRANCH  20  21
HETATM   21  C18 UNL     1       3.066   6.632  11.496  1.00  0.00    -0.025 C 
HETATM   22  C19 UNL     1       3.274   6.595  10.163  1.00  0.00    -0.091 C 
HETATM   23  C20 UNL     1       3.355   5.274   9.440  1.00  0.00     0.042 C 
HETATM   24  C21 UNL     1       3.452   7.791   9.266  1.00  0.00     0.042 C 
ENDBRANCH  20  21
ENDBRANCH  19  20
ENDBRANCH  17  19
ENDBRANCH  10  17
BRANCH  16  25
HETATM   25  C28 UNL     1      -4.764   4.431  12.679  1.00  0.00     0.021 C 
BRANCH  25  26
HETATM   26  C29 UNL     1      -6.203   3.920  12.611  1.00  0.00     0.111 C 
BRANCH  26  27
HETATM   27  C30 UNL     1      -6.271   2.581  11.932  1.00  0.00     0.139 C 
HETATM   28  O2  UNL     1      -5.518   2.131  11.084  1.00  0.00    -0.650 OA
BRANCH  27  29
HETATM   29  O3  UNL     1      -7.322   1.852  12.363  1.00  0.00    -0.776 OA
HETATM   30  H48 UNL     1      -7.260   1.028  11.837  1.00  0.00     0.167 HD
ENDBRANCH  27  29
ENDBRANCH  26  27
ENDBRANCH  25  26
ENDBRANCH  16  25
BRANCH   1  31
HETATM   31  C2  UNL     1      -6.349   6.608  15.351  1.00  0.00    -0.061 C 
HETATM   32  C1  UNL     1      -6.261   7.772  16.024  1.00  0.00     0.017 C 
BRANCH  31  33
HETATM   33  C3  UNL     1      -7.027   5.427  16.004  1.00  0.00     0.198 C 
BRANCH  33  34
HETATM   34  O1  UNL     1      -8.433   5.552  15.892  1.00  0.00    -0.397 OA
HETATM   35  H5  UNL     1      -8.820   4.774  16.328  1.00  0.00     0.209 HD
ENDBRANCH  33  34
ENDBRANCH  31  33
ENDBRANCH   1  31
TORSDOF 11
ENDMDL
