MODEL 1
REMARK minimizedAffinity -6.68613672
REMARK CNNscore 0.30396983
REMARK CNNaffinity 5.73239851
REMARK  2 active torsions:
REMARK  status: ('A' for Active; 'I' for Inactive)
REMARK    1  A    between atoms: C21_27  and  C22_28 
REMARK    2  A    between atoms: C22_28  and  O7_30 
ROOT
HETATM    1  C1  UNL     1       4.805  16.738   8.845  1.00  0.00     0.043 C 
HETATM    2  C2  UNL     1       4.310  17.325   7.546  1.00  0.00    -0.076 C 
HETATM    3  C3  UNL     1       3.020  17.174   7.194  1.00  0.00     0.084 C 
HETATM    4  C4  UNL     1       2.375  17.724   5.981  1.00  0.00     0.283 C 
HETATM    5  O1  UNL     1       2.547  18.841   5.530  1.00  0.00    -0.260 OA
HETATM    6  O2  UNL     1       1.532  16.778   5.495  1.00  0.00    -0.317 OA
HETATM    7  C5  UNL     1       0.720  17.227   4.397  1.00  0.00     0.195 C 
HETATM    8  C6  UNL     1      -0.091  16.069   3.691  1.00  0.00     0.053 C 
HETATM    9  C7  UNL     1      -0.141  14.784   4.621  1.00  0.00     0.159 C 
HETATM   10  C8  UNL     1      -1.097  14.903   5.779  1.00  0.00     0.011 C 
HETATM   11  C9  UNL     1      -2.205  15.662   5.720  1.00  0.00    -0.054 C 
HETATM   12  C10 UNL     1      -3.144  15.769   6.887  1.00  0.00     0.046 C 
HETATM   13  C11 UNL     1      -2.580  16.395   4.498  1.00  0.00     0.180 A 
HETATM   14  O3  UNL     1      -2.568  15.751   3.213  1.00  0.00    -0.370 OA
HETATM   15  C12 UNL     1      -1.495  16.654   3.469  1.00  0.00     0.170 A 
HETATM   16  O4  UNL     1      -0.475  13.557   3.939  1.00  0.00    -0.372 OA
HETATM   17  C13 UNL     1       0.172  13.348   2.681  1.00  0.00     0.162 C 
HETATM   18  C14 UNL     1       1.696  13.478   2.763  1.00  0.00     0.068 C 
HETATM   19  C15 UNL     1       1.977  14.993   2.586  1.00  0.00     0.147 C 
HETATM   20  O5  UNL     1       2.900  15.250   1.513  1.00  0.00    -0.312 OA
HETATM   21  C16 UNL     1       4.197  14.975   1.808  1.00  0.00     0.283 C 
HETATM   22  O6  UNL     1       4.588  14.280   2.732  1.00  0.00    -0.260 OA
HETATM   23  C17 UNL     1       5.040  15.781   0.896  1.00  0.00     0.082 C 
HETATM   24  C18 UNL     1       6.193  16.366   1.268  1.00  0.00     0.006 C 
HETATM   25  C19 UNL     1       6.841  16.210   2.551  1.00  0.00    -0.001 C 
HETATM   26  C20 UNL     1       7.601  17.154   3.129  1.00  0.00     0.007 C 
HETATM   27  C21 UNL     1       8.164  16.999   4.519  1.00  0.00     0.172 C 
HETATM   28  O8  UNL     1       7.364  17.823   5.388  1.00  0.00    -0.379 OA
HETATM   29  C24 UNL     1       6.291  17.091   5.994  1.00  0.00     0.173 C 
HETATM   30  C25 UNL     1       5.366  18.054   6.740  1.00  0.00     0.060 C 
HETATM   31  C26 UNL     1       0.574  15.667   2.295  1.00  0.00     0.034 C 
HETATM   32  C27 UNL     1       0.655  16.818   1.272  1.00  0.00     0.022 C 
HETATM   33  C28 UNL     1      -0.197  14.470   1.778  1.00  0.00     0.119 A 
HETATM   34  C29 UNL     1      -1.382  14.463   0.846  1.00  0.00     0.210 A 
HETATM   35  O9  UNL     1      -0.056  14.183   0.379  1.00  0.00    -0.371 OA
ENDROOT
BRANCH  27  36
HETATM   36  C22 UNL     1       9.626  17.496   4.607  1.00  0.00     0.146 C 
HETATM   37  C23 UNL     1       9.741  18.749   5.470  1.00  0.00     0.042 C 
BRANCH  36  38
HETATM   38  O7  UNL     1      10.122  17.837   3.305  1.00  0.00    -0.393 OA
HETATM   39  H27 UNL     1       9.334  18.094   2.786  1.00  0.00     0.210 HD
ENDBRANCH  36  38
ENDBRANCH  27  36
TORSDOF 2
ENDMDL
MODEL 2
REMARK minimizedAffinity -6.30609941
REMARK CNNscore 0.196555063
REMARK CNNaffinity 5.24208832
REMARK  2 active torsions:
REMARK  status: ('A' for Active; 'I' for Inactive)
REMARK    1  A    between atoms: C21_27  and  C22_28 
REMARK    2  A    between atoms: C22_28  and  O7_30 
ROOT
HETATM    1  C1  UNL     1      -1.359  12.589   2.741  1.00  0.00     0.043 C 
HETATM    2  C2  UNL     1      -0.871  13.959   2.337  1.00  0.00    -0.076 C 
HETATM    3  C3  UNL     1       0.037  14.081   1.352  1.00  0.00     0.084 C 
HETATM    4  C4  UNL     1       0.579  15.349   0.815  1.00  0.00     0.283 C 
HETATM    5  O1  UNL     1      -0.066  16.352   0.579  1.00  0.00    -0.260 OA
HETATM    6  O2  UNL     1       1.907  15.171   0.595  1.00  0.00    -0.317 OA
HETATM    7  C5  UNL     1       2.542  16.277  -0.070  1.00  0.00     0.195 C 
HETATM    8  C6  UNL     1       4.118  16.167  -0.121  1.00  0.00     0.053 C 
HETATM    9  C7  UNL     1       4.577  14.680   0.190  1.00  0.00     0.159 C 
HETATM   10  C8  UNL     1       4.359  13.720  -0.950  1.00  0.00     0.011 C 
HETATM   11  C9  UNL     1       4.383  14.115  -2.235  1.00  0.00    -0.054 C 
HETATM   12  C10 UNL     1       4.160  13.142  -3.357  1.00  0.00     0.046 C 
HETATM   13  C11 UNL     1       4.670  15.509  -2.614  1.00  0.00     0.180 A 
HETATM   14  O3  UNL     1       5.782  16.220  -2.043  1.00  0.00    -0.370 OA
HETATM   15  C12 UNL     1       4.492  16.580  -1.553  1.00  0.00     0.170 A 
HETATM   16  O4  UNL     1       5.960  14.544   0.580  1.00  0.00    -0.372 OA
HETATM   17  C13 UNL     1       6.444  15.516   1.511  1.00  0.00     0.162 C 
HETATM   18  C14 UNL     1       5.575  15.623   2.769  1.00  0.00     0.068 C 
HETATM   19  C15 UNL     1       4.454  16.628   2.394  1.00  0.00     0.147 C 
HETATM   20  O5  UNL     1       4.377  17.722   3.325  1.00  0.00    -0.312 OA
HETATM   21  C16 UNL     1       3.797  17.412   4.513  1.00  0.00     0.283 C 
HETATM   22  O6  UNL     1       3.628  16.288   4.955  1.00  0.00    -0.260 OA
HETATM   23  C17 UNL     1       3.286  18.673   5.099  1.00  0.00     0.082 C 
HETATM   24  C18 UNL     1       2.125  18.765   5.772  1.00  0.00     0.006 C 
HETATM   25  C19 UNL     1       1.266  17.659   6.125  1.00  0.00    -0.001 C 
HETATM   26  C20 UNL     1      -0.068  17.752   6.253  1.00  0.00     0.007 C 
HETATM   27  C21 UNL     1      -0.942  16.550   6.509  1.00  0.00     0.172 C 
HETATM   28  O8  UNL     1      -1.588  16.232   5.262  1.00  0.00    -0.379 OA
HETATM   29  C24 UNL     1      -0.862  15.251   4.510  1.00  0.00     0.173 C 
HETATM   30  C25 UNL     1      -1.484  15.102   3.120  1.00  0.00     0.060 C 
HETATM   31  C26 UNL     1       4.799  17.148   0.940  1.00  0.00     0.034 C 
HETATM   32  C27 UNL     1       4.468  18.640   0.735  1.00  0.00     0.022 C 
HETATM   33  C28 UNL     1       6.287  16.862   0.899  1.00  0.00     0.119 A 
HETATM   34  C29 UNL     1       7.340  17.552   0.070  1.00  0.00     0.210 A 
HETATM   35  O9  UNL     1       7.140  17.874   1.452  1.00  0.00    -0.371 OA
ENDROOT
BRANCH  27  36
HETATM   36  C22 UNL     1      -2.043  16.852   7.551  1.00  0.00     0.146 C 
HETATM   37  C23 UNL     1      -3.386  17.136   6.882  1.00  0.00     0.042 C 
BRANCH  36  38
HETATM   38  O7  UNL     1      -1.706  18.013   8.322  1.00  0.00    -0.393 OA
HETATM   39  H27 UNL     1      -1.138  18.555   7.739  1.00  0.00     0.210 HD
ENDBRANCH  36  38
ENDBRANCH  27  36
TORSDOF 2
ENDMDL
MODEL 3
REMARK minimizedAffinity -6.20670891
REMARK CNNscore 0.191859469
REMARK CNNaffinity 5.10786819
REMARK  2 active torsions:
REMARK  status: ('A' for Active; 'I' for Inactive)
REMARK    1  A    between atoms: C21_27  and  C22_28 
REMARK    2  A    between atoms: C22_28  and  O7_30 
ROOT
HETATM    1  C1  UNL     1      -9.663  -0.916  -5.047  1.00  0.00     0.043 C 
HETATM    2  C2  UNL     1     -10.161  -1.966  -6.011  1.00  0.00    -0.076 C 
HETATM    3  C3  UNL     1     -11.198  -1.689  -6.822  1.00  0.00     0.084 C 
HETATM    4  C4  UNL     1     -11.772  -2.590  -7.846  1.00  0.00     0.283 C 
HETATM    5  O1  UNL     1     -11.136  -3.289  -8.612  1.00  0.00    -0.260 OA
HETATM    6  O2  UNL     1     -13.122  -2.459  -7.802  1.00  0.00    -0.317 OA
HETATM    7  C5  UNL     1     -13.812  -3.167  -8.847  1.00  0.00     0.195 C 
HETATM    8  C6  UNL     1     -15.381  -3.201  -8.663  1.00  0.00     0.053 C 
HETATM    9  C7  UNL     1     -15.838  -2.098  -7.617  1.00  0.00     0.159 C 
HETATM   10  C8  UNL     1     -15.817  -0.693  -8.159  1.00  0.00     0.011 C 
HETATM   11  C9  UNL     1     -16.014  -0.424  -9.461  1.00  0.00    -0.054 C 
HETATM   12  C10 UNL     1     -15.987   0.984  -9.983  1.00  0.00     0.046 C 
HETATM   13  C11 UNL     1     -16.308  -1.487 -10.438  1.00  0.00     0.180 A 
HETATM   14  O3  UNL     1     -17.303  -2.489 -10.168  1.00  0.00    -0.370 OA
HETATM   15  C12 UNL     1     -15.945  -2.911 -10.063  1.00  0.00     0.170 A 
HETATM   16  O4  UNL     1     -17.153  -2.302  -7.060  1.00  0.00    -0.372 OA
HETATM   17  C13 UNL     1     -17.466  -3.644  -6.675  1.00  0.00     0.162 C 
HETATM   18  C14 UNL     1     -16.421  -4.255  -5.734  1.00  0.00     0.068 C 
HETATM   19  C15 UNL     1     -15.335  -4.842  -6.673  1.00  0.00     0.147 C 
HETATM   20  O5  UNL     1     -15.090  -6.235  -6.411  1.00  0.00    -0.312 OA
HETATM   21  C16 UNL     1     -14.355  -6.477  -5.296  1.00  0.00     0.283 C 
HETATM   22  O6  UNL     1     -14.159  -5.692  -4.383  1.00  0.00    -0.260 OA
HETATM   23  C17 UNL     1     -13.725  -7.808  -5.460  1.00  0.00     0.082 C 
HETATM   24  C18 UNL     1     -12.476  -8.097  -5.052  1.00  0.00     0.006 C 
HETATM   25  C19 UNL     1     -11.610  -7.217  -4.301  1.00  0.00    -0.001 C 
HETATM   26  C20 UNL     1     -10.269  -7.230  -4.384  1.00  0.00     0.007 C 
HETATM   27  C21 UNL     1      -9.407  -6.218  -3.673  1.00  0.00     0.172 C 
HETATM   28  O8  UNL     1      -8.958  -5.279  -4.669  1.00  0.00    -0.379 OA
HETATM   29  C24 UNL     1      -9.815  -4.135  -4.760  1.00  0.00     0.173 C 
HETATM   30  C25 UNL     1      -9.406  -3.278  -5.960  1.00  0.00     0.060 C 
HETATM   31  C26 UNL     1     -15.871  -4.632  -8.148  1.00  0.00     0.034 C 
HETATM   32  C27 UNL     1     -15.526  -5.802  -9.091  1.00  0.00     0.022 C 
HETATM   33  C28 UNL     1     -17.357  -4.508  -7.879  1.00  0.00     0.119 A 
HETATM   34  C29 UNL     1     -18.497  -4.815  -8.816  1.00  0.00     0.210 A 
HETATM   35  O9  UNL     1     -18.089  -5.740  -7.799  1.00  0.00    -0.371 OA
ENDROOT
BRANCH  27  36
HETATM   36  C22 UNL     1      -8.157  -6.873  -3.040  1.00  0.00     0.146 C 
HETATM   37  C23 UNL     1      -7.641  -8.033  -3.888  1.00  0.00     0.042 C 
BRANCH  36  38
HETATM   38  O7  UNL     1      -8.467  -7.407  -1.746  1.00  0.00    -0.393 OA
HETATM   39  H27 UNL     1      -9.421  -7.622  -1.775  1.00  0.00     0.210 HD
ENDBRANCH  36  38
ENDBRANCH  27  36
TORSDOF 2
ENDMDL
MODEL 4
REMARK minimizedAffinity -6.49569654
REMARK CNNscore 0.171855494
REMARK CNNaffinity 4.67909288
REMARK  2 active torsions:
REMARK  status: ('A' for Active; 'I' for Inactive)
REMARK    1  A    between atoms: C21_27  and  C22_28 
REMARK    2  A    between atoms: C22_28  and  O7_30 
ROOT
HETATM    1  C1  UNL     1     -13.349  -8.806   2.353  1.00  0.00     0.043 C 
HETATM    2  C2  UNL     1     -12.150  -8.229   1.640  1.00  0.00    -0.076 C 
HETATM    3  C3  UNL     1     -12.159  -8.121   0.299  1.00  0.00     0.084 C 
HETATM    4  C4  UNL     1     -11.086  -7.540  -0.538  1.00  0.00     0.283 C 
HETATM    5  O1  UNL     1     -10.461  -6.527  -0.288  1.00  0.00    -0.260 OA
HETATM    6  O2  UNL     1     -10.961  -8.313  -1.646  1.00  0.00    -0.317 OA
HETATM    7  C5  UNL     1     -10.053  -7.785  -2.629  1.00  0.00     0.195 C 
HETATM    8  C6  UNL     1      -9.738  -8.789  -3.807  1.00  0.00     0.053 C 
HETATM    9  C7  UNL     1     -10.814  -9.955  -3.842  1.00  0.00     0.159 C 
HETATM   10  C8  UNL     1     -12.150  -9.539  -4.402  1.00  0.00     0.011 C 
HETATM   11  C9  UNL     1     -12.271  -8.562  -5.318  1.00  0.00    -0.054 C 
HETATM   12  C10 UNL     1     -13.612  -8.161  -5.861  1.00  0.00     0.046 C 
HETATM   13  C11 UNL     1     -11.096  -7.864  -5.868  1.00  0.00     0.180 A 
HETATM   14  O3  UNL     1      -9.948  -8.594  -6.334  1.00  0.00    -0.370 OA
HETATM   15  C12 UNL     1      -9.802  -7.930  -5.080  1.00  0.00     0.170 A 
HETATM   16  O4  UNL     1     -10.410 -11.128  -4.578  1.00  0.00    -0.372 OA
HETATM   17  C13 UNL     1      -9.069 -11.573  -4.355  1.00  0.00     0.162 C 
HETATM   18  C14 UNL     1      -8.745 -11.774  -2.871  1.00  0.00     0.068 C 
HETATM   19  C15 UNL     1      -8.301 -10.375  -2.368  1.00  0.00     0.147 C 
HETATM   20  O5  UNL     1      -7.005 -10.412  -1.744  1.00  0.00    -0.312 OA
HETATM   21  C16 UNL     1      -6.997 -10.941  -0.493  1.00  0.00     0.283 C 
HETATM   22  O6  UNL     1      -7.877 -11.630  -0.002  1.00  0.00    -0.260 OA
HETATM   23  C17 UNL     1      -5.801 -10.414   0.204  1.00  0.00     0.082 C 
HETATM   24  C18 UNL     1      -5.788 -10.069   1.504  1.00  0.00     0.006 C 
HETATM   25  C19 UNL     1      -6.874 -10.261   2.438  1.00  0.00    -0.001 C 
HETATM   26  C20 UNL     1      -7.109  -9.464   3.494  1.00  0.00     0.007 C 
HETATM   27  C21 UNL     1      -8.320  -9.629   4.377  1.00  0.00     0.172 C 
HETATM   28  O8  UNL     1      -9.244  -8.584   4.018  1.00  0.00    -0.379 OA
HETATM   29  C24 UNL     1     -10.194  -9.013   3.036  1.00  0.00     0.173 C 
HETATM   30  C25 UNL     1     -11.013  -7.815   2.552  1.00  0.00     0.060 C 
HETATM   31  C26 UNL     1      -8.286  -9.436  -3.641  1.00  0.00     0.034 C 
HETATM   32  C27 UNL     1      -7.130  -8.415  -3.628  1.00  0.00     0.022 C 
HETATM   33  C28 UNL     1      -8.147 -10.472  -4.738  1.00  0.00     0.119 A 
HETATM   34  C29 UNL     1      -7.555 -10.292  -6.113  1.00  0.00     0.210 A 
HETATM   35  O9  UNL     1      -6.809 -10.891  -5.045  1.00  0.00    -0.371 OA
ENDROOT
BRANCH  27  36
HETATM   36  C22 UNL     1      -7.967  -9.459   5.873  1.00  0.00     0.146 C 
HETATM   37  C23 UNL     1      -9.202  -9.123   6.705  1.00  0.00     0.042 C 
BRANCH  36  38
HETATM   38  O7  UNL     1      -7.035  -8.385   6.054  1.00  0.00    -0.393 OA
HETATM   39  H27 UNL     1      -7.196  -7.773   5.307  1.00  0.00     0.210 HD
ENDBRANCH  36  38
ENDBRANCH  27  36
TORSDOF 2
ENDMDL
MODEL 5
REMARK minimizedAffinity -6.60976982
REMARK CNNscore 0.167425156
REMARK CNNaffinity 5.50473452
REMARK  2 active torsions:
REMARK  status: ('A' for Active; 'I' for Inactive)
REMARK    1  A    between atoms: C21_27  and  C22_28 
REMARK    2  A    between atoms: C22_28  and  O7_30 
ROOT
HETATM    1  C1  UNL     1       7.669  18.296   4.447  1.00  0.00     0.043 C 
HETATM    2  C2  UNL     1       6.460  18.496   3.566  1.00  0.00    -0.076 C 
HETATM    3  C3  UNL     1       5.230  18.264   4.057  1.00  0.00     0.084 C 
HETATM    4  C4  UNL     1       3.951  18.454   3.337  1.00  0.00     0.283 C 
HETATM    5  O1  UNL     1       3.674  19.395   2.619  1.00  0.00    -0.260 OA
HETATM    6  O2  UNL     1       3.137  17.416   3.659  1.00  0.00    -0.317 OA
HETATM    7  C5  UNL     1       1.798  17.544   3.148  1.00  0.00     0.195 C 
HETATM    8  C6  UNL     1       0.923  16.240   3.328  1.00  0.00     0.053 C 
HETATM    9  C7  UNL     1       1.588  15.271   4.395  1.00  0.00     0.159 C 
HETATM   10  C8  UNL     1       1.417  15.722   5.822  1.00  0.00     0.011 C 
HETATM   11  C9  UNL     1       0.356  16.443   6.224  1.00  0.00    -0.054 C 
HETATM   12  C10 UNL     1       0.206  16.885   7.652  1.00  0.00     0.046 C 
HETATM   13  C11 UNL     1      -0.733  16.803   5.300  1.00  0.00     0.180 A 
HETATM   14  O3  UNL     1      -1.328  15.822   4.434  1.00  0.00    -0.370 OA
HETATM   15  C12 UNL     1      -0.443  16.751   3.812  1.00  0.00     0.170 A 
HETATM   16  O4  UNL     1       1.129  13.905   4.339  1.00  0.00    -0.372 OA
HETATM   17  C13 UNL     1       1.004  13.342   3.030  1.00  0.00     0.162 C 
HETATM   18  C14 UNL     1       2.284  13.476   2.198  1.00  0.00     0.068 C 
HETATM   19  C15 UNL     1       2.185  14.877   1.538  1.00  0.00     0.147 C 
HETATM   20  O5  UNL     1       2.319  14.811   0.108  1.00  0.00    -0.312 OA
HETATM   21  C16 UNL     1       3.589  14.619  -0.331  1.00  0.00     0.283 C 
HETATM   22  O6  UNL     1       4.524  14.211   0.339  1.00  0.00    -0.260 OA
HETATM   23  C17 UNL     1       3.660  15.126  -1.721  1.00  0.00     0.082 C 
HETATM   24  C18 UNL     1       4.723  15.782  -2.222  1.00  0.00     0.006 C 
HETATM   25  C19 UNL     1       5.982  15.990  -1.543  1.00  0.00    -0.001 C 
HETATM   26  C20 UNL     1       6.778  17.052  -1.743  1.00  0.00     0.007 C 
HETATM   27  C21 UNL     1       8.026  17.291  -0.931  1.00  0.00     0.172 C 
HETATM   28  O8  UNL     1       7.716  18.335   0.012  1.00  0.00    -0.379 OA
HETATM   29  C24 UNL     1       7.277  17.814   1.273  1.00  0.00     0.173 C 
HETATM   30  C25 UNL     1       6.776  18.958   2.158  1.00  0.00     0.060 C 
HETATM   31  C26 UNL     1       0.769  15.453   1.946  1.00  0.00     0.034 C 
HETATM   32  C27 UNL     1       0.098  16.267   0.820  1.00  0.00     0.022 C 
HETATM   33  C28 UNL     1       0.035  14.166   2.262  1.00  0.00     0.119 A 
HETATM   34  C29 UNL     1      -1.449  13.906   2.203  1.00  0.00     0.210 A 
HETATM   35  O9  UNL     1      -0.571  13.494   1.147  1.00  0.00    -0.371 OA
ENDROOT
BRANCH  27  36
HETATM   36  C22 UNL     1       9.200  17.780  -1.811  1.00  0.00     0.146 C 
HETATM   37  C23 UNL     1       8.712  18.291  -3.164  1.00  0.00     0.042 C 
BRANCH  36  38
HETATM   38  O7  UNL     1      10.114  16.707  -2.075  1.00  0.00    -0.393 OA
HETATM   39  H27 UNL     1       9.576  15.891  -2.028  1.00  0.00     0.210 HD
ENDBRANCH  36  38
ENDBRANCH  27  36
TORSDOF 2
ENDMDL
MODEL 6
REMARK minimizedAffinity -6.49736357
REMARK CNNscore 0.15257445
REMARK CNNaffinity 4.58073664
REMARK  2 active torsions:
REMARK  status: ('A' for Active; 'I' for Inactive)
REMARK    1  A    between atoms: C21_27  and  C22_28 
REMARK    2  A    between atoms: C22_28  and  O7_30 
ROOT
HETATM    1  C1  UNL     1     -16.074  -6.718  17.162  1.00  0.00     0.043 C 
HETATM    2  C2  UNL     1     -15.511  -5.521  16.436  1.00  0.00    -0.076 C 
HETATM    3  C3  UNL     1     -16.117  -4.325  16.549  1.00  0.00     0.084 C 
HETATM    4  C4  UNL     1     -15.667  -3.055  15.938  1.00  0.00     0.283 C 
HETATM    5  O1  UNL     1     -14.518  -2.661  15.888  1.00  0.00    -0.260 OA
HETATM    6  O2  UNL     1     -16.767  -2.399  15.489  1.00  0.00    -0.317 OA
HETATM    7  C5  UNL     1     -16.498  -1.072  15.001  1.00  0.00     0.195 C 
HETATM    8  C6  UNL     1     -17.730  -0.401  14.275  1.00  0.00     0.053 C 
HETATM    9  C7  UNL     1     -19.069  -1.173  14.633  1.00  0.00     0.159 C 
HETATM   10  C8  UNL     1     -19.587  -0.891  16.020  1.00  0.00     0.011 C 
HETATM   11  C9  UNL     1     -19.366   0.279  16.643  1.00  0.00    -0.054 C 
HETATM   12  C10 UNL     1     -19.889   0.539  18.028  1.00  0.00     0.046 C 
HETATM   13  C11 UNL     1     -18.638   1.381  15.992  1.00  0.00     0.180 A 
HETATM   14  O3  UNL     1     -18.959   1.793  14.652  1.00  0.00    -0.370 OA
HETATM   15  C12 UNL     1     -17.757   1.041  14.805  1.00  0.00     0.170 A 
HETATM   16  O4  UNL     1     -20.167  -0.928  13.729  1.00  0.00    -0.372 OA
HETATM   17  C13 UNL     1     -19.841  -0.931  12.337  1.00  0.00     0.162 C 
HETATM   18  C14 UNL     1     -19.102  -2.200  11.899  1.00  0.00     0.068 C 
HETATM   19  C15 UNL     1     -17.606  -1.910  12.187  1.00  0.00     0.147 C 
HETATM   20  O5  UNL     1     -16.785  -2.096  11.020  1.00  0.00    -0.312 OA
HETATM   21  C16 UNL     1     -16.543  -3.394  10.703  1.00  0.00     0.283 C 
HETATM   22  O6  UNL     1     -17.172  -4.358  11.106  1.00  0.00    -0.260 OA
HETATM   23  C17 UNL     1     -15.299  -3.429   9.900  1.00  0.00     0.082 C 
HETATM   24  C18 UNL     1     -14.369  -4.395  10.009  1.00  0.00     0.006 C 
HETATM   25  C19 UNL     1     -14.481  -5.586  10.820  1.00  0.00    -0.001 C 
HETATM   26  C20 UNL     1     -13.436  -6.218  11.378  1.00  0.00     0.007 C 
HETATM   27  C21 UNL     1     -13.605  -7.388  12.313  1.00  0.00     0.172 C 
HETATM   28  O8  UNL     1     -13.375  -6.895  13.646  1.00  0.00    -0.379 OA
HETATM   29  C24 UNL     1     -14.590  -6.502  14.296  1.00  0.00     0.173 C 
HETATM   30  C25 UNL     1     -14.267  -5.806  15.619  1.00  0.00     0.060 C 
HETATM   31  C26 UNL     1     -17.540  -0.410  12.689  1.00  0.00     0.034 C 
HETATM   32  C27 UNL     1     -16.288   0.341  12.191  1.00  0.00     0.022 C 
HETATM   33  C28 UNL     1     -18.827   0.128  12.097  1.00  0.00     0.119 A 
HETATM   34  C29 UNL     1     -19.150   1.553  11.725  1.00  0.00     0.210 A 
HETATM   35  O9  UNL     1     -18.753   0.590  10.740  1.00  0.00    -0.371 OA
ENDROOT
BRANCH  27  36
HETATM   36  C22 UNL     1     -12.568  -8.501  12.033  1.00  0.00     0.146 C 
HETATM   37  C23 UNL     1     -11.851  -8.933  13.310  1.00  0.00     0.042 C 
BRANCH  36  38
HETATM   38  O7  UNL     1     -11.560  -8.037  11.124  1.00  0.00    -0.393 OA
HETATM   39  H27 UNL     1     -11.518  -7.068  11.257  1.00  0.00     0.210 HD
ENDBRANCH  36  38
ENDBRANCH  27  36
TORSDOF 2
ENDMDL
MODEL 7
REMARK minimizedAffinity -6.20571756
REMARK CNNscore 0.145732224
REMARK CNNaffinity 4.90979242
REMARK  2 active torsions:
REMARK  status: ('A' for Active; 'I' for Inactive)
REMARK    1  A    between atoms: C21_27  and  C22_28 
REMARK    2  A    between atoms: C22_28  and  O7_30 
ROOT
HETATM    1  C1  UNL     1      18.986  -5.380  10.495  1.00  0.00     0.043 C 
HETATM    2  C2  UNL     1      17.773  -4.678   9.935  1.00  0.00    -0.076 C 
HETATM    3  C3  UNL     1      16.875  -5.372   9.211  1.00  0.00     0.084 C 
HETATM    4  C4  UNL     1      15.621  -4.841   8.634  1.00  0.00     0.283 C 
HETATM    5  O1  UNL     1      14.846  -4.088   9.192  1.00  0.00    -0.260 OA
HETATM    6  O2  UNL     1      15.474  -5.380   7.396  1.00  0.00    -0.317 OA
HETATM    7  C5  UNL     1      14.217  -5.070   6.769  1.00  0.00     0.195 C 
HETATM    8  C6  UNL     1      14.141  -5.504   5.251  1.00  0.00     0.053 C 
HETATM    9  C7  UNL     1      15.292  -6.543   4.916  1.00  0.00     0.159 C 
HETATM   10  C8  UNL     1      15.038  -7.931   5.444  1.00  0.00     0.011 C 
HETATM   11  C9  UNL     1      13.797  -8.420   5.607  1.00  0.00    -0.054 C 
HETATM   12  C10 UNL     1      13.565  -9.806   6.137  1.00  0.00     0.046 C 
HETATM   13  C11 UNL     1      12.601  -7.644   5.236  1.00  0.00     0.180 A 
HETATM   14  O3  UNL     1      12.514  -6.976   3.966  1.00  0.00    -0.370 OA
HETATM   15  C12 UNL     1      12.750  -6.141   5.097  1.00  0.00     0.170 A 
HETATM   16  O4  UNL     1      15.584  -6.687   3.510  1.00  0.00    -0.372 OA
HETATM   17  C13 UNL     1      15.651  -5.472   2.759  1.00  0.00     0.162 C 
HETATM   18  C14 UNL     1      16.611  -4.445   3.370  1.00  0.00     0.068 C 
HETATM   19  C15 UNL     1      15.761  -3.679   4.417  1.00  0.00     0.147 C 
HETATM   20  O5  UNL     1      15.788  -2.258   4.200  1.00  0.00    -0.312 OA
HETATM   21  C16 UNL     1      16.939  -1.650   4.588  1.00  0.00     0.283 C 
HETATM   22  O6  UNL     1      18.004  -2.205   4.802  1.00  0.00    -0.260 OA
HETATM   23  C17 UNL     1      16.625  -0.224   4.838  1.00  0.00     0.082 C 
HETATM   24  C18 UNL     1      17.163   0.493   5.841  1.00  0.00     0.006 C 
HETATM   25  C19 UNL     1      18.196   0.037   6.743  1.00  0.00    -0.001 C 
HETATM   26  C20 UNL     1      18.326   0.457   8.012  1.00  0.00     0.007 C 
HETATM   27  C21 UNL     1      19.344  -0.129   8.957  1.00  0.00     0.172 C 
HETATM   28  O8  UNL     1      18.630  -1.006   9.849  1.00  0.00    -0.379 OA
HETATM   29  C24 UNL     1      18.624  -2.362   9.387  1.00  0.00     0.173 C 
HETATM   30  C25 UNL     1      17.691  -3.202  10.262  1.00  0.00     0.060 C 
HETATM   31  C26 UNL     1      14.289  -4.242   4.283  1.00  0.00     0.034 C 
HETATM   32  C27 UNL     1      13.206  -3.160   4.474  1.00  0.00     0.022 C 
HETATM   33  C28 UNL     1      14.337  -4.787   2.870  1.00  0.00     0.119 A 
HETATM   34  C29 UNL     1      13.189  -4.980   1.911  1.00  0.00     0.210 A 
HETATM   35  O9  UNL     1      14.063  -3.846   1.820  1.00  0.00    -0.371 OA
ENDROOT
BRANCH  27  36
HETATM   36  C22 UNL     1      20.031   0.962   9.811  1.00  0.00     0.146 C 
HETATM   37  C23 UNL     1      20.774   1.971   8.940  1.00  0.00     0.042 C 
BRANCH  36  38
HETATM   38  O7  UNL     1      20.999   0.378  10.694  1.00  0.00    -0.393 OA
HETATM   39  H27 UNL     1      21.296  -0.441  10.248  1.00  0.00     0.210 HD
ENDBRANCH  36  38
ENDBRANCH  27  36
TORSDOF 2
ENDMDL
MODEL 8
REMARK minimizedAffinity -6.89231062
REMARK CNNscore 0.134343311
REMARK CNNaffinity 4.93818617
REMARK  2 active torsions:
REMARK  status: ('A' for Active; 'I' for Inactive)
REMARK    1  A    between atoms: C21_27  and  C22_28 
REMARK    2  A    between atoms: C22_28  and  O7_30 
ROOT
HETATM    1  C1  UNL     1      16.988  -5.729  10.504  1.00  0.00     0.043 C 
HETATM    2  C2  UNL     1      15.991  -5.180   9.512  1.00  0.00    -0.076 C 
HETATM    3  C3  UNL     1      15.302  -6.023   8.722  1.00  0.00     0.084 C 
HETATM    4  C4  UNL     1      14.265  -5.647   7.737  1.00  0.00     0.283 C 
HETATM    5  O1  UNL     1      13.391  -4.819   7.908  1.00  0.00    -0.260 OA
HETATM    6  O2  UNL     1      14.441  -6.420   6.635  1.00  0.00    -0.317 OA
HETATM    7  C5  UNL     1      13.409  -6.269   5.644  1.00  0.00     0.195 C 
HETATM    8  C6  UNL     1      13.731  -6.992   4.276  1.00  0.00     0.053 C 
HETATM    9  C7  UNL     1      14.900  -8.048   4.472  1.00  0.00     0.159 C 
HETATM   10  C8  UNL     1      14.473  -9.312   5.171  1.00  0.00     0.011 C 
HETATM   11  C9  UNL     1      13.220  -9.791   5.085  1.00  0.00    -0.054 C 
HETATM   12  C10 UNL     1      12.814 -11.053   5.793  1.00  0.00     0.046 C 
HETATM   13  C11 UNL     1      12.191  -9.132   4.263  1.00  0.00     0.180 A 
HETATM   14  O3  UNL     1      12.468  -8.727   2.911  1.00  0.00    -0.370 OA
HETATM   15  C12 UNL     1      12.416  -7.681   3.880  1.00  0.00     0.170 A 
HETATM   16  O4  UNL     1      15.555  -8.456   3.253  1.00  0.00    -0.372 OA
HETATM   17  C13 UNL     1      15.857  -7.408   2.327  1.00  0.00     0.162 C 
HETATM   18  C14 UNL     1      16.646  -6.258   2.961  1.00  0.00     0.068 C 
HETATM   19  C15 UNL     1      15.568  -5.325   3.572  1.00  0.00     0.147 C 
HETATM   20  O5  UNL     1      15.694  -3.973   3.098  1.00  0.00    -0.312 OA
HETATM   21  C16 UNL     1      16.715  -3.273   3.656  1.00  0.00     0.283 C 
HETATM   22  O6  UNL     1      17.667  -3.749   4.253  1.00  0.00    -0.260 OA
HETATM   23  C17 UNL     1      16.387  -1.834   3.530  1.00  0.00     0.082 C 
HETATM   24  C18 UNL     1      16.656  -0.922   4.482  1.00  0.00     0.006 C 
HETATM   25  C19 UNL     1      17.394  -1.167   5.700  1.00  0.00    -0.001 C 
HETATM   26  C20 UNL     1      17.189  -0.506   6.851  1.00  0.00     0.007 C 
HETATM   27  C21 UNL     1      17.899  -0.871   8.130  1.00  0.00     0.172 C 
HETATM   28  O8  UNL     1      16.946  -1.575   8.949  1.00  0.00    -0.379 OA
HETATM   29  C24 UNL     1      17.025  -2.994   8.776  1.00  0.00     0.173 C 
HETATM   30  C25 UNL     1      15.867  -3.670   9.512  1.00  0.00     0.060 C 
HETATM   31  C26 UNL     1      14.171  -5.940   3.158  1.00  0.00     0.034 C 
HETATM   32  C27 UNL     1      13.108  -4.869   2.836  1.00  0.00     0.022 C 
HETATM   33  C28 UNL     1      14.582  -6.748   1.943  1.00  0.00     0.119 A 
HETATM   34  C29 UNL     1      13.729  -7.153   0.768  1.00  0.00     0.210 A 
HETATM   35  O9  UNL     1      14.627  -6.037   0.697  1.00  0.00    -0.371 OA
ENDROOT
BRANCH  27  36
HETATM   36  C22 UNL     1      18.361   0.383   8.909  1.00  0.00     0.146 C 
HETATM   37  C23 UNL     1      18.723   0.044  10.352  1.00  0.00     0.042 C 
BRANCH  36  38
HETATM   38  O7  UNL     1      17.315   1.362   8.958  1.00  0.00    -0.393 OA
HETATM   39  H27 UNL     1      16.481   0.853   8.897  1.00  0.00     0.210 HD
ENDBRANCH  36  38
ENDBRANCH  27  36
TORSDOF 2
ENDMDL
MODEL 9
REMARK minimizedAffinity -8.55421925
REMARK CNNscore 0.13200821
REMARK CNNaffinity 5.36346769
REMARK  2 active torsions:
REMARK  status: ('A' for Active; 'I' for Inactive)
REMARK    1  A    between atoms: C21_27  and  C22_28 
REMARK    2  A    between atoms: C22_28  and  O7_30 
ROOT
HETATM    1  C1  UNL     1       5.294   7.714  15.144  1.00  0.00     0.043 C 
HETATM    2  C2  UNL     1       4.391   8.807  14.628  1.00  0.00    -0.076 C 
HETATM    3  C3  UNL     1       3.747   9.606  15.498  1.00  0.00     0.084 C 
HETATM    4  C4  UNL     1       2.865  10.744  15.153  1.00  0.00     0.283 C 
HETATM    5  O1  UNL     1       3.080  11.570  14.287  1.00  0.00    -0.260 OA
HETATM    6  O2  UNL     1       1.807  10.719  16.002  1.00  0.00    -0.317 OA
HETATM    7  C5  UNL     1       0.935  11.858  15.883  1.00  0.00     0.195 C 
HETATM    8  C6  UNL     1      -0.407  11.719  16.704  1.00  0.00     0.053 C 
HETATM    9  C7  UNL     1      -0.277  10.562  17.783  1.00  0.00     0.159 C 
HETATM   10  C8  UNL     1       0.553  10.935  18.984  1.00  0.00     0.011 C 
HETATM   11  C9  UNL     1       0.647  12.201  19.426  1.00  0.00    -0.054 C 
HETATM   12  C10 UNL     1       1.483  12.552  20.623  1.00  0.00     0.046 C 
HETATM   13  C11 UNL     1      -0.093  13.303  18.788  1.00  0.00     0.180 A 
HETATM   14  O3  UNL     1      -1.492  13.179  18.482  1.00  0.00    -0.370 OA
HETATM   15  C12 UNL     1      -0.599  13.089  17.374  1.00  0.00     0.170 A 
HETATM   16  O4  UNL     1      -1.533  10.067  18.292  1.00  0.00    -0.372 OA
HETATM   17  C13 UNL     1      -2.558   9.851  17.319  1.00  0.00     0.162 C 
HETATM   18  C14 UNL     1      -2.101   8.962  16.157  1.00  0.00     0.068 C 
HETATM   19  C15 UNL     1      -1.435   9.936  15.150  1.00  0.00     0.147 C 
HETATM   20  O5  UNL     1      -2.013   9.833  13.836  1.00  0.00    -0.312 OA
HETATM   21  C16 UNL     1      -1.628   8.736  13.136  1.00  0.00     0.283 C 
HETATM   22  O6  UNL     1      -1.115   7.732  13.603  1.00  0.00    -0.260 OA
HETATM   23  C17 UNL     1      -1.814   9.039  11.698  1.00  0.00     0.082 C 
HETATM   24  C18 UNL     1      -0.965   8.636  10.735  1.00  0.00     0.006 C 
HETATM   25  C19 UNL     1       0.172   7.765  10.925  1.00  0.00    -0.001 C 
HETATM   26  C20 UNL     1       1.290   7.815  10.182  1.00  0.00     0.007 C 
HETATM   27  C21 UNL     1       2.500   6.968  10.486  1.00  0.00     0.172 C 
HETATM   28  O8  UNL     1       3.472   7.834  11.102  1.00  0.00    -0.379 OA
HETATM   29  C24 UNL     1       3.389   7.812  12.532  1.00  0.00     0.173 C 
HETATM   30  C25 UNL     1       4.301   8.892  13.119  1.00  0.00     0.060 C 
HETATM   31  C26 UNL     1      -1.640  11.389  15.743  1.00  0.00     0.034 C 
HETATM   32  C27 UNL     1      -1.909  12.454  14.661  1.00  0.00     0.022 C 
HETATM   33  C28 UNL     1      -2.835  11.145  16.643  1.00  0.00     0.119 A 
HETATM   34  C29 UNL     1      -3.872  12.141  17.095  1.00  0.00     0.210 A 
HETATM   35  O9  UNL     1      -4.124  11.230  16.017  1.00  0.00    -0.371 OA
ENDROOT
BRANCH  27  36
HETATM   36  C22 UNL     1       3.130   6.385   9.200  1.00  0.00     0.146 C 
HETATM   37  C23 UNL     1       2.370   6.825   7.952  1.00  0.00     0.042 C 
BRANCH  36  38
HETATM   38  O7  UNL     1       3.097   4.951   9.226  1.00  0.00    -0.393 OA
HETATM   39  H27 UNL     1       2.329   4.720   9.787  1.00  0.00     0.210 HD
ENDBRANCH  36  38
ENDBRANCH  27  36
TORSDOF 2
ENDMDL
