MODEL 1
REMARK minimizedAffinity -9.71942139
REMARK CNNscore 0.830497742
REMARK CNNaffinity 6.61785269
REMARK  9 active torsions:
REMARK  status: ('A' for Active; 'I' for Inactive)
REMARK    1  A    between atoms: N1_2  and  C2_3 
REMARK    2  A    between atoms: C2_3  and  C3_4 
REMARK    3  A    between atoms: C7_8  and  O1_9 
REMARK    4  A    between atoms: C13_15  and  O2_16 
REMARK    5  A    between atoms: C17_20  and  C18_21 
REMARK    6  A    between atoms: C18_21  and  C20_23 
REMARK    7  A    between atoms: C28_31  and  O3_32 
REMARK    8  A    between atoms: C31_35  and  C32_36 
REMARK    9  A    between atoms: C33_38  and  O5_39 
ROOT
HETATM    1  C3  UNL     1       4.809  63.383 -34.325  1.00  0.00    -0.022 C 
HETATM    2  C4  UNL     1       4.052  64.495 -34.502  1.00  0.00    -0.014 C 
HETATM    3  C5  UNL     1       4.648  65.748 -35.093  1.00  0.00     0.021 C 
HETATM    4  C6  UNL     1       3.767  66.703 -35.897  1.00  0.00     0.051 C 
HETATM    5  C7  UNL     1       4.826  67.709 -36.402  1.00  0.00     0.098 C 
HETATM    6  C8  UNL     1       6.018  66.781 -36.884  1.00  0.00    -0.002 C 
HETATM    7  C9  UNL     1       7.402  67.406 -36.651  1.00  0.00     0.019 C 
HETATM    8  C10 UNL     1       5.904  66.435 -38.402  1.00  0.00     0.013 C 
HETATM    9  C11 UNL     1       5.523  67.603 -39.308  1.00  0.00     0.010 C 
HETATM   10  C12 UNL     1       4.172  68.186 -38.850  1.00  0.00     0.041 C 
HETATM   11  C13 UNL     1       4.336  68.775 -37.437  1.00  0.00     0.095 C 
HETATM   12  C14 UNL     1       3.084  69.558 -36.993  1.00  0.00     0.049 C 
HETATM   13  C15 UNL     1       1.799  69.293 -37.813  1.00  0.00     0.025 C 
HETATM   14  C16 UNL     1       0.695  70.182 -37.162  1.00  0.00     0.012 C 
HETATM   15  C17 UNL     1      -0.796  70.070 -37.570  1.00  0.00    -0.010 C 
HETATM   16  C25 UNL     1      -1.026  69.890 -39.082  1.00  0.00     0.005 C 
HETATM   17  C26 UNL     1      -0.425  68.609 -39.643  1.00  0.00     0.010 C 
HETATM   18  C27 UNL     1       1.013  68.687 -40.174  1.00  0.00     0.050 C 
HETATM   19  C28 UNL     1       1.049  69.093 -41.668  1.00  0.00     0.125 C 
HETATM   20  C29 UNL     1       2.473  69.223 -42.199  1.00  0.00     0.033 C 
HETATM   21  C30 UNL     1       3.485  68.556 -41.281  1.00  0.00     0.023 C 
HETATM   22  C31 UNL     1       3.509  69.193 -39.847  1.00  0.00     0.051 C 
HETATM   23  C33 UNL     1       2.026  69.540 -39.347  1.00  0.00     0.082 C 
HETATM   24  C34 UNL     1       5.794  65.438 -36.085  1.00  0.00     0.036 C 
HETATM   25  C35 UNL     1       6.771  64.635 -35.290  1.00  0.00    -0.035 C 
HETATM   26  C36 UNL     1       7.964  64.873 -34.756  1.00  0.00     0.088 C 
HETATM   27  C37 UNL     1       8.232  63.757 -33.846  1.00  0.00     0.284 C 
HETATM   28  O6  UNL     1       9.240  63.640 -33.175  1.00  0.00    -0.260 OA
HETATM   29  O7  UNL     1       7.167  62.907 -33.832  1.00  0.00    -0.304 OA
HETATM   30  C38 UNL     1       6.246  63.311 -34.834  1.00  0.00     0.192 C 
ENDROOT
BRANCH  15  31
HETATM   31  C18 UNL     1      -1.596  71.314 -36.996  1.00  0.00    -0.011 C 
HETATM   32  C19 UNL     1      -2.952  71.522 -37.697  1.00  0.00     0.011 C 
BRANCH  31  33
HETATM   33  C20 UNL     1      -1.741  71.260 -35.449  1.00  0.00    -0.010 C 
HETATM   34  C21 UNL     1      -0.436  71.470 -34.669  1.00  0.00     0.005 C 
HETATM   35  C22 UNL     1      -0.918  71.839 -33.274  1.00  0.00     0.000 C 
HETATM   36  C23 UNL     1      -2.092  72.765 -33.542  1.00  0.00     0.000 C 
HETATM   37  C24 UNL     1      -2.740  72.256 -34.833  1.00  0.00     0.005 C 
ENDBRANCH  31  33
ENDBRANCH  15  31
BRANCH  23  38
HETATM   38  O5  UNL     1       1.792  70.937 -39.575  1.00  0.00    -0.388 OA
HETATM   39  H52 UNL     1       1.289  71.055 -40.412  1.00  0.00     0.210 HD
ENDBRANCH  23  38
BRANCH  11  40
HETATM   40  O2  UNL     1       5.377  69.778 -37.488  1.00  0.00    -0.386 OA
HETATM   41  H20 UNL     1       5.827  69.760 -36.617  1.00  0.00     0.210 HD
ENDBRANCH  11  40
BRANCH  22  42
HETATM   42  C32 UNL     1       4.354  70.481 -39.943  1.00  0.00     0.244 C 
HETATM   43  O4  UNL     1       5.414  70.569 -40.562  1.00  0.00    -0.306 OA
ENDBRANCH  22  42
BRANCH  19  44
HETATM   44  O3  UNL     1       0.405  70.353 -41.841  1.00  0.00    -0.395 OA
HETATM   45  H46 UNL     1       0.342  70.524 -42.800  1.00  0.00     0.210 HD
ENDBRANCH  19  44
BRANCH   5  46
HETATM   46  O1  UNL     1       5.294  68.459 -35.247  1.00  0.00    -0.386 OA
HETATM   47  H11 UNL     1       4.552  68.939 -34.850  1.00  0.00     0.210 HD
ENDBRANCH   5  46
BRANCH   1  48
HETATM   48  C2  UNL     1       4.339  62.129 -33.624  1.00  0.00     0.306 C 
BRANCH  48  49
HETATM   49  N1  UNL     1       3.322  62.373 -32.598  1.00  0.00     0.083 N 
HETATM   50  C1  UNL     1       3.746  63.426 -31.683  1.00  0.00     0.307 C 
HETATM   51  H4  UNL     1       3.190  61.516 -32.068  1.00  0.00     0.315 HD
ENDBRANCH  48  49
ENDBRANCH   1  48
TORSDOF 9
ENDMDL
MODEL 2
REMARK minimizedAffinity -7.3208642
REMARK CNNscore 0.60060966
REMARK CNNaffinity 7.01862955
REMARK  9 active torsions:
REMARK  status: ('A' for Active; 'I' for Inactive)
REMARK    1  A    between atoms: N1_2  and  C2_3 
REMARK    2  A    between atoms: C2_3  and  C3_4 
REMARK    3  A    between atoms: C7_8  and  O1_9 
REMARK    4  A    between atoms: C13_15  and  O2_16 
REMARK    5  A    between atoms: C17_20  and  C18_21 
REMARK    6  A    between atoms: C18_21  and  C20_23 
REMARK    7  A    between atoms: C28_31  and  O3_32 
REMARK    8  A    between atoms: C31_35  and  C32_36 
REMARK    9  A    between atoms: C33_38  and  O5_39 
ROOT
HETATM    1  C3  UNL     1      -0.610  37.481 -30.836  1.00  0.00    -0.022 C 
HETATM    2  C4  UNL     1      -0.994  38.751 -31.119  1.00  0.00    -0.014 C 
HETATM    3  C5  UNL     1      -1.816  39.054 -32.347  1.00  0.00     0.021 C 
HETATM    4  C6  UNL     1      -2.785  40.235 -32.342  1.00  0.00     0.051 C 
HETATM    5  C7  UNL     1      -3.475  40.042 -33.711  1.00  0.00     0.098 C 
HETATM    6  C8  UNL     1      -3.775  38.485 -33.757  1.00  0.00    -0.002 C 
HETATM    7  C9  UNL     1      -3.670  37.892 -35.171  1.00  0.00     0.019 C 
HETATM    8  C10 UNL     1      -5.199  38.154 -33.209  1.00  0.00     0.013 C 
HETATM    9  C11 UNL     1      -6.310  39.089 -33.678  1.00  0.00     0.010 C 
HETATM   10  C12 UNL     1      -5.968  40.535 -33.270  1.00  0.00     0.041 C 
HETATM   11  C13 UNL     1      -4.693  40.976 -34.014  1.00  0.00     0.095 C 
HETATM   12  C14 UNL     1      -4.403  42.476 -33.816  1.00  0.00     0.049 C 
HETATM   13  C15 UNL     1      -5.154  43.158 -32.646  1.00  0.00     0.025 C 
HETATM   14  C16 UNL     1      -4.681  44.644 -32.654  1.00  0.00     0.012 C 
HETATM   15  C17 UNL     1      -5.057  45.631 -31.520  1.00  0.00    -0.010 C 
HETATM   16  C25 UNL     1      -6.506  45.495 -31.017  1.00  0.00     0.005 C 
HETATM   17  C26 UNL     1      -6.813  44.139 -30.400  1.00  0.00     0.010 C 
HETATM   18  C27 UNL     1      -7.353  43.051 -31.339  1.00  0.00     0.050 C 
HETATM   19  C28 UNL     1      -8.897  43.104 -31.444  1.00  0.00     0.125 C 
HETATM   20  C29 UNL     1      -9.448  42.061 -32.412  1.00  0.00     0.033 C 
HETATM   21  C30 UNL     1      -8.422  40.985 -32.732  1.00  0.00     0.023 C 
HETATM   22  C31 UNL     1      -7.137  41.564 -33.420  1.00  0.00     0.051 C 
HETATM   23  C33 UNL     1      -6.707  42.959 -32.757  1.00  0.00     0.082 C 
HETATM   24  C34 UNL     1      -2.734  37.872 -32.742  1.00  0.00     0.036 C 
HETATM   25  C35 UNL     1      -1.803  36.718 -32.921  1.00  0.00    -0.035 C 
HETATM   26  C36 UNL     1      -1.328  36.052 -33.967  1.00  0.00     0.088 C 
HETATM   27  C37 UNL     1      -0.222  35.235 -33.461  1.00  0.00     0.284 C 
HETATM   28  O6  UNL     1       0.456  34.491 -34.144  1.00  0.00    -0.260 OA
HETATM   29  O7  UNL     1      -0.042  35.473 -32.132  1.00  0.00    -0.304 OA
HETATM   30  C38 UNL     1      -1.101  36.299 -31.668  1.00  0.00     0.192 C 
ENDROOT
BRANCH  15  31
HETATM   31  C18 UNL     1      -4.728  47.114 -31.978  1.00  0.00    -0.011 C 
HETATM   32  C19 UNL     1      -4.154  47.180 -33.406  1.00  0.00     0.011 C 
BRANCH  31  33
HETATM   33  C20 UNL     1      -5.937  48.072 -31.791  1.00  0.00    -0.010 C 
HETATM   34  C21 UNL     1      -7.186  47.705 -32.602  1.00  0.00     0.005 C 
HETATM   35  C22 UNL     1      -8.299  48.467 -31.897  1.00  0.00     0.000 C 
HETATM   36  C23 UNL     1      -7.965  48.292 -30.425  1.00  0.00     0.000 C 
HETATM   37  C24 UNL     1      -6.436  48.248 -30.345  1.00  0.00     0.005 C 
ENDBRANCH  31  33
ENDBRANCH  15  31
BRANCH  23  38
HETATM   38  O5  UNL     1      -7.198  44.019 -33.590  1.00  0.00    -0.388 OA
HETATM   39  H52 UNL     1      -8.040  44.367 -33.220  1.00  0.00     0.210 HD
ENDBRANCH  23  38
BRANCH  11  40
HETATM   40  O2  UNL     1      -4.938  40.850 -35.434  1.00  0.00    -0.386 OA
HETATM   41  H20 UNL     1      -4.082  40.612 -35.846  1.00  0.00     0.210 HD
ENDBRANCH  11  40
BRANCH  22  42
HETATM   42  C32 UNL     1      -7.479  41.766 -34.911  1.00  0.00     0.244 C 
HETATM   43  O4  UNL     1      -8.131  40.968 -35.587  1.00  0.00    -0.306 OA
ENDBRANCH  22  42
BRANCH  19  44
HETATM   44  O3  UNL     1      -9.306  44.388 -31.911  1.00  0.00    -0.395 OA
HETATM   45  H46 UNL     1     -10.280  44.426 -31.856  1.00  0.00     0.210 HD
ENDBRANCH  19  44
BRANCH   5  46
HETATM   46  O1  UNL     1      -2.486  40.328 -34.738  1.00  0.00    -0.386 OA
HETATM   47  H11 UNL     1      -2.186  41.245 -34.651  1.00  0.00     0.210 HD
ENDBRANCH   5  46
BRANCH   1  48
HETATM   48  C2  UNL     1       0.319  37.097 -29.707  1.00  0.00     0.306 C 
BRANCH  48  49
HETATM   49  N1  UNL     1       1.697  36.846 -30.138  1.00  0.00     0.083 N 
HETATM   50  C1  UNL     1       2.645  37.217 -29.094  1.00  0.00     0.307 C 
HETATM   51  H4  UNL     1       1.882  37.412 -30.961  1.00  0.00     0.315 HD
ENDBRANCH  48  49
ENDBRANCH   1  48
TORSDOF 9
ENDMDL
MODEL 3
REMARK minimizedAffinity -9.12346172
REMARK CNNscore 0.591759026
REMARK CNNaffinity 6.7026062
REMARK  9 active torsions:
REMARK  status: ('A' for Active; 'I' for Inactive)
REMARK    1  A    between atoms: N1_2  and  C2_3 
REMARK    2  A    between atoms: C2_3  and  C3_4 
REMARK    3  A    between atoms: C7_8  and  O1_9 
REMARK    4  A    between atoms: C13_15  and  O2_16 
REMARK    5  A    between atoms: C17_20  and  C18_21 
REMARK    6  A    between atoms: C18_21  and  C20_23 
REMARK    7  A    between atoms: C28_31  and  O3_32 
REMARK    8  A    between atoms: C31_35  and  C32_36 
REMARK    9  A    between atoms: C33_38  and  O5_39 
ROOT
HETATM    1  C3  UNL     1      -7.244  43.318 -32.774  1.00  0.00    -0.022 C 
HETATM    2  C4  UNL     1      -6.980  44.164 -31.747  1.00  0.00    -0.014 C 
HETATM    3  C5  UNL     1      -7.971  45.231 -31.352  1.00  0.00     0.021 C 
HETATM    4  C6  UNL     1      -8.042  45.702 -29.900  1.00  0.00     0.051 C 
HETATM    5  C7  UNL     1      -9.264  46.646 -29.968  1.00  0.00     0.098 C 
HETATM    6  C8  UNL     1     -10.319  45.824 -30.821  1.00  0.00    -0.002 C 
HETATM    7  C9  UNL     1     -11.201  46.714 -31.711  1.00  0.00     0.019 C 
HETATM    8  C10 UNL     1     -11.266  44.980 -29.910  1.00  0.00     0.013 C 
HETATM    9  C11 UNL     1     -11.785  45.698 -28.668  1.00  0.00     0.010 C 
HETATM   10  C12 UNL     1     -10.593  46.165 -27.811  1.00  0.00     0.041 C 
HETATM   11  C13 UNL     1      -9.785  47.209 -28.605  1.00  0.00     0.095 C 
HETATM   12  C14 UNL     1      -8.697  47.873 -27.738  1.00  0.00     0.049 C 
HETATM   13  C15 UNL     1      -8.344  47.138 -26.422  1.00  0.00     0.025 C 
HETATM   14  C16 UNL     1      -7.226  47.994 -25.751  1.00  0.00     0.012 C 
HETATM   15  C17 UNL     1      -6.459  47.504 -24.496  1.00  0.00    -0.010 C 
HETATM   16  C25 UNL     1      -7.341  46.796 -23.452  1.00  0.00     0.005 C 
HETATM   17  C26 UNL     1      -7.994  45.522 -23.967  1.00  0.00     0.010 C 
HETATM   18  C27 UNL     1      -9.382  45.659 -24.608  1.00  0.00     0.050 C 
HETATM   19  C28 UNL     1     -10.511  45.545 -23.554  1.00  0.00     0.125 C 
HETATM   20  C29 UNL     1     -11.897  45.729 -24.166  1.00  0.00     0.033 C 
HETATM   21  C30 UNL     1     -11.872  45.585 -25.680  1.00  0.00     0.023 C 
HETATM   22  C31 UNL     1     -10.959  46.657 -26.372  1.00  0.00     0.051 C 
HETATM   23  C33 UNL     1      -9.614  46.896 -25.532  1.00  0.00     0.082 C 
HETATM   24  C34 UNL     1      -9.431  44.806 -31.636  1.00  0.00     0.036 C 
HETATM   25  C35 UNL     1      -9.452  44.489 -33.096  1.00  0.00    -0.035 C 
HETATM   26  C36 UNL     1      -9.938  45.088 -34.177  1.00  0.00     0.088 C 
HETATM   27  C37 UNL     1      -9.344  44.399 -35.325  1.00  0.00     0.284 C 
HETATM   28  O6  UNL     1      -9.560  44.683 -36.488  1.00  0.00    -0.260 OA
HETATM   29  O7  UNL     1      -8.483  43.436 -34.892  1.00  0.00    -0.304 OA
HETATM   30  C38 UNL     1      -8.597  43.323 -33.481  1.00  0.00     0.192 C 
ENDROOT
BRANCH  15  31
HETATM   31  C18 UNL     1      -5.652  48.715 -23.864  1.00  0.00    -0.011 C 
HETATM   32  C19 UNL     1      -5.035  48.367 -22.497  1.00  0.00     0.011 C 
BRANCH  31  33
HETATM   33  C20 UNL     1      -4.600  49.302 -24.847  1.00  0.00    -0.010 C 
HETATM   34  C21 UNL     1      -3.268  49.709 -24.203  1.00  0.00     0.005 C 
HETATM   35  C22 UNL     1      -2.314  49.780 -25.386  1.00  0.00     0.000 C 
HETATM   36  C23 UNL     1      -2.702  48.571 -26.222  1.00  0.00     0.000 C 
HETATM   37  C24 UNL     1      -4.211  48.398 -26.032  1.00  0.00     0.005 C 
ENDBRANCH  31  33
ENDBRANCH  15  31
BRANCH  23  38
HETATM   38  O5  UNL     1      -9.788  48.077 -24.736  1.00  0.00    -0.388 OA
HETATM   39  H52 UNL     1     -10.041  47.824 -23.821  1.00  0.00     0.210 HD
ENDBRANCH  23  38
BRANCH  11  40
HETATM   40  O2  UNL     1     -10.675  48.297 -28.946  1.00  0.00    -0.386 OA
HETATM   41  H20 UNL     1     -10.373  48.645 -29.811  1.00  0.00     0.210 HD
ENDBRANCH  11  40
BRANCH  22  42
HETATM   42  C32 UNL     1     -11.778  47.962 -26.448  1.00  0.00     0.244 C 
HETATM   43  O4  UNL     1     -12.955  48.021 -26.805  1.00  0.00    -0.306 OA
ENDBRANCH  22  42
BRANCH  19  44
HETATM   44  O3  UNL     1     -10.342  46.550 -22.555  1.00  0.00    -0.395 OA
HETATM   45  H46 UNL     1     -10.995  46.379 -21.851  1.00  0.00     0.210 HD
ENDBRANCH  19  44
BRANCH   5  46
HETATM   46  O1  UNL     1      -8.872  47.804 -30.756  1.00  0.00    -0.386 OA
HETATM   47  H11 UNL     1      -8.134  48.257 -30.320  1.00  0.00     0.210 HD
ENDBRANCH   5  46
BRANCH   1  48
HETATM   48  C2  UNL     1      -6.264  42.308 -33.327  1.00  0.00     0.306 C 
BRANCH  48  49
HETATM   49  N1  UNL     1      -5.147  42.017 -32.424  1.00  0.00     0.083 N 
HETATM   50  C1  UNL     1      -3.873  42.094 -33.129  1.00  0.00     0.307 C 
HETATM   51  H4  UNL     1      -5.263  41.073 -32.066  1.00  0.00     0.315 HD
ENDBRANCH  48  49
ENDBRANCH   1  48
TORSDOF 9
ENDMDL
MODEL 4
REMARK minimizedAffinity -7.84316301
REMARK CNNscore 0.545342445
REMARK CNNaffinity 6.22074938
REMARK  9 active torsions:
REMARK  status: ('A' for Active; 'I' for Inactive)
REMARK    1  A    between atoms: N1_2  and  C2_3 
REMARK    2  A    between atoms: C2_3  and  C3_4 
REMARK    3  A    between atoms: C7_8  and  O1_9 
REMARK    4  A    between atoms: C13_15  and  O2_16 
REMARK    5  A    between atoms: C17_20  and  C18_21 
REMARK    6  A    between atoms: C18_21  and  C20_23 
REMARK    7  A    between atoms: C28_31  and  O3_32 
REMARK    8  A    between atoms: C31_35  and  C32_36 
REMARK    9  A    between atoms: C33_38  and  O5_39 
ROOT
HETATM    1  C3  UNL     1     -15.107  46.138 -25.625  1.00  0.00    -0.022 C 
HETATM    2  C4  UNL     1     -14.123  46.693 -24.874  1.00  0.00    -0.014 C 
HETATM    3  C5  UNL     1     -14.345  47.000 -23.414  1.00  0.00     0.021 C 
HETATM    4  C6  UNL     1     -13.167  46.966 -22.441  1.00  0.00     0.051 C 
HETATM    5  C7  UNL     1     -13.901  47.184 -21.099  1.00  0.00     0.098 C 
HETATM    6  C8  UNL     1     -15.157  46.222 -21.204  1.00  0.00    -0.002 C 
HETATM    7  C9  UNL     1     -16.406  46.780 -20.504  1.00  0.00     0.019 C 
HETATM    8  C10 UNL     1     -14.860  44.816 -20.592  1.00  0.00     0.013 C 
HETATM    9  C11 UNL     1     -14.105  44.830 -19.266  1.00  0.00     0.010 C 
HETATM   10  C12 UNL     1     -12.761  45.561 -19.451  1.00  0.00     0.041 C 
HETATM   11  C13 UNL     1     -13.039  47.034 -19.802  1.00  0.00     0.095 C 
HETATM   12  C14 UNL     1     -11.748  47.878 -19.801  1.00  0.00     0.049 C 
HETATM   13  C15 UNL     1     -10.423  47.079 -19.851  1.00  0.00     0.025 C 
HETATM   14  C16 UNL     1      -9.289  48.150 -19.855  1.00  0.00     0.012 C 
HETATM   15  C17 UNL     1      -7.804  47.772 -20.088  1.00  0.00    -0.010 C 
HETATM   16  C25 UNL     1      -7.364  46.474 -19.384  1.00  0.00     0.005 C 
HETATM   17  C26 UNL     1      -8.106  45.237 -19.865  1.00  0.00     0.010 C 
HETATM   18  C27 UNL     1      -9.389  44.856 -19.113  1.00  0.00     0.050 C 
HETATM   19  C28 UNL     1      -9.090  43.934 -17.905  1.00  0.00     0.125 C 
HETATM   20  C29 UNL     1     -10.348  43.586 -17.115  1.00  0.00     0.033 C 
HETATM   21  C30 UNL     1     -11.614  43.886 -17.903  1.00  0.00     0.023 C 
HETATM   22  C31 UNL     1     -11.750  45.406 -18.267  1.00  0.00     0.051 C 
HETATM   23  C33 UNL     1     -10.333  46.026 -18.691  1.00  0.00     0.082 C 
HETATM   24  C34 UNL     1     -15.346  46.019 -22.757  1.00  0.00     0.036 C 
HETATM   25  C35 UNL     1     -16.585  46.139 -23.584  1.00  0.00    -0.035 C 
HETATM   26  C36 UNL     1     -17.778  46.697 -23.408  1.00  0.00     0.088 C 
HETATM   27  C37 UNL     1     -18.415  46.719 -24.726  1.00  0.00     0.284 C 
HETATM   28  O6  UNL     1     -19.524  47.165 -24.950  1.00  0.00    -0.260 OA
HETATM   29  O7  UNL     1     -17.562  46.212 -25.660  1.00  0.00    -0.304 OA
HETATM   30  C38 UNL     1     -16.422  45.682 -24.999  1.00  0.00     0.192 C 
ENDROOT
BRANCH  15  31
HETATM   31  C18 UNL     1      -6.878  48.999 -19.696  1.00  0.00    -0.011 C 
HETATM   32  C19 UNL     1      -5.864  48.648 -18.590  1.00  0.00     0.011 C 
BRANCH  31  33
HETATM   33  C20 UNL     1      -6.192  49.641 -20.934  1.00  0.00    -0.010 C 
HETATM   34  C21 UNL     1      -5.169  50.738 -20.611  1.00  0.00     0.005 C 
HETATM   35  C22 UNL     1      -4.347  50.836 -21.888  1.00  0.00     0.000 C 
HETATM   36  C23 UNL     1      -4.172  49.385 -22.305  1.00  0.00     0.000 C 
HETATM   37  C24 UNL     1      -5.454  48.668 -21.872  1.00  0.00     0.005 C 
ENDBRANCH  31  33
ENDBRANCH  15  31
BRANCH  23  38
HETATM   38  O5  UNL     1      -9.788  46.713 -17.556  1.00  0.00    -0.388 OA
HETATM   39  H52 UNL     1      -9.138  46.133 -17.100  1.00  0.00     0.210 HD
ENDBRANCH  23  38
BRANCH  11  40
HETATM   40  O2  UNL     1     -13.832  47.607 -18.737  1.00  0.00    -0.386 OA
HETATM   41  H20 UNL     1     -14.417  48.275 -19.151  1.00  0.00     0.210 HD
ENDBRANCH  11  40
BRANCH  22  42
HETATM   42  C32 UNL     1     -12.289  46.121 -17.010  1.00  0.00     0.244 C 
HETATM   43  O4  UNL     1     -11.770  46.050 -15.896  1.00  0.00    -0.306 OA
ENDBRANCH  22  42
BRANCH  19  44
HETATM   44  O3  UNL     1      -8.185  44.583 -17.014  1.00  0.00    -0.395 OA
HETATM   45  H46 UNL     1      -7.928  43.936 -16.330  1.00  0.00     0.210 HD
ENDBRANCH  19  44
BRANCH   5  46
HETATM   46  O1  UNL     1     -14.397  48.551 -21.095  1.00  0.00    -0.386 OA
HETATM   47  H11 UNL     1     -13.651  49.166 -21.161  1.00  0.00     0.210 HD
ENDBRANCH   5  46
BRANCH   1  48
HETATM   48  C2  UNL     1     -15.025  45.916 -27.118  1.00  0.00     0.306 C 
BRANCH  48  49
HETATM   49  N1  UNL     1     -16.010  44.957 -27.625  1.00  0.00     0.083 N 
HETATM   50  C1  UNL     1     -15.352  43.787 -28.195  1.00  0.00     0.307 C 
HETATM   51  H4  UNL     1     -16.553  45.411 -28.354  1.00  0.00     0.315 HD
ENDBRANCH  48  49
ENDBRANCH   1  48
TORSDOF 9
ENDMDL
MODEL 5
REMARK minimizedAffinity -8.38616943
REMARK CNNscore 0.458788872
REMARK CNNaffinity 6.93592405
REMARK  9 active torsions:
REMARK  status: ('A' for Active; 'I' for Inactive)
REMARK    1  A    between atoms: N1_2  and  C2_3 
REMARK    2  A    between atoms: C2_3  and  C3_4 
REMARK    3  A    between atoms: C7_8  and  O1_9 
REMARK    4  A    between atoms: C13_15  and  O2_16 
REMARK    5  A    between atoms: C17_20  and  C18_21 
REMARK    6  A    between atoms: C18_21  and  C20_23 
REMARK    7  A    between atoms: C28_31  and  O3_32 
REMARK    8  A    between atoms: C31_35  and  C32_36 
REMARK    9  A    between atoms: C33_38  and  O5_39 
ROOT
HETATM    1  C3  UNL     1      -0.032  51.319 -20.363  1.00  0.00    -0.022 C 
HETATM    2  C4  UNL     1      -0.101  51.872 -19.126  1.00  0.00    -0.014 C 
HETATM    3  C5  UNL     1      -1.040  51.319 -18.084  1.00  0.00     0.021 C 
HETATM    4  C6  UNL     1      -0.684  51.433 -16.602  1.00  0.00     0.051 C 
HETATM    5  C7  UNL     1      -1.832  50.614 -15.971  1.00  0.00     0.098 C 
HETATM    6  C8  UNL     1      -1.923  49.329 -16.896  1.00  0.00    -0.002 C 
HETATM    7  C9  UNL     1      -3.356  48.800 -17.057  1.00  0.00     0.019 C 
HETATM    8  C10 UNL     1      -1.045  48.159 -16.347  1.00  0.00     0.013 C 
HETATM    9  C11 UNL     1      -1.127  47.937 -14.840  1.00  0.00     0.010 C 
HETATM   10  C12 UNL     1      -0.710  49.227 -14.109  1.00  0.00     0.041 C 
HETATM   11  C13 UNL     1      -1.727  50.337 -14.434  1.00  0.00     0.095 C 
HETATM   12  C14 UNL     1      -1.493  51.598 -13.580  1.00  0.00     0.049 C 
HETATM   13  C15 UNL     1      -0.116  51.690 -12.879  1.00  0.00     0.025 C 
HETATM   14  C16 UNL     1      -0.130  53.044 -12.104  1.00  0.00     0.012 C 
HETATM   15  C17 UNL     1       1.139  53.609 -11.416  1.00  0.00    -0.010 C 
HETATM   16  C25 UNL     1       1.995  52.548 -10.699  1.00  0.00     0.005 C 
HETATM   17  C26 UNL     1       2.561  51.488 -11.631  1.00  0.00     0.010 C 
HETATM   18  C27 UNL     1       1.714  50.226 -11.848  1.00  0.00     0.050 C 
HETATM   19  C28 UNL     1       2.026  49.141 -10.788  1.00  0.00     0.125 C 
HETATM   20  C29 UNL     1       1.157  47.897 -10.958  1.00  0.00     0.033 C 
HETATM   21  C30 UNL     1       0.492  47.852 -12.326  1.00  0.00     0.023 C 
HETATM   22  C31 UNL     1      -0.463  49.072 -12.571  1.00  0.00     0.051 C 
HETATM   23  C33 UNL     1       0.172  50.426 -11.994  1.00  0.00     0.082 C 
HETATM   24  C34 UNL     1      -1.271  49.798 -18.254  1.00  0.00     0.036 C 
HETATM   25  C35 UNL     1      -1.781  49.651 -19.650  1.00  0.00    -0.035 C 
HETATM   26  C36 UNL     1      -2.966  49.389 -20.191  1.00  0.00     0.088 C 
HETATM   27  C37 UNL     1      -2.838  49.693 -21.618  1.00  0.00     0.284 C 
HETATM   28  O6  UNL     1      -3.733  49.575 -22.433  1.00  0.00    -0.260 OA
HETATM   29  O7  UNL     1      -1.589  50.172 -21.878  1.00  0.00    -0.304 OA
HETATM   30  C38 UNL     1      -0.797  50.043 -20.706  1.00  0.00     0.192 C 
ENDROOT
BRANCH  15  31
HETATM   31  C18 UNL     1       0.729  54.793 -10.443  1.00  0.00    -0.011 C 
HETATM   32  C19 UNL     1      -0.608  54.535  -9.724  1.00  0.00     0.011 C 
BRANCH  31  33
HETATM   33  C20 UNL     1       1.866  55.161  -9.449  1.00  0.00    -0.010 C 
HETATM   34  C21 UNL     1       2.969  56.057 -10.028  1.00  0.00     0.005 C 
HETATM   35  C22 UNL     1       3.642  56.628  -8.789  1.00  0.00     0.000 C 
HETATM   36  C23 UNL     1       2.476  56.934  -7.865  1.00  0.00     0.000 C 
HETATM   37  C24 UNL     1       1.423  55.860  -8.151  1.00  0.00     0.005 C 
ENDBRANCH  31  33
ENDBRANCH  15  31
BRANCH  23  38
HETATM   38  O5  UNL     1      -0.413  50.683 -10.710  1.00  0.00    -0.388 OA
HETATM   39  H52 UNL     1       0.193  50.368 -10.002  1.00  0.00     0.210 HD
ENDBRANCH  23  38
BRANCH  11  40
HETATM   40  O2  UNL     1      -3.037  49.876 -14.029  1.00  0.00    -0.386 OA
HETATM   41  H20 UNL     1      -3.679  50.269 -14.657  1.00  0.00     0.210 HD
ENDBRANCH  11  40
BRANCH  22  42
HETATM   42  C32 UNL     1      -1.789  48.755 -11.849  1.00  0.00     0.244 C 
HETATM   43  O4  UNL     1      -1.867  48.169 -10.769  1.00  0.00    -0.306 OA
ENDBRANCH  22  42
BRANCH  19  44
HETATM   44  O3  UNL     1       1.787  49.660  -9.481  1.00  0.00    -0.395 OA
HETATM   45  H46 UNL     1       2.101  48.996  -8.838  1.00  0.00     0.210 HD
ENDBRANCH  19  44
BRANCH   5  46
HETATM   46  O1  UNL     1      -3.058  51.374 -16.157  1.00  0.00    -0.386 OA
HETATM   47  H11 UNL     1      -2.981  52.228 -15.706  1.00  0.00     0.210 HD
ENDBRANCH   5  46
BRANCH   1  48
HETATM   48  C2  UNL     1       0.776  51.881 -21.510  1.00  0.00     0.306 C 
BRANCH  48  49
HETATM   49  N1  UNL     1       1.744  52.903 -21.104  1.00  0.00     0.083 N 
HETATM   50  C1  UNL     1       1.421  54.194 -21.700  1.00  0.00     0.307 C 
HETATM   51  H4  UNL     1       2.665  52.618 -21.426  1.00  0.00     0.315 HD
ENDBRANCH  48  49
ENDBRANCH   1  48
TORSDOF 9
ENDMDL
MODEL 6
REMARK minimizedAffinity -8.1870203
REMARK CNNscore 0.419101715
REMARK CNNaffinity 6.37613297
REMARK  9 active torsions:
REMARK  status: ('A' for Active; 'I' for Inactive)
REMARK    1  A    between atoms: N1_2  and  C2_3 
REMARK    2  A    between atoms: C2_3  and  C3_4 
REMARK    3  A    between atoms: C7_8  and  O1_9 
REMARK    4  A    between atoms: C13_15  and  O2_16 
REMARK    5  A    between atoms: C17_20  and  C18_21 
REMARK    6  A    between atoms: C18_21  and  C20_23 
REMARK    7  A    between atoms: C28_31  and  O3_32 
REMARK    8  A    between atoms: C31_35  and  C32_36 
REMARK    9  A    between atoms: C33_38  and  O5_39 
ROOT
HETATM    1  C3  UNL     1      -4.432  46.282 -20.426  1.00  0.00    -0.022 C 
HETATM    2  C4  UNL     1      -5.625  46.054 -21.030  1.00  0.00    -0.014 C 
HETATM    3  C5  UNL     1      -6.208  47.059 -21.992  1.00  0.00     0.021 C 
HETATM    4  C6  UNL     1      -7.109  46.586 -23.132  1.00  0.00     0.051 C 
HETATM    5  C7  UNL     1      -7.315  47.912 -23.898  1.00  0.00     0.098 C 
HETATM    6  C8  UNL     1      -5.860  48.540 -23.950  1.00  0.00    -0.002 C 
HETATM    7  C9  UNL     1      -5.862  50.075 -23.875  1.00  0.00     0.019 C 
HETATM    8  C10 UNL     1      -5.099  48.131 -25.251  1.00  0.00     0.013 C 
HETATM    9  C11 UNL     1      -5.925  48.188 -26.532  1.00  0.00     0.010 C 
HETATM   10  C12 UNL     1      -7.153  47.268 -26.391  1.00  0.00     0.041 C 
HETATM   11  C13 UNL     1      -8.060  47.814 -25.271  1.00  0.00     0.095 C 
HETATM   12  C14 UNL     1      -9.406  47.066 -25.207  1.00  0.00     0.049 C 
HETATM   13  C15 UNL     1      -9.459  45.711 -25.953  1.00  0.00     0.025 C 
HETATM   14  C16 UNL     1     -10.902  45.163 -25.725  1.00  0.00     0.012 C 
HETATM   15  C17 UNL     1     -11.313  43.731 -26.153  1.00  0.00    -0.010 C 
HETATM   16  C25 UNL     1     -10.742  43.289 -27.513  1.00  0.00     0.005 C 
HETATM   17  C26 UNL     1      -9.222  43.227 -27.547  1.00  0.00     0.010 C 
HETATM   18  C27 UNL     1      -8.482  44.498 -27.986  1.00  0.00     0.050 C 
HETATM   19  C28 UNL     1      -8.291  44.545 -29.522  1.00  0.00     0.125 C 
HETATM   20  C29 UNL     1      -7.601  45.826 -29.982  1.00  0.00     0.033 C 
HETATM   21  C30 UNL     1      -6.923  46.551 -28.830  1.00  0.00     0.023 C 
HETATM   22  C31 UNL     1      -7.936  46.993 -27.717  1.00  0.00     0.051 C 
HETATM   23  C33 UNL     1      -9.040  45.858 -27.459  1.00  0.00     0.082 C 
HETATM   24  C34 UNL     1      -5.112  47.854 -22.741  1.00  0.00     0.036 C 
HETATM   25  C35 UNL     1      -4.294  48.477 -21.657  1.00  0.00    -0.035 C 
HETATM   26  C36 UNL     1      -4.160  49.707 -21.174  1.00  0.00     0.088 C 
HETATM   27  C37 UNL     1      -3.427  49.572 -19.914  1.00  0.00     0.284 C 
HETATM   28  O6  UNL     1      -3.124  50.499 -19.188  1.00  0.00    -0.260 OA
HETATM   29  O7  UNL     1      -3.184  48.255 -19.660  1.00  0.00    -0.304 OA
HETATM   30  C38 UNL     1      -3.574  47.491 -20.792  1.00  0.00     0.192 C 
ENDROOT
BRANCH  15  31
HETATM   31  C18 UNL     1     -12.894  43.599 -26.105  1.00  0.00    -0.011 C 
HETATM   32  C19 UNL     1     -13.433  43.449 -24.670  1.00  0.00     0.011 C 
BRANCH  31  33
HETATM   33  C20 UNL     1     -13.606  44.742 -26.880  1.00  0.00    -0.010 C 
HETATM   34  C21 UNL     1     -13.158  46.160 -26.499  1.00  0.00     0.005 C 
HETATM   35  C22 UNL     1     -13.622  47.002 -27.678  1.00  0.00     0.000 C 
HETATM   36  C23 UNL     1     -13.298  46.131 -28.880  1.00  0.00     0.000 C 
HETATM   37  C24 UNL     1     -13.492  44.686 -28.414  1.00  0.00     0.005 C 
ENDBRANCH  31  33
ENDBRANCH  15  31
BRANCH  23  38
HETATM   38  O5  UNL     1     -10.226  46.216 -28.182  1.00  0.00    -0.388 OA
HETATM   39  H52 UNL     1     -10.254  45.725 -29.033  1.00  0.00     0.210 HD
ENDBRANCH  23  38
BRANCH  11  40
HETATM   40  O2  UNL     1      -8.427  49.170 -25.615  1.00  0.00    -0.386 OA
HETATM   41  H20 UNL     1      -8.517  49.659 -24.770  1.00  0.00     0.210 HD
ENDBRANCH  11  40
BRANCH  22  42
HETATM   42  C32 UNL     1      -8.611  48.288 -28.214  1.00  0.00     0.244 C 
HETATM   43  O4  UNL     1      -8.316  48.865 -29.262  1.00  0.00    -0.306 OA
ENDBRANCH  22  42
BRANCH  19  44
HETATM   44  O3  UNL     1      -9.561  44.481 -30.169  1.00  0.00    -0.395 OA
HETATM   45  H46 UNL     1      -9.400  44.396 -31.127  1.00  0.00     0.210 HD
ENDBRANCH  19  44
BRANCH   5  46
HETATM   46  O1  UNL     1      -8.134  48.773 -23.060  1.00  0.00    -0.386 OA
HETATM   47  H11 UNL     1      -8.992  48.350 -22.903  1.00  0.00     0.210 HD
ENDBRANCH   5  46
BRANCH   1  48
HETATM   48  C2  UNL     1      -3.831  45.403 -19.353  1.00  0.00     0.306 C 
BRANCH  48  49
HETATM   49  N1  UNL     1      -3.791  43.982 -19.711  1.00  0.00     0.083 N 
HETATM   50  C1  UNL     1      -4.077  43.144 -18.553  1.00  0.00     0.307 C 
HETATM   51  H4  UNL     1      -2.857  43.764 -20.047  1.00  0.00     0.315 HD
ENDBRANCH  48  49
ENDBRANCH   1  48
TORSDOF 9
ENDMDL
MODEL 7
REMARK minimizedAffinity -9.26062298
REMARK CNNscore 0.405454963
REMARK CNNaffinity 6.52015877
REMARK  9 active torsions:
REMARK  status: ('A' for Active; 'I' for Inactive)
REMARK    1  A    between atoms: N1_2  and  C2_3 
REMARK    2  A    between atoms: C2_3  and  C3_4 
REMARK    3  A    between atoms: C7_8  and  O1_9 
REMARK    4  A    between atoms: C13_15  and  O2_16 
REMARK    5  A    between atoms: C17_20  and  C18_21 
REMARK    6  A    between atoms: C18_21  and  C20_23 
REMARK    7  A    between atoms: C28_31  and  O3_32 
REMARK    8  A    between atoms: C31_35  and  C32_36 
REMARK    9  A    between atoms: C33_38  and  O5_39 
ROOT
HETATM    1  C3  UNL     1      -4.720  48.367 -24.709  1.00  0.00    -0.022 C 
HETATM    2  C4  UNL     1      -6.075  48.355 -24.783  1.00  0.00    -0.014 C 
HETATM    3  C5  UNL     1      -6.775  48.358 -26.119  1.00  0.00     0.021 C 
HETATM    4  C6  UNL     1      -8.144  47.692 -26.261  1.00  0.00     0.051 C 
HETATM    5  C7  UNL     1      -8.361  47.816 -27.786  1.00  0.00     0.098 C 
HETATM    6  C8  UNL     1      -6.960  47.394 -28.396  1.00  0.00    -0.002 C 
HETATM    7  C9  UNL     1      -6.606  48.157 -29.681  1.00  0.00     0.019 C 
HETATM    8  C10 UNL     1      -6.908  45.867 -28.723  1.00  0.00     0.013 C 
HETATM    9  C11 UNL     1      -8.156  45.304 -29.395  1.00  0.00     0.010 C 
HETATM   10  C12 UNL     1      -9.381  45.556 -28.495  1.00  0.00     0.041 C 
HETATM   11  C13 UNL     1      -9.608  47.074 -28.373  1.00  0.00     0.095 C 
HETATM   12  C14 UNL     1     -10.933  47.401 -27.657  1.00  0.00     0.049 C 
HETATM   13  C15 UNL     1     -11.574  46.237 -26.864  1.00  0.00     0.025 C 
HETATM   14  C16 UNL     1     -12.874  46.825 -26.234  1.00  0.00     0.012 C 
HETATM   15  C17 UNL     1     -13.718  46.032 -25.204  1.00  0.00    -0.010 C 
HETATM   16  C25 UNL     1     -13.866  44.533 -25.527  1.00  0.00     0.005 C 
HETATM   17  C26 UNL     1     -12.546  43.777 -25.535  1.00  0.00     0.010 C 
HETATM   18  C27 UNL     1     -11.802  43.686 -26.874  1.00  0.00     0.050 C 
HETATM   19  C28 UNL     1     -12.256  42.455 -27.697  1.00  0.00     0.125 C 
HETATM   20  C29 UNL     1     -11.562  42.376 -29.053  1.00  0.00     0.033 C 
HETATM   21  C30 UNL     1     -10.333  43.270 -29.116  1.00  0.00     0.023 C 
HETATM   22  C31 UNL     1     -10.680  44.786 -28.905  1.00  0.00     0.051 C 
HETATM   23  C33 UNL     1     -11.791  44.969 -27.764  1.00  0.00     0.082 C 
HETATM   24  C34 UNL     1      -5.945  47.649 -27.215  1.00  0.00     0.036 C 
HETATM   25  C35 UNL     1      -4.641  48.378 -27.228  1.00  0.00    -0.035 C 
HETATM   26  C36 UNL     1      -4.063  49.249 -28.048  1.00  0.00     0.088 C 
HETATM   27  C37 UNL     1      -2.923  49.803 -27.316  1.00  0.00     0.284 C 
HETATM   28  O6  UNL     1      -2.159  50.640 -27.757  1.00  0.00    -0.260 OA
HETATM   29  O7  UNL     1      -2.882  49.278 -26.059  1.00  0.00    -0.304 OA
HETATM   30  C38 UNL     1      -3.855  48.249 -25.961  1.00  0.00     0.192 C 
ENDROOT
BRANCH  15  31
HETATM   31  C18 UNL     1     -15.127  46.738 -25.020  1.00  0.00    -0.011 C 
HETATM   32  C19 UNL     1     -16.290  45.895 -25.576  1.00  0.00     0.011 C 
BRANCH  31  33
HETATM   33  C20 UNL     1     -15.378  47.181 -23.551  1.00  0.00    -0.010 C 
HETATM   34  C21 UNL     1     -16.491  46.415 -22.825  1.00  0.00     0.005 C 
HETATM   35  C22 UNL     1     -16.206  46.692 -21.356  1.00  0.00     0.000 C 
HETATM   36  C23 UNL     1     -14.692  46.594 -21.269  1.00  0.00     0.000 C 
HETATM   37  C24 UNL     1     -14.161  47.107 -22.610  1.00  0.00     0.005 C 
ENDBRANCH  31  33
ENDBRANCH  15  31
BRANCH  23  38
HETATM   38  O5  UNL     1     -13.065  45.134 -28.403  1.00  0.00    -0.388 OA
HETATM   39  H52 UNL     1     -13.544  44.276 -28.410  1.00  0.00     0.210 HD
ENDBRANCH  23  38
BRANCH  11  40
HETATM   40  O2  UNL     1      -9.788  47.607 -29.706  1.00  0.00    -0.386 OA
HETATM   41  H20 UNL     1      -9.416  48.514 -29.698  1.00  0.00     0.210 HD
ENDBRANCH  11  40
BRANCH  22  42
HETATM   42  C32 UNL     1     -11.208  45.316 -30.254  1.00  0.00     0.244 C 
HETATM   43  O4  UNL     1     -10.752  44.995 -31.352  1.00  0.00    -0.306 OA
ENDBRANCH  22  42
BRANCH  19  44
HETATM   44  O3  UNL     1     -13.661  42.522 -27.932  1.00  0.00    -0.395 OA
HETATM   45  H46 UNL     1     -13.932  41.682 -28.348  1.00  0.00     0.210 HD
ENDBRANCH  19  44
BRANCH   5  46
HETATM   46  O1  UNL     1      -8.560  49.226 -28.081  1.00  0.00    -0.386 OA
HETATM   47  H11 UNL     1      -9.345  49.548 -27.612  1.00  0.00     0.210 HD
ENDBRANCH   5  46
BRANCH   1  48
HETATM   48  C2  UNL     1      -3.932  48.497 -23.426  1.00  0.00     0.306 C 
BRANCH  48  49
HETATM   49  N1  UNL     1      -3.197  49.760 -23.312  1.00  0.00     0.083 N 
HETATM   50  C1  UNL     1      -4.097  50.859 -22.981  1.00  0.00     0.307 C 
HETATM   51  H4  UNL     1      -2.759  49.957 -24.208  1.00  0.00     0.315 HD
ENDBRANCH  48  49
ENDBRANCH   1  48
TORSDOF 9
ENDMDL
MODEL 8
REMARK minimizedAffinity -9.09852123
REMARK CNNscore 0.38318345
REMARK CNNaffinity 6.1308651
REMARK  9 active torsions:
REMARK  status: ('A' for Active; 'I' for Inactive)
REMARK    1  A    between atoms: N1_2  and  C2_3 
REMARK    2  A    between atoms: C2_3  and  C3_4 
REMARK    3  A    between atoms: C7_8  and  O1_9 
REMARK    4  A    between atoms: C13_15  and  O2_16 
REMARK    5  A    between atoms: C17_20  and  C18_21 
REMARK    6  A    between atoms: C18_21  and  C20_23 
REMARK    7  A    between atoms: C28_31  and  O3_32 
REMARK    8  A    between atoms: C31_35  and  C32_36 
REMARK    9  A    between atoms: C33_38  and  O5_39 
ROOT
HETATM    1  C3  UNL     1      -1.471  72.378 -33.632  1.00  0.00    -0.022 C 
HETATM    2  C4  UNL     1      -0.734  71.260 -33.848  1.00  0.00    -0.014 C 
HETATM    3  C5  UNL     1      -0.825  70.516 -35.157  1.00  0.00     0.021 C 
HETATM    4  C6  UNL     1       0.385  69.742 -35.678  1.00  0.00     0.051 C 
HETATM    5  C7  UNL     1      -0.134  69.304 -37.065  1.00  0.00     0.098 C 
HETATM    6  C8  UNL     1      -0.820  70.615 -37.635  1.00  0.00    -0.002 C 
HETATM    7  C9  UNL     1      -2.051  70.324 -38.507  1.00  0.00     0.019 C 
HETATM    8  C10 UNL     1       0.176  71.463 -38.489  1.00  0.00     0.013 C 
HETATM    9  C11 UNL     1       1.052  70.665 -39.450  1.00  0.00     0.010 C 
HETATM   10  C12 UNL     1       1.871  69.630 -38.655  1.00  0.00     0.041 C 
HETATM   11  C13 UNL     1       0.905  68.616 -38.012  1.00  0.00     0.095 C 
HETATM   12  C14 UNL     1       1.657  67.434 -37.371  1.00  0.00     0.049 C 
HETATM   13  C15 UNL     1       3.171  67.650 -37.131  1.00  0.00     0.025 C 
HETATM   14  C16 UNL     1       3.683  66.332 -36.472  1.00  0.00     0.012 C 
HETATM   15  C17 UNL     1       5.118  66.205 -35.899  1.00  0.00    -0.010 C 
HETATM   16  C25 UNL     1       6.205  66.874 -36.760  1.00  0.00     0.005 C 
HETATM   17  C26 UNL     1       6.031  68.378 -36.904  1.00  0.00     0.010 C 
HETATM   18  C27 UNL     1       5.202  68.874 -38.097  1.00  0.00     0.050 C 
HETATM   19  C28 UNL     1       6.081  69.081 -39.355  1.00  0.00     0.125 C 
HETATM   20  C29 UNL     1       5.265  69.527 -40.565  1.00  0.00     0.033 C 
HETATM   21  C30 UNL     1       3.888  70.035 -40.166  1.00  0.00     0.023 C 
HETATM   22  C31 UNL     1       3.024  68.936 -39.454  1.00  0.00     0.051 C 
HETATM   23  C33 UNL     1       3.917  68.062 -38.450  1.00  0.00     0.082 C 
HETATM   24  C34 UNL     1      -1.152  71.457 -36.342  1.00  0.00     0.036 C 
HETATM   25  C35 UNL     1      -2.430  72.123 -35.949  1.00  0.00    -0.035 C 
HETATM   26  C36 UNL     1      -3.698  72.015 -36.328  1.00  0.00     0.088 C 
HETATM   27  C37 UNL     1      -4.486  72.737 -35.327  1.00  0.00     0.284 C 
HETATM   28  O6  UNL     1      -5.697  72.847 -35.348  1.00  0.00    -0.260 OA
HETATM   29  O7  UNL     1      -3.664  73.218 -34.352  1.00  0.00    -0.304 OA
HETATM   30  C38 UNL     1      -2.316  73.000 -34.741  1.00  0.00     0.192 C 
ENDROOT
BRANCH  15  31
HETATM   31  C18 UNL     1       5.442  64.677 -35.620  1.00  0.00    -0.011 C 
HETATM   32  C19 UNL     1       6.735  64.208 -36.315  1.00  0.00     0.011 C 
BRANCH  31  33
HETATM   33  C20 UNL     1       5.440  64.340 -34.103  1.00  0.00    -0.010 C 
HETATM   34  C21 UNL     1       4.685  65.342 -33.218  1.00  0.00     0.005 C 
HETATM   35  C22 UNL     1       4.436  64.559 -31.937  1.00  0.00     0.000 C 
HETATM   36  C23 UNL     1       4.061  63.175 -32.440  1.00  0.00     0.000 C 
HETATM   37  C24 UNL     1       4.870  62.961 -33.722  1.00  0.00     0.005 C 
ENDBRANCH  31  33
ENDBRANCH  15  31
BRANCH  23  38
HETATM   38  O5  UNL     1       4.274  66.842 -39.116  1.00  0.00    -0.388 OA
HETATM   39  H52 UNL     1       5.181  66.923 -39.487  1.00  0.00     0.210 HD
ENDBRANCH  23  38
BRANCH  11  40
HETATM   40  O2  UNL     1       0.128  68.007 -39.069  1.00  0.00    -0.386 OA
HETATM   41  H20 UNL     1      -0.755  67.812 -38.691  1.00  0.00     0.210 HD
ENDBRANCH  11  40
BRANCH  22  42
HETATM   42  C32 UNL     1       2.437  68.039 -40.564  1.00  0.00     0.244 C 
HETATM   43  O4  UNL     1       2.185  66.842 -40.426  1.00  0.00    -0.306 OA
ENDBRANCH  22  42
BRANCH  19  44
HETATM   44  O3  UNL     1       6.730  67.858 -39.697  1.00  0.00    -0.395 OA
HETATM   45  H46 UNL     1       7.360  68.049 -40.418  1.00  0.00     0.210 HD
ENDBRANCH  19  44
BRANCH   5  46
HETATM   46  O1  UNL     1      -1.184  68.322 -36.844  1.00  0.00    -0.386 OA
HETATM   47  H11 UNL     1      -0.818  67.556 -36.377  1.00  0.00     0.210 HD
ENDBRANCH   5  46
BRANCH   1  48
HETATM   48  C2  UNL     1      -1.547  73.114 -32.314  1.00  0.00     0.306 C 
BRANCH  48  49
HETATM   49  N1  UNL     1      -0.448  72.797 -31.398  1.00  0.00     0.083 N 
HETATM   50  C1  UNL     1      -0.954  72.223 -30.156  1.00  0.00     0.307 C 
HETATM   51  H4  UNL     1       0.045  73.658 -31.180  1.00  0.00     0.315 HD
ENDBRANCH  48  49
ENDBRANCH   1  48
TORSDOF 9
ENDMDL
MODEL 9
REMARK minimizedAffinity -8.25275326
REMARK CNNscore 0.361537665
REMARK CNNaffinity 7.29680872
REMARK  9 active torsions:
REMARK  status: ('A' for Active; 'I' for Inactive)
REMARK    1  A    between atoms: N1_2  and  C2_3 
REMARK    2  A    between atoms: C2_3  and  C3_4 
REMARK    3  A    between atoms: C7_8  and  O1_9 
REMARK    4  A    between atoms: C13_15  and  O2_16 
REMARK    5  A    between atoms: C17_20  and  C18_21 
REMARK    6  A    between atoms: C18_21  and  C20_23 
REMARK    7  A    between atoms: C28_31  and  O3_32 
REMARK    8  A    between atoms: C31_35  and  C32_36 
REMARK    9  A    between atoms: C33_38  and  O5_39 
ROOT
HETATM    1  C3  UNL     1      -0.147  51.730 -22.265  1.00  0.00    -0.022 C 
HETATM    2  C4  UNL     1      -0.048  52.007 -20.940  1.00  0.00    -0.014 C 
HETATM    3  C5  UNL     1      -1.106  51.539 -19.972  1.00  0.00     0.021 C 
HETATM    4  C6  UNL     1      -0.730  51.232 -18.523  1.00  0.00     0.051 C 
HETATM    5  C7  UNL     1      -2.067  50.664 -17.998  1.00  0.00     0.098 C 
HETATM    6  C8  UNL     1      -2.533  49.684 -19.154  1.00  0.00    -0.002 C 
HETATM    7  C9  UNL     1      -4.059  49.635 -19.327  1.00  0.00     0.019 C 
HETATM    8  C10 UNL     1      -2.037  48.223 -18.908  1.00  0.00     0.013 C 
HETATM    9  C11 UNL     1      -2.179  47.722 -17.473  1.00  0.00     0.010 C 
HETATM   10  C12 UNL     1      -1.399  48.654 -16.526  1.00  0.00     0.041 C 
HETATM   11  C13 UNL     1      -2.045  50.052 -16.558  1.00  0.00     0.095 C 
HETATM   12  C14 UNL     1      -1.449  50.984 -15.485  1.00  0.00     0.049 C 
HETATM   13  C15 UNL     1      -0.105  50.527 -14.868  1.00  0.00     0.025 C 
HETATM   14  C16 UNL     1       0.281  51.633 -13.838  1.00  0.00     0.012 C 
HETATM   15  C17 UNL     1       1.661  51.652 -13.133  1.00  0.00    -0.010 C 
HETATM   16  C25 UNL     1       2.169  50.264 -12.699  1.00  0.00     0.005 C 
HETATM   17  C26 UNL     1       2.396  49.307 -13.859  1.00  0.00     0.010 C 
HETATM   18  C27 UNL     1       1.216  48.416 -14.270  1.00  0.00     0.050 C 
HETATM   19  C28 UNL     1       1.196  47.090 -13.471  1.00  0.00     0.125 C 
HETATM   20  C29 UNL     1       0.000  46.213 -13.832  1.00  0.00     0.033 C 
HETATM   21  C30 UNL     1      -0.651  46.649 -15.135  1.00  0.00     0.023 C 
HETATM   22  C31 UNL     1      -1.206  48.115 -15.070  1.00  0.00     0.051 C 
HETATM   23  C33 UNL     1      -0.199  49.077 -14.275  1.00  0.00     0.082 C 
HETATM   24  C34 UNL     1      -1.774  50.220 -20.429  1.00  0.00     0.036 C 
HETATM   25  C35 UNL     1      -2.308  50.523 -21.791  1.00  0.00    -0.035 C 
HETATM   26  C36 UNL     1      -3.518  50.732 -22.297  1.00  0.00     0.088 C 
HETATM   27  C37 UNL     1      -3.309  51.280 -23.639  1.00  0.00     0.284 C 
HETATM   28  O6  UNL     1      -4.200  51.598 -24.403  1.00  0.00    -0.260 OA
HETATM   29  O7  UNL     1      -1.974  51.423 -23.877  1.00  0.00    -0.304 OA
HETATM   30  C38 UNL     1      -1.253  50.829 -22.807  1.00  0.00     0.192 C 
ENDROOT
BRANCH  15  31
HETATM   31  C18 UNL     1       1.620  52.672 -11.918  1.00  0.00    -0.011 C 
HETATM   32  C19 UNL     1       0.521  52.331 -10.894  1.00  0.00     0.011 C 
BRANCH  31  33
HETATM   33  C20 UNL     1       3.010  52.847 -11.246  1.00  0.00    -0.010 C 
HETATM   34  C21 UNL     1       3.450  54.302 -11.036  1.00  0.00     0.005 C 
HETATM   35  C22 UNL     1       4.543  54.189  -9.984  1.00  0.00     0.000 C 
HETATM   36  C23 UNL     1       3.995  53.152  -9.018  1.00  0.00     0.000 C 
HETATM   37  C24 UNL     1       3.181  52.175  -9.871  1.00  0.00     0.005 C 
ENDBRANCH  31  33
ENDBRANCH  15  31
BRANCH  23  38
HETATM   38  O5  UNL     1      -0.681  49.214 -12.931  1.00  0.00    -0.388 OA
HETATM   39  H52 UNL     1      -0.193  48.598 -12.340  1.00  0.00     0.210 HD
ENDBRANCH  23  38
BRANCH  11  40
HETATM   40  O2  UNL     1      -3.432  49.912 -16.171  1.00  0.00    -0.386 OA
HETATM   41  H20 UNL     1      -3.931  50.596 -16.665  1.00  0.00     0.210 HD
ENDBRANCH  11  40
BRANCH  22  42
HETATM   42  C32 UNL     1      -2.565  48.048 -14.343  1.00  0.00     0.244 C 
HETATM   43  O4  UNL     1      -3.418  47.184 -14.548  1.00  0.00    -0.306 OA
ENDBRANCH  22  42
BRANCH  19  44
HETATM   44  O3  UNL     1       1.123  47.368 -12.074  1.00  0.00    -0.395 OA
HETATM   45  H46 UNL     1       1.229  46.523 -11.598  1.00  0.00     0.210 HD
ENDBRANCH  19  44
BRANCH   5  46
HETATM   46  O1  UNL     1      -3.016  51.765 -17.950  1.00  0.00    -0.386 OA
HETATM   47  H11 UNL     1      -2.690  52.447 -17.342  1.00  0.00     0.210 HD
ENDBRANCH   5  46
BRANCH   1  48
HETATM   48  C2  UNL     1       0.789  52.264 -23.325  1.00  0.00     0.306 C 
BRANCH  48  49
HETATM   49  N1  UNL     1       0.684  53.711 -23.528  1.00  0.00     0.083 N 
HETATM   50  C1  UNL     1       0.304  54.019 -24.901  1.00  0.00     0.307 C 
HETATM   51  H4  UNL     1       1.593  54.127 -23.341  1.00  0.00     0.315 HD
ENDBRANCH  48  49
ENDBRANCH   1  48
TORSDOF 9
ENDMDL
