MODEL 1
REMARK minimizedAffinity -9.69649792
REMARK CNNscore 0.835232615
REMARK CNNaffinity 7.27324438
REMARK  8 active torsions:
REMARK  status: ('A' for Active; 'I' for Inactive)
REMARK    1  A    between atoms: C5_5  and  O1_6 
REMARK    2  A    between atoms: C9_10  and  C10_11 
REMARK    3  A    between atoms: C10_11  and  C11_12 
REMARK    4  A    between atoms: C11_12  and  C12_13 
REMARK    5  A    between atoms: C14_15  and  C15_16 
REMARK    6  A    between atoms: C15_16  and  C16_17 
REMARK    7  A    between atoms: C16_17  and  C17_18 
REMARK    8  A    between atoms: C23_24  and  O2_25 
ROOT
HETATM    1  C12 UNL     1      -3.485  47.897 -21.384  1.00  0.00    -0.087 C 
HETATM    2  C13 UNL     1      -3.063  46.454 -21.294  1.00  0.00     0.043 C 
HETATM    3  C14 UNL     1      -3.438  48.787 -20.372  1.00  0.00    -0.024 C 
ENDROOT
BRANCH   3   4
HETATM    4  C15 UNL     1      -2.958  48.573 -18.965  1.00  0.00     0.030 C 
BRANCH   4   5
HETATM    5  C16 UNL     1      -1.515  49.043 -18.702  1.00  0.00     0.042 C 
BRANCH   5   6
HETATM    6  C17 UNL     1      -1.193  50.553 -18.896  1.00  0.00     0.065 C 
HETATM    7  C18 UNL     1      -2.410  51.418 -18.532  1.00  0.00     0.046 C 
HETATM    8  C19 UNL     1       0.027  50.870 -18.009  1.00  0.00     0.043 C 
HETATM    9  C20 UNL     1       0.528  52.288 -18.224  1.00  0.00     0.044 C 
HETATM   10  C21 UNL     1       0.584  52.610 -19.687  1.00  0.00    -0.021 A 
HETATM   11  C22 UNL     1       1.325  53.720 -20.119  1.00  0.00     0.046 A 
HETATM   12  C27 UNL     1      -0.115  51.839 -20.625  1.00  0.00     0.082 A 
HETATM   13  C23 UNL     1       1.378  54.033 -21.473  1.00  0.00     0.066 A 
HETATM   14  C24 UNL     1       0.703  53.260 -22.407  1.00  0.00     0.046 A 
HETATM   15  C25 UNL     1      -0.043  52.148 -21.994  1.00  0.00    -0.025 A 
HETATM   16  C26 UNL     1      -0.788  51.332 -23.012  1.00  0.00     0.051 C 
HETATM   17  O3  UNL     1      -0.873  50.748 -20.284  1.00  0.00    -0.340 OA
BRANCH  13  18
HETATM   18  O2  UNL     1       2.089  55.104 -21.927  1.00  0.00    -0.361 OA
HETATM   19  H36 UNL     1       2.508  55.541 -21.168  1.00  0.00     0.217 HD
ENDBRANCH  13  18
ENDBRANCH   5   6
ENDBRANCH   4   5
ENDBRANCH   3   4
BRANCH   1  20
HETATM   20  C11 UNL     1      -4.028  48.322 -22.740  1.00  0.00     0.034 C 
BRANCH  20  21
HETATM   21  C10 UNL     1      -2.917  48.570 -23.774  1.00  0.00     0.014 C 
BRANCH  21  22
HETATM   22  C9  UNL     1      -3.372  48.516 -25.262  1.00  0.00     0.024 C 
HETATM   23  C2  UNL     1      -4.895  48.324 -25.434  1.00  0.00    -0.084 C 
HETATM   24  C1  UNL     1      -5.802  48.218 -24.446  1.00  0.00     0.015 C 
HETATM   25  C3  UNL     1      -5.407  48.325 -26.862  1.00  0.00     0.036 C 
HETATM   26  C4  UNL     1      -4.289  48.235 -27.889  1.00  0.00     0.037 C 
HETATM   27  C5  UNL     1      -3.205  49.303 -27.688  1.00  0.00     0.127 C 
HETATM   28  C6  UNL     1      -2.933  49.711 -26.194  1.00  0.00    -0.014 C 
HETATM   29  C7  UNL     1      -3.671  51.023 -25.813  1.00  0.00     0.018 C 
HETATM   30  C8  UNL     1      -1.427  50.038 -26.102  1.00  0.00     0.018 C 
BRANCH  27  31
HETATM   31  O1  UNL     1      -3.512  50.453 -28.477  1.00  0.00    -0.395 OA
HETATM   32  H8  UNL     1      -3.570  50.168 -29.405  1.00  0.00     0.210 HD
ENDBRANCH  27  31
ENDBRANCH  21  22
ENDBRANCH  20  21
ENDBRANCH   1  20
TORSDOF 8
ENDMDL
MODEL 2
REMARK minimizedAffinity -9.27223301
REMARK CNNscore 0.566497386
REMARK CNNaffinity 6.21988916
REMARK  8 active torsions:
REMARK  status: ('A' for Active; 'I' for Inactive)
REMARK    1  A    between atoms: C5_5  and  O1_6 
REMARK    2  A    between atoms: C9_10  and  C10_11 
REMARK    3  A    between atoms: C10_11  and  C11_12 
REMARK    4  A    between atoms: C11_12  and  C12_13 
REMARK    5  A    between atoms: C14_15  and  C15_16 
REMARK    6  A    between atoms: C15_16  and  C16_17 
REMARK    7  A    between atoms: C16_17  and  C17_18 
REMARK    8  A    between atoms: C23_24  and  O2_25 
ROOT
HETATM    1  C12 UNL     1      -4.528  48.402 -26.062  1.00  0.00    -0.087 C 
HETATM    2  C13 UNL     1      -4.612  48.500 -24.562  1.00  0.00     0.043 C 
HETATM    3  C14 UNL     1      -3.454  48.734 -26.806  1.00  0.00    -0.024 C 
ENDROOT
BRANCH   3   4
HETATM    4  C15 UNL     1      -2.123  49.251 -26.342  1.00  0.00     0.030 C 
BRANCH   4   5
HETATM    5  C16 UNL     1      -1.924  50.766 -26.528  1.00  0.00     0.042 C 
BRANCH   5   6
HETATM    6  C17 UNL     1      -0.688  51.427 -25.852  1.00  0.00     0.065 C 
HETATM    7  C18 UNL     1       0.611  50.748 -26.314  1.00  0.00     0.046 C 
HETATM    8  C19 UNL     1      -0.721  52.924 -26.221  1.00  0.00     0.043 C 
HETATM    9  C20 UNL     1       0.361  53.707 -25.497  1.00  0.00     0.044 C 
HETATM   10  C21 UNL     1       0.421  53.312 -24.053  1.00  0.00    -0.021 A 
HETATM   11  C22 UNL     1       1.099  54.135 -23.142  1.00  0.00     0.046 A 
HETATM   12  C27 UNL     1      -0.165  52.121 -23.604  1.00  0.00     0.082 A 
HETATM   13  C23 UNL     1       1.167  53.774 -21.800  1.00  0.00     0.066 A 
HETATM   14  C24 UNL     1       0.571  52.605 -21.349  1.00  0.00     0.046 A 
HETATM   15  C25 UNL     1      -0.109  51.769 -22.244  1.00  0.00    -0.025 A 
HETATM   16  C26 UNL     1      -0.731  50.495 -21.748  1.00  0.00     0.051 C 
HETATM   17  O3  UNL     1      -0.832  51.255 -24.432  1.00  0.00    -0.340 OA
BRANCH  13  18
HETATM   18  O2  UNL     1       1.817  54.551 -20.888  1.00  0.00    -0.361 OA
HETATM   19  H36 UNL     1       2.174  55.331 -21.344  1.00  0.00     0.217 HD
ENDBRANCH  13  18
ENDBRANCH   5   6
ENDBRANCH   4   5
ENDBRANCH   3   4
BRANCH   1  20
HETATM   20  C11 UNL     1      -5.797  47.909 -26.743  1.00  0.00     0.034 C 
BRANCH  20  21
HETATM   21  C10 UNL     1      -5.593  47.616 -28.239  1.00  0.00     0.014 C 
BRANCH  21  22
HETATM   22  C9  UNL     1      -6.886  47.662 -29.105  1.00  0.00     0.024 C 
HETATM   23  C2  UNL     1      -6.673  48.289 -30.500  1.00  0.00    -0.084 C 
HETATM   24  C1  UNL     1      -5.513  48.761 -30.993  1.00  0.00     0.015 C 
HETATM   25  C3  UNL     1      -7.885  48.306 -31.412  1.00  0.00     0.036 C 
HETATM   26  C4  UNL     1      -9.174  47.951 -30.688  1.00  0.00     0.037 C 
HETATM   27  C5  UNL     1      -9.080  46.630 -29.913  1.00  0.00     0.127 C 
HETATM   28  C6  UNL     1      -7.667  46.305 -29.306  1.00  0.00    -0.014 C 
HETATM   29  C7  UNL     1      -6.867  45.323 -30.204  1.00  0.00     0.018 C 
HETATM   30  C8  UNL     1      -7.927  45.547 -27.987  1.00  0.00     0.018 C 
BRANCH  27  31
HETATM   31  O1  UNL     1      -9.533  45.556 -30.740  1.00  0.00    -0.395 OA
HETATM   32  H8  UNL     1     -10.446  45.754 -31.008  1.00  0.00     0.210 HD
ENDBRANCH  27  31
ENDBRANCH  21  22
ENDBRANCH  20  21
ENDBRANCH   1  20
TORSDOF 8
ENDMDL
MODEL 3
REMARK minimizedAffinity -9.29515076
REMARK CNNscore 0.541381121
REMARK CNNaffinity 6.24522352
REMARK  8 active torsions:
REMARK  status: ('A' for Active; 'I' for Inactive)
REMARK    1  A    between atoms: C5_5  and  O1_6 
REMARK    2  A    between atoms: C9_10  and  C10_11 
REMARK    3  A    between atoms: C10_11  and  C11_12 
REMARK    4  A    between atoms: C11_12  and  C12_13 
REMARK    5  A    between atoms: C14_15  and  C15_16 
REMARK    6  A    between atoms: C15_16  and  C16_17 
REMARK    7  A    between atoms: C16_17  and  C17_18 
REMARK    8  A    between atoms: C23_24  and  O2_25 
ROOT
HETATM    1  C12 UNL     1      -4.717  48.266 -26.659  1.00  0.00    -0.087 C 
HETATM    2  C13 UNL     1      -5.067  48.407 -25.202  1.00  0.00     0.043 C 
HETATM    3  C14 UNL     1      -3.543  48.624 -27.217  1.00  0.00    -0.024 C 
ENDROOT
BRANCH   3   4
HETATM    4  C15 UNL     1      -2.336  49.217 -26.548  1.00  0.00     0.030 C 
BRANCH   4   5
HETATM    5  C16 UNL     1      -2.260  50.753 -26.608  1.00  0.00     0.042 C 
BRANCH   5   6
HETATM    6  C17 UNL     1      -0.958  51.439 -26.103  1.00  0.00     0.065 C 
HETATM    7  C18 UNL     1       0.283  50.682 -26.603  1.00  0.00     0.046 C 
HETATM    8  C19 UNL     1      -0.990  52.895 -26.611  1.00  0.00     0.043 C 
HETATM    9  C20 UNL     1       0.166  53.710 -26.057  1.00  0.00     0.044 C 
HETATM   10  C21 UNL     1       0.339  53.452 -24.592  1.00  0.00    -0.021 A 
HETATM   11  C22 UNL     1       1.110  54.337 -23.823  1.00  0.00     0.046 A 
HETATM   12  C27 UNL     1      -0.231  52.326 -23.983  1.00  0.00     0.082 A 
HETATM   13  C23 UNL     1       1.284  54.102 -22.463  1.00  0.00     0.066 A 
HETATM   14  C24 UNL     1       0.704  52.999 -21.853  1.00  0.00     0.046 A 
HETATM   15  C25 UNL     1      -0.068  52.102 -22.605  1.00  0.00    -0.025 A 
HETATM   16  C26 UNL     1      -0.672  50.899 -21.939  1.00  0.00     0.051 C 
HETATM   17  O3  UNL     1      -0.985  51.406 -24.666  1.00  0.00    -0.340 OA
BRANCH  13  18
HETATM   18  O2  UNL     1       2.025  54.942 -21.687  1.00  0.00    -0.361 OA
HETATM   19  H36 UNL     1       2.358  55.665 -22.243  1.00  0.00     0.217 HD
ENDBRANCH  13  18
ENDBRANCH   5   6
ENDBRANCH   4   5
ENDBRANCH   3   4
BRANCH   1  20
HETATM   20  C11 UNL     1      -5.825  47.694 -27.532  1.00  0.00     0.034 C 
BRANCH  20  21
HETATM   21  C10 UNL     1      -5.546  47.864 -29.035  1.00  0.00     0.014 C 
BRANCH  21  22
HETATM   22  C9  UNL     1      -6.454  47.020 -29.977  1.00  0.00     0.024 C 
HETATM   23  C2  UNL     1      -7.900  47.552 -30.079  1.00  0.00    -0.084 C 
HETATM   24  C1  UNL     1      -8.396  48.637 -29.456  1.00  0.00     0.015 C 
HETATM   25  C3  UNL     1      -8.816  46.806 -31.030  1.00  0.00     0.036 C 
HETATM   26  C4  UNL     1      -8.224  45.489 -31.507  1.00  0.00     0.037 C 
HETATM   27  C5  UNL     1      -6.818  45.645 -32.100  1.00  0.00     0.127 C 
HETATM   28  C6  UNL     1      -5.933  46.768 -31.444  1.00  0.00    -0.014 C 
HETATM   29  C7  UNL     1      -5.950  48.075 -32.280  1.00  0.00     0.018 C 
HETATM   30  C8  UNL     1      -4.477  46.256 -31.498  1.00  0.00     0.018 C 
BRANCH  27  31
HETATM   31  O1  UNL     1      -6.912  45.838 -33.513  1.00  0.00    -0.395 OA
HETATM   32  H8  UNL     1      -7.378  45.071 -33.885  1.00  0.00     0.210 HD
ENDBRANCH  27  31
ENDBRANCH  21  22
ENDBRANCH  20  21
ENDBRANCH   1  20
TORSDOF 8
ENDMDL
MODEL 4
REMARK minimizedAffinity -9.13757706
REMARK CNNscore 0.464994997
REMARK CNNaffinity 6.1526947
REMARK  8 active torsions:
REMARK  status: ('A' for Active; 'I' for Inactive)
REMARK    1  A    between atoms: C5_5  and  O1_6 
REMARK    2  A    between atoms: C9_10  and  C10_11 
REMARK    3  A    between atoms: C10_11  and  C11_12 
REMARK    4  A    between atoms: C11_12  and  C12_13 
REMARK    5  A    between atoms: C14_15  and  C15_16 
REMARK    6  A    between atoms: C15_16  and  C16_17 
REMARK    7  A    between atoms: C16_17  and  C17_18 
REMARK    8  A    between atoms: C23_24  and  O2_25 
ROOT
HETATM    1  C12 UNL     1      -4.831  48.175 -27.289  1.00  0.00    -0.087 C 
HETATM    2  C13 UNL     1      -5.963  47.928 -26.327  1.00  0.00     0.043 C 
HETATM    3  C14 UNL     1      -3.580  48.539 -26.943  1.00  0.00    -0.024 C 
ENDROOT
BRANCH   3   4
HETATM    4  C15 UNL     1      -3.023  48.767 -25.567  1.00  0.00     0.030 C 
BRANCH   4   5
HETATM    5  C16 UNL     1      -1.994  49.908 -25.474  1.00  0.00     0.042 C 
BRANCH   5   6
HETATM    6  C17 UNL     1      -1.976  50.769 -24.178  1.00  0.00     0.065 C 
HETATM    7  C18 UNL     1      -3.280  51.571 -24.041  1.00  0.00     0.046 C 
HETATM    8  C19 UNL     1      -1.767  49.800 -22.997  1.00  0.00     0.043 C 
HETATM    9  C20 UNL     1      -1.587  50.542 -21.684  1.00  0.00     0.044 C 
HETATM   10  C21 UNL     1      -0.648  51.696 -21.855  1.00  0.00    -0.021 A 
HETATM   11  C22 UNL     1      -0.083  52.299 -20.721  1.00  0.00     0.046 A 
HETATM   12  C27 UNL     1      -0.348  52.202 -23.128  1.00  0.00     0.082 A 
HETATM   13  C23 UNL     1       0.784  53.376 -20.869  1.00  0.00     0.066 A 
HETATM   14  C24 UNL     1       1.098  53.867 -22.128  1.00  0.00     0.046 A 
HETATM   15  C25 UNL     1       0.543  53.279 -23.273  1.00  0.00    -0.025 A 
HETATM   16  C26 UNL     1       0.873  53.834 -24.629  1.00  0.00     0.051 C 
HETATM   17  O3  UNL     1      -0.869  51.681 -24.284  1.00  0.00    -0.340 OA
BRANCH  13  18
HETATM   18  O2  UNL     1       1.351  53.984 -19.789  1.00  0.00    -0.361 OA
HETATM   19  H36 UNL     1       1.047  53.533 -18.984  1.00  0.00     0.217 HD
ENDBRANCH  13  18
ENDBRANCH   5   6
ENDBRANCH   4   5
ENDBRANCH   3   4
BRANCH   1  20
HETATM   20  C11 UNL     1      -5.193  48.013 -28.759  1.00  0.00     0.034 C 
BRANCH  20  21
HETATM   21  C10 UNL     1      -6.190  46.868 -29.003  1.00  0.00     0.014 C 
BRANCH  21  22
HETATM   22  C9  UNL     1      -6.870  46.869 -30.403  1.00  0.00     0.024 C 
HETATM   23  C2  UNL     1      -7.974  47.939 -30.553  1.00  0.00    -0.084 C 
HETATM   24  C1  UNL     1      -8.357  48.825 -29.615  1.00  0.00     0.015 C 
HETATM   25  C3  UNL     1      -8.631  48.028 -31.917  1.00  0.00     0.036 C 
HETATM   26  C4  UNL     1      -8.279  46.856 -32.819  1.00  0.00     0.037 C 
HETATM   27  C5  UNL     1      -6.766  46.633 -32.946  1.00  0.00     0.127 C 
HETATM   28  C6  UNL     1      -5.926  46.978 -31.662  1.00  0.00    -0.014 C 
HETATM   29  C7  UNL     1      -5.278  48.385 -31.761  1.00  0.00     0.018 C 
HETATM   30  C8  UNL     1      -4.750  45.978 -31.634  1.00  0.00     0.018 C 
BRANCH  27  31
HETATM   31  O1  UNL     1      -6.269  47.344 -34.081  1.00  0.00    -0.395 OA
HETATM   32  H8  UNL     1      -6.749  47.024 -34.863  1.00  0.00     0.210 HD
ENDBRANCH  27  31
ENDBRANCH  21  22
ENDBRANCH  20  21
ENDBRANCH   1  20
TORSDOF 8
ENDMDL
MODEL 5
REMARK minimizedAffinity -8.68529606
REMARK CNNscore 0.444954872
REMARK CNNaffinity 7.03927851
REMARK  8 active torsions:
REMARK  status: ('A' for Active; 'I' for Inactive)
REMARK    1  A    between atoms: C5_5  and  O1_6 
REMARK    2  A    between atoms: C9_10  and  C10_11 
REMARK    3  A    between atoms: C10_11  and  C11_12 
REMARK    4  A    between atoms: C11_12  and  C12_13 
REMARK    5  A    between atoms: C14_15  and  C15_16 
REMARK    6  A    between atoms: C15_16  and  C16_17 
REMARK    7  A    between atoms: C16_17  and  C17_18 
REMARK    8  A    between atoms: C23_24  and  O2_25 
ROOT
HETATM    1  C12 UNL     1      -0.071  52.279 -21.671  1.00  0.00    -0.087 C 
HETATM    2  C13 UNL     1       0.892  53.417 -21.457  1.00  0.00     0.043 C 
HETATM    3  C14 UNL     1      -0.780  51.666 -20.703  1.00  0.00    -0.024 C 
ENDROOT
BRANCH   3   4
HETATM    4  C15 UNL     1      -0.796  51.962 -19.230  1.00  0.00     0.030 C 
BRANCH   4   5
HETATM    5  C16 UNL     1      -1.999  51.373 -18.472  1.00  0.00     0.042 C 
BRANCH   5   6
HETATM    6  C17 UNL     1      -2.055  49.829 -18.282  1.00  0.00     0.065 C 
HETATM    7  C18 UNL     1      -0.725  49.303 -17.720  1.00  0.00     0.046 C 
HETATM    8  C19 UNL     1      -3.237  49.535 -17.336  1.00  0.00     0.043 C 
HETATM    9  C20 UNL     1      -3.484  48.044 -17.188  1.00  0.00     0.044 C 
HETATM   10  C21 UNL     1      -3.431  47.366 -18.523  1.00  0.00    -0.021 A 
HETATM   11  C22 UNL     1      -3.958  46.074 -18.660  1.00  0.00     0.046 A 
HETATM   12  C27 UNL     1      -2.838  47.991 -19.629  1.00  0.00     0.082 A 
HETATM   13  C23 UNL     1      -3.908  45.432 -19.893  1.00  0.00     0.066 A 
HETATM   14  C24 UNL     1      -3.339  46.056 -20.995  1.00  0.00     0.046 A 
HETATM   15  C25 UNL     1      -2.805  47.346 -20.877  1.00  0.00    -0.025 A 
HETATM   16  C26 UNL     1      -2.172  48.002 -22.071  1.00  0.00     0.051 C 
HETATM   17  O3  UNL     1      -2.287  49.245 -19.575  1.00  0.00    -0.340 OA
BRANCH  13  18
HETATM   18  O2  UNL     1      -4.412  44.177 -20.062  1.00  0.00    -0.361 OA
HETATM   19  H36 UNL     1      -4.779  43.875 -19.216  1.00  0.00     0.217 HD
ENDBRANCH  13  18
ENDBRANCH   5   6
ENDBRANCH   4   5
ENDBRANCH   3   4
BRANCH   1  20
HETATM   20  C11 UNL     1      -0.192  51.806 -23.113  1.00  0.00     0.034 C 
BRANCH  20  21
HETATM   21  C10 UNL     1       0.795  52.515 -24.056  1.00  0.00     0.014 C 
BRANCH  21  22
HETATM   22  C9  UNL     1       0.316  52.654 -25.531  1.00  0.00     0.024 C 
HETATM   23  C2  UNL     1       1.276  52.008 -26.554  1.00  0.00    -0.084 C 
HETATM   24  C1  UNL     1       2.423  51.362 -26.274  1.00  0.00     0.015 C 
HETATM   25  C3  UNL     1       0.833  52.058 -28.004  1.00  0.00     0.036 C 
HETATM   26  C4  UNL     1      -0.351  52.986 -28.227  1.00  0.00     0.037 C 
HETATM   27  C5  UNL     1      -1.532  52.682 -27.296  1.00  0.00     0.127 C 
HETATM   28  C6  UNL     1      -1.143  52.156 -25.865  1.00  0.00    -0.014 C 
HETATM   29  C7  UNL     1      -1.246  50.610 -25.773  1.00  0.00     0.018 C 
HETATM   30  C8  UNL     1      -2.214  52.704 -24.898  1.00  0.00     0.018 C 
BRANCH  27  31
HETATM   31  O1  UNL     1      -2.430  51.775 -27.939  1.00  0.00    -0.395 OA
HETATM   32  H8  UNL     1      -2.721  52.187 -28.770  1.00  0.00     0.210 HD
ENDBRANCH  27  31
ENDBRANCH  21  22
ENDBRANCH  20  21
ENDBRANCH   1  20
TORSDOF 8
ENDMDL
MODEL 6
REMARK minimizedAffinity -8.68397903
REMARK CNNscore 0.41597414
REMARK CNNaffinity 6.11582327
REMARK  8 active torsions:
REMARK  status: ('A' for Active; 'I' for Inactive)
REMARK    1  A    between atoms: C5_5  and  O1_6 
REMARK    2  A    between atoms: C9_10  and  C10_11 
REMARK    3  A    between atoms: C10_11  and  C11_12 
REMARK    4  A    between atoms: C11_12  and  C12_13 
REMARK    5  A    between atoms: C14_15  and  C15_16 
REMARK    6  A    between atoms: C15_16  and  C16_17 
REMARK    7  A    between atoms: C16_17  and  C17_18 
REMARK    8  A    between atoms: C23_24  and  O2_25 
ROOT
HETATM    1  C12 UNL     1      -5.324  48.306 -24.954  1.00  0.00    -0.087 C 
HETATM    2  C13 UNL     1      -4.936  48.329 -26.409  1.00  0.00     0.043 C 
HETATM    3  C14 UNL     1      -4.469  48.419 -23.918  1.00  0.00    -0.024 C 
ENDROOT
BRANCH   3   4
HETATM    4  C15 UNL     1      -2.979  48.603 -23.956  1.00  0.00     0.030 C 
BRANCH   4   5
HETATM    5  C16 UNL     1      -2.293  48.558 -22.578  1.00  0.00     0.042 C 
BRANCH   5   6
HETATM    6  C17 UNL     1      -1.860  49.908 -21.935  1.00  0.00     0.065 C 
HETATM    7  C18 UNL     1      -3.073  50.635 -21.333  1.00  0.00     0.046 C 
HETATM    8  C19 UNL     1      -0.798  49.577 -20.867  1.00  0.00     0.043 C 
HETATM    9  C20 UNL     1      -0.191  50.833 -20.267  1.00  0.00     0.044 C 
HETATM   10  C21 UNL     1       0.137  51.825 -21.341  1.00  0.00    -0.021 A 
HETATM   11  C22 UNL     1       1.001  52.892 -21.052  1.00  0.00     0.046 A 
HETATM   12  C27 UNL     1      -0.428  51.720 -22.619  1.00  0.00     0.082 A 
HETATM   13  C23 UNL     1       1.306  53.823 -22.040  1.00  0.00     0.066 A 
HETATM   14  C24 UNL     1       0.764  53.711 -23.312  1.00  0.00     0.046 A 
HETATM   15  C25 UNL     1      -0.102  52.653 -23.619  1.00  0.00    -0.025 A 
HETATM   16  C26 UNL     1      -0.700  52.555 -24.993  1.00  0.00     0.051 C 
HETATM   17  O3  UNL     1      -1.292  50.718 -22.978  1.00  0.00    -0.340 OA
BRANCH  13  18
HETATM   18  O2  UNL     1       2.143  54.870 -21.794  1.00  0.00    -0.361 OA
HETATM   19  H36 UNL     1       2.446  54.814 -20.873  1.00  0.00     0.217 HD
ENDBRANCH  13  18
ENDBRANCH   5   6
ENDBRANCH   4   5
ENDBRANCH   3   4
BRANCH   1  20
HETATM   20  C11 UNL     1      -6.810  48.107 -24.690  1.00  0.00     0.034 C 
BRANCH  20  21
HETATM   21  C10 UNL     1      -7.388  46.892 -25.435  1.00  0.00     0.014 C 
BRANCH  21  22
HETATM   22  C9  UNL     1      -8.933  46.906 -25.626  1.00  0.00     0.024 C 
HETATM   23  C2  UNL     1      -9.720  46.787 -24.303  1.00  0.00    -0.084 C 
HETATM   24  C1  UNL     1      -9.193  46.688 -23.068  1.00  0.00     0.015 C 
HETATM   25  C3  UNL     1     -11.230  46.856 -24.420  1.00  0.00     0.036 C 
HETATM   26  C4  UNL     1     -11.716  46.752 -25.858  1.00  0.00     0.037 C 
HETATM   27  C5  UNL     1     -11.039  47.764 -26.792  1.00  0.00     0.127 C 
HETATM   28  C6  UNL     1      -9.546  48.111 -26.439  1.00  0.00    -0.014 C 
HETATM   29  C7  UNL     1      -9.437  49.441 -25.645  1.00  0.00     0.018 C 
HETATM   30  C8  UNL     1      -8.834  48.369 -27.784  1.00  0.00     0.018 C 
BRANCH  27  31
HETATM   31  O1  UNL     1     -11.830  48.952 -26.865  1.00  0.00    -0.395 OA
HETATM   32  H8  UNL     1     -12.713  48.700 -27.184  1.00  0.00     0.210 HD
ENDBRANCH  27  31
ENDBRANCH  21  22
ENDBRANCH  20  21
ENDBRANCH   1  20
TORSDOF 8
ENDMDL
MODEL 7
REMARK minimizedAffinity -9.35323143
REMARK CNNscore 0.402067363
REMARK CNNaffinity 6.32523346
REMARK  8 active torsions:
REMARK  status: ('A' for Active; 'I' for Inactive)
REMARK    1  A    between atoms: C5_5  and  O1_6 
REMARK    2  A    between atoms: C9_10  and  C10_11 
REMARK    3  A    between atoms: C10_11  and  C11_12 
REMARK    4  A    between atoms: C11_12  and  C12_13 
REMARK    5  A    between atoms: C14_15  and  C15_16 
REMARK    6  A    between atoms: C15_16  and  C16_17 
REMARK    7  A    between atoms: C16_17  and  C17_18 
REMARK    8  A    between atoms: C23_24  and  O2_25 
ROOT
HETATM    1  C12 UNL     1      -3.890  48.548 -26.649  1.00  0.00    -0.087 C 
HETATM    2  C13 UNL     1      -2.487  49.091 -26.599  1.00  0.00     0.043 C 
HETATM    3  C14 UNL     1      -4.652  48.258 -25.574  1.00  0.00    -0.024 C 
ENDROOT
BRANCH   3   4
HETATM    4  C15 UNL     1      -4.309  48.413 -24.120  1.00  0.00     0.030 C 
BRANCH   4   5
HETATM    5  C16 UNL     1      -2.863  48.865 -23.848  1.00  0.00     0.042 C 
BRANCH   5   6
HETATM    6  C17 UNL     1      -2.646  50.104 -22.931  1.00  0.00     0.065 C 
HETATM    7  C18 UNL     1      -3.843  51.063 -23.024  1.00  0.00     0.046 C 
HETATM    8  C19 UNL     1      -2.441  49.572 -21.498  1.00  0.00     0.043 C 
HETATM    9  C20 UNL     1      -2.075  50.685 -20.531  1.00  0.00     0.044 C 
HETATM   10  C21 UNL     1      -1.038  51.585 -21.131  1.00  0.00    -0.021 A 
HETATM   11  C22 UNL     1      -0.321  52.458 -20.301  1.00  0.00     0.046 A 
HETATM   12  C27 UNL     1      -0.795  51.588 -22.512  1.00  0.00     0.082 A 
HETATM   13  C23 UNL     1       0.638  53.304 -20.849  1.00  0.00     0.066 A 
HETATM   14  C24 UNL     1       0.896  53.296 -22.213  1.00  0.00     0.046 A 
HETATM   15  C25 UNL     1       0.188  52.431 -23.058  1.00  0.00    -0.025 A 
HETATM   16  C26 UNL     1       0.459  52.448 -24.535  1.00  0.00     0.051 C 
HETATM   17  O3  UNL     1      -1.463  50.777 -23.393  1.00  0.00    -0.340 OA
BRANCH  13  18
HETATM   18  O2  UNL     1       1.355  54.163 -20.071  1.00  0.00    -0.361 OA
HETATM   19  H36 UNL     1       1.074  54.053 -19.148  1.00  0.00     0.217 HD
ENDBRANCH  13  18
ENDBRANCH   5   6
ENDBRANCH   4   5
ENDBRANCH   3   4
BRANCH   1  20
HETATM   20  C11 UNL     1      -4.431  48.297 -28.049  1.00  0.00     0.034 C 
BRANCH  20  21
HETATM   21  C10 UNL     1      -5.817  47.630 -28.040  1.00  0.00     0.014 C 
BRANCH  21  22
HETATM   22  C9  UNL     1      -6.799  48.131 -29.139  1.00  0.00     0.024 C 
HETATM   23  C2  UNL     1      -6.444  47.633 -30.557  1.00  0.00    -0.084 C 
HETATM   24  C1  UNL     1      -5.411  46.836 -30.887  1.00  0.00     0.015 C 
HETATM   25  C3  UNL     1      -7.400  48.039 -31.662  1.00  0.00     0.036 C 
HETATM   26  C4  UNL     1      -8.394  49.102 -31.221  1.00  0.00     0.037 C 
HETATM   27  C5  UNL     1      -9.153  48.717 -29.944  1.00  0.00     0.127 C 
HETATM   28  C6  UNL     1      -8.336  47.859 -28.909  1.00  0.00    -0.014 C 
HETATM   29  C7  UNL     1      -8.665  46.347 -29.030  1.00  0.00     0.018 C 
HETATM   30  C8  UNL     1      -8.831  48.283 -27.510  1.00  0.00     0.018 C 
BRANCH  27  31
HETATM   31  O1  UNL     1     -10.374  48.062 -30.290  1.00  0.00    -0.395 OA
HETATM   32  H8  UNL     1     -10.889  48.670 -30.847  1.00  0.00     0.210 HD
ENDBRANCH  27  31
ENDBRANCH  21  22
ENDBRANCH  20  21
ENDBRANCH   1  20
TORSDOF 8
ENDMDL
MODEL 8
REMARK minimizedAffinity -9.46943569
REMARK CNNscore 0.367595106
REMARK CNNaffinity 6.97234392
REMARK  8 active torsions:
REMARK  status: ('A' for Active; 'I' for Inactive)
REMARK    1  A    between atoms: C5_5  and  O1_6 
REMARK    2  A    between atoms: C9_10  and  C10_11 
REMARK    3  A    between atoms: C10_11  and  C11_12 
REMARK    4  A    between atoms: C11_12  and  C12_13 
REMARK    5  A    between atoms: C14_15  and  C15_16 
REMARK    6  A    between atoms: C15_16  and  C16_17 
REMARK    7  A    between atoms: C16_17  and  C17_18 
REMARK    8  A    between atoms: C23_24  and  O2_25 
ROOT
HETATM    1  C12 UNL     1       0.584  52.793 -21.734  1.00  0.00    -0.087 C 
HETATM    2  C13 UNL     1       1.173  53.691 -20.679  1.00  0.00     0.043 C 
HETATM    3  C14 UNL     1      -0.037  51.620 -21.501  1.00  0.00    -0.024 C 
ENDROOT
BRANCH   3   4
HETATM    4  C15 UNL     1      -0.298  50.949 -20.182  1.00  0.00     0.030 C 
BRANCH   4   5
HETATM    5  C16 UNL     1      -0.745  49.480 -20.287  1.00  0.00     0.042 C 
BRANCH   5   6
HETATM    6  C17 UNL     1      -2.270  49.188 -20.390  1.00  0.00     0.065 C 
HETATM    7  C18 UNL     1      -2.603  47.823 -19.766  1.00  0.00     0.046 C 
HETATM    8  C19 UNL     1      -2.998  50.343 -19.674  1.00  0.00     0.043 C 
HETATM    9  C20 UNL     1      -4.505  50.244 -19.833  1.00  0.00     0.044 C 
HETATM   10  C21 UNL     1      -4.866  49.920 -21.251  1.00  0.00    -0.021 A 
HETATM   11  C22 UNL     1      -6.184  50.114 -21.687  1.00  0.00     0.046 A 
HETATM   12  C27 UNL     1      -3.914  49.399 -22.138  1.00  0.00     0.082 A 
HETATM   13  C23 UNL     1      -6.532  49.810 -22.999  1.00  0.00     0.066 A 
HETATM   14  C24 UNL     1      -5.587  49.313 -23.886  1.00  0.00     0.046 A 
HETATM   15  C25 UNL     1      -4.265  49.110 -23.468  1.00  0.00    -0.025 A 
HETATM   16  C26 UNL     1      -3.257  48.550 -24.430  1.00  0.00     0.051 C 
HETATM   17  O3  UNL     1      -2.610  49.165 -21.786  1.00  0.00    -0.340 OA
BRANCH  13  18
HETATM   18  O2  UNL     1      -7.803  49.989 -23.457  1.00  0.00    -0.361 OA
HETATM   19  H36 UNL     1      -8.345  50.345 -22.734  1.00  0.00     0.217 HD
ENDBRANCH  13  18
ENDBRANCH   5   6
ENDBRANCH   4   5
ENDBRANCH   3   4
BRANCH   1  20
HETATM   20  C11 UNL     1       0.757  53.286 -23.164  1.00  0.00     0.034 C 
BRANCH  20  21
HETATM   21  C10 UNL     1       0.781  52.139 -24.189  1.00  0.00     0.014 C 
BRANCH  21  22
HETATM   22  C9  UNL     1       0.293  52.518 -25.618  1.00  0.00     0.024 C 
HETATM   23  C2  UNL     1       1.275  52.101 -26.735  1.00  0.00    -0.084 C 
HETATM   24  C1  UNL     1       2.447  51.462 -26.569  1.00  0.00     0.015 C 
HETATM   25  C3  UNL     1       0.825  52.390 -28.155  1.00  0.00     0.036 C 
HETATM   26  C4  UNL     1      -0.395  53.295 -28.214  1.00  0.00     0.037 C 
HETATM   27  C5  UNL     1      -1.560  52.785 -27.356  1.00  0.00     0.127 C 
HETATM   28  C6  UNL     1      -1.146  52.030 -26.040  1.00  0.00    -0.014 C 
HETATM   29  C7  UNL     1      -1.188  50.489 -26.224  1.00  0.00     0.018 C 
HETATM   30  C8  UNL     1      -2.234  52.355 -24.995  1.00  0.00     0.018 C 
BRANCH  27  31
HETATM   31  O1  UNL     1      -2.423  51.972 -28.154  1.00  0.00    -0.395 OA
HETATM   32  H8  UNL     1      -2.733  52.513 -28.899  1.00  0.00     0.210 HD
ENDBRANCH  27  31
ENDBRANCH  21  22
ENDBRANCH  20  21
ENDBRANCH   1  20
TORSDOF 8
ENDMDL
MODEL 9
REMARK minimizedAffinity -8.35804272
REMARK CNNscore 0.355662018
REMARK CNNaffinity 6.14331579
REMARK  8 active torsions:
REMARK  status: ('A' for Active; 'I' for Inactive)
REMARK    1  A    between atoms: C5_5  and  O1_6 
REMARK    2  A    between atoms: C9_10  and  C10_11 
REMARK    3  A    between atoms: C10_11  and  C11_12 
REMARK    4  A    between atoms: C11_12  and  C12_13 
REMARK    5  A    between atoms: C14_15  and  C15_16 
REMARK    6  A    between atoms: C15_16  and  C16_17 
REMARK    7  A    between atoms: C16_17  and  C17_18 
REMARK    8  A    between atoms: C23_24  and  O2_25 
ROOT
HETATM    1  C12 UNL     1      -5.488  48.019 -26.101  1.00  0.00    -0.087 C 
HETATM    2  C13 UNL     1      -6.434  47.945 -24.932  1.00  0.00     0.043 C 
HETATM    3  C14 UNL     1      -4.172  48.302 -26.021  1.00  0.00    -0.024 C 
ENDROOT
BRANCH   3   4
HETATM    4  C15 UNL     1      -3.353  48.589 -24.795  1.00  0.00     0.030 C 
BRANCH   4   5
HETATM    5  C16 UNL     1      -2.381  49.774 -24.938  1.00  0.00     0.042 C 
BRANCH   5   6
HETATM    6  C17 UNL     1      -2.223  50.737 -23.726  1.00  0.00     0.065 C 
HETATM    7  C18 UNL     1      -3.463  51.634 -23.581  1.00  0.00     0.046 C 
HETATM    8  C19 UNL     1      -1.998  49.858 -22.479  1.00  0.00     0.043 C 
HETATM    9  C20 UNL     1      -1.685  50.694 -21.249  1.00  0.00     0.044 C 
HETATM   10  C21 UNL     1      -0.689  51.764 -21.578  1.00  0.00    -0.021 A 
HETATM   11  C22 UNL     1      -0.015  52.420 -20.538  1.00  0.00     0.046 A 
HETATM   12  C27 UNL     1      -0.444  52.140 -22.906  1.00  0.00     0.082 A 
HETATM   13  C23 UNL     1       0.906  53.420 -20.832  1.00  0.00     0.066 A 
HETATM   14  C24 UNL     1       1.167  53.781 -22.147  1.00  0.00     0.046 A 
HETATM   15  C25 UNL     1       0.501  53.138 -23.199  1.00  0.00    -0.025 A 
HETATM   16  C26 UNL     1       0.774  53.553 -24.616  1.00  0.00     0.051 C 
HETATM   17  O3  UNL     1      -1.072  51.560 -23.978  1.00  0.00    -0.340 OA
BRANCH  13  18
HETATM   18  O2  UNL     1       1.581  54.076 -19.846  1.00  0.00    -0.361 OA
HETATM   19  H36 UNL     1       1.303  53.715 -18.988  1.00  0.00     0.217 HD
ENDBRANCH  13  18
ENDBRANCH   5   6
ENDBRANCH   4   5
ENDBRANCH   3   4
BRANCH   1  20
HETATM   20  C11 UNL     1      -6.128  47.774 -27.460  1.00  0.00     0.034 C 
BRANCH  20  21
HETATM   21  C10 UNL     1      -7.138  46.614 -27.440  1.00  0.00     0.014 C 
BRANCH  21  22
HETATM   22  C9  UNL     1      -8.234  46.671 -28.545  1.00  0.00     0.024 C 
HETATM   23  C2  UNL     1      -9.345  47.705 -28.258  1.00  0.00    -0.084 C 
HETATM   24  C1  UNL     1      -9.421  48.517 -27.188  1.00  0.00     0.015 C 
HETATM   25  C3  UNL     1     -10.409  47.849 -29.328  1.00  0.00     0.036 C 
HETATM   26  C4  UNL     1     -10.347  46.747 -30.375  1.00  0.00     0.037 C 
HETATM   27  C5  UNL     1      -8.953  46.591 -30.995  1.00  0.00     0.127 C 
HETATM   28  C6  UNL     1      -7.749  46.892 -30.030  1.00  0.00    -0.014 C 
HETATM   29  C7  UNL     1      -7.193  48.327 -30.234  1.00  0.00     0.018 C 
HETATM   30  C8  UNL     1      -6.609  45.939 -30.450  1.00  0.00     0.018 C 
BRANCH  27  31
HETATM   31  O1  UNL     1      -8.862  47.387 -32.178  1.00  0.00    -0.395 OA
HETATM   32  H8  UNL     1      -9.563  47.096 -32.785  1.00  0.00     0.210 HD
ENDBRANCH  27  31
ENDBRANCH  21  22
ENDBRANCH  20  21
ENDBRANCH   1  20
TORSDOF 8
ENDMDL
