MODEL 1
REMARK minimizedAffinity -8.15032959
REMARK  9 active torsions:
REMARK  status: ('A' for Active; 'I' for Inactive)
REMARK    1  A    between atoms: O1_2  and  C2_3 
REMARK    2  A    between atoms: C2_3  and  C3_4 
REMARK    3  A    between atoms: C3_4  and  N1_5 
REMARK       I    between atoms: N1_5  and  C4_6 
REMARK    4  A    between atoms: C4_6  and  C5_8 
REMARK    5  A    between atoms: C5_8  and  C7_10 
REMARK    6  A    between atoms: C15_20  and  N3_21 
REMARK       I    between atoms: N3_21  and  C16_22 
REMARK    7  A    between atoms: C16_22  and  C17_24 
REMARK    8  A    between atoms: C17_24  and  N4_25 
REMARK    9  A    between atoms: C23_32  and  O4_33 
ROOT
HETATM    1  C7  UNL     1      -2.401  50.073 -25.067  1.00  0.00     0.027 C 
HETATM    2  C8  UNL     1      -3.256  48.968 -24.430  1.00  0.00     0.009 C 
HETATM    3  C9  UNL     1      -2.615  48.405 -23.167  1.00  0.00     0.010 C 
HETATM    4  C10 UNL     1      -2.322  49.484 -22.101  1.00  0.00    -0.033 C 
HETATM    5  C11 UNL     1      -3.663  50.064 -21.580  1.00  0.00     0.016 C 
HETATM    6  C12 UNL     1      -1.581  48.785 -20.918  1.00  0.00     0.058 C 
HETATM    7  C13 UNL     1      -1.020  49.804 -19.995  1.00  0.00     0.010 A 
HETATM    8  C14 UNL     1      -0.751  51.114 -20.321  1.00  0.00     0.029 A 
HETATM    9  N2  UNL     1      -0.282  51.882 -19.270  1.00  0.00    -0.339 N 
ATOM     10  H2  UNL     1      -0.064  52.877 -19.320  1.00  0.00     0.168 HD
HETATM   11  C15 UNL     1      -0.158  51.133 -18.196  1.00  0.00     0.151 A 
HETATM   12  S1  UNL     1      -0.631  49.504 -18.368  1.00  0.00    -0.056 SA
HETATM   13  C20 UNL     1      -0.993  51.714 -21.688  1.00  0.00     0.040 C 
HETATM   14  C21 UNL     1       0.247  52.518 -22.114  1.00  0.00     0.017 C 
HETATM   15  C22 UNL     1      -1.398  50.594 -22.731  1.00  0.00     0.033 C 
HETATM   16  C23 UNL     1      -2.024  51.171 -24.033  1.00  0.00     0.128 C 
ENDROOT
BRANCH   1  17
HETATM   17  C5  UNL     1      -3.036  50.680 -26.358  1.00  0.00     0.080 C 
HETATM   18  C6  UNL     1      -3.469  49.658 -27.412  1.00  0.00     0.020 C 
BRANCH  17  19
HETATM   19  C4  UNL     1      -2.168  51.793 -26.951  1.00  0.00     0.222 C 
HETATM   20  N1  UNL     1      -0.986  51.400 -27.534  1.00  0.00    -0.359 N 
HETATM   21  H8  UNL     1      -0.866  50.427 -27.769  1.00  0.00     0.162 HD
HETATM   22  O2  UNL     1      -2.509  52.971 -26.869  1.00  0.00    -0.273 OA
BRANCH  20  23
HETATM   23  C3  UNL     1      -0.127  52.355 -28.216  1.00  0.00     0.148 C 
BRANCH  23  24
HETATM   24  C2  UNL     1       1.353  51.980 -28.105  1.00  0.00     0.186 C 
BRANCH  24  25
HETATM   25  O1  UNL     1       1.894  52.265 -26.816  1.00  0.00    -0.394 OA
HETATM   26  C1  UNL     1       2.522  51.141 -26.210  1.00  0.00     0.201 C 
ENDBRANCH  24  25
ENDBRANCH  23  24
ENDBRANCH  20  23
ENDBRANCH  17  19
ENDBRANCH   1  17
BRANCH  16  27
HETATM   27  O4  UNL     1      -1.072  52.033 -24.649  1.00  0.00    -0.395 OA
HETATM   28  H38 UNL     1      -1.547  52.726 -25.137  1.00  0.00     0.210 HD
ENDBRANCH  16  27
BRANCH  11  29
HETATM   29  N3  UNL     1       0.307  51.651 -17.022  1.00  0.00    -0.306 N 
HETATM   30  C16 UNL     1       0.815  50.977 -15.935  1.00  0.00     0.252 C 
HETATM   31  O3  UNL     1       0.905  49.763 -15.784  1.00  0.00    -0.271 OA
HETATM   32  H23 UNL     1       0.388  52.664 -17.000  1.00  0.00     0.171 HD
BRANCH  30  33
HETATM   33  C17 UNL     1       1.230  51.937 -14.810  1.00  0.00     0.373 C 
BRANCH  33  34
HETATM   34  N4  UNL     1       2.710  52.049 -14.707  1.00  0.00     0.088 N 
HETATM   35  C18 UNL     1       3.301  52.283 -16.032  1.00  0.00     0.310 C 
HETATM   36  C19 UNL     1       3.259  50.811 -14.144  1.00  0.00     0.310 C 
ENDBRANCH  33  34
ENDBRANCH  30  33
ENDBRANCH  11  29
TORSDOF 9
ENDMDL
MODEL 2
REMARK minimizedAffinity -8.08775806
REMARK  9 active torsions:
REMARK  status: ('A' for Active; 'I' for Inactive)
REMARK    1  A    between atoms: O1_2  and  C2_3 
REMARK    2  A    between atoms: C2_3  and  C3_4 
REMARK    3  A    between atoms: C3_4  and  N1_5 
REMARK       I    between atoms: N1_5  and  C4_6 
REMARK    4  A    between atoms: C4_6  and  C5_8 
REMARK    5  A    between atoms: C5_8  and  C7_10 
REMARK    6  A    between atoms: C15_20  and  N3_21 
REMARK       I    between atoms: N3_21  and  C16_22 
REMARK    7  A    between atoms: C16_22  and  C17_24 
REMARK    8  A    between atoms: C17_24  and  N4_25 
REMARK    9  A    between atoms: C23_32  and  O4_33 
ROOT
HETATM    1  C7  UNL     1      -0.357  51.902 -21.517  1.00  0.00     0.027 C 
HETATM    2  C8  UNL     1       0.208  52.685 -22.711  1.00  0.00     0.009 C 
HETATM    3  C9  UNL     1       0.094  51.902 -24.014  1.00  0.00     0.010 C 
HETATM    4  C10 UNL     1      -1.352  51.473 -24.341  1.00  0.00    -0.033 C 
HETATM    5  C11 UNL     1      -2.210  52.734 -24.619  1.00  0.00     0.016 C 
HETATM    6  C12 UNL     1      -1.301  50.601 -25.635  1.00  0.00     0.058 C 
HETATM    7  C13 UNL     1      -2.605  49.922 -25.844  1.00  0.00     0.010 A 
HETATM    8  C14 UNL     1      -3.545  49.681 -24.867  1.00  0.00     0.029 A 
HETATM    9  N2  UNL     1      -4.706  49.081 -25.324  1.00  0.00    -0.339 N 
ATOM     10  H2  UNL     1      -5.519  48.862 -24.750  1.00  0.00     0.168 HD
HETATM   11  C15 UNL     1      -4.600  48.837 -26.612  1.00  0.00     0.151 A 
HETATM   12  S1  UNL     1      -3.147  49.343 -27.347  1.00  0.00    -0.056 SA
HETATM   13  C20 UNL     1      -3.383  50.081 -23.418  1.00  0.00     0.040 C 
HETATM   14  C21 UNL     1      -3.770  48.894 -22.521  1.00  0.00     0.017 C 
HETATM   15  C22 UNL     1      -1.920  50.620 -23.143  1.00  0.00     0.033 C 
HETATM   16  C23 UNL     1      -1.798  51.393 -21.798  1.00  0.00     0.128 C 
ENDROOT
BRANCH   1  17
HETATM   17  C5  UNL     1      -0.266  52.682 -20.167  1.00  0.00     0.080 C 
HETATM   18  C6  UNL     1       0.582  53.955 -20.207  1.00  0.00     0.020 C 
BRANCH  17  19
HETATM   19  C4  UNL     1       0.118  51.765 -19.003  1.00  0.00     0.222 C 
HETATM   20  N1  UNL     1       0.680  52.375 -17.906  1.00  0.00    -0.359 N 
HETATM   21  H8  UNL     1       0.579  53.374 -17.808  1.00  0.00     0.162 HD
HETATM   22  O2  UNL     1      -0.039  50.548 -19.079  1.00  0.00    -0.273 OA
BRANCH  20  23
HETATM   23  C3  UNL     1       0.995  51.622 -16.703  1.00  0.00     0.148 C 
BRANCH  23  24
HETATM   24  C2  UNL     1       1.905  52.407 -15.755  1.00  0.00     0.186 C 
BRANCH  24  25
HETATM   25  O1  UNL     1       3.024  52.987 -16.425  1.00  0.00    -0.394 OA
HETATM   26  C1  UNL     1       4.258  52.357 -16.103  1.00  0.00     0.201 C 
ENDBRANCH  24  25
ENDBRANCH  23  24
ENDBRANCH  20  23
ENDBRANCH  17  19
ENDBRANCH   1  17
BRANCH  16  27
HETATM   27  O4  UNL     1      -2.158  50.513 -20.737  1.00  0.00    -0.395 OA
HETATM   28  H38 UNL     1      -2.538  51.037 -20.012  1.00  0.00     0.210 HD
ENDBRANCH  16  27
BRANCH  11  29
HETATM   29  N3  UNL     1      -5.608  48.228 -27.301  1.00  0.00    -0.306 N 
HETATM   30  C16 UNL     1      -5.684  47.972 -28.651  1.00  0.00     0.252 C 
HETATM   31  O3  UNL     1      -4.875  48.287 -29.518  1.00  0.00    -0.271 OA
HETATM   32  H23 UNL     1      -6.338  47.819 -26.726  1.00  0.00     0.171 HD
BRANCH  30  33
HETATM   33  C17 UNL     1      -6.995  47.265 -29.027  1.00  0.00     0.373 C 
BRANCH  33  34
HETATM   34  N4  UNL     1      -8.138  48.218 -29.061  1.00  0.00     0.088 N 
HETATM   35  C18 UNL     1      -9.198  47.781 -28.140  1.00  0.00     0.310 C 
HETATM   36  C19 UNL     1      -8.679  48.289 -30.422  1.00  0.00     0.310 C 
ENDBRANCH  33  34
ENDBRANCH  30  33
ENDBRANCH  11  29
TORSDOF 9
ENDMDL
MODEL 3
REMARK minimizedAffinity -7.8969636
REMARK  9 active torsions:
REMARK  status: ('A' for Active; 'I' for Inactive)
REMARK    1  A    between atoms: O1_2  and  C2_3 
REMARK    2  A    between atoms: C2_3  and  C3_4 
REMARK    3  A    between atoms: C3_4  and  N1_5 
REMARK       I    between atoms: N1_5  and  C4_6 
REMARK    4  A    between atoms: C4_6  and  C5_8 
REMARK    5  A    between atoms: C5_8  and  C7_10 
REMARK    6  A    between atoms: C15_20  and  N3_21 
REMARK       I    between atoms: N3_21  and  C16_22 
REMARK    7  A    between atoms: C16_22  and  C17_24 
REMARK    8  A    between atoms: C17_24  and  N4_25 
REMARK    9  A    between atoms: C23_32  and  O4_33 
ROOT
HETATM    1  C7  UNL     1      -1.175  51.239 -23.651  1.00  0.00     0.027 C 
HETATM    2  C8  UNL     1      -2.139  50.119 -23.233  1.00  0.00     0.009 C 
HETATM    3  C9  UNL     1      -1.648  49.374 -21.997  1.00  0.00     0.010 C 
HETATM    4  C10 UNL     1      -1.405  50.299 -20.785  1.00  0.00    -0.033 C 
HETATM    5  C11 UNL     1      -2.759  50.893 -20.316  1.00  0.00     0.016 C 
HETATM    6  C12 UNL     1      -0.813  49.423 -19.636  1.00  0.00     0.058 C 
HETATM    7  C13 UNL     1      -0.293  50.290 -18.549  1.00  0.00     0.010 A 
HETATM    8  C14 UNL     1       0.069  51.612 -18.687  1.00  0.00     0.029 A 
HETATM    9  N2  UNL     1       0.473  52.220 -17.512  1.00  0.00    -0.339 N 
ATOM     10  H2  UNL     1       0.742  53.200 -17.420  1.00  0.00     0.168 HD
HETATM   11  C15 UNL     1       0.458  51.344 -16.532  1.00  0.00     0.151 A 
HETATM   12  S1  UNL     1      -0.074  49.777 -16.944  1.00  0.00    -0.056 SA
HETATM   13  C20 UNL     1      -0.014  52.382 -19.985  1.00  0.00     0.040 C 
HETATM   14  C21 UNL     1       1.298  53.156 -20.198  1.00  0.00     0.017 C 
HETATM   15  C22 UNL     1      -0.373  51.419 -21.190  1.00  0.00     0.033 C 
HETATM   16  C23 UNL     1      -0.845  52.182 -22.461  1.00  0.00     0.128 C 
ENDROOT
BRANCH   1  17
HETATM   17  C5  UNL     1      -1.655  52.030 -24.908  1.00  0.00     0.080 C 
HETATM   18  C6  UNL     1      -3.166  52.251 -25.000  1.00  0.00     0.020 C 
BRANCH  17  19
HETATM   19  C4  UNL     1      -1.074  51.453 -26.202  1.00  0.00     0.222 C 
HETATM   20  N1  UNL     1      -0.521  52.357 -27.079  1.00  0.00    -0.359 N 
HETATM   21  H8  UNL     1      -0.294  53.280 -26.738  1.00  0.00     0.162 HD
HETATM   22  O2  UNL     1      -1.140  50.250 -26.443  1.00  0.00    -0.273 OA
BRANCH  20  23
HETATM   23  C3  UNL     1       0.148  51.919 -28.293  1.00  0.00     0.148 C 
BRANCH  23  24
HETATM   24  C2  UNL     1       1.672  51.965 -28.159  1.00  0.00     0.186 C 
BRANCH  24  25
HETATM   25  O1  UNL     1       2.095  52.279 -26.832  1.00  0.00    -0.394 OA
HETATM   26  C1  UNL     1       2.576  51.148 -26.115  1.00  0.00     0.201 C 
ENDBRANCH  24  25
ENDBRANCH  23  24
ENDBRANCH  20  23
ENDBRANCH  17  19
ENDBRANCH   1  17
BRANCH  16  27
HETATM   27  O4  UNL     1       0.202  53.053 -22.880  1.00  0.00    -0.395 OA
HETATM   28  H38 UNL     1      -0.191  53.826 -23.319  1.00  0.00     0.210 HD
ENDBRANCH  16  27
BRANCH  11  29
HETATM   29  N3  UNL     1       0.836  51.691 -15.267  1.00  0.00    -0.306 N 
HETATM   30  C16 UNL     1       0.045  51.827 -14.149  1.00  0.00     0.252 C 
HETATM   31  O3  UNL     1      -1.174  51.710 -14.077  1.00  0.00    -0.271 OA
HETATM   32  H23 UNL     1       1.838  51.747 -15.116  1.00  0.00     0.171 HD
BRANCH  30  33
HETATM   33  C17 UNL     1       0.864  52.235 -12.915  1.00  0.00     0.373 C 
BRANCH  33  34
HETATM   34  N4  UNL     1      -0.014  52.692 -11.804  1.00  0.00     0.088 N 
HETATM   35  C18 UNL     1       0.524  53.917 -11.195  1.00  0.00     0.310 C 
HETATM   36  C19 UNL     1      -0.102  51.642 -10.783  1.00  0.00     0.310 C 
ENDBRANCH  33  34
ENDBRANCH  30  33
ENDBRANCH  11  29
TORSDOF 9
ENDMDL
MODEL 4
REMARK minimizedAffinity -7.8152113
REMARK  9 active torsions:
REMARK  status: ('A' for Active; 'I' for Inactive)
REMARK    1  A    between atoms: O1_2  and  C2_3 
REMARK    2  A    between atoms: C2_3  and  C3_4 
REMARK    3  A    between atoms: C3_4  and  N1_5 
REMARK       I    between atoms: N1_5  and  C4_6 
REMARK    4  A    between atoms: C4_6  and  C5_8 
REMARK    5  A    between atoms: C5_8  and  C7_10 
REMARK    6  A    between atoms: C15_20  and  N3_21 
REMARK       I    between atoms: N3_21  and  C16_22 
REMARK    7  A    between atoms: C16_22  and  C17_24 
REMARK    8  A    between atoms: C17_24  and  N4_25 
REMARK    9  A    between atoms: C23_32  and  O4_33 
ROOT
HETATM    1  C7  UNL     1      -0.394  51.160 -16.587  1.00  0.00     0.027 C 
HETATM    2  C8  UNL     1      -1.355  50.002 -16.893  1.00  0.00     0.009 C 
HETATM    3  C9  UNL     1      -2.276  50.318 -18.066  1.00  0.00     0.010 C 
HETATM    4  C10 UNL     1      -1.513  50.685 -19.357  1.00  0.00    -0.033 C 
HETATM    5  C11 UNL     1      -0.729  49.445 -19.858  1.00  0.00     0.016 C 
HETATM    6  C12 UNL     1      -2.574  51.080 -20.432  1.00  0.00     0.058 C 
HETATM    7  C13 UNL     1      -1.907  51.714 -21.598  1.00  0.00     0.010 A 
HETATM    8  C14 UNL     1      -0.665  52.308 -21.581  1.00  0.00     0.029 A 
HETATM    9  N2  UNL     1      -0.239  52.779 -22.810  1.00  0.00    -0.339 N 
ATOM     10  H2  UNL     1       0.666  53.214 -22.990  1.00  0.00     0.168 HD
HETATM   11  C15 UNL     1      -1.177  52.581 -23.709  1.00  0.00     0.151 A 
HETATM   12  S1  UNL     1      -2.583  51.792 -23.155  1.00  0.00    -0.056 SA
HETATM   13  C20 UNL     1       0.213  52.399 -20.354  1.00  0.00     0.040 C 
HETATM   14  C21 UNL     1       0.756  53.833 -20.226  1.00  0.00     0.017 C 
HETATM   15  C22 UNL     1      -0.566  51.910 -19.065  1.00  0.00     0.033 C 
HETATM   16  C23 UNL     1       0.373  51.618 -17.859  1.00  0.00     0.128 C 
ENDROOT
BRANCH   1  17
HETATM   17  C5  UNL     1       0.572  50.864 -15.397  1.00  0.00     0.080 C 
HETATM   18  C6  UNL     1       1.097  49.428 -15.327  1.00  0.00     0.020 C 
BRANCH  17  19
HETATM   19  C4  UNL     1      -0.007  51.336 -14.061  1.00  0.00     0.222 C 
HETATM   20  N1  UNL     1       0.564  52.460 -13.511  1.00  0.00    -0.359 N 
HETATM   21  H8  UNL     1       1.130  53.049 -14.103  1.00  0.00     0.162 HD
HETATM   22  O2  UNL     1      -0.907  50.709 -13.506  1.00  0.00    -0.273 OA
BRANCH  20  23
HETATM   23  C3  UNL     1       0.036  53.058 -12.296  1.00  0.00     0.148 C 
BRANCH  23  24
HETATM   24  C2  UNL     1      -1.397  52.603 -12.007  1.00  0.00     0.186 C 
BRANCH  24  25
HETATM   25  O1  UNL     1      -2.034  53.401 -11.011  1.00  0.00    -0.394 OA
HETATM   26  C1  UNL     1      -2.122  52.755  -9.746  1.00  0.00     0.201 C 
ENDBRANCH  24  25
ENDBRANCH  23  24
ENDBRANCH  20  23
ENDBRANCH  17  19
ENDBRANCH   1  17
BRANCH  16  27
HETATM   27  O4  UNL     1       1.074  52.814 -17.532  1.00  0.00    -0.395 OA
HETATM   28  H38 UNL     1       1.938  52.576 -17.156  1.00  0.00     0.210 HD
ENDBRANCH  16  27
BRANCH  11  29
HETATM   29  N3  UNL     1      -1.009  52.978 -25.004  1.00  0.00    -0.306 N 
HETATM   30  C16 UNL     1       0.168  53.176 -25.690  1.00  0.00     0.252 C 
HETATM   31  O3  UNL     1       1.311  53.081 -25.254  1.00  0.00    -0.271 OA
HETATM   32  H23 UNL     1      -1.861  53.024 -25.555  1.00  0.00     0.171 HD
BRANCH  30  33
HETATM   33  C17 UNL     1      -0.082  53.624 -27.138  1.00  0.00     0.373 C 
BRANCH  33  34
HETATM   34  N4  UNL     1      -0.082  52.468 -28.074  1.00  0.00     0.088 N 
HETATM   35  C18 UNL     1      -1.014  51.431 -27.609  1.00  0.00     0.310 C 
HETATM   36  C19 UNL     1       1.268  51.903 -28.160  1.00  0.00     0.310 C 
ENDBRANCH  33  34
ENDBRANCH  30  33
ENDBRANCH  11  29
TORSDOF 9
ENDMDL
MODEL 5
REMARK minimizedAffinity -7.76653862
REMARK  9 active torsions:
REMARK  status: ('A' for Active; 'I' for Inactive)
REMARK    1  A    between atoms: O1_2  and  C2_3 
REMARK    2  A    between atoms: C2_3  and  C3_4 
REMARK    3  A    between atoms: C3_4  and  N1_5 
REMARK       I    between atoms: N1_5  and  C4_6 
REMARK    4  A    between atoms: C4_6  and  C5_8 
REMARK    5  A    between atoms: C5_8  and  C7_10 
REMARK    6  A    between atoms: C15_20  and  N3_21 
REMARK       I    between atoms: N3_21  and  C16_22 
REMARK    7  A    between atoms: C16_22  and  C17_24 
REMARK    8  A    between atoms: C17_24  and  N4_25 
REMARK    9  A    between atoms: C23_32  and  O4_33 
ROOT
HETATM    1  C7  UNL     1      -0.714  51.496 -20.828  1.00  0.00     0.027 C 
HETATM    2  C8  UNL     1      -0.249  52.523 -21.870  1.00  0.00     0.009 C 
HETATM    3  C9  UNL     1      -0.215  51.936 -23.277  1.00  0.00     0.010 C 
HETATM    4  C10 UNL     1      -1.573  51.353 -23.724  1.00  0.00    -0.033 C 
HETATM    5  C11 UNL     1      -2.605  52.503 -23.854  1.00  0.00     0.016 C 
HETATM    6  C12 UNL     1      -1.363  50.702 -25.128  1.00  0.00     0.058 C 
HETATM    7  C13 UNL     1      -2.545  49.879 -25.490  1.00  0.00     0.010 A 
HETATM    8  C14 UNL     1      -3.458  49.359 -24.599  1.00  0.00     0.029 A 
HETATM    9  N2  UNL     1      -4.505  48.671 -25.188  1.00  0.00    -0.339 N 
ATOM     10  H2  UNL     1      -5.288  48.251 -24.687  1.00  0.00     0.168 HD
HETATM   11  C15 UNL     1      -4.336  48.640 -26.492  1.00  0.00     0.151 A 
HETATM   12  S1  UNL     1      -2.961  49.458 -27.082  1.00  0.00    -0.056 SA
HETATM   13  C20 UNL     1      -3.389  49.556 -23.102  1.00  0.00     0.040 C 
HETATM   14  C21 UNL     1      -3.611  48.205 -22.403  1.00  0.00     0.017 C 
HETATM   15  C22 UNL     1      -2.030  50.257 -22.689  1.00  0.00     0.033 C 
HETATM   16  C23 UNL     1      -2.055  50.829 -21.242  1.00  0.00     0.128 C 
ENDROOT
BRANCH   1  17
HETATM   17  C5  UNL     1      -0.771  52.070 -19.377  1.00  0.00     0.080 C 
HETATM   18  C6  UNL     1       0.402  52.973 -18.988  1.00  0.00     0.020 C 
BRANCH  17  19
HETATM   19  C4  UNL     1      -1.027  50.974 -18.339  1.00  0.00     0.222 C 
HETATM   20  N1  UNL     1      -2.202  51.067 -17.631  1.00  0.00    -0.359 N 
HETATM   21  H8  UNL     1      -2.930  51.668 -17.986  1.00  0.00     0.162 HD
HETATM   22  O2  UNL     1      -0.198  50.089 -18.138  1.00  0.00    -0.273 OA
BRANCH  20  23
HETATM   23  C3  UNL     1      -2.599  50.033 -16.689  1.00  0.00     0.148 C 
BRANCH  23  24
HETATM   24  C2  UNL     1      -2.561  50.527 -15.241  1.00  0.00     0.186 C 
BRANCH  24  25
HETATM   25  O1  UNL     1      -3.430  51.636 -15.018  1.00  0.00    -0.394 OA
HETATM   26  C1  UNL     1      -3.294  52.203 -13.720  1.00  0.00     0.201 C 
ENDBRANCH  24  25
ENDBRANCH  23  24
ENDBRANCH  20  23
ENDBRANCH  17  19
ENDBRANCH   1  17
BRANCH  16  27
HETATM   27  O4  UNL     1      -2.300  49.757 -20.336  1.00  0.00    -0.395 OA
HETATM   28  H38 UNL     1      -2.770  50.106 -19.560  1.00  0.00     0.210 HD
ENDBRANCH  16  27
BRANCH  11  29
HETATM   29  N3  UNL     1      -5.226  48.000 -27.305  1.00  0.00    -0.306 N 
HETATM   30  C16 UNL     1      -5.339  48.080 -28.674  1.00  0.00     0.252 C 
HETATM   31  O3  UNL     1      -4.688  48.786 -29.437  1.00  0.00    -0.271 OA
HETATM   32  H23 UNL     1      -5.799  47.297 -26.848  1.00  0.00     0.171 HD
BRANCH  30  33
HETATM   33  C17 UNL     1      -6.478  47.197 -29.206  1.00  0.00     0.373 C 
BRANCH  33  34
HETATM   34  N4  UNL     1      -6.473  47.138 -30.693  1.00  0.00     0.088 N 
HETATM   35  C18 UNL     1      -5.145  46.748 -31.187  1.00  0.00     0.310 C 
HETATM   36  C19 UNL     1      -6.827  48.452 -31.239  1.00  0.00     0.310 C 
ENDBRANCH  33  34
ENDBRANCH  30  33
ENDBRANCH  11  29
TORSDOF 9
ENDMDL
MODEL 6
REMARK minimizedAffinity -7.72670031
REMARK  9 active torsions:
REMARK  status: ('A' for Active; 'I' for Inactive)
REMARK    1  A    between atoms: O1_2  and  C2_3 
REMARK    2  A    between atoms: C2_3  and  C3_4 
REMARK    3  A    between atoms: C3_4  and  N1_5 
REMARK       I    between atoms: N1_5  and  C4_6 
REMARK    4  A    between atoms: C4_6  and  C5_8 
REMARK    5  A    between atoms: C5_8  and  C7_10 
REMARK    6  A    between atoms: C15_20  and  N3_21 
REMARK       I    between atoms: N3_21  and  C16_22 
REMARK    7  A    between atoms: C16_22  and  C17_24 
REMARK    8  A    between atoms: C17_24  and  N4_25 
REMARK    9  A    between atoms: C23_32  and  O4_33 
ROOT
HETATM    1  C7  UNL     1      -3.595  50.640 -25.148  1.00  0.00     0.027 C 
HETATM    2  C8  UNL     1      -3.707  52.074 -24.608  1.00  0.00     0.009 C 
HETATM    3  C9  UNL     1      -4.006  52.101 -23.113  1.00  0.00     0.010 C 
HETATM    4  C10 UNL     1      -2.964  51.332 -22.271  1.00  0.00    -0.033 C 
HETATM    5  C11 UNL     1      -1.597  52.058 -22.364  1.00  0.00     0.016 C 
HETATM    6  C12 UNL     1      -3.450  51.358 -20.788  1.00  0.00     0.058 C 
HETATM    7  C13 UNL     1      -2.654  50.404 -19.974  1.00  0.00     0.010 A 
HETATM    8  C14 UNL     1      -1.950  49.329 -20.468  1.00  0.00     0.029 A 
HETATM    9  N2  UNL     1      -1.242  48.620 -19.513  1.00  0.00    -0.339 N 
ATOM     10  H2  UNL     1      -0.640  47.819 -19.702  1.00  0.00     0.168 HD
HETATM   11  C15 UNL     1      -1.465  49.136 -18.324  1.00  0.00     0.151 A 
HETATM   12  S1  UNL     1      -2.482  50.504 -18.287  1.00  0.00    -0.056 SA
HETATM   13  C20 UNL     1      -1.882  48.960 -21.933  1.00  0.00     0.040 C 
HETATM   14  C21 UNL     1      -2.127  47.450 -22.086  1.00  0.00     0.017 C 
HETATM   15  C22 UNL     1      -2.884  49.844 -22.783  1.00  0.00     0.033 C 
HETATM   16  C23 UNL     1      -2.598  49.792 -24.311  1.00  0.00     0.128 C 
ENDROOT
BRANCH   1  17
HETATM   17  C5  UNL     1      -3.278  50.578 -26.675  1.00  0.00     0.080 C 
HETATM   18  C6  UNL     1      -3.687  49.278 -27.372  1.00  0.00     0.020 C 
BRANCH  17  19
HETATM   19  C4  UNL     1      -1.827  50.963 -26.973  1.00  0.00     0.222 C 
HETATM   20  N1  UNL     1      -1.638  52.114 -27.701  1.00  0.00    -0.359 N 
HETATM   21  H8  UNL     1      -2.406  52.765 -27.779  1.00  0.00     0.162 HD
HETATM   22  O2  UNL     1      -0.895  50.250 -26.605  1.00  0.00    -0.273 OA
BRANCH  20  23
HETATM   23  C3  UNL     1      -0.305  52.633 -27.962  1.00  0.00     0.148 C 
BRANCH  23  24
HETATM   24  C2  UNL     1       0.065  53.774 -27.011  1.00  0.00     0.186 C 
BRANCH  24  25
HETATM   25  O1  UNL     1       0.900  53.344 -25.937  1.00  0.00    -0.394 OA
HETATM   26  C1  UNL     1       0.475  53.826 -24.668  1.00  0.00     0.201 C 
ENDBRANCH  24  25
ENDBRANCH  23  24
ENDBRANCH  20  23
ENDBRANCH  17  19
ENDBRANCH   1  17
BRANCH  16  27
HETATM   27  O4  UNL     1      -2.712  48.440 -24.746  1.00  0.00    -0.395 OA
HETATM   28  H38 UNL     1      -2.117  48.304 -25.503  1.00  0.00     0.210 HD
ENDBRANCH  16  27
BRANCH  11  29
HETATM   29  N3  UNL     1      -0.895  48.603 -17.204  1.00  0.00    -0.306 N 
HETATM   30  C16 UNL     1       0.101  49.136 -16.419  1.00  0.00     0.252 C 
HETATM   31  O3  UNL     1       0.714  50.184 -16.598  1.00  0.00    -0.271 OA
HETATM   32  H23 UNL     1      -1.342  47.762 -16.851  1.00  0.00     0.171 HD
BRANCH  30  33
HETATM   33  C17 UNL     1       0.459  48.213 -15.244  1.00  0.00     0.373 C 
BRANCH  33  34
HETATM   34  N4  UNL     1       1.501  48.819 -14.372  1.00  0.00     0.088 N 
HETATM   35  C18 UNL     1       2.500  47.812 -13.989  1.00  0.00     0.310 C 
HETATM   36  C19 UNL     1       0.875  49.364 -13.163  1.00  0.00     0.310 C 
ENDBRANCH  33  34
ENDBRANCH  30  33
ENDBRANCH  11  29
TORSDOF 9
ENDMDL
MODEL 7
REMARK minimizedAffinity -7.63538504
REMARK  9 active torsions:
REMARK  status: ('A' for Active; 'I' for Inactive)
REMARK    1  A    between atoms: O1_2  and  C2_3 
REMARK    2  A    between atoms: C2_3  and  C3_4 
REMARK    3  A    between atoms: C3_4  and  N1_5 
REMARK       I    between atoms: N1_5  and  C4_6 
REMARK    4  A    between atoms: C4_6  and  C5_8 
REMARK    5  A    between atoms: C5_8  and  C7_10 
REMARK    6  A    between atoms: C15_20  and  N3_21 
REMARK       I    between atoms: N3_21  and  C16_22 
REMARK    7  A    between atoms: C16_22  and  C17_24 
REMARK    8  A    between atoms: C17_24  and  N4_25 
REMARK    9  A    between atoms: C23_32  and  O4_33 
ROOT
HETATM    1  C7  UNL     1      -0.557  51.482 -24.469  1.00  0.00     0.027 C 
HETATM    2  C8  UNL     1      -1.738  50.538 -24.200  1.00  0.00     0.009 C 
HETATM    3  C9  UNL     1      -1.543  49.728 -22.923  1.00  0.00     0.010 C 
HETATM    4  C10 UNL     1      -1.314  50.608 -21.674  1.00  0.00    -0.033 C 
HETATM    5  C11 UNL     1      -2.603  51.418 -21.377  1.00  0.00     0.016 C 
HETATM    6  C12 UNL     1      -1.030  49.652 -20.473  1.00  0.00     0.058 C 
HETATM    7  C13 UNL     1      -0.524  50.428 -19.313  1.00  0.00     0.010 A 
HETATM    8  C14 UNL     1       0.064  51.671 -19.380  1.00  0.00     0.029 A 
HETATM    9  N2  UNL     1       0.404  52.211 -18.152  1.00  0.00    -0.339 N 
ATOM     10  H2  UNL     1       0.815  53.134 -18.009  1.00  0.00     0.168 HD
HETATM   11  C15 UNL     1       0.117  51.354 -17.197  1.00  0.00     0.151 A 
HETATM   12  S1  UNL     1      -0.605  49.894 -17.702  1.00  0.00    -0.056 SA
HETATM   13  C20 UNL     1       0.281  52.438 -20.664  1.00  0.00     0.040 C 
HETATM   14  C21 UNL     1       1.718  52.985 -20.691  1.00  0.00     0.017 C 
HETATM   15  C22 UNL     1      -0.069  51.541 -21.922  1.00  0.00     0.033 C 
HETATM   16  C23 UNL     1      -0.237  52.365 -23.231  1.00  0.00     0.128 C 
ENDROOT
BRANCH   1  17
HETATM   17  C5  UNL     1      -0.731  52.335 -25.765  1.00  0.00     0.080 C 
HETATM   18  C6  UNL     1      -0.471  53.834 -25.598  1.00  0.00     0.020 C 
BRANCH  17  19
HETATM   19  C4  UNL     1      -2.066  52.053 -26.459  1.00  0.00     0.222 C 
HETATM   20  N1  UNL     1      -2.092  50.981 -27.321  1.00  0.00    -0.359 N 
HETATM   21  H8  UNL     1      -1.348  50.302 -27.264  1.00  0.00     0.162 HD
HETATM   22  O2  UNL     1      -3.041  52.778 -26.273  1.00  0.00    -0.273 OA
BRANCH  20  23
HETATM   23  C3  UNL     1      -3.326  50.557 -27.962  1.00  0.00     0.148 C 
BRANCH  23  24
HETATM   24  C2  UNL     1      -3.612  49.071 -27.733  1.00  0.00     0.186 C 
BRANCH  24  25
HETATM   25  O1  UNL     1      -3.234  48.636 -26.428  1.00  0.00    -0.394 OA
HETATM   26  C1  UNL     1      -4.346  48.404 -25.571  1.00  0.00     0.201 C 
ENDBRANCH  24  25
ENDBRANCH  23  24
ENDBRANCH  20  23
ENDBRANCH  17  19
ENDBRANCH   1  17
BRANCH  16  27
HETATM   27  O4  UNL     1       0.984  53.050 -23.494  1.00  0.00    -0.395 OA
HETATM   28  H38 UNL     1       0.783  53.874 -23.968  1.00  0.00     0.210 HD
ENDBRANCH  16  27
BRANCH  11  29
HETATM   29  N3  UNL     1       0.375  51.641 -15.888  1.00  0.00    -0.306 N 
HETATM   30  C16 UNL     1       0.866  50.803 -14.913  1.00  0.00     0.252 C 
HETATM   31  O3  UNL     1       1.125  49.609 -15.015  1.00  0.00    -0.271 OA
HETATM   32  H23 UNL     1       0.298  52.623 -15.638  1.00  0.00     0.171 HD
BRANCH  30  33
HETATM   33  C17 UNL     1       1.013  51.522 -13.562  1.00  0.00     0.373 C 
BRANCH  33  34
HETATM   34  N4  UNL     1       2.440  51.794 -13.242  1.00  0.00     0.088 N 
HETATM   35  C18 UNL     1       3.240  51.856 -14.473  1.00  0.00     0.310 C 
HETATM   36  C19 UNL     1       2.962  50.730 -12.378  1.00  0.00     0.310 C 
ENDBRANCH  33  34
ENDBRANCH  30  33
ENDBRANCH  11  29
TORSDOF 9
ENDMDL
MODEL 8
REMARK minimizedAffinity -7.57429934
REMARK  9 active torsions:
REMARK  status: ('A' for Active; 'I' for Inactive)
REMARK    1  A    between atoms: O1_2  and  C2_3 
REMARK    2  A    between atoms: C2_3  and  C3_4 
REMARK    3  A    between atoms: C3_4  and  N1_5 
REMARK       I    between atoms: N1_5  and  C4_6 
REMARK    4  A    between atoms: C4_6  and  C5_8 
REMARK    5  A    between atoms: C5_8  and  C7_10 
REMARK    6  A    between atoms: C15_20  and  N3_21 
REMARK       I    between atoms: N3_21  and  C16_22 
REMARK    7  A    between atoms: C16_22  and  C17_24 
REMARK    8  A    between atoms: C17_24  and  N4_25 
REMARK    9  A    between atoms: C23_32  and  O4_33 
ROOT
HETATM    1  C7  UNL     1      -0.938  51.123 -22.968  1.00  0.00     0.027 C 
HETATM    2  C8  UNL     1      -1.871  50.006 -22.480  1.00  0.00     0.009 C 
HETATM    3  C9  UNL     1      -1.361  49.354 -21.200  1.00  0.00     0.010 C 
HETATM    4  C10 UNL     1      -1.145  50.360 -20.049  1.00  0.00    -0.033 C 
HETATM    5  C11 UNL     1      -2.515  50.945 -19.617  1.00  0.00     0.016 C 
HETATM    6  C12 UNL     1      -0.530  49.574 -18.848  1.00  0.00     0.058 C 
HETATM    7  C13 UNL     1      -0.035  50.522 -17.818  1.00  0.00     0.010 A 
HETATM    8  C14 UNL     1       0.291  51.842 -18.039  1.00  0.00     0.029 A 
HETATM    9  N2  UNL     1       0.677  52.534 -16.905  1.00  0.00    -0.339 N 
ATOM     10  H2  UNL     1       0.919  53.525 -16.875  1.00  0.00     0.168 HD
HETATM   11  C15 UNL     1       0.685  51.721 -15.872  1.00  0.00     0.151 A 
HETATM   12  S1  UNL     1       0.196  50.118 -16.184  1.00  0.00    -0.056 SA
HETATM   13  C20 UNL     1       0.188  52.526 -19.383  1.00  0.00     0.040 C 
HETATM   14  C21 UNL     1       1.478  53.321 -19.646  1.00  0.00     0.017 C 
HETATM   15  C22 UNL     1      -0.144  51.480 -20.525  1.00  0.00     0.033 C 
HETATM   16  C23 UNL     1      -0.635  52.149 -21.841  1.00  0.00     0.128 C 
ENDROOT
BRANCH   1  17
HETATM   17  C5  UNL     1      -1.439  51.820 -24.273  1.00  0.00     0.080 C 
HETATM   18  C6  UNL     1      -2.800  51.343 -24.784  1.00  0.00     0.020 C 
BRANCH  17  19
HETATM   19  C4  UNL     1      -0.372  51.812 -25.370  1.00  0.00     0.222 C 
HETATM   20  N1  UNL     1      -0.827  51.711 -26.664  1.00  0.00    -0.359 N 
HETATM   21  H8  UNL     1      -1.801  51.904 -26.846  1.00  0.00     0.162 HD
HETATM   22  O2  UNL     1       0.824  51.855 -25.089  1.00  0.00    -0.273 OA
BRANCH  20  23
HETATM   23  C3  UNL     1       0.085  51.792 -27.793  1.00  0.00     0.148 C 
BRANCH  23  24
HETATM   24  C2  UNL     1       0.101  53.187 -28.422  1.00  0.00     0.186 C 
BRANCH  24  25
HETATM   25  O1  UNL     1      -0.778  54.096 -27.760  1.00  0.00    -0.394 OA
HETATM   26  C1  UNL     1      -0.097  55.167 -27.118  1.00  0.00     0.201 C 
ENDBRANCH  24  25
ENDBRANCH  23  24
ENDBRANCH  20  23
ENDBRANCH  17  19
ENDBRANCH   1  17
BRANCH  16  27
HETATM   27  O4  UNL     1       0.388  53.020 -22.315  1.00  0.00    -0.395 OA
HETATM   28  H38 UNL     1      -0.026  53.752 -22.801  1.00  0.00     0.210 HD
ENDBRANCH  16  27
BRANCH  11  29
HETATM   29  N3  UNL     1       1.052  52.158 -14.632  1.00  0.00    -0.306 N 
HETATM   30  C16 UNL     1       0.257  52.343 -13.524  1.00  0.00     0.252 C 
HETATM   31  O3  UNL     1      -0.959  52.197 -13.444  1.00  0.00    -0.271 OA
HETATM   32  H23 UNL     1       2.053  52.250 -14.485  1.00  0.00     0.171 HD
BRANCH  30  33
HETATM   33  C17 UNL     1       1.063  52.850 -12.319  1.00  0.00     0.373 C 
BRANCH  33  34
HETATM   34  N4  UNL     1       0.172  53.315 -11.222  1.00  0.00     0.088 N 
HETATM   35  C18 UNL     1       0.624  54.616 -10.710  1.00  0.00     0.310 C 
HETATM   36  C19 UNL     1       0.181  52.336 -10.131  1.00  0.00     0.310 C 
ENDBRANCH  33  34
ENDBRANCH  30  33
ENDBRANCH  11  29
TORSDOF 9
ENDMDL
MODEL 9
REMARK minimizedAffinity -7.46546221
REMARK  9 active torsions:
REMARK  status: ('A' for Active; 'I' for Inactive)
REMARK    1  A    between atoms: O1_2  and  C2_3 
REMARK    2  A    between atoms: C2_3  and  C3_4 
REMARK    3  A    between atoms: C3_4  and  N1_5 
REMARK       I    between atoms: N1_5  and  C4_6 
REMARK    4  A    between atoms: C4_6  and  C5_8 
REMARK    5  A    between atoms: C5_8  and  C7_10 
REMARK    6  A    between atoms: C15_20  and  N3_21 
REMARK       I    between atoms: N3_21  and  C16_22 
REMARK    7  A    between atoms: C16_22  and  C17_24 
REMARK    8  A    between atoms: C17_24  and  N4_25 
REMARK    9  A    between atoms: C23_32  and  O4_33 
ROOT
HETATM    1  C7  UNL     1      -0.765  51.281 -23.679  1.00  0.00     0.027 C 
HETATM    2  C8  UNL     1      -1.747  50.156 -23.322  1.00  0.00     0.009 C 
HETATM    3  C9  UNL     1      -1.340  49.425 -22.047  1.00  0.00     0.010 C 
HETATM    4  C10 UNL     1      -1.193  50.363 -20.829  1.00  0.00    -0.033 C 
HETATM    5  C11 UNL     1      -2.582  50.948 -20.464  1.00  0.00     0.016 C 
HETATM    6  C12 UNL     1      -0.678  49.501 -19.634  1.00  0.00     0.058 C 
HETATM    7  C13 UNL     1      -0.245  50.381 -18.519  1.00  0.00     0.010 A 
HETATM    8  C14 UNL     1       0.115  51.705 -18.642  1.00  0.00     0.029 A 
HETATM    9  N2  UNL     1       0.429  52.326 -17.446  1.00  0.00    -0.339 N 
ATOM     10  H2  UNL     1       0.682  53.309 -17.343  1.00  0.00     0.168 HD
HETATM   11  C15 UNL     1       0.350  51.458 -16.462  1.00  0.00     0.151 A 
HETATM   12  S1  UNL     1      -0.138  49.883 -16.898  1.00  0.00    -0.056 SA
HETATM   13  C20 UNL     1       0.120  52.464 -19.949  1.00  0.00     0.040 C 
HETATM   14  C21 UNL     1       1.437  53.248 -20.074  1.00  0.00     0.017 C 
HETATM   15  C22 UNL     1      -0.144  51.488 -21.168  1.00  0.00     0.033 C 
HETATM   16  C23 UNL     1      -0.529  52.237 -22.477  1.00  0.00     0.128 C 
ENDROOT
BRANCH   1  17
HETATM   17  C5  UNL     1      -1.159  52.058 -24.974  1.00  0.00     0.080 C 
HETATM   18  C6  UNL     1      -0.375  53.348 -25.224  1.00  0.00     0.020 C 
BRANCH  17  19
HETATM   19  C4  UNL     1      -2.672  52.271 -25.074  1.00  0.00     0.222 C 
HETATM   20  N1  UNL     1      -3.421  51.843 -24.002  1.00  0.00    -0.359 N 
HETATM   21  H8  UNL     1      -2.948  51.658 -23.130  1.00  0.00     0.162 HD
HETATM   22  O2  UNL     1      -3.176  52.764 -26.080  1.00  0.00    -0.273 OA
BRANCH  20  23
HETATM   23  C3  UNL     1      -4.854  52.079 -23.940  1.00  0.00     0.148 C 
BRANCH  23  24
HETATM   24  C2  UNL     1      -5.573  51.034 -23.084  1.00  0.00     0.186 C 
BRANCH  24  25
HETATM   25  O1  UNL     1      -6.222  50.035 -23.870  1.00  0.00    -0.394 OA
HETATM   26  C1  UNL     1      -5.391  48.914 -24.148  1.00  0.00     0.201 C 
ENDBRANCH  24  25
ENDBRANCH  23  24
ENDBRANCH  20  23
ENDBRANCH  17  19
ENDBRANCH   1  17
BRANCH  16  27
HETATM   27  O4  UNL     1       0.538  53.114 -22.827  1.00  0.00    -0.395 OA
HETATM   28  H38 UNL     1       0.171  53.879 -23.300  1.00  0.00     0.210 HD
ENDBRANCH  16  27
BRANCH  11  29
HETATM   29  N3  UNL     1       0.633  51.819 -15.176  1.00  0.00    -0.306 N 
HETATM   30  C16 UNL     1       1.547  51.257 -14.315  1.00  0.00     0.252 C 
HETATM   31  O3  UNL     1       2.262  50.281 -14.517  1.00  0.00    -0.271 OA
HETATM   32  H23 UNL     1       0.189  52.676 -14.861  1.00  0.00     0.171 HD
BRANCH  30  33
HETATM   33  C17 UNL     1       1.556  51.962 -12.950  1.00  0.00     0.373 C 
BRANCH  33  34
HETATM   34  N4  UNL     1       0.462  51.464 -12.072  1.00  0.00     0.088 N 
HETATM   35  C18 UNL     1      -0.059  50.186 -12.576  1.00  0.00     0.310 C 
HETATM   36  C19 UNL     1      -0.624  52.448 -12.032  1.00  0.00     0.310 C 
ENDBRANCH  33  34
ENDBRANCH  30  33
ENDBRANCH  11  29
TORSDOF 9
ENDMDL
