MODEL 1
REMARK minimizedAffinity -8.53378773
REMARK CNNscore 0.640454113
REMARK CNNaffinity 7.36259031
REMARK  11 active torsions:
REMARK  status: ('A' for Active; 'I' for Inactive)
REMARK    1  A    between atoms: C3_3  and  O1_4 
REMARK    2  A    between atoms: N1_14  and  O2_16 
REMARK    3  A    between atoms: O2_16  and  C13_17 
REMARK    4  A    between atoms: C13_17  and  C14_18 
REMARK       I    between atoms: C14_18  and  N2_20 
REMARK    5  A    between atoms: N2_20  and  C15_21 
REMARK    6  A    between atoms: C15_21  and  C16_22 
REMARK    7  A    between atoms: C15_21  and  C17_25 
REMARK    8  A    between atoms: C16_22  and  O5_24 
REMARK    9  A    between atoms: C17_25  and  O6_26 
REMARK   10  A    between atoms: C17_25  and  C18_27 
REMARK   11  A    between atoms: C22_31  and  N3_32 
ROOT
HETATM    1  C1  UNL     1      -0.568  11.507  14.816  1.00  0.00     0.015 C 
HETATM    2  C2  UNL     1      -0.950  10.385  14.610  1.00  0.00    -0.078 C 
HETATM    3  C3  UNL     1      -1.412   9.011  14.365  1.00  0.00     0.128 C 
HETATM    4  C4  UNL     1      -1.881   8.816  12.913  1.00  0.00     0.052 C 
HETATM    5  C5  UNL     1      -2.952   7.715  12.956  1.00  0.00     0.010 C 
HETATM    6  C6  UNL     1      -3.154   7.350  14.438  1.00  0.00     0.002 C 
HETATM    7  C7  UNL     1      -4.580   6.900  14.823  1.00  0.00    -0.004 C 
HETATM    8  C8  UNL     1      -5.044   5.641  14.059  1.00  0.00     0.010 C 
HETATM    9  C9  UNL     1      -6.288   5.864  13.203  1.00  0.00     0.035 C 
HETATM   10  C10 UNL     1      -7.424   6.521  13.952  1.00  0.00    -0.069 C 
HETATM   11  C11 UNL     1      -8.697   6.252  13.615  1.00  0.00     0.030 C 
HETATM   12  C12 UNL     1      -9.828   6.967  14.258  1.00  0.00     0.032 C 
HETATM   13  N1  UNL     1     -11.018   6.449  14.153  1.00  0.00    -0.271 N 
ATOM     14  H1  UNL     1     -11.228   5.585  13.655  1.00  0.00     0.194 HD
HETATM   15  C24 UNL     1      -9.542   8.251  15.019  1.00  0.00     0.060 C 
HETATM   16  C25 UNL     1      -8.087   8.706  14.926  1.00  0.00     0.020 C 
HETATM   17  C26 UNL     1      -7.066   7.545  15.035  1.00  0.00    -0.016 C 
HETATM   18  C27 UNL     1      -7.186   6.882  16.429  1.00  0.00     0.020 C 
HETATM   19  C28 UNL     1      -5.608   8.059  14.764  1.00  0.00     0.002 C 
HETATM   20  C29 UNL     1      -5.130   9.194  15.685  1.00  0.00     0.007 C 
HETATM   21  C30 UNL     1      -3.743   9.696  15.266  1.00  0.00     0.014 C 
HETATM   22  C31 UNL     1      -2.650   8.593  15.221  1.00  0.00     0.003 C 
HETATM   23  C32 UNL     1      -2.251   8.211  16.659  1.00  0.00     0.020 C 
ENDROOT
BRANCH   3  24
HETATM   24  O1  UNL     1      -0.304   8.139  14.605  1.00  0.00    -0.377 OA
HETATM   25  H2  UNL     1      -0.487   7.285  14.183  1.00  0.00     0.211 HD
ENDBRANCH   3  24
BRANCH  13  26
HETATM   26  O2  UNL     1     -11.974   7.234  14.814  1.00  0.00    -0.271 OA
BRANCH  26  27
HETATM   27  C13 UNL     1     -12.565   8.125  13.873  1.00  0.00     0.303 C 
BRANCH  27  28
HETATM   28  C14 UNL     1     -14.058   7.860  13.884  1.00  0.00     0.244 C 
HETATM   29  O3  UNL     1     -14.792   8.179  14.816  1.00  0.00    -0.271 OA
HETATM   30  N2  UNL     1     -14.544   7.262  12.744  1.00  0.00    -0.342 N 
HETATM   31  H16 UNL     1     -13.909   6.933  12.020  1.00  0.00     0.163 HD
BRANCH  30  32
HETATM   32  C15 UNL     1     -15.950   6.835  12.632  1.00  0.00     0.216 C 
BRANCH  32  33
HETATM   33  C16 UNL     1     -16.794   8.002  12.103  1.00  0.00     0.166 C 
HETATM   34  O4  UNL     1     -17.781   7.936  11.384  1.00  0.00    -0.648 OA
BRANCH  33  35
HETATM   35  O5  UNL     1     -16.326   9.220  12.479  1.00  0.00    -0.775 OA
HETATM   36  H18 UNL     1     -16.995   9.841  12.114  1.00  0.00     0.167 HD
ENDBRANCH  33  35
ENDBRANCH  32  33
BRANCH  32  37
HETATM   37  C17 UNL     1     -16.485   6.318  13.989  1.00  0.00     0.184 C 
BRANCH  37  38
HETATM   38  O6  UNL     1     -17.582   7.128  14.436  1.00  0.00    -0.388 OA
HETATM   39  H20 UNL     1     -17.197   7.989  14.679  1.00  0.00     0.210 HD
ENDBRANCH  37  38
BRANCH  37  40
HETATM   40  C18 UNL     1     -16.860   4.848  13.986  1.00  0.00    -0.025 A 
HETATM   41  C19 UNL     1     -18.181   4.475  13.678  1.00  0.00     0.010 A 
HETATM   42  C20 UNL     1     -18.571   3.133  13.682  1.00  0.00     0.003 A 
HETATM   43  C21 UNL     1     -17.643   2.137  13.987  1.00  0.00     0.036 A 
HETATM   44  C22 UNL     1     -16.324   2.496  14.289  1.00  0.00     0.103 A 
HETATM   45  C23 UNL     1     -15.929   3.842  14.289  1.00  0.00     0.045 A 
BRANCH  44  46
HETATM   46  N3  UNL     1     -15.346   1.449  14.611  1.00  0.00    -0.116 N 
HETATM   47  O7  UNL     1     -14.766   1.511  15.706  1.00  0.00    -0.532 OA
HETATM   48  O8  UNL     1     -15.146   0.566  13.764  1.00  0.00    -0.532 OA
ENDBRANCH  44  46
ENDBRANCH  37  40
ENDBRANCH  32  37
ENDBRANCH  30  32
ENDBRANCH  27  28
ENDBRANCH  26  27
ENDBRANCH  13  26
TORSDOF 11
ENDMDL
MODEL 2
REMARK minimizedAffinity -8.60680771
REMARK CNNscore 0.620264232
REMARK CNNaffinity 7.11461258
REMARK  11 active torsions:
REMARK  status: ('A' for Active; 'I' for Inactive)
REMARK    1  A    between atoms: C3_3  and  O1_4 
REMARK    2  A    between atoms: N1_14  and  O2_16 
REMARK    3  A    between atoms: O2_16  and  C13_17 
REMARK    4  A    between atoms: C13_17  and  C14_18 
REMARK       I    between atoms: C14_18  and  N2_20 
REMARK    5  A    between atoms: N2_20  and  C15_21 
REMARK    6  A    between atoms: C15_21  and  C16_22 
REMARK    7  A    between atoms: C15_21  and  C17_25 
REMARK    8  A    between atoms: C16_22  and  O5_24 
REMARK    9  A    between atoms: C17_25  and  O6_26 
REMARK   10  A    between atoms: C17_25  and  C18_27 
REMARK   11  A    between atoms: C22_31  and  N3_32 
ROOT
HETATM    1  C1  UNL     1     -12.598   3.047  30.587  1.00  0.00     0.015 C 
HETATM    2  C2  UNL     1     -13.008   2.635  29.534  1.00  0.00    -0.078 C 
HETATM    3  C3  UNL     1     -13.517   2.127  28.252  1.00  0.00     0.128 C 
HETATM    4  C4  UNL     1     -12.375   1.723  27.303  1.00  0.00     0.052 C 
HETATM    5  C5  UNL     1     -12.912   1.929  25.878  1.00  0.00     0.010 C 
HETATM    6  C6  UNL     1     -14.322   2.532  26.019  1.00  0.00     0.002 C 
HETATM    7  C7  UNL     1     -14.750   3.493  24.887  1.00  0.00    -0.004 C 
HETATM    8  C8  UNL     1     -14.765   2.820  23.497  1.00  0.00     0.010 C 
HETATM    9  C9  UNL     1     -13.811   3.461  22.493  1.00  0.00     0.035 C 
HETATM   10  C10 UNL     1     -13.958   4.962  22.396  1.00  0.00    -0.069 C 
HETATM   11  C11 UNL     1     -13.702   5.590  21.236  1.00  0.00     0.030 C 
HETATM   12  C12 UNL     1     -13.730   7.071  21.143  1.00  0.00     0.032 C 
HETATM   13  N1  UNL     1     -13.812   7.609  19.960  1.00  0.00    -0.271 N 
ATOM     14  H1  UNL     1     -13.855   7.080  19.089  1.00  0.00     0.194 HD
HETATM   15  C24 UNL     1     -13.681   7.884  22.426  1.00  0.00     0.060 C 
HETATM   16  C25 UNL     1     -13.496   7.034  23.682  1.00  0.00     0.020 C 
HETATM   17  C26 UNL     1     -14.326   5.725  23.673  1.00  0.00    -0.016 C 
HETATM   18  C27 UNL     1     -15.835   6.073  23.648  1.00  0.00     0.020 C 
HETATM   19  C28 UNL     1     -13.961   4.828  24.907  1.00  0.00     0.002 C 
HETATM   20  C29 UNL     1     -14.145   5.492  26.281  1.00  0.00     0.007 C 
HETATM   21  C30 UNL     1     -13.658   4.574  27.407  1.00  0.00     0.014 C 
HETATM   22  C31 UNL     1     -14.336   3.176  27.432  1.00  0.00     0.003 C 
HETATM   23  C32 UNL     1     -15.777   3.317  27.958  1.00  0.00     0.020 C 
ENDROOT
BRANCH   3  24
HETATM   24  O1  UNL     1     -14.305   0.968  28.533  1.00  0.00    -0.377 OA
HETATM   25  H2  UNL     1     -14.408   0.459  27.714  1.00  0.00     0.211 HD
ENDBRANCH   3  24
BRANCH  13  26
HETATM   26  O2  UNL     1     -13.834   9.009  20.038  1.00  0.00    -0.271 OA
BRANCH  26  27
HETATM   27  C13 UNL     1     -13.715   9.543  18.723  1.00  0.00     0.303 C 
BRANCH  27  28
HETATM   28  C14 UNL     1     -12.273   9.356  18.293  1.00  0.00     0.244 C 
HETATM   29  O3  UNL     1     -11.346   9.215  19.087  1.00  0.00    -0.271 OA
HETATM   30  N2  UNL     1     -12.080   9.320  16.931  1.00  0.00    -0.342 N 
HETATM   31  H16 UNL     1     -12.846   9.520  16.292  1.00  0.00     0.163 HD
BRANCH  30  32
HETATM   32  C15 UNL     1     -10.730   9.254  16.341  1.00  0.00     0.216 C 
BRANCH  32  33
HETATM   33  C16 UNL     1     -10.358  10.629  15.770  1.00  0.00     0.166 C 
HETATM   34  O4  UNL     1     -11.048  11.638  15.760  1.00  0.00    -0.648 OA
BRANCH  33  35
HETATM   35  O5  UNL     1      -9.128  10.659  15.195  1.00  0.00    -0.775 OA
HETATM   36  H18 UNL     1      -9.023  11.602  14.937  1.00  0.00     0.167 HD
ENDBRANCH  33  35
ENDBRANCH  32  33
BRANCH  32  37
HETATM   37  C17 UNL     1     -10.648   8.150  15.261  1.00  0.00     0.184 C 
BRANCH  37  38
HETATM   38  O6  UNL     1     -10.857   8.710  13.956  1.00  0.00    -0.388 OA
HETATM   39  H20 UNL     1     -11.797   8.964  13.922  1.00  0.00     0.210 HD
ENDBRANCH  37  38
BRANCH  37  40
HETATM   40  C18 UNL     1      -9.369   7.336  15.306  1.00  0.00    -0.025 A 
HETATM   41  C19 UNL     1      -8.594   7.334  16.480  1.00  0.00     0.010 A 
HETATM   42  C20 UNL     1      -7.400   6.611  16.554  1.00  0.00     0.003 A 
HETATM   43  C21 UNL     1      -6.961   5.871  15.456  1.00  0.00     0.036 A 
HETATM   44  C22 UNL     1      -7.727   5.861  14.284  1.00  0.00     0.103 A 
HETATM   45  C23 UNL     1      -8.925   6.586  14.204  1.00  0.00     0.045 A 
BRANCH  44  46
HETATM   46  N3  UNL     1      -7.268   5.082  13.127  1.00  0.00    -0.116 N 
HETATM   47  O7  UNL     1      -6.062   4.796  13.060  1.00  0.00    -0.532 OA
HETATM   48  O8  UNL     1      -8.110   4.763  12.275  1.00  0.00    -0.532 OA
ENDBRANCH  44  46
ENDBRANCH  37  40
ENDBRANCH  32  37
ENDBRANCH  30  32
ENDBRANCH  27  28
ENDBRANCH  26  27
ENDBRANCH  13  26
TORSDOF 11
ENDMDL
MODEL 3
REMARK minimizedAffinity -7.96970797
REMARK CNNscore 0.307657719
REMARK CNNaffinity 6.90083075
REMARK  11 active torsions:
REMARK  status: ('A' for Active; 'I' for Inactive)
REMARK    1  A    between atoms: C3_3  and  O1_4 
REMARK    2  A    between atoms: N1_14  and  O2_16 
REMARK    3  A    between atoms: O2_16  and  C13_17 
REMARK    4  A    between atoms: C13_17  and  C14_18 
REMARK       I    between atoms: C14_18  and  N2_20 
REMARK    5  A    between atoms: N2_20  and  C15_21 
REMARK    6  A    between atoms: C15_21  and  C16_22 
REMARK    7  A    between atoms: C15_21  and  C17_25 
REMARK    8  A    between atoms: C16_22  and  O5_24 
REMARK    9  A    between atoms: C17_25  and  O6_26 
REMARK   10  A    between atoms: C17_25  and  C18_27 
REMARK   11  A    between atoms: C22_31  and  N3_32 
ROOT
HETATM    1  C1  UNL     1      -0.474  11.351  14.812  1.00  0.00     0.015 C 
HETATM    2  C2  UNL     1      -0.876  10.239  14.598  1.00  0.00    -0.078 C 
HETATM    3  C3  UNL     1      -1.362   8.874  14.342  1.00  0.00     0.128 C 
HETATM    4  C4  UNL     1      -1.851   8.704  12.894  1.00  0.00     0.052 C 
HETATM    5  C5  UNL     1      -2.939   7.619  12.937  1.00  0.00     0.010 C 
HETATM    6  C6  UNL     1      -3.128   7.240  14.418  1.00  0.00     0.002 C 
HETATM    7  C7  UNL     1      -4.557   6.808  14.815  1.00  0.00    -0.004 C 
HETATM    8  C8  UNL     1      -5.050   5.565  14.042  1.00  0.00     0.010 C 
HETATM    9  C9  UNL     1      -6.300   5.817  13.204  1.00  0.00     0.035 C 
HETATM   10  C10 UNL     1      -7.417   6.484  13.974  1.00  0.00    -0.069 C 
HETATM   11  C11 UNL     1      -8.698   6.238  13.649  1.00  0.00     0.030 C 
HETATM   12  C12 UNL     1      -9.809   6.963  14.314  1.00  0.00     0.032 C 
HETATM   13  N1  UNL     1     -11.009   6.464  14.218  1.00  0.00    -0.271 N 
ATOM     14  H1  UNL     1     -11.238   5.609  13.712  1.00  0.00     0.194 HD
HETATM   15  C24 UNL     1      -9.495   8.234  15.086  1.00  0.00     0.060 C 
HETATM   16  C25 UNL     1      -8.033   8.667  14.981  1.00  0.00     0.020 C 
HETATM   17  C26 UNL     1      -7.030   7.488  15.064  1.00  0.00    -0.016 C 
HETATM   18  C27 UNL     1      -7.144   6.812  16.452  1.00  0.00     0.020 C 
HETATM   19  C28 UNL     1      -5.568   7.983  14.782  1.00  0.00     0.002 C 
HETATM   20  C29 UNL     1      -5.061   9.100  15.709  1.00  0.00     0.007 C 
HETATM   21  C30 UNL     1      -3.671   9.585  15.280  1.00  0.00     0.014 C 
HETATM   22  C31 UNL     1      -2.596   8.465  15.209  1.00  0.00     0.003 C 
HETATM   23  C32 UNL     1      -2.185   8.061  16.637  1.00  0.00     0.020 C 
ENDROOT
BRANCH   3  24
HETATM   24  O1  UNL     1      -0.265   7.982  14.559  1.00  0.00    -0.377 OA
HETATM   25  H2  UNL     1      -0.466   7.137  14.129  1.00  0.00     0.211 HD
ENDBRANCH   3  24
BRANCH  13  26
HETATM   26  O2  UNL     1     -11.944   7.257  14.899  1.00  0.00    -0.271 OA
BRANCH  26  27
HETATM   27  C13 UNL     1     -12.383   8.297  14.031  1.00  0.00     0.303 C 
BRANCH  27  28
HETATM   28  C14 UNL     1     -13.898   8.258  14.015  1.00  0.00     0.244 C 
HETATM   29  O3  UNL     1     -14.561   7.536  14.757  1.00  0.00    -0.271 OA
HETATM   30  N2  UNL     1     -14.487   9.125  13.124  1.00  0.00    -0.342 N 
HETATM   31  H16 UNL     1     -13.921   9.654  12.464  1.00  0.00     0.163 HD
BRANCH  30  32
HETATM   32  C15 UNL     1     -15.944   9.138  12.903  1.00  0.00     0.216 C 
BRANCH  32  33
HETATM   33  C16 UNL     1     -16.235   8.858  11.422  1.00  0.00     0.166 C 
HETATM   34  O4  UNL     1     -16.810   9.589  10.629  1.00  0.00    -0.648 OA
BRANCH  33  35
HETATM   35  O5  UNL     1     -15.812   7.634  11.013  1.00  0.00    -0.775 OA
HETATM   36  H18 UNL     1     -16.018   7.635  10.051  1.00  0.00     0.167 HD
ENDBRANCH  33  35
ENDBRANCH  32  33
BRANCH  32  37
HETATM   37  C17 UNL     1     -16.565  10.480  13.359  1.00  0.00     0.184 C 
BRANCH  37  38
HETATM   38  O6  UNL     1     -17.177  10.335  14.649  1.00  0.00    -0.388 OA
HETATM   39  H20 UNL     1     -17.964   9.778  14.511  1.00  0.00     0.210 HD
ENDBRANCH  37  38
BRANCH  37  40
HETATM   40  C18 UNL     1     -15.595  11.646  13.345  1.00  0.00    -0.025 A 
HETATM   41  C19 UNL     1     -15.507  12.454  12.197  1.00  0.00     0.010 A 
HETATM   42  C20 UNL     1     -14.614  13.528  12.138  1.00  0.00     0.003 A 
HETATM   43  C21 UNL     1     -13.795  13.817  13.230  1.00  0.00     0.036 A 
HETATM   44  C22 UNL     1     -13.879  13.022  14.380  1.00  0.00     0.103 A 
HETATM   45  C23 UNL     1     -14.772  11.943  14.443  1.00  0.00     0.045 A 
BRANCH  44  46
HETATM   46  N3  UNL     1     -13.018  13.324  15.531  1.00  0.00    -0.116 N 
HETATM   47  O7  UNL     1     -13.536  13.870  16.517  1.00  0.00    -0.532 OA
HETATM   48  O8  UNL     1     -11.817  13.026  15.447  1.00  0.00    -0.532 OA
ENDBRANCH  44  46
ENDBRANCH  37  40
ENDBRANCH  32  37
ENDBRANCH  30  32
ENDBRANCH  27  28
ENDBRANCH  26  27
ENDBRANCH  13  26
TORSDOF 11
ENDMDL
MODEL 4
REMARK minimizedAffinity -10.3433695
REMARK CNNscore 0.303912818
REMARK CNNaffinity 7.36705351
REMARK  11 active torsions:
REMARK  status: ('A' for Active; 'I' for Inactive)
REMARK    1  A    between atoms: C3_3  and  O1_4 
REMARK    2  A    between atoms: N1_14  and  O2_16 
REMARK    3  A    between atoms: O2_16  and  C13_17 
REMARK    4  A    between atoms: C13_17  and  C14_18 
REMARK       I    between atoms: C14_18  and  N2_20 
REMARK    5  A    between atoms: N2_20  and  C15_21 
REMARK    6  A    between atoms: C15_21  and  C16_22 
REMARK    7  A    between atoms: C15_21  and  C17_25 
REMARK    8  A    between atoms: C16_22  and  O5_24 
REMARK    9  A    between atoms: C17_25  and  O6_26 
REMARK   10  A    between atoms: C17_25  and  C18_27 
REMARK   11  A    between atoms: C22_31  and  N3_32 
ROOT
HETATM    1  C1  UNL     1       3.249   8.651   7.977  1.00  0.00     0.015 C 
HETATM    2  C2  UNL     1       3.179   8.004   8.988  1.00  0.00    -0.078 C 
HETATM    3  C3  UNL     1       3.101   7.217  10.228  1.00  0.00     0.128 C 
HETATM    4  C4  UNL     1       2.348   5.892  10.017  1.00  0.00     0.052 C 
HETATM    5  C5  UNL     1       1.704   5.549  11.370  1.00  0.00     0.010 C 
HETATM    6  C6  UNL     1       2.018   6.719  12.320  1.00  0.00     0.002 C 
HETATM    7  C7  UNL     1       0.944   7.010  13.391  1.00  0.00    -0.004 C 
HETATM    8  C8  UNL     1       0.693   5.815  14.336  1.00  0.00     0.010 C 
HETATM    9  C9  UNL     1      -0.739   5.290  14.298  1.00  0.00     0.035 C 
HETATM   10  C10 UNL     1      -1.781   6.372  14.466  1.00  0.00    -0.069 C 
HETATM   11  C11 UNL     1      -2.958   6.087  15.051  1.00  0.00     0.030 C 
HETATM   12  C12 UNL     1      -4.039   7.101  15.128  1.00  0.00     0.032 C 
HETATM   13  N1  UNL     1      -5.005   6.901  15.980  1.00  0.00    -0.271 N 
ATOM     14  H1  UNL     1      -5.070   6.093  16.597  1.00  0.00     0.194 HD
HETATM   15  C24 UNL     1      -3.961   8.323  14.229  1.00  0.00     0.060 C 
HETATM   16  C25 UNL     1      -2.786   8.290  13.254  1.00  0.00     0.020 C 
HETATM   17  C26 UNL     1      -1.474   7.754  13.882  1.00  0.00    -0.016 C 
HETATM   18  C27 UNL     1      -1.020   8.704  15.017  1.00  0.00     0.020 C 
HETATM   19  C28 UNL     1      -0.361   7.590  12.787  1.00  0.00     0.002 C 
HETATM   20  C29 UNL     1      -0.019   8.866  12.001  1.00  0.00     0.007 C 
HETATM   21  C30 UNL     1       0.994   8.574  10.888  1.00  0.00     0.014 C 
HETATM   22  C31 UNL     1       2.315   7.920  11.380  1.00  0.00     0.003 C 
HETATM   23  C32 UNL     1       3.172   8.979  12.097  1.00  0.00     0.020 C 
ENDROOT
BRANCH   3  24
HETATM   24  O1  UNL     1       4.441   6.918  10.629  1.00  0.00    -0.377 OA
HETATM   25  H2  UNL     1       4.417   6.178  11.256  1.00  0.00     0.211 HD
ENDBRANCH   3  24
BRANCH  13  26
HETATM   26  O2  UNL     1      -5.942   7.944  15.937  1.00  0.00    -0.271 OA
BRANCH  26  27
HETATM   27  C13 UNL     1      -7.214   7.432  16.326  1.00  0.00     0.303 C 
BRANCH  27  28
HETATM   28  C14 UNL     1      -7.580   6.344  15.336  1.00  0.00     0.244 C 
HETATM   29  O3  UNL     1      -8.010   5.243  15.672  1.00  0.00    -0.271 OA
HETATM   30  N2  UNL     1      -7.426   6.694  14.014  1.00  0.00    -0.342 N 
HETATM   31  H16 UNL     1      -6.992   7.579  13.759  1.00  0.00     0.163 HD
BRANCH  30  32
HETATM   32  C15 UNL     1      -7.631   5.722  12.926  1.00  0.00     0.216 C 
BRANCH  32  33
HETATM   33  C16 UNL     1      -9.028   5.922  12.323  1.00  0.00     0.166 C 
HETATM   34  O4  UNL     1     -10.044   6.270  12.907  1.00  0.00    -0.648 OA
BRANCH  33  35
HETATM   35  O5  UNL     1      -9.089   5.633  10.997  1.00  0.00    -0.775 OA
HETATM   36  H18 UNL     1     -10.016   5.862  10.759  1.00  0.00     0.167 HD
ENDBRANCH  33  35
ENDBRANCH  32  33
BRANCH  32  37
HETATM   37  C17 UNL     1      -7.432   4.273  13.428  1.00  0.00     0.184 C 
BRANCH  37  38
HETATM   38  O6  UNL     1      -8.680   3.563  13.416  1.00  0.00    -0.388 OA
HETATM   39  H20 UNL     1      -9.218   3.957  14.126  1.00  0.00     0.210 HD
ENDBRANCH  37  38
BRANCH  37  40
HETATM   40  C18 UNL     1      -6.361   3.501  12.682  1.00  0.00    -0.025 A 
HETATM   41  C19 UNL     1      -6.694   2.283  12.063  1.00  0.00     0.010 A 
HETATM   42  C20 UNL     1      -5.731   1.533  11.381  1.00  0.00     0.003 A 
HETATM   43  C21 UNL     1      -4.417   1.992  11.300  1.00  0.00     0.036 A 
HETATM   44  C22 UNL     1      -4.075   3.207  11.907  1.00  0.00     0.103 A 
HETATM   45  C23 UNL     1      -5.037   3.961  12.595  1.00  0.00     0.045 A 
BRANCH  44  46
HETATM   46  N3  UNL     1      -2.691   3.692  11.823  1.00  0.00    -0.116 N 
HETATM   47  O7  UNL     1      -2.505   4.852  11.424  1.00  0.00    -0.532 OA
HETATM   48  O8  UNL     1      -1.785   2.910  12.146  1.00  0.00    -0.532 OA
ENDBRANCH  44  46
ENDBRANCH  37  40
ENDBRANCH  32  37
ENDBRANCH  30  32
ENDBRANCH  27  28
ENDBRANCH  26  27
ENDBRANCH  13  26
TORSDOF 11
ENDMDL
MODEL 5
REMARK minimizedAffinity -9.0387125
REMARK CNNscore 0.2271097
REMARK CNNaffinity 6.30684471
REMARK  11 active torsions:
REMARK  status: ('A' for Active; 'I' for Inactive)
REMARK    1  A    between atoms: C3_3  and  O1_4 
REMARK    2  A    between atoms: N1_14  and  O2_16 
REMARK    3  A    between atoms: O2_16  and  C13_17 
REMARK    4  A    between atoms: C13_17  and  C14_18 
REMARK       I    between atoms: C14_18  and  N2_20 
REMARK    5  A    between atoms: N2_20  and  C15_21 
REMARK    6  A    between atoms: C15_21  and  C16_22 
REMARK    7  A    between atoms: C15_21  and  C17_25 
REMARK    8  A    between atoms: C16_22  and  O5_24 
REMARK    9  A    between atoms: C17_25  and  O6_26 
REMARK   10  A    between atoms: C17_25  and  C18_27 
REMARK   11  A    between atoms: C22_31  and  N3_32 
ROOT
HETATM    1  C1  UNL     1       2.302   7.705   7.227  1.00  0.00     0.015 C 
HETATM    2  C2  UNL     1       1.921   7.500   8.349  1.00  0.00    -0.078 C 
HETATM    3  C3  UNL     1       1.455   7.239   9.719  1.00  0.00     0.128 C 
HETATM    4  C4  UNL     1       0.562   8.376  10.245  1.00  0.00     0.052 C 
HETATM    5  C5  UNL     1       0.751   8.395  11.770  1.00  0.00     0.010 C 
HETATM    6  C6  UNL     1       1.815   7.332  12.099  1.00  0.00     0.002 C 
HETATM    7  C7  UNL     1       2.705   7.640  13.322  1.00  0.00    -0.004 C 
HETATM    8  C8  UNL     1       1.903   7.786  14.633  1.00  0.00     0.010 C 
HETATM    9  C9  UNL     1       2.038   9.158  15.288  1.00  0.00     0.035 C 
HETATM   10  C10 UNL     1       3.471   9.609  15.450  1.00  0.00    -0.069 C 
HETATM   11  C11 UNL     1       3.814  10.406  16.477  1.00  0.00     0.030 C 
HETATM   12  C12 UNL     1       5.188  10.953  16.596  1.00  0.00     0.032 C 
HETATM   13  N1  UNL     1       5.561  11.425  17.752  1.00  0.00    -0.271 N 
ATOM     14  H1  UNL     1       4.970  11.448  18.582  1.00  0.00     0.194 HD
HETATM   15  C24 UNL     1       6.097  10.920  15.378  1.00  0.00     0.060 C 
HETATM   16  C25 UNL     1       5.408  10.403  14.116  1.00  0.00     0.020 C 
HETATM   17  C26 UNL     1       4.476   9.191  14.371  1.00  0.00    -0.016 C 
HETATM   18  C27 UNL     1       5.314   7.995  14.884  1.00  0.00     0.020 C 
HETATM   19  C28 UNL     1       3.678   8.821  13.071  1.00  0.00     0.002 C 
HETATM   20  C29 UNL     1       4.540   8.501  11.839  1.00  0.00     0.007 C 
HETATM   21  C30 UNL     1       3.667   8.263  10.602  1.00  0.00     0.014 C 
HETATM   22  C31 UNL     1       2.604   7.142  10.774  1.00  0.00     0.003 C 
HETATM   23  C32 UNL     1       3.300   5.769  10.740  1.00  0.00     0.020 C 
ENDROOT
BRANCH   3  24
HETATM   24  O1  UNL     1       0.685   6.035   9.688  1.00  0.00    -0.377 OA
HETATM   25  H2  UNL     1       0.139   5.997  10.488  1.00  0.00     0.211 HD
ENDBRANCH   3  24
BRANCH  13  26
HETATM   26  O2  UNL     1       6.880  11.898  17.706  1.00  0.00    -0.271 OA
BRANCH  26  27
HETATM   27  C13 UNL     1       7.622  11.291  18.760  1.00  0.00     0.303 C 
BRANCH  27  28
HETATM   28  C14 UNL     1       7.726  12.311  19.877  1.00  0.00     0.244 C 
HETATM   29  O3  UNL     1       8.343  13.368  19.769  1.00  0.00    -0.271 OA
HETATM   30  N2  UNL     1       7.043  11.979  21.025  1.00  0.00    -0.342 N 
HETATM   31  H16 UNL     1       6.608  11.064  21.123  1.00  0.00     0.163 HD
BRANCH  30  32
HETATM   32  C15 UNL     1       7.128  12.803  22.243  1.00  0.00     0.216 C 
BRANCH  32  33
HETATM   33  C16 UNL     1       8.312  12.329  23.096  1.00  0.00     0.166 C 
HETATM   34  O4  UNL     1       8.647  11.175  23.321  1.00  0.00    -0.648 OA
BRANCH  33  35
HETATM   35  O5  UNL     1       9.007  13.346  23.667  1.00  0.00    -0.775 OA
HETATM   36  H18 UNL     1       9.748  12.886  24.121  1.00  0.00     0.167 HD
ENDBRANCH  33  35
ENDBRANCH  32  33
BRANCH  32  37
HETATM   37  C17 UNL     1       5.802  12.759  23.039  1.00  0.00     0.184 C 
BRANCH  37  38
HETATM   38  O6  UNL     1       5.358  14.089  23.346  1.00  0.00    -0.388 OA
HETATM   39  H20 UNL     1       5.986  14.434  24.008  1.00  0.00     0.210 HD
ENDBRANCH  37  38
BRANCH  37  40
HETATM   40  C18 UNL     1       4.702  11.962  22.364  1.00  0.00    -0.025 A 
HETATM   41  C19 UNL     1       4.216  12.382  21.113  1.00  0.00     0.010 A 
HETATM   42  C20 UNL     1       3.191  11.684  20.466  1.00  0.00     0.003 A 
HETATM   43  C21 UNL     1       2.638  10.548  21.057  1.00  0.00     0.036 A 
HETATM   44  C22 UNL     1       3.119  10.118  22.300  1.00  0.00     0.103 A 
HETATM   45  C23 UNL     1       4.145  10.815  22.953  1.00  0.00     0.045 A 
BRANCH  44  46
HETATM   46  N3  UNL     1       2.539   8.921  22.924  1.00  0.00    -0.116 N 
HETATM   47  O7  UNL     1       2.540   8.853  24.163  1.00  0.00    -0.532 OA
HETATM   48  O8  UNL     1       2.088   8.041  22.176  1.00  0.00    -0.532 OA
ENDBRANCH  44  46
ENDBRANCH  37  40
ENDBRANCH  32  37
ENDBRANCH  30  32
ENDBRANCH  27  28
ENDBRANCH  26  27
ENDBRANCH  13  26
TORSDOF 11
ENDMDL
MODEL 6
REMARK minimizedAffinity -8.03398132
REMARK CNNscore 0.214312285
REMARK CNNaffinity 6.4651351
REMARK  11 active torsions:
REMARK  status: ('A' for Active; 'I' for Inactive)
REMARK    1  A    between atoms: C3_3  and  O1_4 
REMARK    2  A    between atoms: N1_14  and  O2_16 
REMARK    3  A    between atoms: O2_16  and  C13_17 
REMARK    4  A    between atoms: C13_17  and  C14_18 
REMARK       I    between atoms: C14_18  and  N2_20 
REMARK    5  A    between atoms: N2_20  and  C15_21 
REMARK    6  A    between atoms: C15_21  and  C16_22 
REMARK    7  A    between atoms: C15_21  and  C17_25 
REMARK    8  A    between atoms: C16_22  and  O5_24 
REMARK    9  A    between atoms: C17_25  and  O6_26 
REMARK   10  A    between atoms: C17_25  and  C18_27 
REMARK   11  A    between atoms: C22_31  and  N3_32 
ROOT
HETATM    1  C1  UNL     1     -12.735   3.585  30.592  1.00  0.00     0.015 C 
HETATM    2  C2  UNL     1     -13.113   3.087  29.565  1.00  0.00    -0.078 C 
HETATM    3  C3  UNL     1     -13.583   2.475  28.313  1.00  0.00     0.128 C 
HETATM    4  C4  UNL     1     -12.413   2.064  27.404  1.00  0.00     0.052 C 
HETATM    5  C5  UNL     1     -12.942   2.152  25.964  1.00  0.00     0.010 C 
HETATM    6  C6  UNL     1     -14.380   2.697  26.052  1.00  0.00     0.002 C 
HETATM    7  C7  UNL     1     -14.836   3.561  24.856  1.00  0.00    -0.004 C 
HETATM    8  C8  UNL     1     -14.805   2.800  23.513  1.00  0.00     0.010 C 
HETATM    9  C9  UNL     1     -13.869   3.418  22.478  1.00  0.00     0.035 C 
HETATM   10  C10 UNL     1     -14.083   4.901  22.282  1.00  0.00    -0.069 C 
HETATM   11  C11 UNL     1     -13.842   5.464  21.085  1.00  0.00     0.030 C 
HETATM   12  C12 UNL     1     -13.936   6.933  20.896  1.00  0.00     0.032 C 
HETATM   13  N1  UNL     1     -14.029   7.388  19.679  1.00  0.00    -0.271 N 
ATOM     14  H1  UNL     1     -14.037   6.803  18.844  1.00  0.00     0.194 HD
HETATM   15  C24 UNL     1     -13.939   7.829  22.123  1.00  0.00     0.060 C 
HETATM   16  C25 UNL     1     -13.731   7.072  23.434  1.00  0.00     0.020 C 
HETATM   17  C26 UNL     1     -14.500   5.728  23.502  1.00  0.00    -0.016 C 
HETATM   18  C27 UNL     1     -16.023   6.003  23.442  1.00  0.00     0.020 C 
HETATM   19  C28 UNL     1     -14.110   4.930  24.796  1.00  0.00     0.002 C 
HETATM   20  C29 UNL     1     -14.340   5.673  26.122  1.00  0.00     0.007 C 
HETATM   21  C30 UNL     1     -13.825   4.853  27.310  1.00  0.00     0.014 C 
HETATM   22  C31 UNL     1     -14.439   3.429  27.420  1.00  0.00     0.003 C 
HETATM   23  C32 UNL     1     -15.891   3.537  27.923  1.00  0.00     0.020 C 
ENDROOT
BRANCH   3  24
HETATM   24  O1  UNL     1     -14.321   1.301  28.663  1.00  0.00    -0.377 OA
HETATM   25  H2  UNL     1     -14.391   0.736  27.878  1.00  0.00     0.211 HD
ENDBRANCH   3  24
BRANCH  13  26
HETATM   26  O2  UNL     1     -14.115   8.788  19.666  1.00  0.00    -0.271 OA
BRANCH  26  27
HETATM   27  C13 UNL     1     -14.309   9.223  18.323  1.00  0.00     0.303 C 
BRANCH  27  28
HETATM   28  C14 UNL     1     -12.952   9.207  17.648  1.00  0.00     0.244 C 
HETATM   29  O3  UNL     1     -11.901   9.440  18.241  1.00  0.00    -0.271 OA
HETATM   30  N2  UNL     1     -12.978   8.874  16.313  1.00  0.00    -0.342 N 
HETATM   31  H16 UNL     1     -13.862   8.765  15.822  1.00  0.00     0.163 HD
BRANCH  30  32
HETATM   32  C15 UNL     1     -11.762   8.917  15.480  1.00  0.00     0.216 C 
BRANCH  32  33
HETATM   33  C16 UNL     1     -11.707  10.257  14.733  1.00  0.00     0.166 C 
HETATM   34  O4  UNL     1     -12.093  11.345  15.134  1.00  0.00    -0.648 OA
BRANCH  33  35
HETATM   35  O5  UNL     1     -11.192  10.154  13.480  1.00  0.00    -0.775 OA
HETATM   36  H18 UNL     1     -11.174  11.086  13.167  1.00  0.00     0.167 HD
ENDBRANCH  33  35
ENDBRANCH  32  33
BRANCH  32  37
HETATM   37  C17 UNL     1     -11.715   7.720  14.501  1.00  0.00     0.184 C 
BRANCH  37  38
HETATM   38  O6  UNL     1     -10.898   6.668  15.037  1.00  0.00    -0.388 OA
HETATM   39  H20 UNL     1      -9.982   6.999  15.004  1.00  0.00     0.210 HD
ENDBRANCH  37  38
BRANCH  37  40
HETATM   40  C18 UNL     1     -13.081   7.196  14.099  1.00  0.00    -0.025 A 
HETATM   41  C19 UNL     1     -13.787   7.837  13.065  1.00  0.00     0.010 A 
HETATM   42  C20 UNL     1     -15.055   7.395  12.677  1.00  0.00     0.003 A 
HETATM   43  C21 UNL     1     -15.639   6.300  13.313  1.00  0.00     0.036 A 
HETATM   44  C22 UNL     1     -14.942   5.651  14.340  1.00  0.00     0.103 A 
HETATM   45  C23 UNL     1     -13.671   6.091  14.734  1.00  0.00     0.045 A 
BRANCH  44  46
HETATM   46  N3  UNL     1     -15.555   4.497  15.011  1.00  0.00    -0.116 N 
HETATM   47  O7  UNL     1     -15.112   3.368  14.747  1.00  0.00    -0.532 OA
HETATM   48  O8  UNL     1     -16.489   4.715  15.796  1.00  0.00    -0.532 OA
ENDBRANCH  44  46
ENDBRANCH  37  40
ENDBRANCH  32  37
ENDBRANCH  30  32
ENDBRANCH  27  28
ENDBRANCH  26  27
ENDBRANCH  13  26
TORSDOF 11
ENDMDL
MODEL 7
REMARK minimizedAffinity -8.88020611
REMARK CNNscore 0.209424853
REMARK CNNaffinity 5.71654177
REMARK  11 active torsions:
REMARK  status: ('A' for Active; 'I' for Inactive)
REMARK    1  A    between atoms: C3_3  and  O1_4 
REMARK    2  A    between atoms: N1_14  and  O2_16 
REMARK    3  A    between atoms: O2_16  and  C13_17 
REMARK    4  A    between atoms: C13_17  and  C14_18 
REMARK       I    between atoms: C14_18  and  N2_20 
REMARK    5  A    between atoms: N2_20  and  C15_21 
REMARK    6  A    between atoms: C15_21  and  C16_22 
REMARK    7  A    between atoms: C15_21  and  C17_25 
REMARK    8  A    between atoms: C16_22  and  O5_24 
REMARK    9  A    between atoms: C17_25  and  O6_26 
REMARK   10  A    between atoms: C17_25  and  C18_27 
REMARK   11  A    between atoms: C22_31  and  N3_32 
ROOT
HETATM    1  C1  UNL     1       9.753  15.115  21.122  1.00  0.00     0.015 C 
HETATM    2  C2  UNL     1       8.893  14.593  21.782  1.00  0.00    -0.078 C 
HETATM    3  C3  UNL     1       7.843  13.962  22.595  1.00  0.00     0.128 C 
HETATM    4  C4  UNL     1       7.842  12.432  22.438  1.00  0.00     0.052 C 
HETATM    5  C5  UNL     1       6.392  11.981  22.671  1.00  0.00     0.010 C 
HETATM    6  C6  UNL     1       5.557  13.259  22.870  1.00  0.00     0.002 C 
HETATM    7  C7  UNL     1       4.095  13.181  22.376  1.00  0.00    -0.004 C 
HETATM    8  C8  UNL     1       3.275  12.082  23.085  1.00  0.00     0.010 C 
HETATM    9  C9  UNL     1       2.731  11.014  22.141  1.00  0.00     0.035 C 
HETATM   10  C10 UNL     1       2.001  11.582  20.946  1.00  0.00    -0.069 C 
HETATM   11  C11 UNL     1       0.990  10.895  20.386  1.00  0.00     0.030 C 
HETATM   12  C12 UNL     1       0.330  11.376  19.147  1.00  0.00     0.032 C 
HETATM   13  N1  UNL     1      -0.833  10.878  18.840  1.00  0.00    -0.271 N 
ATOM     14  H1  UNL     1      -1.323  10.175  19.393  1.00  0.00     0.194 HD
HETATM   15  C24 UNL     1       1.030  12.434  18.310  1.00  0.00     0.060 C 
HETATM   16  C25 UNL     1       2.423  12.797  18.823  1.00  0.00     0.020 C 
HETATM   17  C26 UNL     1       2.505  12.908  20.367  1.00  0.00    -0.016 C 
HETATM   18  C27 UNL     1       1.592  14.061  20.850  1.00  0.00     0.020 C 
HETATM   19  C28 UNL     1       3.990  13.115  20.830  1.00  0.00     0.002 C 
HETATM   20  C29 UNL     1       4.700  14.340  20.232  1.00  0.00     0.007 C 
HETATM   21  C30 UNL     1       6.172  14.388  20.660  1.00  0.00     0.014 C 
HETATM   22  C31 UNL     1       6.392  14.383  22.198  1.00  0.00     0.003 C 
HETATM   23  C32 UNL     1       6.018  15.763  22.771  1.00  0.00     0.020 C 
ENDROOT
BRANCH   3  24
HETATM   24  O1  UNL     1       8.113  14.278  23.963  1.00  0.00    -0.377 OA
HETATM   25  H2  UNL     1       7.627  13.656  24.525  1.00  0.00     0.211 HD
ENDBRANCH   3  24
BRANCH  13  26
HETATM   26  O2  UNL     1      -1.326  11.434  17.651  1.00  0.00    -0.271 OA
BRANCH  26  27
HETATM   27  C13 UNL     1      -2.504  10.729  17.269  1.00  0.00     0.303 C 
BRANCH  27  28
HETATM   28  C14 UNL     1      -2.088   9.676  16.261  1.00  0.00     0.244 C 
HETATM   29  O3  UNL     1      -0.928   9.524  15.885  1.00  0.00    -0.271 OA
HETATM   30  N2  UNL     1      -3.110   8.869  15.817  1.00  0.00    -0.342 N 
HETATM   31  H16 UNL     1      -4.075   9.063  16.077  1.00  0.00     0.163 HD
BRANCH  30  32
HETATM   32  C15 UNL     1      -2.902   7.868  14.755  1.00  0.00     0.216 C 
BRANCH  32  33
HETATM   33  C16 UNL     1      -3.481   8.398  13.437  1.00  0.00     0.166 C 
HETATM   34  O4  UNL     1      -4.661   8.495  13.132  1.00  0.00    -0.648 OA
BRANCH  33  35
HETATM   35  O5  UNL     1      -2.530   8.751  12.534  1.00  0.00    -0.775 OA
HETATM   36  H18 UNL     1      -3.054   9.114  11.785  1.00  0.00     0.167 HD
ENDBRANCH  33  35
ENDBRANCH  32  33
BRANCH  32  37
HETATM   37  C17 UNL     1      -3.527   6.507  15.144  1.00  0.00     0.184 C 
BRANCH  37  38
HETATM   38  O6  UNL     1      -3.279   6.219  16.528  1.00  0.00    -0.388 OA
HETATM   39  H20 UNL     1      -2.324   6.036  16.595  1.00  0.00     0.210 HD
ENDBRANCH  37  38
BRANCH  37  40
HETATM   40  C18 UNL     1      -5.005   6.391  14.821  1.00  0.00    -0.025 A 
HETATM   41  C19 UNL     1      -5.913   7.281  15.422  1.00  0.00     0.010 A 
HETATM   42  C20 UNL     1      -7.284   7.195  15.164  1.00  0.00     0.003 A 
HETATM   43  C21 UNL     1      -7.772   6.221  14.293  1.00  0.00     0.036 A 
HETATM   44  C22 UNL     1      -6.876   5.334  13.684  1.00  0.00     0.103 A 
HETATM   45  C23 UNL     1      -5.500   5.414  13.942  1.00  0.00     0.045 A 
BRANCH  44  46
HETATM   46  N3  UNL     1      -7.387   4.307  12.767  1.00  0.00    -0.116 N 
HETATM   47  O7  UNL     1      -6.729   4.060  11.744  1.00  0.00    -0.532 OA
HETATM   48  O8  UNL     1      -8.456   3.751  13.061  1.00  0.00    -0.532 OA
ENDBRANCH  44  46
ENDBRANCH  37  40
ENDBRANCH  32  37
ENDBRANCH  30  32
ENDBRANCH  27  28
ENDBRANCH  26  27
ENDBRANCH  13  26
TORSDOF 11
ENDMDL
MODEL 8
REMARK minimizedAffinity -8.21162891
REMARK CNNscore 0.203115091
REMARK CNNaffinity 6.43905878
REMARK  11 active torsions:
REMARK  status: ('A' for Active; 'I' for Inactive)
REMARK    1  A    between atoms: C3_3  and  O1_4 
REMARK    2  A    between atoms: N1_14  and  O2_16 
REMARK    3  A    between atoms: O2_16  and  C13_17 
REMARK    4  A    between atoms: C13_17  and  C14_18 
REMARK       I    between atoms: C14_18  and  N2_20 
REMARK    5  A    between atoms: N2_20  and  C15_21 
REMARK    6  A    between atoms: C15_21  and  C16_22 
REMARK    7  A    between atoms: C15_21  and  C17_25 
REMARK    8  A    between atoms: C16_22  and  O5_24 
REMARK    9  A    between atoms: C17_25  and  O6_26 
REMARK   10  A    between atoms: C17_25  and  C18_27 
REMARK   11  A    between atoms: C22_31  and  N3_32 
ROOT
HETATM    1  C1  UNL     1     -12.683   3.407  30.586  1.00  0.00     0.015 C 
HETATM    2  C2  UNL     1     -13.071   2.932  29.551  1.00  0.00    -0.078 C 
HETATM    3  C3  UNL     1     -13.553   2.349  28.290  1.00  0.00     0.128 C 
HETATM    4  C4  UNL     1     -12.391   1.950  27.365  1.00  0.00     0.052 C 
HETATM    5  C5  UNL     1     -12.929   2.071  25.930  1.00  0.00     0.010 C 
HETATM    6  C6  UNL     1     -14.362   2.623  26.039  1.00  0.00     0.002 C 
HETATM    7  C7  UNL     1     -14.821   3.515  24.864  1.00  0.00    -0.004 C 
HETATM    8  C8  UNL     1     -14.803   2.783  23.506  1.00  0.00     0.010 C 
HETATM    9  C9  UNL     1     -13.870   3.416  22.477  1.00  0.00     0.035 C 
HETATM   10  C10 UNL     1     -14.075   4.904  22.314  1.00  0.00    -0.069 C 
HETATM   11  C11 UNL     1     -13.838   5.490  21.127  1.00  0.00     0.030 C 
HETATM   12  C12 UNL     1     -13.924   6.963  20.970  1.00  0.00     0.032 C 
HETATM   13  N1  UNL     1     -14.022   7.445  19.763  1.00  0.00    -0.271 N 
ATOM     14  H1  UNL     1     -14.039   6.877  18.917  1.00  0.00     0.194 HD
HETATM   15  C24 UNL     1     -13.914   7.834  22.215  1.00  0.00     0.060 C 
HETATM   16  C25 UNL     1     -13.702   7.048  23.508  1.00  0.00     0.020 C 
HETATM   17  C26 UNL     1     -14.480   5.708  23.554  1.00  0.00    -0.016 C 
HETATM   18  C27 UNL     1     -16.001   5.994  23.509  1.00  0.00     0.020 C 
HETATM   19  C28 UNL     1     -14.086   4.880  24.828  1.00  0.00     0.002 C 
HETATM   20  C29 UNL     1     -14.304   5.597  26.171  1.00  0.00     0.007 C 
HETATM   21  C30 UNL     1     -13.786   4.749  27.338  1.00  0.00     0.014 C 
HETATM   22  C31 UNL     1     -14.409   3.327  27.423  1.00  0.00     0.003 C 
HETATM   23  C32 UNL     1     -15.857   3.434  27.937  1.00  0.00     0.020 C 
ENDROOT
BRANCH   3  24
HETATM   24  O1  UNL     1     -14.296   1.173  28.620  1.00  0.00    -0.377 OA
HETATM   25  H2  UNL     1     -14.375   0.625  27.824  1.00  0.00     0.211 HD
ENDBRANCH   3  24
BRANCH  13  26
HETATM   26  O2  UNL     1     -14.099   8.845  19.780  1.00  0.00    -0.271 OA
BRANCH  26  27
HETATM   27  C13 UNL     1     -14.169   9.316  18.437  1.00  0.00     0.303 C 
BRANCH  27  28
HETATM   28  C14 UNL     1     -12.769   9.227  17.859  1.00  0.00     0.244 C 
HETATM   29  O3  UNL     1     -11.753   9.412  18.524  1.00  0.00    -0.271 OA
HETATM   30  N2  UNL     1     -12.718   8.885  16.528  1.00  0.00    -0.342 N 
HETATM   31  H16 UNL     1     -13.571   8.816  15.976  1.00  0.00     0.163 HD
BRANCH  30  32
HETATM   32  C15 UNL     1     -11.447   8.861  15.782  1.00  0.00     0.216 C 
BRANCH  32  33
HETATM   33  C16 UNL     1     -11.164  10.259  15.215  1.00  0.00     0.166 C 
HETATM   34  O4  UNL     1     -11.355  10.647  14.072  1.00  0.00    -0.648 OA
BRANCH  33  35
HETATM   35  O5  UNL     1     -10.610  11.105  16.121  1.00  0.00    -0.775 OA
HETATM   36  H18 UNL     1     -10.546  11.954  15.628  1.00  0.00     0.167 HD
ENDBRANCH  33  35
ENDBRANCH  32  33
BRANCH  32  37
HETATM   37  C17 UNL     1     -11.477   7.791  14.665  1.00  0.00     0.184 C 
BRANCH  37  38
HETATM   38  O6  UNL     1     -10.732   6.630  15.064  1.00  0.00    -0.388 OA
HETATM   39  H20 UNL     1      -9.797   6.901  15.066  1.00  0.00     0.210 HD
ENDBRANCH  37  38
BRANCH  37  40
HETATM   40  C18 UNL     1     -12.873   7.412  14.209  1.00  0.00    -0.025 A 
HETATM   41  C19 UNL     1     -13.434   6.198  14.646  1.00  0.00     0.010 A 
HETATM   42  C20 UNL     1     -14.711   5.805  14.235  1.00  0.00     0.003 A 
HETATM   43  C21 UNL     1     -15.453   6.622  13.383  1.00  0.00     0.036 A 
HETATM   44  C22 UNL     1     -14.907   7.835  12.946  1.00  0.00     0.103 A 
HETATM   45  C23 UNL     1     -13.626   8.233  13.354  1.00  0.00     0.045 A 
BRANCH  44  46
HETATM   46  N3  UNL     1     -15.687   8.698  12.048  1.00  0.00    -0.116 N 
HETATM   47  O7  UNL     1     -16.101   9.779  12.495  1.00  0.00    -0.532 OA
HETATM   48  O8  UNL     1     -15.897   8.291  10.896  1.00  0.00    -0.532 OA
ENDBRANCH  44  46
ENDBRANCH  37  40
ENDBRANCH  32  37
ENDBRANCH  30  32
ENDBRANCH  27  28
ENDBRANCH  26  27
ENDBRANCH  13  26
TORSDOF 11
ENDMDL
MODEL 9
REMARK minimizedAffinity -9.4012804
REMARK CNNscore 0.149790853
REMARK CNNaffinity 5.46997309
REMARK  11 active torsions:
REMARK  status: ('A' for Active; 'I' for Inactive)
REMARK    1  A    between atoms: C3_3  and  O1_4 
REMARK    2  A    between atoms: N1_14  and  O2_16 
REMARK    3  A    between atoms: O2_16  and  C13_17 
REMARK    4  A    between atoms: C13_17  and  C14_18 
REMARK       I    between atoms: C14_18  and  N2_20 
REMARK    5  A    between atoms: N2_20  and  C15_21 
REMARK    6  A    between atoms: C15_21  and  C16_22 
REMARK    7  A    between atoms: C15_21  and  C17_25 
REMARK    8  A    between atoms: C16_22  and  O5_24 
REMARK    9  A    between atoms: C17_25  and  O6_26 
REMARK   10  A    between atoms: C17_25  and  C18_27 
REMARK   11  A    between atoms: C22_31  and  N3_32 
ROOT
HETATM    1  C1  UNL     1       9.865  16.509  21.644  1.00  0.00     0.015 C 
HETATM    2  C2  UNL     1       9.244  15.628  22.176  1.00  0.00    -0.078 C 
HETATM    3  C3  UNL     1       8.483  14.555  22.833  1.00  0.00     0.128 C 
HETATM    4  C4  UNL     1       8.839  13.171  22.264  1.00  0.00     0.052 C 
HETATM    5  C5  UNL     1       7.581  12.305  22.433  1.00  0.00     0.010 C 
HETATM    6  C6  UNL     1       6.487  13.220  23.014  1.00  0.00     0.002 C 
HETATM    7  C7  UNL     1       5.042  12.881  22.587  1.00  0.00    -0.004 C 
HETATM    8  C8  UNL     1       4.605  11.461  23.006  1.00  0.00     0.010 C 
HETATM    9  C9  UNL     1       4.233  10.560  21.832  1.00  0.00     0.035 C 
HETATM   10  C10 UNL     1       3.251  11.193  20.874  1.00  0.00    -0.069 C 
HETATM   11  C11 UNL     1       2.381  10.425  20.196  1.00  0.00     0.030 C 
HETATM   12  C12 UNL     1       1.482  11.008  19.169  1.00  0.00     0.032 C 
HETATM   13  N1  UNL     1       0.449  10.311  18.793  1.00  0.00    -0.271 N 
ATOM     14  H1  UNL     1       0.215   9.387  19.155  1.00  0.00     0.194 HD
HETATM   15  C24 UNL     1       1.798  12.390  18.621  1.00  0.00     0.060 C 
HETATM   16  C25 UNL     1       3.110  12.971  19.148  1.00  0.00     0.020 C 
HETATM   17  C26 UNL     1       3.343  12.707  20.657  1.00  0.00    -0.016 C 
HETATM   18  C27 UNL     1       2.238  13.413  21.480  1.00  0.00     0.020 C 
HETATM   19  C28 UNL     1       4.775  13.181  21.089  1.00  0.00     0.002 C 
HETATM   20  C29 UNL     1       5.089  14.661  20.816  1.00  0.00     0.007 C 
HETATM   21  C30 UNL     1       6.543  14.991  21.170  1.00  0.00     0.014 C 
HETATM   22  C31 UNL     1       6.937  14.658  22.637  1.00  0.00     0.003 C 
HETATM   23  C32 UNL     1       6.306  15.697  23.583  1.00  0.00     0.020 C 
ENDROOT
BRANCH   3  24
HETATM   24  O1  UNL     1       8.826  14.577  24.221  1.00  0.00    -0.377 OA
HETATM   25  H2  UNL     1       8.576  13.726  24.614  1.00  0.00     0.211 HD
ENDBRANCH   3  24
BRANCH  13  26
HETATM   26  O2  UNL     1      -0.302  10.996  17.826  1.00  0.00    -0.271 OA
BRANCH  26  27
HETATM   27  C13 UNL     1      -1.575  10.367  17.704  1.00  0.00     0.303 C 
BRANCH  27  28
HETATM   28  C14 UNL     1      -1.463   9.343  16.592  1.00  0.00     0.244 C 
HETATM   29  O3  UNL     1      -0.433   8.718  16.352  1.00  0.00    -0.271 OA
HETATM   30  N2  UNL     1      -2.624   9.137  15.882  1.00  0.00    -0.342 N 
HETATM   31  H16 UNL     1      -3.441   9.722  16.042  1.00  0.00     0.163 HD
BRANCH  30  32
HETATM   32  C15 UNL     1      -2.663   8.258  14.700  1.00  0.00     0.216 C 
BRANCH  32  33
HETATM   33  C16 UNL     1      -3.864   8.639  13.823  1.00  0.00     0.166 C 
HETATM   34  O4  UNL     1      -4.002   8.436  12.626  1.00  0.00    -0.648 OA
BRANCH  33  35
HETATM   35  O5  UNL     1      -4.836   9.304  14.501  1.00  0.00    -0.775 OA
HETATM   36  H18 UNL     1      -5.541   9.422  13.826  1.00  0.00     0.167 HD
ENDBRANCH  33  35
ENDBRANCH  32  33
BRANCH  32  37
HETATM   37  C17 UNL     1      -2.714   6.768  15.114  1.00  0.00     0.184 C 
BRANCH  37  38
HETATM   38  O6  UNL     1      -3.588   6.592  16.239  1.00  0.00    -0.388 OA
HETATM   39  H20 UNL     1      -3.134   7.002  16.997  1.00  0.00     0.210 HD
ENDBRANCH  37  38
BRANCH  37  40
HETATM   40  C18 UNL     1      -3.083   5.825  13.986  1.00  0.00    -0.025 A 
HETATM   41  C19 UNL     1      -4.399   5.335  13.900  1.00  0.00     0.010 A 
HETATM   42  C20 UNL     1      -4.774   4.450  12.884  1.00  0.00     0.003 A 
HETATM   43  C21 UNL     1      -3.841   4.043  11.932  1.00  0.00     0.036 A 
HETATM   44  C22 UNL     1      -2.529   4.528  12.004  1.00  0.00     0.103 A 
HETATM   45  C23 UNL     1      -2.148   5.415  13.022  1.00  0.00     0.045 A 
BRANCH  44  46
HETATM   46  N3  UNL     1      -1.544   4.101  11.002  1.00  0.00    -0.116 N 
HETATM   47  O7  UNL     1      -1.865   3.190  10.224  1.00  0.00    -0.532 OA
HETATM   48  O8  UNL     1      -0.442   4.669  10.998  1.00  0.00    -0.532 OA
ENDBRANCH  44  46
ENDBRANCH  37  40
ENDBRANCH  32  37
ENDBRANCH  30  32
ENDBRANCH  27  28
ENDBRANCH  26  27
ENDBRANCH  13  26
TORSDOF 11
ENDMDL
