MODEL 1
REMARK minimizedAffinity -6.78853464
REMARK CNNscore 0.736443639
REMARK CNNaffinity 6.87044764
REMARK  8 active torsions:
REMARK  status: ('A' for Active; 'I' for Inactive)
REMARK    1  A    between atoms: C2_2  and  C30_33 
REMARK    2  A    between atoms: C3_3  and  C4_4 
REMARK    3  A    between atoms: C4_4  and  C5_5 
REMARK    4  A    between atoms: C5_5  and  C6_6 
REMARK    5  A    between atoms: C6_6  and  C8_8 
REMARK    6  A    between atoms: C15_15  and  O1_16 
REMARK    7  A    between atoms: C23_24  and  O2_25 
REMARK    8  A    between atoms: C30_33  and  O4_34 
ROOT
HETATM    1  C8  UNL     1      -1.195  14.667   4.629  1.00  0.00    -0.002 C 
HETATM    2  C9  UNL     1      -2.075  14.770   3.354  1.00  0.00     0.007 C 
HETATM    3  C10 UNL     1      -1.133  14.752   2.138  1.00  0.00     0.015 C 
HETATM    4  C11 UNL     1       0.225  14.274   2.689  1.00  0.00    -0.005 C 
HETATM    5  C12 UNL     1       0.167  12.716   2.751  1.00  0.00     0.021 C 
HETATM    6  C13 UNL     1       1.515  14.581   1.940  1.00  0.00     0.002 C 
HETATM    7  C14 UNL     1       2.705  14.713   2.591  1.00  0.00    -0.032 C 
HETATM    8  C15 UNL     1       2.754  14.641   4.130  1.00  0.00     0.149 C 
HETATM    9  C16 UNL     1       1.414  14.457   4.885  1.00  0.00     0.047 C 
HETATM   10  C17 UNL     1       0.227  15.011   4.084  1.00  0.00    -0.026 C 
HETATM   11  C18 UNL     1       0.370  16.562   3.961  1.00  0.00     0.016 C 
HETATM   12  C19 UNL     1       4.058  14.952   1.831  1.00  0.00    -0.013 C 
HETATM   13  C20 UNL     1       4.341  16.473   1.928  1.00  0.00     0.021 C 
HETATM   14  C21 UNL     1       5.216  14.128   2.477  1.00  0.00     0.017 C 
HETATM   15  C22 UNL     1       6.280  13.566   1.525  1.00  0.00     0.033 C 
HETATM   16  C23 UNL     1       6.514  14.417   0.285  1.00  0.00     0.126 C 
HETATM   17  C24 UNL     1       5.214  14.571  -0.560  1.00  0.00    -0.017 C 
HETATM   18  C25 UNL     1       5.165  13.371  -1.552  1.00  0.00     0.018 C 
HETATM   19  C26 UNL     1       5.283  15.839  -1.441  1.00  0.00     0.018 C 
HETATM   20  C27 UNL     1       3.917  14.482   0.343  1.00  0.00     0.015 C 
HETATM   21  C28 UNL     1       2.684  15.112  -0.302  1.00  0.00     0.090 C 
HETATM   22  C29 UNL     1       1.450  14.681   0.444  1.00  0.00     0.157 C 
HETATM   23  O3  UNL     1       0.414  14.433  -0.169  1.00  0.00    -0.293 OA
ENDROOT
BRANCH   1  24
HETATM   24  C6  UNL     1      -1.791  15.489   5.809  1.00  0.00    -0.014 C 
HETATM   25  C7  UNL     1      -2.812  16.535   5.350  1.00  0.00     0.010 C 
BRANCH  24  26
HETATM   26  C5  UNL     1      -0.698  16.167   6.685  1.00  0.00     0.008 C 
BRANCH  26  27
HETATM   27  C4  UNL     1      -1.089  17.528   7.281  1.00  0.00     0.028 C 
BRANCH  27  28
HETATM   28  C3  UNL     1      -1.409  17.558   8.757  1.00  0.00    -0.022 C 
HETATM   29  C2  UNL     1      -0.595  17.522   9.832  1.00  0.00    -0.064 C 
HETATM   30  C1  UNL     1       0.896  17.342   9.769  1.00  0.00     0.045 C 
BRANCH  29  31
HETATM   31  C30 UNL     1      -1.175  17.610  11.226  1.00  0.00     0.197 C 
BRANCH  31  32
HETATM   32  O4  UNL     1      -1.662  16.343  11.642  1.00  0.00    -0.397 OA
HETATM   33  H48 UNL     1      -1.830  15.803  10.852  1.00  0.00     0.209 HD
ENDBRANCH  31  32
ENDBRANCH  29  31
ENDBRANCH  27  28
ENDBRANCH  26  27
ENDBRANCH  24  26
ENDBRANCH   1  24
BRANCH   8  34
HETATM   34  O1  UNL     1       3.353  15.840   4.614  1.00  0.00    -0.391 OA
HETATM   35  H22 UNL     1       3.525  15.721   5.563  1.00  0.00     0.210 HD
ENDBRANCH   8  34
BRANCH  16  36
HETATM   36  O2  UNL     1       7.042  15.677   0.686  1.00  0.00    -0.395 OA
HETATM   37  H36 UNL     1       7.876  15.515   1.157  1.00  0.00     0.210 HD
ENDBRANCH  16  36
TORSDOF 8
ENDMDL
MODEL 2
REMARK minimizedAffinity -7.86181736
REMARK CNNscore 0.692426324
REMARK CNNaffinity 6.73201752
REMARK  8 active torsions:
REMARK  status: ('A' for Active; 'I' for Inactive)
REMARK    1  A    between atoms: C2_2  and  C30_33 
REMARK    2  A    between atoms: C3_3  and  C4_4 
REMARK    3  A    between atoms: C4_4  and  C5_5 
REMARK    4  A    between atoms: C5_5  and  C6_6 
REMARK    5  A    between atoms: C6_6  and  C8_8 
REMARK    6  A    between atoms: C15_15  and  O1_16 
REMARK    7  A    between atoms: C23_24  and  O2_25 
REMARK    8  A    between atoms: C30_33  and  O4_34 
ROOT
HETATM    1  C8  UNL     1       2.165  11.506  17.167  1.00  0.00    -0.002 C 
HETATM    2  C9  UNL     1       3.712  11.617  17.125  1.00  0.00     0.007 C 
HETATM    3  C10 UNL     1       4.192  10.927  15.836  1.00  0.00     0.015 C 
HETATM    4  C11 UNL     1       2.924  10.753  14.978  1.00  0.00    -0.005 C 
HETATM    5  C12 UNL     1       2.684  12.108  14.242  1.00  0.00     0.021 C 
HETATM    6  C13 UNL     1       2.873   9.703  13.875  1.00  0.00     0.002 C 
HETATM    7  C14 UNL     1       1.701   9.119  13.500  1.00  0.00    -0.032 C 
HETATM    8  C15 UNL     1       0.398   9.448  14.253  1.00  0.00     0.149 C 
HETATM    9  C16 UNL     1       0.488  10.421  15.455  1.00  0.00     0.047 C 
HETATM   10  C17 UNL     1       1.879  10.398  16.105  1.00  0.00    -0.026 C 
HETATM   11  C18 UNL     1       2.120   8.994  16.749  1.00  0.00     0.016 C 
HETATM   12  C19 UNL     1       1.615   8.092  12.314  1.00  0.00    -0.013 C 
HETATM   13  C20 UNL     1       1.594   6.686  12.966  1.00  0.00     0.021 C 
HETATM   14  C21 UNL     1       0.330   8.329  11.460  1.00  0.00     0.017 C 
HETATM   15  C22 UNL     1       0.448   8.086   9.950  1.00  0.00     0.033 C 
HETATM   16  C23 UNL     1       1.459   7.014   9.572  1.00  0.00     0.126 C 
HETATM   17  C24 UNL     1       2.892   7.376  10.066  1.00  0.00    -0.017 C 
HETATM   18  C25 UNL     1       3.566   8.223   8.946  1.00  0.00     0.018 C 
HETATM   19  C26 UNL     1       3.759   6.103  10.206  1.00  0.00     0.018 C 
HETATM   20  C27 UNL     1       2.850   8.275  11.368  1.00  0.00     0.015 C 
HETATM   21  C28 UNL     1       4.149   8.240  12.172  1.00  0.00     0.090 C 
HETATM   22  C29 UNL     1       4.154   9.365  13.171  1.00  0.00     0.157 C 
HETATM   23  O3  UNL     1       5.194   9.978  13.404  1.00  0.00    -0.293 OA
ENDROOT
BRANCH   1  24
HETATM   24  C6  UNL     1       1.638  11.338  18.622  1.00  0.00    -0.014 C 
HETATM   25  C7  UNL     1       0.253  11.960  18.829  1.00  0.00     0.010 C 
BRANCH  24  26
HETATM   26  C5  UNL     1       2.627  11.887  19.690  1.00  0.00     0.008 C 
BRANCH  26  27
HETATM   27  C4  UNL     1       3.610  10.855  20.264  1.00  0.00     0.028 C 
BRANCH  27  28
HETATM   28  C3  UNL     1       3.033   9.801  21.178  1.00  0.00    -0.022 C 
HETATM   29  C2  UNL     1       3.294   9.524  22.473  1.00  0.00    -0.064 C 
HETATM   30  C1  UNL     1       4.354  10.204  23.295  1.00  0.00     0.045 C 
BRANCH  29  31
HETATM   31  C30 UNL     1       2.536   8.424  23.181  1.00  0.00     0.197 C 
BRANCH  31  32
HETATM   32  O4  UNL     1       1.578   7.840  22.310  1.00  0.00    -0.397 OA
HETATM   33  H48 UNL     1       1.383   8.473  21.599  1.00  0.00     0.209 HD
ENDBRANCH  31  32
ENDBRANCH  29  31
ENDBRANCH  27  28
ENDBRANCH  26  27
ENDBRANCH  24  26
ENDBRANCH   1  24
BRANCH   8  34
HETATM   34  O1  UNL     1      -0.161   8.230  14.735  1.00  0.00    -0.391 OA
HETATM   35  H22 UNL     1      -1.053   8.425  15.066  1.00  0.00     0.210 HD
ENDBRANCH   8  34
BRANCH  16  36
HETATM   36  O2  UNL     1       1.017   5.763  10.088  1.00  0.00    -0.395 OA
HETATM   37  H36 UNL     1       0.147   5.571   9.699  1.00  0.00     0.210 HD
ENDBRANCH  16  36
TORSDOF 8
ENDMDL
MODEL 3
REMARK minimizedAffinity -7.88759565
REMARK CNNscore 0.61068809
REMARK CNNaffinity 6.97243834
REMARK  8 active torsions:
REMARK  status: ('A' for Active; 'I' for Inactive)
REMARK    1  A    between atoms: C2_2  and  C30_33 
REMARK    2  A    between atoms: C3_3  and  C4_4 
REMARK    3  A    between atoms: C4_4  and  C5_5 
REMARK    4  A    between atoms: C5_5  and  C6_6 
REMARK    5  A    between atoms: C6_6  and  C8_8 
REMARK    6  A    between atoms: C15_15  and  O1_16 
REMARK    7  A    between atoms: C23_24  and  O2_25 
REMARK    8  A    between atoms: C30_33  and  O4_34 
ROOT
HETATM    1  C8  UNL     1      -1.603   9.619  15.132  1.00  0.00    -0.002 C 
HETATM    2  C9  UNL     1      -0.425   8.720  14.671  1.00  0.00     0.007 C 
HETATM    3  C10 UNL     1      -1.027   7.459  14.029  1.00  0.00     0.015 C 
HETATM    4  C11 UNL     1      -2.511   7.799  13.791  1.00  0.00    -0.005 C 
HETATM    5  C12 UNL     1      -2.586   8.597  12.452  1.00  0.00     0.021 C 
HETATM    6  C13 UNL     1      -3.544   6.690  13.635  1.00  0.00     0.002 C 
HETATM    7  C14 UNL     1      -4.847   6.872  13.991  1.00  0.00    -0.032 C 
HETATM    8  C15 UNL     1      -5.289   8.193  14.650  1.00  0.00     0.149 C 
HETATM    9  C16 UNL     1      -4.200   9.262  14.920  1.00  0.00     0.047 C 
HETATM   10  C17 UNL     1      -2.811   8.631  15.097  1.00  0.00    -0.026 C 
HETATM   11  C18 UNL     1      -2.805   7.764  16.396  1.00  0.00     0.016 C 
HETATM   12  C19 UNL     1      -5.942   5.770  13.766  1.00  0.00    -0.013 C 
HETATM   13  C20 UNL     1      -6.128   5.066  15.134  1.00  0.00     0.021 C 
HETATM   14  C21 UNL     1      -7.283   6.404  13.280  1.00  0.00     0.017 C 
HETATM   15  C22 UNL     1      -8.110   5.589  12.276  1.00  0.00     0.033 C 
HETATM   16  C23 UNL     1      -7.959   4.083  12.428  1.00  0.00     0.126 C 
HETATM   17  C24 UNL     1      -6.480   3.631  12.238  1.00  0.00    -0.017 C 
HETATM   18  C25 UNL     1      -6.269   3.368  10.717  1.00  0.00     0.018 C 
HETATM   19  C26 UNL     1      -6.231   2.274  12.935  1.00  0.00     0.018 C 
HETATM   20  C27 UNL     1      -5.464   4.769  12.659  1.00  0.00     0.015 C 
HETATM   21  C28 UNL     1      -4.065   4.247  12.979  1.00  0.00     0.090 C 
HETATM   22  C29 UNL     1      -3.095   5.396  13.022  1.00  0.00     0.157 C 
HETATM   23  O3  UNL     1      -1.959   5.261  12.572  1.00  0.00    -0.293 OA
ENDROOT
BRANCH   1  24
HETATM   24  C6  UNL     1      -1.267  10.384  16.445  1.00  0.00    -0.014 C 
HETATM   25  C7  UNL     1      -1.409  11.903  16.302  1.00  0.00     0.010 C 
BRANCH  24  26
HETATM   26  C5  UNL     1       0.144  10.036  17.002  1.00  0.00     0.008 C 
BRANCH  26  27
HETATM   27  C4  UNL     1       0.768  11.102  17.915  1.00  0.00     0.028 C 
BRANCH  27  28
HETATM   28  C3  UNL     1       1.730  10.615  18.972  1.00  0.00    -0.022 C 
HETATM   29  C2  UNL     1       2.064  11.147  20.166  1.00  0.00    -0.064 C 
HETATM   30  C1  UNL     1       1.576  12.474  20.677  1.00  0.00     0.045 C 
BRANCH  29  31
HETATM   31  C30 UNL     1       3.038  10.427  21.071  1.00  0.00     0.197 C 
BRANCH  31  32
HETATM   32  O4  UNL     1       2.795   9.028  21.049  1.00  0.00    -0.397 OA
HETATM   33  H48 UNL     1       1.883   8.878  20.751  1.00  0.00     0.209 HD
ENDBRANCH  31  32
ENDBRANCH  29  31
ENDBRANCH  27  28
ENDBRANCH  26  27
ENDBRANCH  24  26
ENDBRANCH   1  24
BRANCH   8  34
HETATM   34  O1  UNL     1      -5.901   7.886  15.899  1.00  0.00    -0.391 OA
HETATM   35  H22 UNL     1      -6.315   8.700  16.232  1.00  0.00     0.210 HD
ENDBRANCH   8  34
BRANCH  16  36
HETATM   36  O2  UNL     1      -8.478   3.695  13.696  1.00  0.00    -0.395 OA
HETATM   37  H36 UNL     1      -9.414   3.954  13.727  1.00  0.00     0.210 HD
ENDBRANCH  16  36
TORSDOF 8
ENDMDL
MODEL 4
REMARK minimizedAffinity -6.9546504
REMARK CNNscore 0.608634412
REMARK CNNaffinity 6.64745712
REMARK  8 active torsions:
REMARK  status: ('A' for Active; 'I' for Inactive)
REMARK    1  A    between atoms: C2_2  and  C30_33 
REMARK    2  A    between atoms: C3_3  and  C4_4 
REMARK    3  A    between atoms: C4_4  and  C5_5 
REMARK    4  A    between atoms: C5_5  and  C6_6 
REMARK    5  A    between atoms: C6_6  and  C8_8 
REMARK    6  A    between atoms: C15_15  and  O1_16 
REMARK    7  A    between atoms: C23_24  and  O2_25 
REMARK    8  A    between atoms: C30_33  and  O4_34 
ROOT
HETATM    1  C8  UNL     1       2.128   7.044  10.334  1.00  0.00    -0.002 C 
HETATM    2  C9  UNL     1       2.721   7.725   9.071  1.00  0.00     0.007 C 
HETATM    3  C10 UNL     1       3.999   8.466   9.501  1.00  0.00     0.015 C 
HETATM    4  C11 UNL     1       4.332   7.913  10.900  1.00  0.00    -0.005 C 
HETATM    5  C12 UNL     1       5.102   6.572  10.687  1.00  0.00     0.021 C 
HETATM    6  C13 UNL     1       5.208   8.710  11.859  1.00  0.00     0.002 C 
HETATM    7  C14 UNL     1       5.076   8.593  13.210  1.00  0.00    -0.032 C 
HETATM    8  C15 UNL     1       3.963   7.708  13.804  1.00  0.00     0.149 C 
HETATM    9  C16 UNL     1       2.999   7.005  12.815  1.00  0.00     0.047 C 
HETATM   10  C17 UNL     1       2.877   7.775  11.492  1.00  0.00    -0.026 C 
HETATM   11  C18 UNL     1       2.188   9.151  11.762  1.00  0.00     0.016 C 
HETATM   12  C19 UNL     1       6.020   9.346  14.215  1.00  0.00    -0.013 C 
HETATM   13  C20 UNL     1       5.231  10.593  14.690  1.00  0.00     0.021 C 
HETATM   14  C21 UNL     1       6.394   8.431  15.423  1.00  0.00     0.017 C 
HETATM   15  C22 UNL     1       7.808   8.588  15.998  1.00  0.00     0.033 C 
HETATM   16  C23 UNL     1       8.378   9.993  15.865  1.00  0.00     0.126 C 
HETATM   17  C24 UNL     1       8.464  10.441  14.376  1.00  0.00    -0.017 C 
HETATM   18  C25 UNL     1       9.845   9.970  13.831  1.00  0.00     0.018 C 
HETATM   19  C26 UNL     1       8.477  11.983  14.269  1.00  0.00     0.018 C 
HETATM   20  C27 UNL     1       7.352   9.742  13.492  1.00  0.00     0.015 C 
HETATM   21  C28 UNL     1       7.053  10.486  12.192  1.00  0.00     0.090 C 
HETATM   22  C29 UNL     1       6.267   9.594  11.270  1.00  0.00     0.157 C 
HETATM   23  O3  UNL     1       6.489   9.609  10.060  1.00  0.00    -0.293 OA
ENDROOT
BRANCH   1  24
HETATM   24  C6  UNL     1       0.572   7.030  10.305  1.00  0.00    -0.014 C 
HETATM   25  C7  UNL     1      -0.029   8.385   9.916  1.00  0.00     0.010 C 
BRANCH  24  26
HETATM   26  C5  UNL     1      -0.052   6.542  11.645  1.00  0.00     0.008 C 
BRANCH  26  27
HETATM   27  C4  UNL     1      -1.117   7.470  12.247  1.00  0.00     0.028 C 
BRANCH  27  28
HETATM   28  C3  UNL     1      -1.863   6.957  13.455  1.00  0.00    -0.022 C 
HETATM   29  C2  UNL     1      -3.113   7.216  13.891  1.00  0.00    -0.064 C 
HETATM   30  C1  UNL     1      -4.048   8.211  13.260  1.00  0.00     0.045 C 
BRANCH  29  31
HETATM   31  C30 UNL     1      -3.643   6.528  15.129  1.00  0.00     0.197 C 
BRANCH  31  32
HETATM   32  O4  UNL     1      -2.936   6.964  16.280  1.00  0.00    -0.397 OA
HETATM   33  H48 UNL     1      -2.078   7.322  15.998  1.00  0.00     0.209 HD
ENDBRANCH  31  32
ENDBRANCH  29  31
ENDBRANCH  27  28
ENDBRANCH  26  27
ENDBRANCH  24  26
ENDBRANCH   1  24
BRANCH   8  34
HETATM   34  O1  UNL     1       3.169   8.510  14.672  1.00  0.00    -0.391 OA
HETATM   35  H22 UNL     1       2.574   7.917  15.161  1.00  0.00     0.210 HD
ENDBRANCH   8  34
BRANCH  16  36
HETATM   36  O2  UNL     1       7.589  10.884  16.646  1.00  0.00    -0.395 OA
HETATM   37  H36 UNL     1       7.623  10.582  17.569  1.00  0.00     0.210 HD
ENDBRANCH  16  36
TORSDOF 8
ENDMDL
MODEL 5
REMARK minimizedAffinity -6.92357016
REMARK CNNscore 0.600199997
REMARK CNNaffinity 6.58240747
REMARK  8 active torsions:
REMARK  status: ('A' for Active; 'I' for Inactive)
REMARK    1  A    between atoms: C2_2  and  C30_33 
REMARK    2  A    between atoms: C3_3  and  C4_4 
REMARK    3  A    between atoms: C4_4  and  C5_5 
REMARK    4  A    between atoms: C5_5  and  C6_6 
REMARK    5  A    between atoms: C6_6  and  C8_8 
REMARK    6  A    between atoms: C15_15  and  O1_16 
REMARK    7  A    between atoms: C23_24  and  O2_25 
REMARK    8  A    between atoms: C30_33  and  O4_34 
ROOT
HETATM    1  C8  UNL     1       0.781  12.483  18.625  1.00  0.00    -0.002 C 
HETATM    2  C9  UNL     1       1.990  11.532  18.833  1.00  0.00     0.007 C 
HETATM    3  C10 UNL     1       1.754  10.286  17.962  1.00  0.00     0.015 C 
HETATM    4  C11 UNL     1       0.622  10.681  16.994  1.00  0.00    -0.005 C 
HETATM    5  C12 UNL     1       1.283  11.462  15.816  1.00  0.00     0.021 C 
HETATM    6  C13 UNL     1      -0.226   9.611  16.318  1.00  0.00     0.002 C 
HETATM    7  C14 UNL     1      -1.517   9.851  15.951  1.00  0.00    -0.032 C 
HETATM    8  C15 UNL     1      -2.181  11.197  16.297  1.00  0.00     0.149 C 
HETATM    9  C16 UNL     1      -1.345  12.226  17.099  1.00  0.00     0.047 C 
HETATM   10  C17 UNL     1      -0.275  11.544  17.963  1.00  0.00    -0.026 C 
HETATM   11  C18 UNL     1      -0.977  10.696  19.072  1.00  0.00     0.016 C 
HETATM   12  C19 UNL     1      -2.383   8.789  15.183  1.00  0.00    -0.013 C 
HETATM   13  C20 UNL     1      -3.278   8.113  16.253  1.00  0.00     0.021 C 
HETATM   14  C21 UNL     1      -3.253   9.469  14.079  1.00  0.00     0.017 C 
HETATM   15  C22 UNL     1      -3.475   8.673  12.786  1.00  0.00     0.033 C 
HETATM   16  C23 UNL     1      -3.487   7.164  12.982  1.00  0.00     0.126 C 
HETATM   17  C24 UNL     1      -2.143   6.651  13.580  1.00  0.00    -0.017 C 
HETATM   18  C25 UNL     1      -1.188   6.358  12.385  1.00  0.00     0.018 C 
HETATM   19  C26 UNL     1      -2.345   5.295  14.295  1.00  0.00     0.018 C 
HETATM   20  C27 UNL     1      -1.444   7.754  14.474  1.00  0.00     0.015 C 
HETATM   21  C28 UNL     1      -0.434   7.181  15.468  1.00  0.00     0.090 C 
HETATM   22  C29 UNL     1       0.420   8.292  16.015  1.00  0.00     0.157 C 
HETATM   23  O3  UNL     1       1.619   8.106  16.216  1.00  0.00    -0.293 OA
ENDROOT
BRANCH   1  24
HETATM   24  C6  UNL     1       0.422  13.254  19.929  1.00  0.00    -0.014 C 
HETATM   25  C7  UNL     1      -0.285  14.586  19.658  1.00  0.00     0.010 C 
BRANCH  24  26
HETATM   26  C5  UNL     1       1.654  13.489  20.851  1.00  0.00     0.008 C 
BRANCH  26  27
HETATM   27  C4  UNL     1       2.646  12.319  20.929  1.00  0.00     0.028 C 
BRANCH  27  28
HETATM   28  C3  UNL     1       2.789  11.636  22.268  1.00  0.00    -0.022 C 
HETATM   29  C2  UNL     1       3.005  10.340  22.574  1.00  0.00    -0.064 C 
HETATM   30  C1  UNL     1       3.061   9.223  21.568  1.00  0.00     0.045 C 
BRANCH  29  31
HETATM   31  C30 UNL     1       3.153   9.915  24.017  1.00  0.00     0.197 C 
BRANCH  31  32
HETATM   32  O4  UNL     1       2.178   8.939  24.350  1.00  0.00    -0.397 OA
HETATM   33  H48 UNL     1       1.443   9.009  23.718  1.00  0.00     0.209 HD
ENDBRANCH  31  32
ENDBRANCH  29  31
ENDBRANCH  27  28
ENDBRANCH  26  27
ENDBRANCH  24  26
ENDBRANCH   1  24
BRANCH   8  34
HETATM   34  O1  UNL     1      -3.362  10.933  17.048  1.00  0.00    -0.391 OA
HETATM   35  H22 UNL     1      -3.856  11.767  17.125  1.00  0.00     0.210 HD
ENDBRANCH   8  34
BRANCH  16  36
HETATM   36  O2  UNL     1      -4.601   6.815  13.797  1.00  0.00    -0.395 OA
HETATM   37  H36 UNL     1      -5.407   7.112  13.342  1.00  0.00     0.210 HD
ENDBRANCH  16  36
TORSDOF 8
ENDMDL
MODEL 6
REMARK minimizedAffinity -6.70064068
REMARK CNNscore 0.554355264
REMARK CNNaffinity 6.29124022
REMARK  8 active torsions:
REMARK  status: ('A' for Active; 'I' for Inactive)
REMARK    1  A    between atoms: C2_2  and  C30_33 
REMARK    2  A    between atoms: C3_3  and  C4_4 
REMARK    3  A    between atoms: C4_4  and  C5_5 
REMARK    4  A    between atoms: C5_5  and  C6_6 
REMARK    5  A    between atoms: C6_6  and  C8_8 
REMARK    6  A    between atoms: C15_15  and  O1_16 
REMARK    7  A    between atoms: C23_24  and  O2_25 
REMARK    8  A    between atoms: C30_33  and  O4_34 
ROOT
HETATM    1  C8  UNL     1     -17.709   3.299  14.362  1.00  0.00    -0.002 C 
HETATM    2  C9  UNL     1     -17.634   3.115  15.901  1.00  0.00     0.007 C 
HETATM    3  C10 UNL     1     -16.955   1.763  16.174  1.00  0.00     0.015 C 
HETATM    4  C11 UNL     1     -16.320   1.354  14.832  1.00  0.00    -0.005 C 
HETATM    5  C12 UNL     1     -14.951   2.096  14.730  1.00  0.00     0.021 C 
HETATM    6  C13 UNL     1     -15.987  -0.105  14.545  1.00  0.00     0.002 C 
HETATM    7  C14 UNL     1     -15.983  -0.601  13.276  1.00  0.00    -0.032 C 
HETATM    8  C15 UNL     1     -16.406   0.296  12.096  1.00  0.00     0.149 C 
HETATM    9  C16 UNL     1     -16.865   1.740  12.419  1.00  0.00     0.047 C 
HETATM   10  C17 UNL     1     -17.439   1.853  13.838  1.00  0.00    -0.026 C 
HETATM   11  C18 UNL     1     -18.758   1.019  13.926  1.00  0.00     0.016 C 
HETATM   12  C19 UNL     1     -15.567  -2.080  12.952  1.00  0.00    -0.013 C 
HETATM   13  C20 UNL     1     -16.891  -2.868  12.782  1.00  0.00     0.021 C 
HETATM   14  C21 UNL     1     -14.708  -2.148  11.650  1.00  0.00     0.017 C 
HETATM   15  C22 UNL     1     -13.589  -3.198  11.614  1.00  0.00     0.033 C 
HETATM   16  C23 UNL     1     -13.886  -4.448  12.429  1.00  0.00     0.126 C 
HETATM   17  C24 UNL     1     -14.116  -4.113  13.933  1.00  0.00    -0.017 C 
HETATM   18  C25 UNL     1     -12.724  -4.145  14.632  1.00  0.00     0.018 C 
HETATM   19  C26 UNL     1     -14.953  -5.217  14.618  1.00  0.00     0.018 C 
HETATM   20  C27 UNL     1     -14.697  -2.652  14.123  1.00  0.00     0.015 C 
HETATM   21  C28 UNL     1     -15.404  -2.448  15.462  1.00  0.00     0.090 C 
HETATM   22  C29 UNL     1     -15.608  -0.978  15.705  1.00  0.00     0.157 C 
HETATM   23  O3  UNL     1     -15.476  -0.516  16.837  1.00  0.00    -0.293 OA
ENDROOT
BRANCH   1  24
HETATM   24  C6  UNL     1     -19.004   4.048  13.931  1.00  0.00    -0.014 C 
HETATM   25  C7  UNL     1     -19.263   3.970  12.423  1.00  0.00     0.010 C 
BRANCH  24  26
HETATM   26  C5  UNL     1     -19.024   5.534  14.394  1.00  0.00     0.008 C 
BRANCH  26  27
HETATM   27  C4  UNL     1     -19.109   6.570  13.264  1.00  0.00     0.028 C 
BRANCH  27  28
HETATM   28  C3  UNL     1     -17.808   6.975  12.612  1.00  0.00    -0.022 C 
HETATM   29  C2  UNL     1     -16.549   6.981  13.096  1.00  0.00    -0.064 C 
HETATM   30  C1  UNL     1     -16.176   6.644  14.513  1.00  0.00     0.045 C 
BRANCH  29  31
HETATM   31  C30 UNL     1     -15.398   7.401  12.209  1.00  0.00     0.197 C 
BRANCH  31  32
HETATM   32  O4  UNL     1     -15.882   7.983  11.008  1.00  0.00    -0.397 OA
HETATM   33  H48 UNL     1     -16.795   7.681  10.866  1.00  0.00     0.209 HD
ENDBRANCH  31  32
ENDBRANCH  29  31
ENDBRANCH  27  28
ENDBRANCH  26  27
ENDBRANCH  24  26
ENDBRANCH   1  24
BRANCH   8  34
HETATM   34  O1  UNL     1     -17.476  -0.346  11.409  1.00  0.00    -0.391 OA
HETATM   35  H22 UNL     1     -17.630   0.141  10.582  1.00  0.00     0.210 HD
ENDBRANCH   8  34
BRANCH  16  36
HETATM   36  O2  UNL     1     -15.004  -5.116  11.855  1.00  0.00    -0.395 OA
HETATM   37  H36 UNL     1     -14.776  -5.347  10.938  1.00  0.00     0.210 HD
ENDBRANCH  16  36
TORSDOF 8
ENDMDL
MODEL 7
REMARK minimizedAffinity -7.42517185
REMARK CNNscore 0.532812357
REMARK CNNaffinity 6.53825617
REMARK  8 active torsions:
REMARK  status: ('A' for Active; 'I' for Inactive)
REMARK    1  A    between atoms: C2_2  and  C30_33 
REMARK    2  A    between atoms: C3_3  and  C4_4 
REMARK    3  A    between atoms: C4_4  and  C5_5 
REMARK    4  A    between atoms: C5_5  and  C6_6 
REMARK    5  A    between atoms: C6_6  and  C8_8 
REMARK    6  A    between atoms: C15_15  and  O1_16 
REMARK    7  A    between atoms: C23_24  and  O2_25 
REMARK    8  A    between atoms: C30_33  and  O4_34 
ROOT
HETATM    1  C8  UNL     1       5.556  11.532  15.439  1.00  0.00    -0.002 C 
HETATM    2  C9  UNL     1       6.900  11.469  14.665  1.00  0.00     0.007 C 
HETATM    3  C10 UNL     1       6.638  10.730  13.341  1.00  0.00     0.015 C 
HETATM    4  C11 UNL     1       5.105  10.701  13.194  1.00  0.00    -0.005 C 
HETATM    5  C12 UNL     1       4.680  12.074  12.588  1.00  0.00     0.021 C 
HETATM    6  C13 UNL     1       4.433   9.664  12.302  1.00  0.00     0.002 C 
HETATM    7  C14 UNL     1       3.171   9.215  12.556  1.00  0.00    -0.032 C 
HETATM    8  C15 UNL     1       2.422   9.688  13.817  1.00  0.00     0.149 C 
HETATM    9  C16 UNL     1       3.169  10.643  14.781  1.00  0.00     0.047 C 
HETATM   10  C17 UNL     1       4.692  10.464  14.697  1.00  0.00    -0.026 C 
HETATM   11  C18 UNL     1       5.069   9.042  15.223  1.00  0.00     0.016 C 
HETATM   12  C19 UNL     1       2.432   8.206  11.607  1.00  0.00    -0.013 C 
HETATM   13  C20 UNL     1       2.584   6.811  12.265  1.00  0.00     0.021 C 
HETATM   14  C21 UNL     1       0.925   8.586  11.451  1.00  0.00     0.017 C 
HETATM   15  C22 UNL     1       0.287   8.333  10.078  1.00  0.00     0.033 C 
HETATM   16  C23 UNL     1       0.886   7.154   9.324  1.00  0.00     0.126 C 
HETATM   17  C24 UNL     1       2.409   7.353   9.063  1.00  0.00    -0.017 C 
HETATM   18  C25 UNL     1       2.550   8.120   7.715  1.00  0.00     0.018 C 
HETATM   19  C26 UNL     1       3.107   5.991   8.844  1.00  0.00     0.018 C 
HETATM   20  C27 UNL     1       3.080   8.250  10.181  1.00  0.00     0.015 C 
HETATM   21  C28 UNL     1       4.594   8.069  10.278  1.00  0.00     0.090 C 
HETATM   22  C29 UNL     1       5.184   9.185  11.096  1.00  0.00     0.157 C 
HETATM   23  O3  UNL     1       6.265   9.678  10.778  1.00  0.00    -0.293 OA
ENDROOT
BRANCH   1  24
HETATM   24  C6  UNL     1       5.770  11.423  16.977  1.00  0.00    -0.014 C 
HETATM   25  C7  UNL     1       4.774  12.269  17.778  1.00  0.00     0.010 C 
BRANCH  24  26
HETATM   26  C5  UNL     1       7.224  11.768  17.411  1.00  0.00     0.008 C 
BRANCH  26  27
HETATM   27  C4  UNL     1       7.929  10.693  18.252  1.00  0.00     0.028 C 
BRANCH  27  28
HETATM   28  C3  UNL     1       9.403  10.890  18.511  1.00  0.00    -0.022 C 
HETATM   29  C2  UNL     1      10.047  11.377  19.592  1.00  0.00    -0.064 C 
HETATM   30  C1  UNL     1       9.367  11.944  20.807  1.00  0.00     0.045 C 
BRANCH  29  31
HETATM   31  C30 UNL     1      11.558  11.430  19.614  1.00  0.00     0.197 C 
BRANCH  31  32
HETATM   32  O4  UNL     1      12.105  10.250  19.045  1.00  0.00    -0.397 OA
HETATM   33  H48 UNL     1      11.434   9.548  19.085  1.00  0.00     0.209 HD
ENDBRANCH  31  32
ENDBRANCH  29  31
ENDBRANCH  27  28
ENDBRANCH  26  27
ENDBRANCH  24  26
ENDBRANCH   1  24
BRANCH   8  34
HETATM   34  O1  UNL     1       2.042   8.539  14.568  1.00  0.00    -0.391 OA
HETATM   35  H22 UNL     1       1.439   8.833  15.271  1.00  0.00     0.210 HD
ENDBRANCH   8  34
BRANCH  16  36
HETATM   36  O2  UNL     1       0.620   5.960  10.053  1.00  0.00    -0.395 OA
HETATM   37  H36 UNL     1      -0.345   5.867  10.132  1.00  0.00     0.210 HD
ENDBRANCH  16  36
TORSDOF 8
ENDMDL
MODEL 8
REMARK minimizedAffinity -7.30643892
REMARK CNNscore 0.520022154
REMARK CNNaffinity 6.33280516
REMARK  8 active torsions:
REMARK  status: ('A' for Active; 'I' for Inactive)
REMARK    1  A    between atoms: C2_2  and  C30_33 
REMARK    2  A    between atoms: C3_3  and  C4_4 
REMARK    3  A    between atoms: C4_4  and  C5_5 
REMARK    4  A    between atoms: C5_5  and  C6_6 
REMARK    5  A    between atoms: C6_6  and  C8_8 
REMARK    6  A    between atoms: C15_15  and  O1_16 
REMARK    7  A    between atoms: C23_24  and  O2_25 
REMARK    8  A    between atoms: C30_33  and  O4_34 
ROOT
HETATM    1  C8  UNL     1      13.787  -7.115   5.011  1.00  0.00    -0.002 C 
HETATM    2  C9  UNL     1      12.681  -6.412   5.843  1.00  0.00     0.007 C 
HETATM    3  C10 UNL     1      13.363  -5.747   7.052  1.00  0.00     0.015 C 
HETATM    4  C11 UNL     1      14.867  -5.754   6.718  1.00  0.00    -0.005 C 
HETATM    5  C12 UNL     1      15.135  -4.518   5.803  1.00  0.00     0.021 C 
HETATM    6  C13 UNL     1      15.907  -5.643   7.827  1.00  0.00     0.002 C 
HETATM    7  C14 UNL     1      17.146  -6.195   7.700  1.00  0.00    -0.032 C 
HETATM    8  C15 UNL     1      17.497  -7.028   6.453  1.00  0.00     0.149 C 
HETATM    9  C16 UNL     1      16.386  -7.239   5.393  1.00  0.00     0.047 C 
HETATM   10  C17 UNL     1      14.983  -7.160   6.013  1.00  0.00    -0.026 C 
HETATM   11  C18 UNL     1      14.788  -8.360   6.994  1.00  0.00     0.016 C 
HETATM   12  C19 UNL     1      18.257  -6.026   8.797  1.00  0.00    -0.013 C 
HETATM   13  C20 UNL     1      18.243  -7.336   9.625  1.00  0.00     0.021 C 
HETATM   14  C21 UNL     1      19.657  -5.794   8.145  1.00  0.00     0.017 C 
HETATM   15  C22 UNL     1      20.614  -4.847   8.881  1.00  0.00     0.033 C 
HETATM   16  C23 UNL     1      20.436  -4.836  10.392  1.00  0.00     0.126 C 
HETATM   17  C24 UNL     1      18.997  -4.399  10.798  1.00  0.00    -0.017 C 
HETATM   18  C25 UNL     1      19.003  -2.846  10.919  1.00  0.00     0.018 C 
HETATM   19  C26 UNL     1      18.644  -4.926  12.208  1.00  0.00     0.018 C 
HETATM   20  C27 UNL     1      17.937  -4.775   9.685  1.00  0.00     0.015 C 
HETATM   21  C28 UNL     1      16.504  -4.845  10.209  1.00  0.00     0.090 C 
HETATM   22  C29 UNL     1      15.543  -4.857   9.051  1.00  0.00     0.157 C 
HETATM   23  O3  UNL     1      14.481  -4.241   9.125  1.00  0.00    -0.293 OA
ENDROOT
BRANCH   1  24
HETATM   24  C6  UNL     1      13.271  -8.432   4.362  1.00  0.00    -0.014 C 
HETATM   25  C7  UNL     1      11.742  -8.500   4.287  1.00  0.00     0.010 C 
BRANCH  24  26
HETATM   26  C5  UNL     1      13.822  -9.707   5.063  1.00  0.00     0.008 C 
BRANCH  26  27
HETATM   27  C4  UNL     1      14.431 -10.760   4.125  1.00  0.00     0.028 C 
BRANCH  27  28
HETATM   28  C3  UNL     1      13.982 -12.188   4.321  1.00  0.00    -0.022 C 
HETATM   29  C2  UNL     1      12.907 -12.690   4.963  1.00  0.00    -0.064 C 
HETATM   30  C1  UNL     1      11.919 -11.869   5.744  1.00  0.00     0.045 C 
BRANCH  29  31
HETATM   31  C30 UNL     1      12.660 -14.182   4.976  1.00  0.00     0.197 C 
BRANCH  31  32
HETATM   32  O4  UNL     1      11.701 -14.517   5.968  1.00  0.00    -0.397 OA
HETATM   33  H48 UNL     1      11.675 -13.802   6.626  1.00  0.00     0.209 HD
ENDBRANCH  31  32
ENDBRANCH  29  31
ENDBRANCH  27  28
ENDBRANCH  26  27
ENDBRANCH  24  26
ENDBRANCH   1  24
BRANCH   8  34
HETATM   34  O1  UNL     1      17.923  -8.318   6.882  1.00  0.00    -0.391 OA
HETATM   35  H22 UNL     1      18.291  -8.780   6.110  1.00  0.00     0.210 HD
ENDBRANCH   8  34
BRANCH  16  36
HETATM   36  O2  UNL     1      20.767  -6.123  10.902  1.00  0.00    -0.395 OA
HETATM   37  H36 UNL     1      21.690  -6.310  10.663  1.00  0.00     0.210 HD
ENDBRANCH  16  36
TORSDOF 8
ENDMDL
MODEL 9
REMARK minimizedAffinity -6.9108367
REMARK CNNscore 0.495688647
REMARK CNNaffinity 6.20604277
REMARK  8 active torsions:
REMARK  status: ('A' for Active; 'I' for Inactive)
REMARK    1  A    between atoms: C2_2  and  C30_33 
REMARK    2  A    between atoms: C3_3  and  C4_4 
REMARK    3  A    between atoms: C4_4  and  C5_5 
REMARK    4  A    between atoms: C5_5  and  C6_6 
REMARK    5  A    between atoms: C6_6  and  C8_8 
REMARK    6  A    between atoms: C15_15  and  O1_16 
REMARK    7  A    between atoms: C23_24  and  O2_25 
REMARK    8  A    between atoms: C30_33  and  O4_34 
ROOT
HETATM    1  C8  UNL     1     -14.814   7.070  21.389  1.00  0.00    -0.002 C 
HETATM    2  C9  UNL     1     -15.110   8.346  22.222  1.00  0.00     0.007 C 
HETATM    3  C10 UNL     1     -14.920   7.987  23.705  1.00  0.00     0.015 C 
HETATM    4  C11 UNL     1     -14.171   6.640  23.700  1.00  0.00    -0.005 C 
HETATM    5  C12 UNL     1     -12.656   6.964  23.515  1.00  0.00     0.021 C 
HETATM    6  C13 UNL     1     -14.223   5.721  24.913  1.00  0.00     0.002 C 
HETATM    7  C14 UNL     1     -14.103   4.369  24.790  1.00  0.00    -0.032 C 
HETATM    8  C15 UNL     1     -14.001   3.727  23.393  1.00  0.00     0.149 C 
HETATM    9  C16 UNL     1     -14.080   4.666  22.163  1.00  0.00     0.047 C 
HETATM   10  C17 UNL     1     -14.872   5.945  22.470  1.00  0.00    -0.026 C 
HETATM   11  C18 UNL     1     -16.364   5.569  22.742  1.00  0.00     0.016 C 
HETATM   12  C19 UNL     1     -14.076   3.411  26.034  1.00  0.00    -0.013 C 
HETATM   13  C20 UNL     1     -15.507   2.829  26.157  1.00  0.00     0.021 C 
HETATM   14  C21 UNL     1     -13.026   2.271  25.839  1.00  0.00     0.017 C 
HETATM   15  C22 UNL     1     -12.276   1.801  27.092  1.00  0.00     0.033 C 
HETATM   16  C23 UNL     1     -13.080   1.921  28.378  1.00  0.00     0.126 C 
HETATM   17  C24 UNL     1     -13.504   3.394  28.655  1.00  0.00    -0.017 C 
HETATM   18  C25 UNL     1     -12.353   4.061  29.466  1.00  0.00     0.018 C 
HETATM   19  C26 UNL     1     -14.745   3.441  29.576  1.00  0.00     0.018 C 
HETATM   20  C27 UNL     1     -13.665   4.217  27.313  1.00  0.00     0.015 C 
HETATM   21  C28 UNL     1     -14.539   5.461  27.463  1.00  0.00     0.090 C 
HETATM   22  C29 UNL     1     -14.356   6.354  26.266  1.00  0.00     0.157 C 
HETATM   23  O3  UNL     1     -14.329   7.575  26.407  1.00  0.00    -0.293 OA
ENDROOT
BRANCH   1  24
HETATM   24  C6  UNL     1     -15.722   6.980  20.128  1.00  0.00    -0.014 C 
HETATM   25  C7  UNL     1     -16.356   5.596  19.949  1.00  0.00     0.010 C 
BRANCH  24  26
HETATM   26  C5  UNL     1     -14.984   7.394  18.822  1.00  0.00     0.008 C 
BRANCH  26  27
HETATM   27  C4  UNL     1     -15.830   7.323  17.542  1.00  0.00     0.028 C 
BRANCH  27  28
HETATM   28  C3  UNL     1     -15.214   6.620  16.357  1.00  0.00    -0.022 C 
HETATM   29  C2  UNL     1     -14.242   7.016  15.509  1.00  0.00    -0.064 C 
HETATM   30  C1  UNL     1     -13.595   8.373  15.525  1.00  0.00     0.045 C 
BRANCH  29  31
HETATM   31  C30 UNL     1     -13.769   6.090  14.411  1.00  0.00     0.197 C 
BRANCH  31  32
HETATM   32  O4  UNL     1     -12.351   6.016  14.400  1.00  0.00    -0.397 OA
HETATM   33  H48 UNL     1     -11.998   6.805  14.844  1.00  0.00     0.209 HD
ENDBRANCH  31  32
ENDBRANCH  29  31
ENDBRANCH  27  28
ENDBRANCH  26  27
ENDBRANCH  24  26
ENDBRANCH   1  24
BRANCH   8  34
HETATM   34  O1  UNL     1     -15.048   2.769  23.263  1.00  0.00    -0.391 OA
HETATM   35  H22 UNL     1     -14.883   2.260  22.451  1.00  0.00     0.210 HD
ENDBRANCH   8  34
BRANCH  16  36
HETATM   36  O2  UNL     1     -14.202   1.048  28.301  1.00  0.00    -0.395 OA
HETATM   37  H36 UNL     1     -13.868   0.143  28.185  1.00  0.00     0.210 HD
ENDBRANCH  16  36
TORSDOF 8
ENDMDL
