MODEL 1
REMARK minimizedAffinity -9.70717716
REMARK CNNscore 0.556901157
REMARK CNNaffinity 6.35869455
REMARK  5 active torsions:
REMARK  status: ('A' for Active; 'I' for Inactive)
REMARK    1  A    between atoms: C5_5  and  C6_6 
REMARK    2  A    between atoms: C6_6  and  C7_8 
REMARK    3  A    between atoms: C7_8  and  O2_9 
REMARK    4  A    between atoms: O2_9  and  C8_10 
REMARK    5  A    between atoms: C14_17  and  C15_18 
ROOT
HETATM    1  C8  UNL     1      -0.843   6.570  13.149  1.00  0.00     0.093 A 
HETATM    2  C9  UNL     1      -0.203   5.474  12.571  1.00  0.00     0.076 A 
HETATM    3  C10 UNL     1      -0.951   4.356  12.195  1.00  0.00     0.093 A 
HETATM    4  C11 UNL     1      -2.331   4.286  12.370  1.00  0.00     0.011 A 
HETATM    5  C12 UNL     1      -2.972   5.384  12.951  1.00  0.00     0.042 A 
HETATM    6  C13 UNL     1      -2.236   6.512  13.334  1.00  0.00     0.068 A 
HETATM    7 CL1  UNL     1      -3.100   7.829  14.053  1.00  0.00    -0.081 Cl
HETATM    8  C14 UNL     1      -3.052   3.078  11.943  1.00  0.00    -0.007 A 
HETATM    9  C21 UNL     1      -2.338   2.079  11.400  1.00  0.00     0.095 A 
HETATM   10  C22 UNL     1      -0.880   2.132  11.216  1.00  0.00     0.289 A 
HETATM   11  O3  UNL     1      -0.276   1.185  10.725  1.00  0.00    -0.260 OA
HETATM   12  O4  UNL     1      -0.236   3.287  11.622  1.00  0.00    -0.275 OA
ENDROOT
BRANCH   1  13
HETATM   13  O2  UNL     1      -0.218   7.720  13.552  1.00  0.00    -0.342 OA
BRANCH  13  14
HETATM   14  C7  UNL     1       0.328   8.596  12.581  1.00  0.00     0.254 C 
BRANCH  14  15
HETATM   15  C6  UNL     1      -0.368   8.601  11.214  1.00  0.00     0.155 C 
HETATM   16  O1  UNL     1      -1.425   9.199  11.009  1.00  0.00    -0.295 OA
BRANCH  15  17
HETATM   17  C5  UNL     1       0.335   7.823  10.107  1.00  0.00     0.062 C 
HETATM   18  C4  UNL     1       1.776   7.505  10.521  1.00  0.00     0.049 C 
HETATM   19  C2  UNL     1       2.692   7.180   9.320  1.00  0.00     0.054 C 
HETATM   20  C1  UNL     1       3.562   5.958   9.653  1.00  0.00     0.045 C 
HETATM   21  C3  UNL     1       3.629   8.348   8.974  1.00  0.00     0.045 C 
HETATM   22  O5  UNL     1       1.898   6.799   8.191  1.00  0.00    -0.381 OA
HETATM   23  C24 UNL     1       1.020   7.805   7.689  1.00  0.00     0.169 C 
HETATM   24  C23 UNL     1       0.307   8.585   8.786  1.00  0.00     0.038 C 
ENDBRANCH  15  17
ENDBRANCH  14  15
ENDBRANCH  13  14
ENDBRANCH   1  13
BRANCH   8  25
HETATM   25  C15 UNL     1      -4.506   2.860  12.046  1.00  0.00    -0.025 A 
HETATM   26  C16 UNL     1      -5.313   3.796  12.706  1.00  0.00     0.012 A 
HETATM   27  C17 UNL     1      -6.690   3.588  12.806  1.00  0.00     0.001 A 
HETATM   28  C18 UNL     1      -7.266   2.448  12.248  1.00  0.00     0.000 A 
HETATM   29  C19 UNL     1      -6.469   1.513  11.588  1.00  0.00     0.001 A 
HETATM   30  C20 UNL     1      -5.092   1.717  11.487  1.00  0.00     0.012 A 
ENDBRANCH   8  25
TORSDOF 5
ENDMDL
MODEL 2
REMARK minimizedAffinity -8.75626945
REMARK CNNscore 0.523489118
REMARK CNNaffinity 6.57842207
REMARK  5 active torsions:
REMARK  status: ('A' for Active; 'I' for Inactive)
REMARK    1  A    between atoms: C5_5  and  C6_6 
REMARK    2  A    between atoms: C6_6  and  C7_8 
REMARK    3  A    between atoms: C7_8  and  O2_9 
REMARK    4  A    between atoms: O2_9  and  C8_10 
REMARK    5  A    between atoms: C14_17  and  C15_18 
ROOT
HETATM    1  C8  UNL     1      -7.388   7.282  14.991  1.00  0.00     0.093 A 
HETATM    2  C9  UNL     1      -8.039   6.086  14.689  1.00  0.00     0.076 A 
HETATM    3  C10 UNL     1      -7.380   5.112  13.933  1.00  0.00     0.093 A 
HETATM    4  C11 UNL     1      -6.080   5.284  13.462  1.00  0.00     0.011 A 
HETATM    5  C12 UNL     1      -5.429   6.483  13.763  1.00  0.00     0.042 A 
HETATM    6  C13 UNL     1      -6.076   7.469  14.520  1.00  0.00     0.068 A 
HETATM    7 CL1  UNL     1      -5.207   8.930  14.846  1.00  0.00    -0.081 Cl
HETATM    8  C14 UNL     1      -5.451   4.212  12.678  1.00  0.00    -0.007 A 
HETATM    9  C21 UNL     1      -6.167   3.101  12.442  1.00  0.00     0.095 A 
HETATM   10  C22 UNL     1      -7.543   2.907  12.923  1.00  0.00     0.289 A 
HETATM   11  O3  UNL     1      -8.156   1.877  12.668  1.00  0.00    -0.260 OA
HETATM   12  O4  UNL     1      -8.101   3.933  13.664  1.00  0.00    -0.275 OA
ENDROOT
BRANCH   1  13
HETATM   13  O2  UNL     1      -7.927   8.304  15.726  1.00  0.00    -0.342 OA
BRANCH  13  14
HETATM   14  C7  UNL     1      -8.893   9.156  15.137  1.00  0.00     0.254 C 
BRANCH  14  15
HETATM   15  C6  UNL     1     -10.306   9.083  15.731  1.00  0.00     0.155 C 
HETATM   16  O1  UNL     1     -10.525   9.198  16.938  1.00  0.00    -0.295 OA
BRANCH  15  17
HETATM   17  C5  UNL     1     -11.437   8.867  14.733  1.00  0.00     0.062 C 
HETATM   18  C4  UNL     1     -12.782   8.805  15.466  1.00  0.00     0.049 C 
HETATM   19  C2  UNL     1     -13.889   8.112  14.642  1.00  0.00     0.054 C 
HETATM   20  C1  UNL     1     -15.192   8.920  14.748  1.00  0.00     0.045 C 
HETATM   21  C3  UNL     1     -14.174   6.686  15.140  1.00  0.00     0.045 C 
HETATM   22  O5  UNL     1     -13.538   8.116  13.254  1.00  0.00    -0.381 OA
HETATM   23  C24 UNL     1     -12.356   7.393  12.915  1.00  0.00     0.169 C 
HETATM   24  C23 UNL     1     -11.216   7.606  13.903  1.00  0.00     0.038 C 
ENDBRANCH  15  17
ENDBRANCH  14  15
ENDBRANCH  13  14
ENDBRANCH   1  13
BRANCH   8  25
HETATM   25  C15 UNL     1      -4.084   4.235  12.127  1.00  0.00    -0.025 A 
HETATM   26  C16 UNL     1      -3.802   3.589  10.916  1.00  0.00     0.012 A 
HETATM   27  C17 UNL     1      -2.507   3.609  10.395  1.00  0.00     0.001 A 
HETATM   28  C18 UNL     1      -1.489   4.273  11.079  1.00  0.00     0.000 A 
HETATM   29  C19 UNL     1      -1.764   4.919  12.285  1.00  0.00     0.001 A 
HETATM   30  C20 UNL     1      -3.057   4.901  12.809  1.00  0.00     0.012 A 
ENDBRANCH   8  25
TORSDOF 5
ENDMDL
MODEL 3
REMARK minimizedAffinity -7.52813435
REMARK CNNscore 0.449570596
REMARK CNNaffinity 5.54230356
REMARK  5 active torsions:
REMARK  status: ('A' for Active; 'I' for Inactive)
REMARK    1  A    between atoms: C5_5  and  C6_6 
REMARK    2  A    between atoms: C6_6  and  C7_8 
REMARK    3  A    between atoms: C7_8  and  O2_9 
REMARK    4  A    between atoms: O2_9  and  C8_10 
REMARK    5  A    between atoms: C14_17  and  C15_18 
ROOT
HETATM    1  C8  UNL     1       0.618  11.854  19.318  1.00  0.00     0.093 A 
HETATM    2  C9  UNL     1       0.708  10.692  20.084  1.00  0.00     0.076 A 
HETATM    3  C10 UNL     1       1.736  10.560  21.022  1.00  0.00     0.093 A 
HETATM    4  C11 UNL     1       2.688  11.555  21.232  1.00  0.00     0.011 A 
HETATM    5  C12 UNL     1       2.599  12.718  20.463  1.00  0.00     0.042 A 
HETATM    6  C13 UNL     1       1.575  12.865  19.519  1.00  0.00     0.068 A 
HETATM    7 CL1  UNL     1       1.535  14.332  18.600  1.00  0.00    -0.081 Cl
HETATM    8  C14 UNL     1       3.737  11.346  22.242  1.00  0.00    -0.007 A 
HETATM    9  C21 UNL     1       3.734  10.189  22.922  1.00  0.00     0.095 A 
HETATM   10  C22 UNL     1       2.742   9.125  22.707  1.00  0.00     0.289 A 
HETATM   11  O3  UNL     1       2.793   8.082  23.349  1.00  0.00    -0.260 OA
HETATM   12  O4  UNL     1       1.765   9.358  21.755  1.00  0.00    -0.275 OA
ENDROOT
BRANCH   1  13
HETATM   13  O2  UNL     1      -0.345  12.099  18.376  1.00  0.00    -0.342 OA
BRANCH  13  14
HETATM   14  C7  UNL     1      -0.169  11.619  17.055  1.00  0.00     0.254 C 
BRANCH  14  15
HETATM   15  C6  UNL     1      -0.370  10.111  16.856  1.00  0.00     0.155 C 
HETATM   16  O1  UNL     1       0.562   9.307  16.891  1.00  0.00    -0.295 OA
BRANCH  15  17
HETATM   17  C5  UNL     1      -1.806   9.658  16.617  1.00  0.00     0.062 C 
HETATM   18  C4  UNL     1      -1.818   8.260  15.987  1.00  0.00     0.049 C 
HETATM   19  C2  UNL     1      -3.145   7.933  15.268  1.00  0.00     0.054 C 
HETATM   20  C1  UNL     1      -3.584   6.504  15.623  1.00  0.00     0.045 C 
HETATM   21  C3  UNL     1      -3.012   8.022  13.740  1.00  0.00     0.045 C 
HETATM   22  O5  UNL     1      -4.185   8.792  15.750  1.00  0.00    -0.381 OA
HETATM   23  C24 UNL     1      -3.997  10.184  15.503  1.00  0.00     0.169 C 
HETATM   24  C23 UNL     1      -2.567  10.650  15.745  1.00  0.00     0.038 C 
ENDBRANCH  15  17
ENDBRANCH  14  15
ENDBRANCH  13  14
ENDBRANCH   1  13
BRANCH   8  25
HETATM   25  C15 UNL     1       4.801  12.305  22.591  1.00  0.00    -0.025 A 
HETATM   26  C16 UNL     1       6.121  11.864  22.751  1.00  0.00     0.012 A 
HETATM   27  C17 UNL     1       7.128  12.772  23.085  1.00  0.00     0.001 A 
HETATM   28  C18 UNL     1       6.822  14.121  23.258  1.00  0.00     0.000 A 
HETATM   29  C19 UNL     1       5.510  14.567  23.099  1.00  0.00     0.001 A 
HETATM   30  C20 UNL     1       4.501  13.662  22.766  1.00  0.00     0.012 A 
ENDBRANCH   8  25
TORSDOF 5
ENDMDL
MODEL 4
REMARK minimizedAffinity -8.39123154
REMARK CNNscore 0.385481596
REMARK CNNaffinity 6.55321693
REMARK  5 active torsions:
REMARK  status: ('A' for Active; 'I' for Inactive)
REMARK    1  A    between atoms: C5_5  and  C6_6 
REMARK    2  A    between atoms: C6_6  and  C7_8 
REMARK    3  A    between atoms: C7_8  and  O2_9 
REMARK    4  A    between atoms: O2_9  and  C8_10 
REMARK    5  A    between atoms: C14_17  and  C15_18 
ROOT
HETATM    1  C8  UNL     1      -7.742   6.103  13.815  1.00  0.00     0.093 A 
HETATM    2  C9  UNL     1      -7.875   4.838  13.242  1.00  0.00     0.076 A 
HETATM    3  C10 UNL     1      -6.744   4.176  12.757  1.00  0.00     0.093 A 
HETATM    4  C11 UNL     1      -5.468   4.730  12.824  1.00  0.00     0.011 A 
HETATM    5  C12 UNL     1      -5.334   5.998  13.397  1.00  0.00     0.042 A 
HETATM    6  C13 UNL     1      -6.459   6.674  13.887  1.00  0.00     0.068 A 
HETATM    7 CL1  UNL     1      -6.214   8.243  14.576  1.00  0.00    -0.081 Cl
HETATM    8  C14 UNL     1      -4.324   3.970  12.297  1.00  0.00    -0.007 A 
HETATM    9  C21 UNL     1      -4.564   2.762  11.763  1.00  0.00     0.095 A 
HETATM   10  C22 UNL     1      -5.906   2.167  11.676  1.00  0.00     0.289 A 
HETATM   11  O3  UNL     1      -6.070   1.064  11.167  1.00  0.00    -0.260 OA
HETATM   12  O4  UNL     1      -6.957   2.906  12.188  1.00  0.00    -0.275 OA
ENDROOT
BRANCH   1  13
HETATM   13  O2  UNL     1      -8.773   6.843  14.329  1.00  0.00    -0.342 OA
BRANCH  13  14
HETATM   14  C7  UNL     1     -10.110   6.475  14.041  1.00  0.00     0.254 C 
BRANCH  14  15
HETATM   15  C6  UNL     1     -10.972   7.549  13.366  1.00  0.00     0.155 C 
HETATM   16  O1  UNL     1     -11.174   7.571  12.151  1.00  0.00    -0.295 OA
BRANCH  15  17
HETATM   17  C5  UNL     1     -11.580   8.594  14.294  1.00  0.00     0.062 C 
HETATM   18  C4  UNL     1     -11.490   9.984  13.653  1.00  0.00     0.049 C 
HETATM   19  C2  UNL     1     -11.609  11.132  14.680  1.00  0.00     0.054 C 
HETATM   20  C1  UNL     1     -12.544  12.219  14.129  1.00  0.00     0.045 C 
HETATM   21  C3  UNL     1     -10.250  11.783  14.979  1.00  0.00     0.045 C 
HETATM   22  O5  UNL     1     -12.230  10.652  15.877  1.00  0.00    -0.381 OA
HETATM   23  C24 UNL     1     -11.512   9.639  16.580  1.00  0.00     0.169 C 
HETATM   24  C23 UNL     1     -10.906   8.585  15.662  1.00  0.00     0.038 C 
ENDBRANCH  15  17
ENDBRANCH  14  15
ENDBRANCH  13  14
ENDBRANCH   1  13
BRANCH   8  25
HETATM   25  C15 UNL     1      -2.918   4.410  12.310  1.00  0.00    -0.025 A 
HETATM   26  C16 UNL     1      -2.149   4.345  11.140  1.00  0.00     0.012 A 
HETATM   27  C17 UNL     1      -0.816   4.759  11.153  1.00  0.00     0.001 A 
HETATM   28  C18 UNL     1      -0.245   5.239  12.330  1.00  0.00     0.000 A 
HETATM   29  C19 UNL     1      -1.005   5.308  13.498  1.00  0.00     0.001 A 
HETATM   30  C20 UNL     1      -2.338   4.895  13.489  1.00  0.00     0.012 A 
ENDBRANCH   8  25
TORSDOF 5
ENDMDL
MODEL 5
REMARK minimizedAffinity -9.50750065
REMARK CNNscore 0.377392948
REMARK CNNaffinity 6.26003599
REMARK  5 active torsions:
REMARK  status: ('A' for Active; 'I' for Inactive)
REMARK    1  A    between atoms: C5_5  and  C6_6 
REMARK    2  A    between atoms: C6_6  and  C7_8 
REMARK    3  A    between atoms: C7_8  and  O2_9 
REMARK    4  A    between atoms: O2_9  and  C8_10 
REMARK    5  A    between atoms: C14_17  and  C15_18 
ROOT
HETATM    1  C8  UNL     1      -3.682   6.219  13.054  1.00  0.00     0.093 A 
HETATM    2  C9  UNL     1      -4.171   4.926  12.869  1.00  0.00     0.076 A 
HETATM    3  C10 UNL     1      -5.540   4.679  13.005  1.00  0.00     0.093 A 
HETATM    4  C11 UNL     1      -6.454   5.682  13.318  1.00  0.00     0.011 A 
HETATM    5  C12 UNL     1      -5.963   6.978  13.505  1.00  0.00     0.042 A 
HETATM    6  C13 UNL     1      -4.593   7.241  13.373  1.00  0.00     0.068 A 
HETATM    7 CL1  UNL     1      -4.061   8.869  13.626  1.00  0.00    -0.081 Cl
HETATM    8  C14 UNL     1      -7.880   5.347  13.439  1.00  0.00    -0.007 A 
HETATM    9  C21 UNL     1      -8.244   4.069  13.244  1.00  0.00     0.095 A 
HETATM   10  C22 UNL     1      -7.293   2.996  12.921  1.00  0.00     0.289 A 
HETATM   11  O3  UNL     1      -7.678   1.843  12.764  1.00  0.00    -0.260 OA
HETATM   12  O4  UNL     1      -5.959   3.349  12.808  1.00  0.00    -0.275 OA
ENDROOT
BRANCH   1  13
HETATM   13  O2  UNL     1      -2.366   6.583  12.941  1.00  0.00    -0.342 OA
BRANCH  13  14
HETATM   14  C7  UNL     1      -1.470   5.751  12.226  1.00  0.00     0.254 C 
BRANCH  14  15
HETATM   15  C6  UNL     1      -0.023   6.252  12.127  1.00  0.00     0.155 C 
HETATM   16  O1  UNL     1       0.578   6.739  13.086  1.00  0.00    -0.295 OA
BRANCH  15  17
HETATM   17  C5  UNL     1       0.641   6.102  10.763  1.00  0.00     0.062 C 
HETATM   18  C4  UNL     1       2.015   5.440  10.916  1.00  0.00     0.049 C 
HETATM   19  C2  UNL     1       2.946   5.694   9.711  1.00  0.00     0.054 C 
HETATM   20  C1  UNL     1       3.655   4.387   9.323  1.00  0.00     0.045 C 
HETATM   21  C3  UNL     1       4.025   6.742  10.023  1.00  0.00     0.045 C 
HETATM   22  O5  UNL     1       2.171   6.072   8.568  1.00  0.00    -0.381 OA
HETATM   23  C24 UNL     1       1.438   7.289   8.696  1.00  0.00     0.169 C 
HETATM   24  C23 UNL     1       0.765   7.446  10.053  1.00  0.00     0.038 C 
ENDBRANCH  15  17
ENDBRANCH  14  15
ENDBRANCH  13  14
ENDBRANCH   1  13
BRANCH   8  25
HETATM   25  C15 UNL     1      -8.966   6.295  13.747  1.00  0.00    -0.025 A 
HETATM   26  C16 UNL     1      -9.025   6.912  15.004  1.00  0.00     0.012 A 
HETATM   27  C17 UNL     1     -10.055   7.808  15.297  1.00  0.00     0.001 A 
HETATM   28  C18 UNL     1     -11.027   8.092  14.340  1.00  0.00     0.000 A 
HETATM   29  C19 UNL     1     -10.973   7.481  13.087  1.00  0.00     0.001 A 
HETATM   30  C20 UNL     1      -9.946   6.585  12.790  1.00  0.00     0.012 A 
ENDBRANCH   8  25
TORSDOF 5
ENDMDL
MODEL 6
REMARK minimizedAffinity -9.92577457
REMARK CNNscore 0.372766972
REMARK CNNaffinity 6.15879583
REMARK  5 active torsions:
REMARK  status: ('A' for Active; 'I' for Inactive)
REMARK    1  A    between atoms: C5_5  and  C6_6 
REMARK    2  A    between atoms: C6_6  and  C7_8 
REMARK    3  A    between atoms: C7_8  and  O2_9 
REMARK    4  A    between atoms: O2_9  and  C8_10 
REMARK    5  A    between atoms: C14_17  and  C15_18 
ROOT
HETATM    1  C8  UNL     1      -2.613   5.721  13.061  1.00  0.00     0.093 A 
HETATM    2  C9  UNL     1      -3.094   4.523  12.535  1.00  0.00     0.076 A 
HETATM    3  C10 UNL     1      -4.458   4.230  12.617  1.00  0.00     0.093 A 
HETATM    4  C11 UNL     1      -5.375   5.097  13.207  1.00  0.00     0.011 A 
HETATM    5  C12 UNL     1      -4.893   6.298  13.735  1.00  0.00     0.042 A 
HETATM    6  C13 UNL     1      -3.528   6.605  13.661  1.00  0.00     0.068 A 
HETATM    7 CL1  UNL     1      -3.006   8.108  14.344  1.00  0.00    -0.081 Cl
HETATM    8  C14 UNL     1      -6.796   4.723  13.250  1.00  0.00    -0.007 A 
HETATM    9  C21 UNL     1      -7.153   3.543  12.717  1.00  0.00     0.095 A 
HETATM   10  C22 UNL     1      -6.197   2.612  12.099  1.00  0.00     0.289 A 
HETATM   11  O3  UNL     1      -6.576   1.541  11.637  1.00  0.00    -0.260 OA
HETATM   12  O4  UNL     1      -4.869   3.000  12.069  1.00  0.00    -0.275 OA
ENDROOT
BRANCH   1  13
HETATM   13  O2  UNL     1      -1.303   6.119  13.035  1.00  0.00    -0.342 OA
BRANCH  13  14
HETATM   14  C7  UNL     1      -0.727   6.548  11.813  1.00  0.00     0.254 C 
BRANCH  14  15
HETATM   15  C6  UNL     1       0.203   5.544  11.120  1.00  0.00     0.155 C 
HETATM   16  O1  UNL     1      -0.090   4.356  10.980  1.00  0.00    -0.295 OA
BRANCH  15  17
HETATM   17  C5  UNL     1       1.520   6.107  10.599  1.00  0.00     0.062 C 
HETATM   18  C4  UNL     1       1.288   6.854   9.280  1.00  0.00     0.049 C 
HETATM   19  C2  UNL     1       2.577   7.018   8.444  1.00  0.00     0.054 C 
HETATM   20  C1  UNL     1       2.652   8.450   7.892  1.00  0.00     0.045 C 
HETATM   21  C3  UNL     1       2.621   6.048   7.253  1.00  0.00     0.045 C 
HETATM   22  O5  UNL     1       3.726   6.862   9.284  1.00  0.00    -0.381 OA
HETATM   23  C24 UNL     1       3.874   5.580   9.892  1.00  0.00     0.169 C 
HETATM   24  C23 UNL     1       2.564   5.010  10.422  1.00  0.00     0.038 C 
ENDBRANCH  15  17
ENDBRANCH  14  15
ENDBRANCH  13  14
ENDBRANCH   1  13
BRANCH   8  25
HETATM   25  C15 UNL     1      -7.885   5.536  13.822  1.00  0.00    -0.025 A 
HETATM   26  C16 UNL     1      -7.863   5.887  15.178  1.00  0.00     0.012 A 
HETATM   27  C17 UNL     1      -8.896   6.654  15.720  1.00  0.00     0.001 A 
HETATM   28  C18 UNL     1      -9.952   7.075  14.913  1.00  0.00     0.000 A 
HETATM   29  C19 UNL     1      -9.978   6.730  13.561  1.00  0.00     0.001 A 
HETATM   30  C20 UNL     1      -8.948   5.962  13.016  1.00  0.00     0.012 A 
ENDBRANCH   8  25
TORSDOF 5
ENDMDL
MODEL 7
REMARK minimizedAffinity -10.2941828
REMARK CNNscore 0.367778867
REMARK CNNaffinity 6.14947367
REMARK  5 active torsions:
REMARK  status: ('A' for Active; 'I' for Inactive)
REMARK    1  A    between atoms: C5_5  and  C6_6 
REMARK    2  A    between atoms: C6_6  and  C7_8 
REMARK    3  A    between atoms: C7_8  and  O2_9 
REMARK    4  A    between atoms: O2_9  and  C8_10 
REMARK    5  A    between atoms: C14_17  and  C15_18 
ROOT
HETATM    1  C8  UNL     1      -1.792   4.821  12.810  1.00  0.00     0.093 A 
HETATM    2  C9  UNL     1      -2.322   3.685  12.199  1.00  0.00     0.076 A 
HETATM    3  C10 UNL     1      -3.705   3.488  12.185  1.00  0.00     0.093 A 
HETATM    4  C11 UNL     1      -4.595   4.393  12.760  1.00  0.00     0.011 A 
HETATM    5  C12 UNL     1      -4.063   5.531  13.374  1.00  0.00     0.042 A 
HETATM    6  C13 UNL     1      -2.679   5.742  13.396  1.00  0.00     0.068 A 
HETATM    7 CL1  UNL     1      -2.097   7.171  14.180  1.00  0.00    -0.081 Cl
HETATM    8  C14 UNL     1      -6.038   4.121  12.701  1.00  0.00    -0.007 A 
HETATM    9  C21 UNL     1      -6.442   2.996  12.091  1.00  0.00     0.095 A 
HETATM   10  C22 UNL     1      -5.517   2.025  11.487  1.00  0.00     0.289 A 
HETATM   11  O3  UNL     1      -5.939   1.006  10.952  1.00  0.00    -0.260 OA
HETATM   12  O4  UNL     1      -4.166   2.317  11.555  1.00  0.00    -0.275 OA
ENDROOT
BRANCH   1  13
HETATM   13  O2  UNL     1      -0.458   5.123  12.880  1.00  0.00    -0.342 OA
BRANCH  13  14
HETATM   14  C7  UNL     1       0.397   4.767  11.808  1.00  0.00     0.254 C 
BRANCH  14  15
HETATM   15  C6  UNL     1       1.316   5.879  11.284  1.00  0.00     0.155 C 
HETATM   16  O1  UNL     1       2.361   6.198  11.852  1.00  0.00    -0.295 OA
BRANCH  15  17
HETATM   17  C5  UNL     1       0.862   6.567  10.002  1.00  0.00     0.062 C 
HETATM   18  C4  UNL     1       1.946   6.441   8.925  1.00  0.00     0.049 C 
HETATM   19  C2  UNL     1       1.809   7.495   7.804  1.00  0.00     0.054 C 
HETATM   20  C1  UNL     1       2.015   6.822   6.438  1.00  0.00     0.045 C 
HETATM   21  C3  UNL     1       2.846   8.621   7.938  1.00  0.00     0.045 C 
HETATM   22  O5  UNL     1       0.475   8.016   7.786  1.00  0.00    -0.381 OA
HETATM   23  C24 UNL     1       0.071   8.715   8.962  1.00  0.00     0.169 C 
HETATM   24  C23 UNL     1       0.514   8.032  10.250  1.00  0.00     0.038 C 
ENDBRANCH  15  17
ENDBRANCH  14  15
ENDBRANCH  13  14
ENDBRANCH   1  13
BRANCH   8  25
HETATM   25  C15 UNL     1      -7.101   4.985  13.246  1.00  0.00    -0.025 A 
HETATM   26  C16 UNL     1      -7.027   5.444  14.568  1.00  0.00     0.012 A 
HETATM   27  C17 UNL     1      -8.035   6.260  15.084  1.00  0.00     0.001 A 
HETATM   28  C18 UNL     1      -9.119   6.622  14.286  1.00  0.00     0.000 A 
HETATM   29  C19 UNL     1      -9.198   6.170  12.969  1.00  0.00     0.001 A 
HETATM   30  C20 UNL     1      -8.192   5.353  12.448  1.00  0.00     0.012 A 
ENDBRANCH   8  25
TORSDOF 5
ENDMDL
MODEL 8
REMARK minimizedAffinity -9.47792721
REMARK CNNscore 0.292394668
REMARK CNNaffinity 6.01818991
REMARK  5 active torsions:
REMARK  status: ('A' for Active; 'I' for Inactive)
REMARK    1  A    between atoms: C5_5  and  C6_6 
REMARK    2  A    between atoms: C6_6  and  C7_8 
REMARK    3  A    between atoms: C7_8  and  O2_9 
REMARK    4  A    between atoms: O2_9  and  C8_10 
REMARK    5  A    between atoms: C14_17  and  C15_18 
ROOT
HETATM    1  C8  UNL     1      -1.226   7.046  12.944  1.00  0.00     0.093 A 
HETATM    2  C9  UNL     1      -0.495   5.962  12.458  1.00  0.00     0.076 A 
HETATM    3  C10 UNL     1      -1.151   4.763  12.164  1.00  0.00     0.093 A 
HETATM    4  C11 UNL     1      -2.524   4.600  12.332  1.00  0.00     0.011 A 
HETATM    5  C12 UNL     1      -3.255   5.687  12.820  1.00  0.00     0.042 A 
HETATM    6  C13 UNL     1      -2.613   6.895  13.120  1.00  0.00     0.068 A 
HETATM    7 CL1  UNL     1      -3.586   8.192  13.727  1.00  0.00    -0.081 Cl
HETATM    8  C14 UNL     1      -3.144   3.311  11.995  1.00  0.00    -0.007 A 
HETATM    9  C21 UNL     1      -2.348   2.331  11.538  1.00  0.00     0.095 A 
HETATM   10  C22 UNL     1      -0.896   2.482  11.363  1.00  0.00     0.289 A 
HETATM   11  O3  UNL     1      -0.214   1.550  10.952  1.00  0.00    -0.260 OA
HETATM   12  O4  UNL     1      -0.348   3.711  11.683  1.00  0.00    -0.275 OA
ENDROOT
BRANCH   1  13
HETATM   13  O2  UNL     1      -0.697   8.269  13.260  1.00  0.00    -0.342 OA
BRANCH  13  14
HETATM   14  C7  UNL     1       0.331   8.816  12.454  1.00  0.00     0.254 C 
BRANCH  14  15
HETATM   15  C6  UNL     1       1.765   8.423  12.835  1.00  0.00     0.155 C 
HETATM   16  O1  UNL     1       2.090   8.133  13.987  1.00  0.00    -0.295 OA
BRANCH  15  17
HETATM   17  C5  UNL     1       2.775   8.403  11.693  1.00  0.00     0.062 C 
HETATM   18  C4  UNL     1       2.062   8.122  10.365  1.00  0.00     0.049 C 
HETATM   19  C2  UNL     1       3.014   7.598   9.267  1.00  0.00     0.054 C 
HETATM   20  C1  UNL     1       2.710   8.309   7.940  1.00  0.00     0.045 C 
HETATM   21  C3  UNL     1       2.860   6.086   9.041  1.00  0.00     0.045 C 
HETATM   22  O5  UNL     1       4.367   7.939   9.593  1.00  0.00    -0.381 OA
HETATM   23  C24 UNL     1       4.877   7.359  10.792  1.00  0.00     0.169 C 
HETATM   24  C23 UNL     1       3.878   7.380  11.942  1.00  0.00     0.038 C 
ENDBRANCH  15  17
ENDBRANCH  14  15
ENDBRANCH  13  14
ENDBRANCH   1  13
BRANCH   8  25
HETATM   25  C15 UNL     1      -4.578   2.989  12.102  1.00  0.00    -0.025 A 
HETATM   26  C16 UNL     1      -5.432   3.820  12.840  1.00  0.00     0.012 A 
HETATM   27  C17 UNL     1      -6.790   3.514  12.944  1.00  0.00     0.001 A 
HETATM   28  C18 UNL     1      -7.302   2.382  12.312  1.00  0.00     0.000 A 
HETATM   29  C19 UNL     1      -6.457   1.551  11.575  1.00  0.00     0.001 A 
HETATM   30  C20 UNL     1      -5.099   1.853  11.469  1.00  0.00     0.012 A 
ENDBRANCH   8  25
TORSDOF 5
ENDMDL
MODEL 9
REMARK minimizedAffinity -8.0569582
REMARK CNNscore 0.286431253
REMARK CNNaffinity 6.00921392
REMARK  5 active torsions:
REMARK  status: ('A' for Active; 'I' for Inactive)
REMARK    1  A    between atoms: C5_5  and  C6_6 
REMARK    2  A    between atoms: C6_6  and  C7_8 
REMARK    3  A    between atoms: C7_8  and  O2_9 
REMARK    4  A    between atoms: O2_9  and  C8_10 
REMARK    5  A    between atoms: C14_17  and  C15_18 
ROOT
HETATM    1  C8  UNL     1      -9.329   6.542  13.423  1.00  0.00     0.093 A 
HETATM    2  C9  UNL     1      -8.977   5.364  12.765  1.00  0.00     0.076 A 
HETATM    3  C10 UNL     1      -7.644   4.945  12.763  1.00  0.00     0.093 A 
HETATM    4  C11 UNL     1      -6.634   5.660  13.404  1.00  0.00     0.011 A 
HETATM    5  C12 UNL     1      -6.988   6.841  14.062  1.00  0.00     0.042 A 
HETATM    6  C13 UNL     1      -8.320   7.275  14.072  1.00  0.00     0.068 A 
HETATM    7 CL1  UNL     1      -8.677   8.751  14.904  1.00  0.00    -0.081 Cl
HETATM    8  C14 UNL     1      -5.255   5.153  13.364  1.00  0.00    -0.007 A 
HETATM    9  C21 UNL     1      -5.024   4.010  12.699  1.00  0.00     0.095 A 
HETATM   10  C22 UNL     1      -6.076   3.247  12.010  1.00  0.00     0.289 A 
HETATM   11  O3  UNL     1      -5.807   2.214  11.407  1.00  0.00    -0.260 OA
HETATM   12  O4  UNL     1      -7.363   3.750  12.074  1.00  0.00    -0.275 OA
ENDROOT
BRANCH   1  13
HETATM   13  O2  UNL     1     -10.600   7.049  13.498  1.00  0.00    -0.342 OA
BRANCH  13  14
HETATM   14  C7  UNL     1     -11.465   6.616  14.533  1.00  0.00     0.254 C 
BRANCH  14  15
HETATM   15  C6  UNL     1     -12.903   6.286  14.113  1.00  0.00     0.155 C 
HETATM   16  O1  UNL     1     -13.509   5.302  14.537  1.00  0.00    -0.295 OA
BRANCH  15  17
HETATM   17  C5  UNL     1     -13.550   7.260  13.136  1.00  0.00     0.062 C 
HETATM   18  C4  UNL     1     -13.458   8.691  13.680  1.00  0.00     0.049 C 
HETATM   19  C2  UNL     1     -14.487   9.649  13.040  1.00  0.00     0.054 C 
HETATM   20  C1  UNL     1     -13.804  10.981  12.693  1.00  0.00     0.045 C 
HETATM   21  C3  UNL     1     -15.662   9.950  13.983  1.00  0.00     0.045 C 
HETATM   22  O5  UNL     1     -14.946   9.109  11.795  1.00  0.00    -0.381 OA
HETATM   23  C24 UNL     1     -15.643   7.867  11.882  1.00  0.00     0.169 C 
HETATM   24  C23 UNL     1     -15.001   6.883  12.851  1.00  0.00     0.038 C 
ENDBRANCH  15  17
ENDBRANCH  14  15
ENDBRANCH  13  14
ENDBRANCH   1  13
BRANCH   8  25
HETATM   25  C15 UNL     1      -4.086   5.783  14.003  1.00  0.00    -0.025 A 
HETATM   26  C16 UNL     1      -4.190   6.306  15.299  1.00  0.00     0.012 A 
HETATM   27  C17 UNL     1      -3.084   6.906  15.904  1.00  0.00     0.001 A 
HETATM   28  C18 UNL     1      -1.871   6.986  15.220  1.00  0.00     0.000 A 
HETATM   29  C19 UNL     1      -1.761   6.466  13.930  1.00  0.00     0.001 A 
HETATM   30  C20 UNL     1      -2.865   5.866  13.322  1.00  0.00     0.012 A 
ENDBRANCH   8  25
TORSDOF 5
ENDMDL
