MODEL 1
REMARK minimizedAffinity -10.2964249
REMARK  9 active torsions:
REMARK  status: ('A' for Active; 'I' for Inactive)
REMARK    1  A    between atoms: C2_2  and  C3_3 
REMARK    2  A    between atoms: C2_2  and  C27_31 
REMARK    3  A    between atoms: C3_3  and  C4_4 
REMARK    4  A    between atoms: C4_4  and  C5_5 
REMARK    5  A    between atoms: C5_5  and  C7_7 
REMARK    6  A    between atoms: C22_24  and  O3_26 
REMARK    7  A    between atoms: C26_29  and  O4_30 
REMARK    8  A    between atoms: C27_31  and  C29_33 
REMARK    9  A    between atoms: C29_33  and  O6_35 
ROOT
HETATM    1  C7  UNL     1      -1.863   5.514  12.355  1.00  0.00    -0.002 C 
HETATM    2  C8  UNL     1      -2.399   4.229  11.659  1.00  0.00     0.006 C 
HETATM    3  C9  UNL     1      -3.883   4.103  12.022  1.00  0.00     0.010 C 
HETATM    4  C10 UNL     1      -4.235   5.465  12.616  1.00  0.00     0.027 C 
HETATM    5  C11 UNL     1      -5.532   5.717  13.363  1.00  0.00    -0.036 C 
HETATM    6  C12 UNL     1      -5.644   6.754  14.234  1.00  0.00     0.002 C 
HETATM    7  C13 UNL     1      -4.385   7.518  14.601  1.00  0.00     0.157 C 
HETATM    8  O1  UNL     1      -4.376   8.322  15.531  1.00  0.00    -0.293 OA
HETATM    9  C14 UNL     1      -3.107   7.286  13.812  1.00  0.00     0.093 C 
HETATM   10  C15 UNL     1      -2.962   5.816  13.422  1.00  0.00    -0.026 C 
HETATM   11  C16 UNL     1      -2.784   4.940  14.688  1.00  0.00     0.016 C 
HETATM   12  C17 UNL     1      -6.990   7.170  14.887  1.00  0.00    -0.006 C 
HETATM   13  C18 UNL     1      -6.987   6.558  16.307  1.00  0.00     0.021 C 
HETATM   14  C19 UNL     1      -7.171   8.716  14.979  1.00  0.00     0.022 C 
HETATM   15  C20 UNL     1      -8.526   9.154  15.518  1.00  0.00     0.083 C 
HETATM   16  C21 UNL     1      -9.656   8.561  14.720  1.00  0.00     0.161 C 
HETATM   17  O2  UNL     1     -10.618   9.257  14.390  1.00  0.00    -0.295 OA
HETATM   18  C22 UNL     1      -9.602   7.045  14.454  1.00  0.00     0.119 C 
HETATM   19  C23 UNL     1     -10.677   6.682  13.415  1.00  0.00     0.055 C 
HETATM   20  C24 UNL     1      -8.175   6.661  13.968  1.00  0.00     0.043 C 
HETATM   21  C25 UNL     1      -8.020   5.160  13.712  1.00  0.00     0.045 C 
HETATM   22  C26 UNL     1      -6.713   4.854  12.982  1.00  0.00     0.148 C 
ENDROOT
BRANCH   1  23
HETATM   23  C5  UNL     1      -0.378   5.359  12.803  1.00  0.00    -0.014 C 
HETATM   24  C6  UNL     1       0.123   6.606  13.543  1.00  0.00     0.010 C 
BRANCH  23  25
HETATM   25  C4  UNL     1       0.540   5.082  11.578  1.00  0.00     0.009 C 
BRANCH  25  26
HETATM   26  C3  UNL     1       1.519   6.220  11.237  1.00  0.00     0.034 C 
BRANCH  26  27
HETATM   27  C2  UNL     1       1.192   7.052  10.010  1.00  0.00    -0.075 C 
HETATM   28  C1  UNL     1       0.392   8.129  10.133  1.00  0.00     0.015 C 
BRANCH  27  29
HETATM   29  C27 UNL     1       1.831   6.604   8.696  1.00  0.00     0.107 C 
HETATM   30  C28 UNL     1       2.032   7.693   7.637  1.00  0.00     0.026 C 
BRANCH  29  31
HETATM   31  C29 UNL     1       3.182   5.960   8.975  1.00  0.00     0.147 C 
HETATM   32  O5  UNL     1       3.501   4.795   8.793  1.00  0.00    -0.650 OA
BRANCH  31  33
HETATM   33  O6  UNL     1       4.081   6.835   9.475  1.00  0.00    -0.776 OA
HETATM   34  H42 UNL     1       4.889   6.292   9.593  1.00  0.00     0.167 HD
ENDBRANCH  31  33
ENDBRANCH  29  31
ENDBRANCH  27  29
ENDBRANCH  26  27
ENDBRANCH  25  26
ENDBRANCH  23  25
ENDBRANCH   1  23
BRANCH  22  35
HETATM   35  O4  UNL     1      -6.411   3.487  13.231  1.00  0.00    -0.391 OA
HETATM   36  H37 UNL     1      -6.211   3.400  14.179  1.00  0.00     0.210 HD
ENDBRANCH  22  35
BRANCH  18  37
HETATM   37  O3  UNL     1      -9.919   6.345  15.653  1.00  0.00    -0.382 OA
HETATM   38  H32 UNL     1     -10.843   6.560  15.882  1.00  0.00     0.211 HD
ENDBRANCH  18  37
TORSDOF 9
ENDMDL
MODEL 2
REMARK minimizedAffinity -10.1827488
REMARK  9 active torsions:
REMARK  status: ('A' for Active; 'I' for Inactive)
REMARK    1  A    between atoms: C2_2  and  C3_3 
REMARK    2  A    between atoms: C2_2  and  C27_31 
REMARK    3  A    between atoms: C3_3  and  C4_4 
REMARK    4  A    between atoms: C4_4  and  C5_5 
REMARK    5  A    between atoms: C5_5  and  C7_7 
REMARK    6  A    between atoms: C22_24  and  O3_26 
REMARK    7  A    between atoms: C26_29  and  O4_30 
REMARK    8  A    between atoms: C27_31  and  C29_33 
REMARK    9  A    between atoms: C29_33  and  O6_35 
ROOT
HETATM    1  C7  UNL     1      -0.075   6.805  11.604  1.00  0.00    -0.002 C 
HETATM    2  C8  UNL     1      -0.011   5.366  11.013  1.00  0.00     0.006 C 
HETATM    3  C9  UNL     1      -1.304   4.651  11.423  1.00  0.00     0.010 C 
HETATM    4  C10 UNL     1      -2.203   5.775  11.930  1.00  0.00     0.027 C 
HETATM    5  C11 UNL     1      -3.489   5.509  12.691  1.00  0.00    -0.036 C 
HETATM    6  C12 UNL     1      -4.035   6.462  13.492  1.00  0.00     0.002 C 
HETATM    7  C13 UNL     1      -3.221   7.712  13.772  1.00  0.00     0.157 C 
HETATM    8  O1  UNL     1      -3.560   8.511  14.643  1.00  0.00    -0.293 OA
HETATM    9  C14 UNL     1      -1.962   7.986  12.967  1.00  0.00     0.093 C 
HETATM   10  C15 UNL     1      -1.204   6.692  12.676  1.00  0.00    -0.026 C 
HETATM   11  C16 UNL     1      -0.678   6.069  13.995  1.00  0.00     0.016 C 
HETATM   12  C17 UNL     1      -5.434   6.315  14.149  1.00  0.00    -0.006 C 
HETATM   13  C18 UNL     1      -5.180   5.870  15.608  1.00  0.00     0.021 C 
HETATM   14  C19 UNL     1      -6.254   7.642  14.138  1.00  0.00     0.022 C 
HETATM   15  C20 UNL     1      -7.671   7.503  14.681  1.00  0.00     0.083 C 
HETATM   16  C21 UNL     1      -8.438   6.431  13.957  1.00  0.00     0.161 C 
HETATM   17  O2  UNL     1      -9.602   6.627  13.604  1.00  0.00    -0.295 OA
HETATM   18  C22 UNL     1      -7.744   5.065  13.796  1.00  0.00     0.119 C 
HETATM   19  C23 UNL     1      -8.557   4.205  12.812  1.00  0.00     0.055 C 
HETATM   20  C24 UNL     1      -6.286   5.286  13.299  1.00  0.00     0.043 C 
HETATM   21  C25 UNL     1      -5.507   3.978  13.145  1.00  0.00     0.045 C 
HETATM   22  C26 UNL     1      -4.190   4.202  12.403  1.00  0.00     0.148 C 
ENDROOT
BRANCH   1  23
HETATM   23  C5  UNL     1       1.333   7.328  12.022  1.00  0.00    -0.014 C 
HETATM   24  C6  UNL     1       1.278   8.105  13.343  1.00  0.00     0.010 C 
BRANCH  23  25
HETATM   25  C4  UNL     1       1.934   8.236  10.911  1.00  0.00     0.009 C 
BRANCH  25  26
HETATM   26  C3  UNL     1       3.435   8.017  10.644  1.00  0.00     0.034 C 
BRANCH  26  27
HETATM   27  C2  UNL     1       3.863   6.602  10.298  1.00  0.00    -0.075 C 
HETATM   28  C1  UNL     1       5.001   6.107  10.820  1.00  0.00     0.015 C 
BRANCH  27  29
HETATM   29  C27 UNL     1       2.931   5.819   9.374  1.00  0.00     0.107 C 
HETATM   30  C28 UNL     1       2.637   6.456   8.012  1.00  0.00     0.026 C 
BRANCH  29  31
HETATM   31  C29 UNL     1       3.499   4.427   9.131  1.00  0.00     0.147 C 
HETATM   32  O5  UNL     1       4.264   4.081   8.245  1.00  0.00    -0.650 OA
BRANCH  31  33
HETATM   33  O6  UNL     1       3.068   3.526  10.041  1.00  0.00    -0.776 OA
HETATM   34  H42 UNL     1       3.515   2.695   9.770  1.00  0.00     0.167 HD
ENDBRANCH  31  33
ENDBRANCH  29  31
ENDBRANCH  27  29
ENDBRANCH  26  27
ENDBRANCH  25  26
ENDBRANCH  23  25
ENDBRANCH   1  23
BRANCH  22  35
HETATM   35  O4  UNL     1      -3.338   3.113  12.738  1.00  0.00    -0.391 OA
HETATM   36  H37 UNL     1      -3.125   3.189  13.684  1.00  0.00     0.210 HD
ENDBRANCH  22  35
BRANCH  18  37
HETATM   37  O3  UNL     1      -7.741   4.387  15.048  1.00  0.00    -0.382 OA
HETATM   38  H32 UNL     1      -8.670   4.207  15.286  1.00  0.00     0.211 HD
ENDBRANCH  18  37
TORSDOF 9
ENDMDL
MODEL 3
REMARK minimizedAffinity -9.54524708
REMARK  9 active torsions:
REMARK  status: ('A' for Active; 'I' for Inactive)
REMARK    1  A    between atoms: C2_2  and  C3_3 
REMARK    2  A    between atoms: C2_2  and  C27_31 
REMARK    3  A    between atoms: C3_3  and  C4_4 
REMARK    4  A    between atoms: C4_4  and  C5_5 
REMARK    5  A    between atoms: C5_5  and  C7_7 
REMARK    6  A    between atoms: C22_24  and  O3_26 
REMARK    7  A    between atoms: C26_29  and  O4_30 
REMARK    8  A    between atoms: C27_31  and  C29_33 
REMARK    9  A    between atoms: C29_33  and  O6_35 
ROOT
HETATM    1  C7  UNL     1      -0.073   7.273  12.609  1.00  0.00    -0.002 C 
HETATM    2  C8  UNL     1       0.038   5.939  11.813  1.00  0.00     0.006 C 
HETATM    3  C9  UNL     1      -1.293   5.198  11.984  1.00  0.00     0.010 C 
HETATM    4  C10 UNL     1      -2.230   6.251  12.570  1.00  0.00     0.027 C 
HETATM    5  C11 UNL     1      -3.585   5.899  13.156  1.00  0.00    -0.036 C 
HETATM    6  C12 UNL     1      -4.200   6.731  14.037  1.00  0.00     0.002 C 
HETATM    7  C13 UNL     1      -3.409   7.907  14.582  1.00  0.00     0.157 C 
HETATM    8  O1  UNL     1      -3.825   8.571  15.529  1.00  0.00    -0.293 OA
HETATM    9  C14 UNL     1      -2.076   8.273  13.952  1.00  0.00     0.093 C 
HETATM   10  C15 UNL     1      -1.302   7.022  13.539  1.00  0.00    -0.026 C 
HETATM   11  C16 UNL     1      -0.911   6.195  14.791  1.00  0.00     0.016 C 
HETATM   12  C17 UNL     1      -5.657   6.516  14.529  1.00  0.00    -0.006 C 
HETATM   13  C18 UNL     1      -5.548   5.848  15.920  1.00  0.00     0.021 C 
HETATM   14  C19 UNL     1      -6.464   7.846  14.644  1.00  0.00     0.022 C 
HETATM   15  C20 UNL     1      -7.927   7.657  15.022  1.00  0.00     0.083 C 
HETATM   16  C21 UNL     1      -8.627   6.723  14.072  1.00  0.00     0.161 C 
HETATM   17  O2  UNL     1      -9.751   6.996  13.645  1.00  0.00    -0.295 OA
HETATM   18  C22 UNL     1      -7.930   5.383  13.770  1.00  0.00     0.119 C 
HETATM   19  C23 UNL     1      -8.650   4.700  12.594  1.00  0.00     0.055 C 
HETATM   20  C24 UNL     1      -6.429   5.647  13.454  1.00  0.00     0.043 C 
HETATM   21  C25 UNL     1      -5.648   4.361  13.175  1.00  0.00     0.045 C 
HETATM   22  C26 UNL     1      -4.263   4.666  12.605  1.00  0.00     0.148 C 
ENDROOT
BRANCH   1  23
HETATM   23  C5  UNL     1       1.291   7.696  13.234  1.00  0.00    -0.014 C 
HETATM   24  C6  UNL     1       1.440   9.221  13.288  1.00  0.00     0.010 C 
BRANCH  23  25
HETATM   25  C4  UNL     1       2.476   7.088  12.430  1.00  0.00     0.009 C 
BRANCH  25  26
HETATM   26  C3  UNL     1       3.295   8.109  11.621  1.00  0.00     0.034 C 
BRANCH  26  27
HETATM   27  C2  UNL     1       4.126   7.558  10.476  1.00  0.00    -0.075 C 
HETATM   28  C1  UNL     1       3.510   7.119   9.361  1.00  0.00     0.015 C 
BRANCH  27  29
HETATM   29  C27 UNL     1       5.641   7.564  10.673  1.00  0.00     0.107 C 
HETATM   30  C28 UNL     1       6.193   8.618  11.639  1.00  0.00     0.026 C 
BRANCH  29  31
HETATM   31  C29 UNL     1       6.102   6.195  11.154  1.00  0.00     0.147 C 
HETATM   32  O5  UNL     1       6.509   5.267  10.473  1.00  0.00    -0.650 OA
BRANCH  31  33
HETATM   33  O6  UNL     1       6.029   6.065  12.497  1.00  0.00    -0.776 OA
HETATM   34  H42 UNL     1       6.360   5.155  12.658  1.00  0.00     0.167 HD
ENDBRANCH  31  33
ENDBRANCH  29  31
ENDBRANCH  27  29
ENDBRANCH  26  27
ENDBRANCH  25  26
ENDBRANCH  23  25
ENDBRANCH   1  23
BRANCH  22  35
HETATM   35  O4  UNL     1      -3.455   3.522  12.848  1.00  0.00    -0.391 OA
HETATM   36  H37 UNL     1      -3.335   3.449  13.811  1.00  0.00     0.210 HD
ENDBRANCH  22  35
BRANCH  18  37
HETATM   37  O3  UNL     1      -8.053   4.523  14.898  1.00  0.00    -0.382 OA
HETATM   38  H32 UNL     1      -9.002   4.329  15.016  1.00  0.00     0.211 HD
ENDBRANCH  18  37
TORSDOF 9
ENDMDL
MODEL 4
REMARK minimizedAffinity -9.51588821
REMARK  9 active torsions:
REMARK  status: ('A' for Active; 'I' for Inactive)
REMARK    1  A    between atoms: C2_2  and  C3_3 
REMARK    2  A    between atoms: C2_2  and  C27_31 
REMARK    3  A    between atoms: C3_3  and  C4_4 
REMARK    4  A    between atoms: C4_4  and  C5_5 
REMARK    5  A    between atoms: C5_5  and  C7_7 
REMARK    6  A    between atoms: C22_24  and  O3_26 
REMARK    7  A    between atoms: C26_29  and  O4_30 
REMARK    8  A    between atoms: C27_31  and  C29_33 
REMARK    9  A    between atoms: C29_33  and  O6_35 
ROOT
HETATM    1  C7  UNL     1      -1.710   4.985  13.325  1.00  0.00    -0.002 C 
HETATM    2  C8  UNL     1      -1.634   4.189  11.990  1.00  0.00     0.006 C 
HETATM    3  C9  UNL     1      -0.329   4.594  11.295  1.00  0.00     0.010 C 
HETATM    4  C10 UNL     1       0.454   5.329  12.380  1.00  0.00     0.027 C 
HETATM    5  C11 UNL     1       1.697   6.146  12.075  1.00  0.00    -0.036 C 
HETATM    6  C12 UNL     1       2.118   7.117  12.927  1.00  0.00     0.002 C 
HETATM    7  C13 UNL     1       1.203   7.509  14.073  1.00  0.00     0.157 C 
HETATM    8  O1  UNL     1       1.424   8.511  14.750  1.00  0.00    -0.293 OA
HETATM    9  C14 UNL     1      -0.011   6.653  14.393  1.00  0.00     0.093 C 
HETATM   10  C15 UNL     1      -0.656   6.117  13.116  1.00  0.00    -0.026 C 
HETATM   11  C16 UNL     1      -1.232   7.285  12.274  1.00  0.00     0.016 C 
HETATM   12  C17 UNL     1       3.473   7.858  12.762  1.00  0.00    -0.006 C 
HETATM   13  C18 UNL     1       3.146   9.211  12.089  1.00  0.00     0.021 C 
HETATM   14  C19 UNL     1       4.200   8.106  14.119  1.00  0.00     0.022 C 
HETATM   15  C20 UNL     1       5.580   8.736  13.981  1.00  0.00     0.083 C 
HETATM   16  C21 UNL     1       6.468   7.928  13.074  1.00  0.00     0.161 C 
HETATM   17  O2  UNL     1       7.639   7.703  13.387  1.00  0.00    -0.295 OA
HETATM   18  C22 UNL     1       5.882   7.514  11.711  1.00  0.00     0.119 C 
HETATM   19  C23 UNL     1       6.820   6.486  11.056  1.00  0.00     0.055 C 
HETATM   20  C24 UNL     1       4.452   6.939  11.922  1.00  0.00     0.043 C 
HETATM   21  C25 UNL     1       3.777   6.534  10.610  1.00  0.00     0.045 C 
HETATM   22  C26 UNL     1       2.504   5.728  10.867  1.00  0.00     0.148 C 
ENDROOT
BRANCH   1  23
HETATM   23  C5  UNL     1      -3.177   5.360  13.699  1.00  0.00    -0.014 C 
HETATM   24  C6  UNL     1      -3.288   5.828  15.155  1.00  0.00     0.010 C 
BRANCH  23  25
HETATM   25  C4  UNL     1      -4.128   4.150  13.470  1.00  0.00     0.009 C 
BRANCH  25  26
HETATM   26  C3  UNL     1      -5.376   4.464  12.624  1.00  0.00     0.034 C 
BRANCH  26  27
HETATM   27  C2  UNL     1      -6.715   4.379  13.333  1.00  0.00    -0.075 C 
HETATM   28  C1  UNL     1      -7.389   3.213  13.342  1.00  0.00     0.015 C 
BRANCH  27  29
HETATM   29  C27 UNL     1      -7.200   5.655  14.022  1.00  0.00     0.107 C 
HETATM   30  C28 UNL     1      -8.590   6.156  13.614  1.00  0.00     0.026 C 
BRANCH  29  31
HETATM   31  C29 UNL     1      -7.193   5.458  15.532  1.00  0.00     0.147 C 
HETATM   32  O5  UNL     1      -6.426   5.953  16.342  1.00  0.00    -0.650 OA
BRANCH  31  33
HETATM   33  O6  UNL     1      -8.178   4.634  15.952  1.00  0.00    -0.776 OA
HETATM   34  H42 UNL     1      -8.057   4.610  16.926  1.00  0.00     0.167 HD
ENDBRANCH  31  33
ENDBRANCH  29  31
ENDBRANCH  27  29
ENDBRANCH  26  27
ENDBRANCH  25  26
ENDBRANCH  23  25
ENDBRANCH   1  23
BRANCH  22  35
HETATM   35  O4  UNL     1       1.705   5.831   9.695  1.00  0.00    -0.391 OA
HETATM   36  H37 UNL     1       1.421   6.758   9.616  1.00  0.00     0.210 HD
ENDBRANCH  22  35
BRANCH  18  37
HETATM   37  O3  UNL     1       5.835   8.651  10.854  1.00  0.00    -0.382 OA
HETATM   38  H32 UNL     1       6.755   8.934  10.693  1.00  0.00     0.211 HD
ENDBRANCH  18  37
TORSDOF 9
ENDMDL
MODEL 5
REMARK minimizedAffinity -9.17459011
REMARK  9 active torsions:
REMARK  status: ('A' for Active; 'I' for Inactive)
REMARK    1  A    between atoms: C2_2  and  C3_3 
REMARK    2  A    between atoms: C2_2  and  C27_31 
REMARK    3  A    between atoms: C3_3  and  C4_4 
REMARK    4  A    between atoms: C4_4  and  C5_5 
REMARK    5  A    between atoms: C5_5  and  C7_7 
REMARK    6  A    between atoms: C22_24  and  O3_26 
REMARK    7  A    between atoms: C26_29  and  O4_30 
REMARK    8  A    between atoms: C27_31  and  C29_33 
REMARK    9  A    between atoms: C29_33  and  O6_35 
ROOT
HETATM    1  C7  UNL     1      -0.373   7.400  12.565  1.00  0.00    -0.002 C 
HETATM    2  C8  UNL     1      -0.371   6.040  11.806  1.00  0.00     0.006 C 
HETATM    3  C9  UNL     1      -1.732   5.380  12.059  1.00  0.00     0.010 C 
HETATM    4  C10 UNL     1      -2.582   6.500  12.652  1.00  0.00     0.027 C 
HETATM    5  C11 UNL     1      -3.926   6.242  13.308  1.00  0.00    -0.036 C 
HETATM    6  C12 UNL     1      -4.453   7.132  14.190  1.00  0.00     0.002 C 
HETATM    7  C13 UNL     1      -3.574   8.275  14.663  1.00  0.00     0.157 C 
HETATM    8  O1  UNL     1      -3.909   8.988  15.607  1.00  0.00    -0.293 OA
HETATM    9  C14 UNL     1      -2.253   8.548  13.964  1.00  0.00     0.093 C 
HETATM   10  C15 UNL     1      -1.569   7.244  13.556  1.00  0.00    -0.026 C 
HETATM   11  C16 UNL     1      -1.167   6.432  14.814  1.00  0.00     0.016 C 
HETATM   12  C17 UNL     1      -5.896   7.013  14.752  1.00  0.00    -0.006 C 
HETATM   13  C18 UNL     1      -5.760   6.380  16.157  1.00  0.00     0.021 C 
HETATM   14  C19 UNL     1      -6.622   8.389  14.862  1.00  0.00     0.022 C 
HETATM   15  C20 UNL     1      -8.074   8.294  15.311  1.00  0.00     0.083 C 
HETATM   16  C21 UNL     1      -8.867   7.375  14.421  1.00  0.00     0.161 C 
HETATM   17  O2  UNL     1      -9.992   7.698  14.036  1.00  0.00    -0.295 OA
HETATM   18  C22 UNL     1      -8.260   5.989  14.130  1.00  0.00     0.119 C 
HETATM   19  C23 UNL     1      -9.069   5.315  13.008  1.00  0.00     0.055 C 
HETATM   20  C24 UNL     1      -6.763   6.159  13.740  1.00  0.00     0.043 C 
HETATM   21  C25 UNL     1      -6.067   4.824  13.466  1.00  0.00     0.045 C 
HETATM   22  C26 UNL     1      -4.696   5.034  12.826  1.00  0.00     0.148 C 
ENDROOT
BRANCH   1  23
HETATM   23  C5  UNL     1       1.040   7.762  13.116  1.00  0.00    -0.014 C 
HETATM   24  C6  UNL     1       1.384   9.236  12.866  1.00  0.00     0.010 C 
BRANCH  23  25
HETATM   25  C4  UNL     1       2.130   6.859  12.470  1.00  0.00     0.009 C 
BRANCH  25  26
HETATM   26  C3  UNL     1       2.670   7.368  11.120  1.00  0.00     0.034 C 
BRANCH  26  27
HETATM   27  C2  UNL     1       2.705   6.365   9.982  1.00  0.00    -0.075 C 
HETATM   28  C1  UNL     1       2.477   5.062  10.238  1.00  0.00     0.015 C 
BRANCH  27  29
HETATM   29  C27 UNL     1       2.983   6.929   8.589  1.00  0.00     0.107 C 
HETATM   30  C28 UNL     1       2.739   5.976   7.413  1.00  0.00     0.026 C 
BRANCH  29  31
HETATM   31  C29 UNL     1       2.147   8.181   8.365  1.00  0.00     0.147 C 
HETATM   32  O5  UNL     1       1.065   8.450   8.862  1.00  0.00    -0.650 OA
BRANCH  31  33
HETATM   33  O6  UNL     1       2.732   9.050   7.512  1.00  0.00    -0.776 OA
HETATM   34  H42 UNL     1       2.097   9.796   7.473  1.00  0.00     0.167 HD
ENDBRANCH  31  33
ENDBRANCH  29  31
ENDBRANCH  27  29
ENDBRANCH  26  27
ENDBRANCH  25  26
ENDBRANCH  23  25
ENDBRANCH   1  23
BRANCH  22  35
HETATM   35  O4  UNL     1      -3.941   3.853  13.068  1.00  0.00    -0.391 OA
HETATM   36  H37 UNL     1      -3.781   3.801  14.027  1.00  0.00     0.210 HD
ENDBRANCH  22  35
BRANCH  18  37
HETATM   37  O3  UNL     1      -8.378   5.170  15.288  1.00  0.00    -0.382 OA
HETATM   38  H32 UNL     1      -9.330   5.033  15.454  1.00  0.00     0.211 HD
ENDBRANCH  18  37
TORSDOF 9
ENDMDL
MODEL 6
REMARK minimizedAffinity -9.10550117
REMARK  9 active torsions:
REMARK  status: ('A' for Active; 'I' for Inactive)
REMARK    1  A    between atoms: C2_2  and  C3_3 
REMARK    2  A    between atoms: C2_2  and  C27_31 
REMARK    3  A    between atoms: C3_3  and  C4_4 
REMARK    4  A    between atoms: C4_4  and  C5_5 
REMARK    5  A    between atoms: C5_5  and  C7_7 
REMARK    6  A    between atoms: C22_24  and  O3_26 
REMARK    7  A    between atoms: C26_29  and  O4_30 
REMARK    8  A    between atoms: C27_31  and  C29_33 
REMARK    9  A    between atoms: C29_33  and  O6_35 
ROOT
HETATM    1  C7  UNL     1       1.798   7.329   9.785  1.00  0.00    -0.002 C 
HETATM    2  C8  UNL     1       2.122   5.812   9.929  1.00  0.00     0.006 C 
HETATM    3  C9  UNL     1       1.084   5.218  10.889  1.00  0.00     0.010 C 
HETATM    4  C10 UNL     1       0.016   6.303  10.997  1.00  0.00     0.027 C 
HETATM    5  C11 UNL     1      -1.076   6.268  12.050  1.00  0.00    -0.036 C 
HETATM    6  C12 UNL     1      -1.729   7.403  12.414  1.00  0.00     0.002 C 
HETATM    7  C13 UNL     1      -1.197   8.730  11.903  1.00  0.00     0.157 C 
HETATM    8  O1  UNL     1      -1.606   9.797  12.355  1.00  0.00    -0.293 OA
HETATM    9  C14 UNL     1      -0.137   8.745  10.814  1.00  0.00     0.093 C 
HETATM   10  C15 UNL     1       0.858   7.601  11.001  1.00  0.00    -0.026 C 
HETATM   11  C16 UNL     1       1.663   7.799  12.311  1.00  0.00     0.016 C 
HETATM   12  C17 UNL     1      -2.971   7.403  13.347  1.00  0.00    -0.006 C 
HETATM   13  C18 UNL     1      -2.452   7.782  14.754  1.00  0.00     0.021 C 
HETATM   14  C19 UNL     1      -4.069   8.416  12.899  1.00  0.00     0.022 C 
HETATM   15  C20 UNL     1      -5.343   8.364  13.733  1.00  0.00     0.083 C 
HETATM   16  C21 UNL     1      -5.922   6.976  13.770  1.00  0.00     0.161 C 
HETATM   17  O2  UNL     1      -7.133   6.802  13.625  1.00  0.00    -0.295 OA
HETATM   18  C22 UNL     1      -4.957   5.826  14.115  1.00  0.00     0.119 C 
HETATM   19  C23 UNL     1      -5.660   4.485  13.841  1.00  0.00     0.055 C 
HETATM   20  C24 UNL     1      -3.657   5.979  13.274  1.00  0.00     0.043 C 
HETATM   21  C25 UNL     1      -2.622   4.893  13.580  1.00  0.00     0.045 C 
HETATM   22  C26 UNL     1      -1.487   4.905  12.557  1.00  0.00     0.148 C 
ENDROOT
BRANCH   1  23
HETATM   23  C5  UNL     1       3.088   8.185   9.602  1.00  0.00    -0.014 C 
HETATM   24  C6  UNL     1       3.249   8.663   8.154  1.00  0.00     0.010 C 
BRANCH  23  25
HETATM   25  C4  UNL     1       4.348   7.378  10.024  1.00  0.00     0.009 C 
BRANCH  25  26
HETATM   26  C3  UNL     1       5.345   8.155  10.905  1.00  0.00     0.034 C 
BRANCH  26  27
HETATM   27  C2  UNL     1       6.055   7.362  11.987  1.00  0.00    -0.075 C 
HETATM   28  C1  UNL     1       6.373   6.072  11.764  1.00  0.00     0.015 C 
BRANCH  27  29
HETATM   29  C27 UNL     1       6.382   8.116  13.276  1.00  0.00     0.107 C 
HETATM   30  C28 UNL     1       5.454   7.855  14.466  1.00  0.00     0.026 C 
BRANCH  29  31
HETATM   31  C29 UNL     1       7.807   7.798  13.709  1.00  0.00     0.147 C 
HETATM   32  O5  UNL     1       8.838   8.030  13.098  1.00  0.00    -0.650 OA
BRANCH  31  33
HETATM   33  O6  UNL     1       7.860   7.196  14.917  1.00  0.00    -0.776 OA
HETATM   34  H42 UNL     1       8.820   7.063  15.066  1.00  0.00     0.167 HD
ENDBRANCH  31  33
ENDBRANCH  29  31
ENDBRANCH  27  29
ENDBRANCH  26  27
ENDBRANCH  25  26
ENDBRANCH  23  25
ENDBRANCH   1  23
BRANCH  22  35
HETATM   35  O4  UNL     1      -0.375   4.262  13.166  1.00  0.00    -0.391 OA
HETATM   36  H37 UNL     1      -0.077   4.827  13.900  1.00  0.00     0.210 HD
ENDBRANCH  22  35
BRANCH  18  37
HETATM   37  O3  UNL     1      -4.652   5.868  15.506  1.00  0.00    -0.382 OA
HETATM   38  H32 UNL     1      -5.481   5.698  15.992  1.00  0.00     0.211 HD
ENDBRANCH  18  37
TORSDOF 9
ENDMDL
MODEL 7
REMARK minimizedAffinity -9.07032681
REMARK  9 active torsions:
REMARK  status: ('A' for Active; 'I' for Inactive)
REMARK    1  A    between atoms: C2_2  and  C3_3 
REMARK    2  A    between atoms: C2_2  and  C27_31 
REMARK    3  A    between atoms: C3_3  and  C4_4 
REMARK    4  A    between atoms: C4_4  and  C5_5 
REMARK    5  A    between atoms: C5_5  and  C7_7 
REMARK    6  A    between atoms: C22_24  and  O3_26 
REMARK    7  A    between atoms: C26_29  and  O4_30 
REMARK    8  A    between atoms: C27_31  and  C29_33 
REMARK    9  A    between atoms: C29_33  and  O6_35 
ROOT
HETATM    1  C7  UNL     1      -6.203   4.573  14.009  1.00  0.00    -0.002 C 
HETATM    2  C8  UNL     1      -5.517   3.699  12.919  1.00  0.00     0.006 C 
HETATM    3  C9  UNL     1      -4.117   4.281  12.686  1.00  0.00     0.010 C 
HETATM    4  C10 UNL     1      -3.915   5.235  13.861  1.00  0.00     0.027 C 
HETATM    5  C11 UNL     1      -2.778   6.241  13.907  1.00  0.00    -0.036 C 
HETATM    6  C12 UNL     1      -2.852   7.340  14.703  1.00  0.00     0.002 C 
HETATM    7  C13 UNL     1      -4.177   7.647  15.376  1.00  0.00     0.157 C 
HETATM    8  O1  UNL     1      -4.373   8.724  15.935  1.00  0.00    -0.293 OA
HETATM    9  C14 UNL     1      -5.287   6.609  15.361  1.00  0.00     0.093 C 
HETATM   10  C15 UNL     1      -5.320   5.861  14.029  1.00  0.00    -0.026 C 
HETATM   11  C16 UNL     1      -5.696   6.829  12.878  1.00  0.00     0.016 C 
HETATM   12  C17 UNL     1      -1.655   8.302  14.929  1.00  0.00    -0.006 C 
HETATM   13  C18 UNL     1      -1.893   9.512  13.995  1.00  0.00     0.021 C 
HETATM   14  C19 UNL     1      -1.537   8.791  16.405  1.00  0.00     0.022 C 
HETATM   15  C20 UNL     1      -0.311   9.653  16.681  1.00  0.00     0.083 C 
HETATM   16  C21 UNL     1       0.958   8.952  16.278  1.00  0.00     0.161 C 
HETATM   17  O2  UNL     1       1.944   8.975  17.018  1.00  0.00    -0.295 OA
HETATM   18  C22 UNL     1       0.995   8.328  14.870  1.00  0.00     0.119 C 
HETATM   19  C23 UNL     1       2.246   7.441  14.750  1.00  0.00     0.055 C 
HETATM   20  C24 UNL     1      -0.312   7.516  14.636  1.00  0.00     0.043 C 
HETATM   21  C25 UNL     1      -0.378   6.887  13.243  1.00  0.00     0.045 C 
HETATM   22  C26 UNL     1      -1.525   5.883  13.142  1.00  0.00     0.148 C 
ENDROOT
BRANCH   1  23
HETATM   23  C5  UNL     1      -7.739   4.698  13.774  1.00  0.00    -0.014 C 
HETATM   24  C6  UNL     1      -8.177   3.978  12.493  1.00  0.00     0.010 C 
BRANCH  23  25
HETATM   25  C4  UNL     1      -8.164   6.193  13.699  1.00  0.00     0.009 C 
BRANCH  25  26
HETATM   26  C3  UNL     1      -9.416   6.464  12.845  1.00  0.00     0.034 C 
BRANCH  26  27
HETATM   27  C2  UNL     1     -10.612   7.062  13.564  1.00  0.00    -0.075 C 
HETATM   28  C1  UNL     1     -10.638   7.074  14.910  1.00  0.00     0.015 C 
BRANCH  27  29
HETATM   29  C27 UNL     1     -11.716   7.639  12.679  1.00  0.00     0.107 C 
HETATM   30  C28 UNL     1     -13.152   7.254  13.052  1.00  0.00     0.026 C 
BRANCH  29  31
HETATM   31  C29 UNL     1     -11.623   9.159  12.668  1.00  0.00     0.147 C 
HETATM   32  O5  UNL     1     -11.206   9.884  13.557  1.00  0.00    -0.650 OA
BRANCH  31  33
HETATM   33  O6  UNL     1     -12.064   9.697  11.510  1.00  0.00    -0.776 OA
HETATM   34  H42 UNL     1     -11.937  10.661  11.642  1.00  0.00     0.167 HD
ENDBRANCH  31  33
ENDBRANCH  29  31
ENDBRANCH  27  29
ENDBRANCH  26  27
ENDBRANCH  25  26
ENDBRANCH  23  25
ENDBRANCH   1  23
BRANCH  22  35
HETATM   35  O4  UNL     1      -1.828   5.741  11.759  1.00  0.00    -0.391 OA
HETATM   36  H37 UNL     1      -2.190   6.589  11.451  1.00  0.00     0.210 HD
ENDBRANCH  22  35
BRANCH  18  37
HETATM   37  O3  UNL     1       1.113   9.362  13.899  1.00  0.00    -0.382 OA
HETATM   38  H32 UNL     1       1.975   9.798  14.039  1.00  0.00     0.211 HD
ENDBRANCH  18  37
TORSDOF 9
ENDMDL
MODEL 8
REMARK minimizedAffinity -8.96944141
REMARK  9 active torsions:
REMARK  status: ('A' for Active; 'I' for Inactive)
REMARK    1  A    between atoms: C2_2  and  C3_3 
REMARK    2  A    between atoms: C2_2  and  C27_31 
REMARK    3  A    between atoms: C3_3  and  C4_4 
REMARK    4  A    between atoms: C4_4  and  C5_5 
REMARK    5  A    between atoms: C5_5  and  C7_7 
REMARK    6  A    between atoms: C22_24  and  O3_26 
REMARK    7  A    between atoms: C26_29  and  O4_30 
REMARK    8  A    between atoms: C27_31  and  C29_33 
REMARK    9  A    between atoms: C29_33  and  O6_35 
ROOT
HETATM    1  C7  UNL     1       0.037   6.932  11.803  1.00  0.00    -0.002 C 
HETATM    2  C8  UNL     1       0.070   5.525  11.137  1.00  0.00     0.006 C 
HETATM    3  C9  UNL     1      -1.245   4.823  11.498  1.00  0.00     0.010 C 
HETATM    4  C10 UNL     1      -2.120   5.942  12.057  1.00  0.00     0.027 C 
HETATM    5  C11 UNL     1      -3.419   5.669  12.793  1.00  0.00    -0.036 C 
HETATM    6  C12 UNL     1      -3.948   6.592  13.639  1.00  0.00     0.002 C 
HETATM    7  C13 UNL     1      -3.104   7.804  13.991  1.00  0.00     0.157 C 
HETATM    8  O1  UNL     1      -3.430   8.564  14.900  1.00  0.00    -0.293 OA
HETATM    9  C14 UNL     1      -1.831   8.088  13.212  1.00  0.00     0.093 C 
HETATM   10  C15 UNL     1      -1.104   6.791  12.859  1.00  0.00    -0.026 C 
HETATM   11  C16 UNL     1      -0.607   6.086  14.147  1.00  0.00     0.016 C 
HETATM   12  C17 UNL     1      -5.356   6.448  14.276  1.00  0.00    -0.006 C 
HETATM   13  C18 UNL     1      -5.126   5.919  15.711  1.00  0.00     0.021 C 
HETATM   14  C19 UNL     1      -6.142   7.794  14.330  1.00  0.00     0.022 C 
HETATM   15  C20 UNL     1      -7.566   7.664  14.853  1.00  0.00     0.083 C 
HETATM   16  C21 UNL     1      -8.354   6.651  14.067  1.00  0.00     0.161 C 
HETATM   17  O2  UNL     1      -9.509   6.897  13.716  1.00  0.00    -0.295 OA
HETATM   18  C22 UNL     1      -7.694   5.278  13.839  1.00  0.00     0.119 C 
HETATM   19  C23 UNL     1      -8.520   4.493  12.805  1.00  0.00     0.055 C 
HETATM   20  C24 UNL     1      -6.226   5.488  13.366  1.00  0.00     0.043 C 
HETATM   21  C25 UNL     1      -5.480   4.170  13.148  1.00  0.00     0.045 C 
HETATM   22  C26 UNL     1      -4.151   4.398  12.430  1.00  0.00     0.148 C 
ENDROOT
BRANCH   1  23
HETATM   23  C5  UNL     1       1.454   7.394  12.259  1.00  0.00    -0.014 C 
HETATM   24  C6  UNL     1       1.494   8.902  12.540  1.00  0.00     0.010 C 
BRANCH  23  25
HETATM   25  C4  UNL     1       2.521   7.039  11.184  1.00  0.00     0.009 C 
BRANCH  25  26
HETATM   26  C3  UNL     1       3.964   6.950  11.715  1.00  0.00     0.034 C 
BRANCH  26  27
HETATM   27  C2  UNL     1       4.897   8.086  11.336  1.00  0.00    -0.075 C 
HETATM   28  C1  UNL     1       4.896   8.552  10.073  1.00  0.00     0.015 C 
BRANCH  27  29
HETATM   29  C27 UNL     1       5.776   8.644  12.456  1.00  0.00     0.107 C 
HETATM   30  C28 UNL     1       5.040   9.176  13.690  1.00  0.00     0.026 C 
BRANCH  29  31
HETATM   31  C29 UNL     1       6.761   7.578  12.915  1.00  0.00     0.147 C 
HETATM   32  O5  UNL     1       6.828   7.055  14.016  1.00  0.00    -0.650 OA
BRANCH  31  33
HETATM   33  O6  UNL     1       7.624   7.215  11.942  1.00  0.00    -0.776 OA
HETATM   34  H42 UNL     1       8.179   6.530  12.371  1.00  0.00     0.167 HD
ENDBRANCH  31  33
ENDBRANCH  29  31
ENDBRANCH  27  29
ENDBRANCH  26  27
ENDBRANCH  25  26
ENDBRANCH  23  25
ENDBRANCH   1  23
BRANCH  22  35
HETATM   35  O4  UNL     1      -3.329   3.271  12.713  1.00  0.00    -0.391 OA
HETATM   36  H37 UNL     1      -3.124   3.292  13.664  1.00  0.00     0.210 HD
ENDBRANCH  22  35
BRANCH  18  37
HETATM   37  O3  UNL     1      -7.719   4.536  15.053  1.00  0.00    -0.382 OA
HETATM   38  H32 UNL     1      -8.655   4.367  15.274  1.00  0.00     0.211 HD
ENDBRANCH  18  37
TORSDOF 9
ENDMDL
MODEL 9
REMARK minimizedAffinity -8.90648174
REMARK  9 active torsions:
REMARK  status: ('A' for Active; 'I' for Inactive)
REMARK    1  A    between atoms: C2_2  and  C3_3 
REMARK    2  A    between atoms: C2_2  and  C27_31 
REMARK    3  A    between atoms: C3_3  and  C4_4 
REMARK    4  A    between atoms: C4_4  and  C5_5 
REMARK    5  A    between atoms: C5_5  and  C7_7 
REMARK    6  A    between atoms: C22_24  and  O3_26 
REMARK    7  A    between atoms: C26_29  and  O4_30 
REMARK    8  A    between atoms: C27_31  and  C29_33 
REMARK    9  A    between atoms: C29_33  and  O6_35 
ROOT
HETATM    1  C7  UNL     1      -1.398   7.601  13.435  1.00  0.00    -0.002 C 
HETATM    2  C8  UNL     1      -1.256   7.239  14.942  1.00  0.00     0.006 C 
HETATM    3  C9  UNL     1       0.243   7.226  15.266  1.00  0.00     0.010 C 
HETATM    4  C10 UNL     1       0.887   7.900  14.057  1.00  0.00     0.027 C 
HETATM    5  C11 UNL     1       2.385   7.870  13.810  1.00  0.00    -0.036 C 
HETATM    6  C12 UNL     1       2.890   8.074  12.566  1.00  0.00     0.002 C 
HETATM    7  C13 UNL     1       1.920   8.119  11.399  1.00  0.00     0.157 C 
HETATM    8  O1  UNL     1       2.320   8.092  10.237  1.00  0.00    -0.293 OA
HETATM    9  C14 UNL     1       0.426   8.197  11.665  1.00  0.00     0.093 C 
HETATM   10  C15 UNL     1       0.041   7.356  12.881  1.00  0.00    -0.026 C 
HETATM   11  C16 UNL     1       0.294   5.853  12.596  1.00  0.00     0.016 C 
HETATM   12  C17 UNL     1       4.409   8.235  12.285  1.00  0.00    -0.006 C 
HETATM   13  C18 UNL     1       4.900   6.860  11.773  1.00  0.00     0.021 C 
HETATM   14  C19 UNL     1       4.719   9.334  11.223  1.00  0.00     0.022 C 
HETATM   15  C20 UNL     1       6.205   9.588  11.003  1.00  0.00     0.083 C 
HETATM   16  C21 UNL     1       6.904   9.921  12.293  1.00  0.00     0.161 C 
HETATM   17  O2  UNL     1       7.716  10.847  12.340  1.00  0.00    -0.295 OA
HETATM   18  C22 UNL     1       6.648   8.984  13.489  1.00  0.00     0.119 C 
HETATM   19  C23 UNL     1       7.222   9.631  14.761  1.00  0.00     0.055 C 
HETATM   20  C24 UNL     1       5.119   8.720  13.613  1.00  0.00     0.043 C 
HETATM   21  C25 UNL     1       4.774   7.767  14.759  1.00  0.00     0.045 C 
HETATM   22  C26 UNL     1       3.270   7.745  15.028  1.00  0.00     0.148 C 
ENDROOT
BRANCH   1  23
HETATM   23  C5  UNL     1      -2.610   6.879  12.772  1.00  0.00    -0.014 C 
HETATM   24  C6  UNL     1      -3.925   7.625  13.034  1.00  0.00     0.010 C 
BRANCH  23  25
HETATM   25  C4  UNL     1      -2.731   5.418  13.293  1.00  0.00     0.009 C 
BRANCH  25  26
HETATM   26  C3  UNL     1      -4.161   4.985  13.667  1.00  0.00     0.034 C 
BRANCH  26  27
HETATM   27  C2  UNL     1      -4.912   4.163  12.636  1.00  0.00    -0.075 C 
HETATM   28  C1  UNL     1      -4.275   3.752  11.523  1.00  0.00     0.015 C 
BRANCH  27  29
HETATM   29  C27 UNL     1      -6.370   3.836  12.960  1.00  0.00     0.107 C 
HETATM   30  C28 UNL     1      -7.411   4.859  12.494  1.00  0.00     0.026 C 
BRANCH  29  31
HETATM   31  C29 UNL     1      -6.737   2.484  12.365  1.00  0.00     0.147 C 
HETATM   32  O5  UNL     1      -6.038   1.762  11.672  1.00  0.00    -0.650 OA
BRANCH  31  33
HETATM   33  O6  UNL     1      -7.992   2.099  12.687  1.00  0.00    -0.776 OA
HETATM   34  H42 UNL     1      -8.083   1.224  12.252  1.00  0.00     0.167 HD
ENDBRANCH  31  33
ENDBRANCH  29  31
ENDBRANCH  27  29
ENDBRANCH  26  27
ENDBRANCH  25  26
ENDBRANCH  23  25
ENDBRANCH   1  23
BRANCH  22  35
HETATM   35  O4  UNL     1       2.989   6.527  15.706  1.00  0.00    -0.391 OA
HETATM   36  H37 UNL     1       3.158   5.800  15.082  1.00  0.00     0.210 HD
ENDBRANCH  22  35
BRANCH  18  37
HETATM   37  O3  UNL     1       7.344   7.759  13.285  1.00  0.00    -0.382 OA
HETATM   38  H32 UNL     1       8.299   7.962  13.283  1.00  0.00     0.211 HD
ENDBRANCH  18  37
TORSDOF 9
ENDMDL
