MODEL 1
REMARK minimizedAffinity -7.25701618
REMARK CNNscore 0.397095084
REMARK CNNaffinity 6.33840179
REMARK  4 active torsions:
REMARK  status: ('A' for Active; 'I' for Inactive)
REMARK    1  A    between atoms: C4_4  and  C5_5 
REMARK    2  A    between atoms: C5_5  and  C6_7 
REMARK    3  A    between atoms: C6_7  and  C7_8 
REMARK    4  A    between atoms: C7_8  and  C8_9 
ROOT
HETATM    1  C8  UNL     1      -0.863   7.621  13.751  1.00  0.00     0.028 C 
HETATM    2  C9  UNL     1      -1.025   6.636  14.948  1.00  0.00     0.009 C 
HETATM    3  C10 UNL     1      -1.297   7.484  16.198  1.00  0.00     0.011 C 
HETATM    4  C11 UNL     1      -1.939   8.771  15.655  1.00  0.00    -0.032 C 
HETATM    5  C12 UNL     1      -3.409   8.402  15.251  1.00  0.00     0.016 C 
HETATM    6  C13 UNL     1      -1.037   9.011  14.412  1.00  0.00     0.001 C 
HETATM    7  C14 UNL     1      -1.603  10.158  13.578  1.00  0.00     0.006 C 
HETATM    8  C15 UNL     1      -1.686  11.446  14.417  1.00  0.00     0.006 C 
HETATM    9  C16 UNL     1      -2.449  11.287  15.766  1.00  0.00     0.003 C 
HETATM   10  C17 UNL     1      -2.658  12.648  16.567  1.00  0.00    -0.035 C 
HETATM   11  C18 UNL     1      -1.353  13.488  16.568  1.00  0.00     0.016 C 
HETATM   12  C19 UNL     1      -3.717  13.519  15.805  1.00  0.00     0.017 C 
HETATM   13  C20 UNL     1      -5.151  13.292  16.250  1.00  0.00     0.080 C 
HETATM   14  C21 UNL     1      -5.330  13.634  17.710  1.00  0.00     0.135 C 
HETATM   15  O2  UNL     1      -6.423  14.032  18.120  1.00  0.00    -0.297 OA
HETATM   16  C22 UNL     1      -4.130  13.452  18.645  1.00  0.00     0.017 C 
HETATM   17  C23 UNL     1      -3.457  14.827  18.830  1.00  0.00     0.023 C 
HETATM   18  C24 UNL     1      -4.654  13.040  20.042  1.00  0.00     0.023 C 
HETATM   19  C25 UNL     1      -3.144  12.367  18.052  1.00  0.00     0.009 C 
HETATM   20  C26 UNL     1      -3.739  10.939  18.180  1.00  0.00     0.007 C 
HETATM   21  C27 UNL     1      -2.731   9.836  17.884  1.00  0.00     0.011 C 
HETATM   22  C28 UNL     1      -1.892  10.059  16.600  1.00  0.00    -0.032 C 
HETATM   23  C29 UNL     1      -0.445  10.341  17.100  1.00  0.00     0.016 C 
ENDROOT
BRANCH   1  24
HETATM   24  C7  UNL     1       0.443   7.451  12.962  1.00  0.00     0.093 A 
HETATM   25  C30 UNL     1       1.775   7.551  13.703  1.00  0.00     0.207 A 
HETATM   26  O3  UNL     1       1.264   8.628  12.899  1.00  0.00    -0.374 OA
BRANCH  24  27
HETATM   27  C6  UNL     1       0.367   6.677  11.661  1.00  0.00     0.123 C 
BRANCH  27  28
HETATM   28  C5  UNL     1       0.831   7.388  10.411  1.00  0.00     0.152 C 
HETATM   29  O1  UNL     1       0.764   8.619  10.330  1.00  0.00    -0.293 OA
BRANCH  28  30
HETATM   30  C4  UNL     1       1.457   6.664   9.263  1.00  0.00     0.052 C 
HETATM   31  C2  UNL     1       2.180   7.067   8.199  1.00  0.00    -0.084 C 
HETATM   32  C1  UNL     1       2.621   6.045   7.175  1.00  0.00     0.043 C 
HETATM   33  C3  UNL     1       2.652   8.460   7.890  1.00  0.00     0.043 C 
ENDBRANCH  28  30
ENDBRANCH  27  28
ENDBRANCH  24  27
ENDBRANCH   1  24
TORSDOF 4
ENDMDL
MODEL 2
REMARK minimizedAffinity -7.29480791
REMARK CNNscore 0.329385608
REMARK CNNaffinity 6.77905273
REMARK  4 active torsions:
REMARK  status: ('A' for Active; 'I' for Inactive)
REMARK    1  A    between atoms: C4_4  and  C5_5 
REMARK    2  A    between atoms: C5_5  and  C6_7 
REMARK    3  A    between atoms: C6_7  and  C7_8 
REMARK    4  A    between atoms: C7_8  and  C8_9 
ROOT
HETATM    1  C8  UNL     1      -8.146   7.351  14.999  1.00  0.00     0.028 C 
HETATM    2  C9  UNL     1      -7.754   8.824  15.323  1.00  0.00     0.009 C 
HETATM    3  C10 UNL     1      -8.994   9.690  15.063  1.00  0.00     0.011 C 
HETATM    4  C11 UNL     1     -10.179   8.731  15.262  1.00  0.00    -0.032 C 
HETATM    5  C12 UNL     1     -10.320   8.509  16.808  1.00  0.00     0.016 C 
HETATM    6  C13 UNL     1      -9.622   7.471  14.542  1.00  0.00     0.001 C 
HETATM    7  C14 UNL     1     -10.562   6.290  14.769  1.00  0.00     0.006 C 
HETATM    8  C15 UNL     1     -11.971   6.611  14.239  1.00  0.00     0.006 C 
HETATM    9  C16 UNL     1     -12.576   7.940  14.785  1.00  0.00     0.003 C 
HETATM   10  C17 UNL     1     -14.086   8.201  14.349  1.00  0.00    -0.035 C 
HETATM   11  C18 UNL     1     -14.284   7.880  12.844  1.00  0.00     0.016 C 
HETATM   12  C19 UNL     1     -15.010   7.194  15.118  1.00  0.00     0.017 C 
HETATM   13  C20 UNL     1     -15.534   7.713  16.446  1.00  0.00     0.080 C 
HETATM   14  C21 UNL     1     -16.371   8.955  16.254  1.00  0.00     0.135 C 
HETATM   15  O2  UNL     1     -17.282   9.212  17.044  1.00  0.00    -0.297 OA
HETATM   16  C22 UNL     1     -16.036   9.874  15.074  1.00  0.00     0.017 C 
HETATM   17  C23 UNL     1     -17.005   9.543  13.922  1.00  0.00     0.023 C 
HETATM   18  C24 UNL     1     -16.345  11.334  15.486  1.00  0.00     0.023 C 
HETATM   19  C25 UNL     1     -14.520   9.695  14.664  1.00  0.00     0.009 C 
HETATM   20  C26 UNL     1     -13.575  10.337  15.716  1.00  0.00     0.007 C 
HETATM   21  C27 UNL     1     -12.130  10.441  15.245  1.00  0.00     0.011 C 
HETATM   22  C28 UNL     1     -11.570   9.150  14.596  1.00  0.00    -0.032 C 
HETATM   23  C29 UNL     1     -11.394   9.493  13.088  1.00  0.00     0.016 C 
ENDROOT
BRANCH   1  24
HETATM   24  C7  UNL     1      -7.223   6.656  13.990  1.00  0.00     0.093 A 
HETATM   25  C30 UNL     1      -5.791   6.319  14.404  1.00  0.00     0.207 A 
HETATM   26  O3  UNL     1      -6.100   7.443  13.562  1.00  0.00    -0.374 OA
BRANCH  24  27
HETATM   27  C6  UNL     1      -7.885   5.866  12.878  1.00  0.00     0.123 C 
BRANCH  27  28
HETATM   28  C5  UNL     1      -7.526   4.402  12.767  1.00  0.00     0.152 C 
HETATM   29  O1  UNL     1      -8.371   3.531  12.995  1.00  0.00    -0.293 OA
BRANCH  28  30
HETATM   30  C4  UNL     1      -6.180   3.940  12.307  1.00  0.00     0.052 C 
HETATM   31  C2  UNL     1      -5.710   2.759  11.862  1.00  0.00    -0.084 C 
HETATM   32  C1  UNL     1      -4.243   2.626  11.525  1.00  0.00     0.043 C 
HETATM   33  C3  UNL     1      -6.492   1.498  11.621  1.00  0.00     0.043 C 
ENDBRANCH  28  30
ENDBRANCH  27  28
ENDBRANCH  24  27
ENDBRANCH   1  24
TORSDOF 4
ENDMDL
MODEL 3
REMARK minimizedAffinity -8.84382057
REMARK CNNscore 0.328774214
REMARK CNNaffinity 6.97723961
REMARK  4 active torsions:
REMARK  status: ('A' for Active; 'I' for Inactive)
REMARK    1  A    between atoms: C4_4  and  C5_5 
REMARK    2  A    between atoms: C5_5  and  C6_7 
REMARK    3  A    between atoms: C6_7  and  C7_8 
REMARK    4  A    between atoms: C7_8  and  C8_9 
ROOT
HETATM    1  C8  UNL     1       1.083   6.130  11.172  1.00  0.00     0.028 C 
HETATM    2  C9  UNL     1       1.131   4.614  11.530  1.00  0.00     0.009 C 
HETATM    3  C10 UNL     1       0.060   4.369  12.603  1.00  0.00     0.011 C 
HETATM    4  C11 UNL     1      -0.978   5.477  12.368  1.00  0.00    -0.032 C 
HETATM    5  C12 UNL     1      -1.782   5.071  11.084  1.00  0.00     0.016 C 
HETATM    6  C13 UNL     1      -0.028   6.678  12.104  1.00  0.00     0.001 C 
HETATM    7  C14 UNL     1      -0.840   7.888  11.649  1.00  0.00     0.006 C 
HETATM    8  C15 UNL     1      -1.880   8.273  12.717  1.00  0.00     0.006 C 
HETATM    9  C16 UNL     1      -2.801   7.100  13.170  1.00  0.00     0.003 C 
HETATM   10  C17 UNL     1      -3.966   7.529  14.168  1.00  0.00    -0.035 C 
HETATM   11  C18 UNL     1      -3.425   8.489  15.261  1.00  0.00     0.016 C 
HETATM   12  C19 UNL     1      -5.029   8.362  13.369  1.00  0.00     0.017 C 
HETATM   13  C20 UNL     1      -6.148   7.532  12.765  1.00  0.00     0.080 C 
HETATM   14  C21 UNL     1      -6.931   6.811  13.837  1.00  0.00     0.135 C 
HETATM   15  O2  UNL     1      -8.123   6.549  13.658  1.00  0.00    -0.297 OA
HETATM   16  C22 UNL     1      -6.195   6.408  15.119  1.00  0.00     0.017 C 
HETATM   17  C23 UNL     1      -6.495   7.472  16.194  1.00  0.00     0.023 C 
HETATM   18  C24 UNL     1      -6.807   5.086  15.642  1.00  0.00     0.023 C 
HETATM   19  C25 UNL     1      -4.649   6.257  14.828  1.00  0.00     0.009 C 
HETATM   20  C26 UNL     1      -4.357   4.978  13.998  1.00  0.00     0.007 C 
HETATM   21  C27 UNL     1      -2.875   4.632  13.924  1.00  0.00     0.011 C 
HETATM   22  C28 UNL     1      -1.951   5.829  13.586  1.00  0.00    -0.032 C 
HETATM   23  C29 UNL     1      -1.146   6.105  14.890  1.00  0.00     0.016 C 
ENDROOT
BRANCH   1  24
HETATM   24  C7  UNL     1       2.431   6.853  11.297  1.00  0.00     0.093 A 
HETATM   25  C30 UNL     1       2.730   7.651  12.564  1.00  0.00     0.207 A 
HETATM   26  O3  UNL     1       2.343   8.287  11.335  1.00  0.00    -0.374 OA
BRANCH  24  27
HETATM   27  C6  UNL     1       3.578   6.325  10.458  1.00  0.00     0.123 C 
BRANCH  27  28
HETATM   28  C5  UNL     1       3.218   5.495   9.247  1.00  0.00     0.152 C 
HETATM   29  O1  UNL     1       3.489   4.291   9.210  1.00  0.00    -0.293 OA
BRANCH  28  30
HETATM   30  C4  UNL     1       2.457   6.056   8.089  1.00  0.00     0.052 C 
HETATM   31  C2  UNL     1       2.347   7.293   7.566  1.00  0.00    -0.084 C 
HETATM   32  C1  UNL     1       1.422   7.521   6.392  1.00  0.00     0.043 C 
HETATM   33  C3  UNL     1       3.076   8.535   7.997  1.00  0.00     0.043 C 
ENDBRANCH  28  30
ENDBRANCH  27  28
ENDBRANCH  24  27
ENDBRANCH   1  24
TORSDOF 4
ENDMDL
MODEL 4
REMARK minimizedAffinity -8.20204258
REMARK CNNscore 0.319856852
REMARK CNNaffinity 6.92453623
REMARK  4 active torsions:
REMARK  status: ('A' for Active; 'I' for Inactive)
REMARK    1  A    between atoms: C4_4  and  C5_5 
REMARK    2  A    between atoms: C5_5  and  C6_7 
REMARK    3  A    between atoms: C6_7  and  C7_8 
REMARK    4  A    between atoms: C7_8  and  C8_9 
ROOT
HETATM    1  C8  UNL     1      -6.653   7.199  14.417  1.00  0.00     0.028 C 
HETATM    2  C9  UNL     1      -6.573   8.664  14.944  1.00  0.00     0.009 C 
HETATM    3  C10 UNL     1      -5.084   9.022  15.061  1.00  0.00     0.011 C 
HETATM    4  C11 UNL     1      -4.390   8.116  14.031  1.00  0.00    -0.032 C 
HETATM    5  C12 UNL     1      -4.706   8.720  12.619  1.00  0.00     0.016 C 
HETATM    6  C13 UNL     1      -5.164   6.791  14.283  1.00  0.00     0.001 C 
HETATM    7  C14 UNL     1      -4.776   5.759  13.226  1.00  0.00     0.006 C 
HETATM    8  C15 UNL     1      -3.260   5.491  13.263  1.00  0.00     0.006 C 
HETATM    9  C16 UNL     1      -2.378   6.773  13.165  1.00  0.00     0.003 C 
HETATM   10  C17 UNL     1      -0.814   6.487  13.062  1.00  0.00    -0.035 C 
HETATM   11  C18 UNL     1      -0.390   5.391  14.076  1.00  0.00     0.016 C 
HETATM   12  C19 UNL     1      -0.509   5.888  11.645  1.00  0.00     0.017 C 
HETATM   13  C20 UNL     1      -0.168   6.924  10.588  1.00  0.00     0.080 C 
HETATM   14  C21 UNL     1       1.070   7.703  10.966  1.00  0.00     0.135 C 
HETATM   15  O2  UNL     1       1.798   8.167  10.087  1.00  0.00    -0.297 OA
HETATM   16  C22 UNL     1       1.365   7.905  12.456  1.00  0.00     0.017 C 
HETATM   17  C23 UNL     1       2.402   6.847  12.884  1.00  0.00     0.023 C 
HETATM   18  C24 UNL     1       2.055   9.279  12.638  1.00  0.00     0.023 C 
HETATM   19  C25 UNL     1       0.024   7.815  13.289  1.00  0.00     0.009 C 
HETATM   20  C26 UNL     1      -0.858   9.073  13.069  1.00  0.00     0.007 C 
HETATM   21  C27 UNL     1      -2.022   9.174  14.048  1.00  0.00     0.011 C 
HETATM   22  C28 UNL     1      -2.825   7.861  14.228  1.00  0.00    -0.032 C 
HETATM   23  C29 UNL     1      -2.508   7.383  15.676  1.00  0.00     0.016 C 
ENDROOT
BRANCH   1  24
HETATM   24  C7  UNL     1      -7.493   6.257  15.290  1.00  0.00     0.093 A 
HETATM   25  C30 UNL     1      -6.798   5.424  16.365  1.00  0.00     0.207 A 
HETATM   26  O3  UNL     1      -7.213   4.860  15.109  1.00  0.00    -0.374 OA
BRANCH  24  27
HETATM   27  C6  UNL     1      -8.968   6.580  15.431  1.00  0.00     0.123 C 
BRANCH  27  28
HETATM   28  C5  UNL     1      -9.761   6.742  14.155  1.00  0.00     0.152 C 
HETATM   29  O1  UNL     1      -9.525   6.026  13.176  1.00  0.00    -0.293 OA
BRANCH  28  30
HETATM   30  C4  UNL     1     -10.901   7.701  14.037  1.00  0.00     0.052 C 
HETATM   31  C2  UNL     1     -12.240   7.549  14.028  1.00  0.00    -0.084 C 
HETATM   32  C1  UNL     1     -13.121   8.762  13.831  1.00  0.00     0.043 C 
HETATM   33  C3  UNL     1     -13.016   6.277  14.223  1.00  0.00     0.043 C 
ENDBRANCH  28  30
ENDBRANCH  27  28
ENDBRANCH  24  27
ENDBRANCH   1  24
TORSDOF 4
ENDMDL
MODEL 5
REMARK minimizedAffinity -8.24154377
REMARK CNNscore 0.307132483
REMARK CNNaffinity 7.01677656
REMARK  4 active torsions:
REMARK  status: ('A' for Active; 'I' for Inactive)
REMARK    1  A    between atoms: C4_4  and  C5_5 
REMARK    2  A    between atoms: C5_5  and  C6_7 
REMARK    3  A    between atoms: C6_7  and  C7_8 
REMARK    4  A    between atoms: C7_8  and  C8_9 
ROOT
HETATM    1  C8  UNL     1      -0.219   6.743  13.703  1.00  0.00     0.028 C 
HETATM    2  C9  UNL     1      -0.004   8.278  13.866  1.00  0.00     0.009 C 
HETATM    3  C10 UNL     1      -1.391   8.936  13.819  1.00  0.00     0.011 C 
HETATM    4  C11 UNL     1      -2.353   7.838  14.299  1.00  0.00    -0.032 C 
HETATM    5  C12 UNL     1      -2.159   7.721  15.851  1.00  0.00     0.016 C 
HETATM    6  C13 UNL     1      -1.755   6.617  13.546  1.00  0.00     0.001 C 
HETATM    7  C14 UNL     1      -2.441   5.335  14.015  1.00  0.00     0.006 C 
HETATM    8  C15 UNL     1      -3.958   5.410  13.764  1.00  0.00     0.006 C 
HETATM    9  C16 UNL     1      -4.645   6.679  14.354  1.00  0.00     0.003 C 
HETATM   10  C17 UNL     1      -6.233   6.689  14.217  1.00  0.00    -0.035 C 
HETATM   11  C18 UNL     1      -6.663   6.224  12.800  1.00  0.00     0.016 C 
HETATM   12  C19 UNL     1      -6.826   5.625  15.205  1.00  0.00     0.017 C 
HETATM   13  C20 UNL     1      -7.159   6.168  16.584  1.00  0.00     0.080 C 
HETATM   14  C21 UNL     1      -8.199   7.260  16.503  1.00  0.00     0.135 C 
HETATM   15  O2  UNL     1      -8.971   7.447  17.446  1.00  0.00    -0.297 OA
HETATM   16  C22 UNL     1      -8.243   8.121  15.235  1.00  0.00     0.017 C 
HETATM   17  C23 UNL     1      -9.351   7.565  14.320  1.00  0.00     0.023 C 
HETATM   18  C24 UNL     1      -8.688   9.550  15.628  1.00  0.00     0.023 C 
HETATM   19  C25 UNL     1      -6.824   8.126  14.538  1.00  0.00     0.009 C 
HETATM   20  C26 UNL     1      -5.806   8.977  15.345  1.00  0.00     0.007 C 
HETATM   21  C27 UNL     1      -4.511   9.247  14.589  1.00  0.00     0.011 C 
HETATM   22  C28 UNL     1      -3.893   8.001  13.906  1.00  0.00    -0.032 C 
HETATM   23  C29 UNL     1      -4.064   8.245  12.378  1.00  0.00     0.016 C 
ENDROOT
BRANCH   1  24
HETATM   24  C7  UNL     1       0.591   6.108  12.564  1.00  0.00     0.093 A 
HETATM   25  C30 UNL     1      -0.152   5.468  11.393  1.00  0.00     0.207 A 
HETATM   26  O3  UNL     1       0.441   4.684  12.442  1.00  0.00    -0.374 OA
BRANCH  24  27
HETATM   27  C6  UNL     1       2.011   6.601  12.369  1.00  0.00     0.123 C 
BRANCH  27  28
HETATM   28  C5  UNL     1       2.223   7.701  11.355  1.00  0.00     0.152 C 
HETATM   29  O1  UNL     1       2.360   8.873  11.722  1.00  0.00    -0.293 OA
BRANCH  28  30
HETATM   30  C4  UNL     1       2.358   7.427   9.892  1.00  0.00     0.052 C 
HETATM   31  C2  UNL     1       1.552   7.640   8.833  1.00  0.00    -0.084 C 
HETATM   32  C1  UNL     1       1.993   7.177   7.463  1.00  0.00     0.043 C 
HETATM   33  C3  UNL     1       0.219   8.333   8.825  1.00  0.00     0.043 C 
ENDBRANCH  28  30
ENDBRANCH  27  28
ENDBRANCH  24  27
ENDBRANCH   1  24
TORSDOF 4
ENDMDL
MODEL 6
REMARK minimizedAffinity -7.5889411
REMARK CNNscore 0.295947433
REMARK CNNaffinity 6.7375083
REMARK  4 active torsions:
REMARK  status: ('A' for Active; 'I' for Inactive)
REMARK    1  A    between atoms: C4_4  and  C5_5 
REMARK    2  A    between atoms: C5_5  and  C6_7 
REMARK    3  A    between atoms: C6_7  and  C7_8 
REMARK    4  A    between atoms: C7_8  and  C8_9 
ROOT
HETATM    1  C8  UNL     1      -8.229   6.919  14.923  1.00  0.00     0.028 C 
HETATM    2  C9  UNL     1      -8.027   5.689  13.988  1.00  0.00     0.009 C 
HETATM    3  C10 UNL     1      -6.623   5.810  13.379  1.00  0.00     0.011 C 
HETATM    4  C11 UNL     1      -5.830   6.633  14.406  1.00  0.00    -0.032 C 
HETATM    5  C12 UNL     1      -5.524   5.673  15.608  1.00  0.00     0.016 C 
HETATM    6  C13 UNL     1      -6.900   7.700  14.771  1.00  0.00     0.001 C 
HETATM    7  C14 UNL     1      -6.404   8.547  15.942  1.00  0.00     0.006 C 
HETATM    8  C15 UNL     1      -5.079   9.242  15.583  1.00  0.00     0.006 C 
HETATM    9  C16 UNL     1      -3.969   8.279  15.061  1.00  0.00     0.003 C 
HETATM   10  C17 UNL     1      -2.555   8.975  14.824  1.00  0.00    -0.035 C 
HETATM   11  C18 UNL     1      -2.730  10.338  14.103  1.00  0.00     0.016 C 
HETATM   12  C19 UNL     1      -1.926   9.316  16.220  1.00  0.00     0.017 C 
HETATM   13  C20 UNL     1      -1.046   8.220  16.794  1.00  0.00     0.080 C 
HETATM   14  C21 UNL     1       0.128   7.932  15.888  1.00  0.00     0.135 C 
HETATM   15  O2  UNL     1       1.187   7.519  16.365  1.00  0.00    -0.297 OA
HETATM   16  C22 UNL     1      -0.055   8.149  14.382  1.00  0.00     0.017 C 
HETATM   17  C23 UNL     1       0.536   9.528  14.025  1.00  0.00     0.023 C 
HETATM   18  C24 UNL     1       0.804   7.106  13.627  1.00  0.00     0.023 C 
HETATM   19  C25 UNL     1      -1.584   8.027  14.001  1.00  0.00     0.009 C 
HETATM   20  C26 UNL     1      -2.062   6.551  14.067  1.00  0.00     0.007 C 
HETATM   21  C27 UNL     1      -3.437   6.333  13.449  1.00  0.00     0.011 C 
HETATM   22  C28 UNL     1      -4.509   7.365  13.884  1.00  0.00    -0.032 C 
HETATM   23  C29 UNL     1      -4.799   8.214  12.611  1.00  0.00     0.016 C 
ENDROOT
BRANCH   1  24
HETATM   24  C7  UNL     1      -9.489   7.743  14.623  1.00  0.00     0.093 A 
HETATM   25  C30 UNL     1      -9.544   9.203  15.071  1.00  0.00     0.207 A 
HETATM   26  O3  UNL     1     -10.226   8.158  15.784  1.00  0.00    -0.374 OA
BRANCH  24  27
HETATM   27  C6  UNL     1     -10.357   7.281  13.470  1.00  0.00     0.123 C 
BRANCH  27  28
HETATM   28  C5  UNL     1     -11.832   7.604  13.548  1.00  0.00     0.152 C 
HETATM   29  O1  UNL     1     -12.266   8.664  13.086  1.00  0.00    -0.293 OA
BRANCH  28  30
HETATM   30  C4  UNL     1     -12.833   6.644  14.105  1.00  0.00     0.052 C 
HETATM   31  C2  UNL     1     -14.120   6.374  13.809  1.00  0.00    -0.084 C 
HETATM   32  C1  UNL     1     -14.869   5.351  14.632  1.00  0.00     0.043 C 
HETATM   33  C3  UNL     1     -14.945   6.964  12.700  1.00  0.00     0.043 C 
ENDBRANCH  28  30
ENDBRANCH  27  28
ENDBRANCH  24  27
ENDBRANCH   1  24
TORSDOF 4
ENDMDL
MODEL 7
REMARK minimizedAffinity -9.5026474
REMARK CNNscore 0.239271566
REMARK CNNaffinity 6.74064207
REMARK  4 active torsions:
REMARK  status: ('A' for Active; 'I' for Inactive)
REMARK    1  A    between atoms: C4_4  and  C5_5 
REMARK    2  A    between atoms: C5_5  and  C6_7 
REMARK    3  A    between atoms: C6_7  and  C7_8 
REMARK    4  A    between atoms: C7_8  and  C8_9 
ROOT
HETATM    1  C8  UNL     1      -6.443   6.891  14.387  1.00  0.00     0.028 C 
HETATM    2  C9  UNL     1      -6.399   8.326  14.993  1.00  0.00     0.009 C 
HETATM    3  C10 UNL     1      -4.921   8.723  15.111  1.00  0.00     0.011 C 
HETATM    4  C11 UNL     1      -4.215   7.897  14.023  1.00  0.00    -0.032 C 
HETATM    5  C12 UNL     1      -4.570   8.569  12.651  1.00  0.00     0.016 C 
HETATM    6  C13 UNL     1      -4.944   6.537  14.210  1.00  0.00     0.001 C 
HETATM    7  C14 UNL     1      -4.541   5.578  13.092  1.00  0.00     0.006 C 
HETATM    8  C15 UNL     1      -3.018   5.356  13.095  1.00  0.00     0.006 C 
HETATM    9  C16 UNL     1      -2.176   6.668  13.057  1.00  0.00     0.003 C 
HETATM   10  C17 UNL     1      -0.606   6.437  12.917  1.00  0.00    -0.035 C 
HETATM   11  C18 UNL     1      -0.134   5.300  13.863  1.00  0.00     0.016 C 
HETATM   12  C19 UNL     1      -0.303   5.927  11.465  1.00  0.00     0.017 C 
HETATM   13  C20 UNL     1      -0.010   7.031  10.464  1.00  0.00     0.080 C 
HETATM   14  C21 UNL     1       1.209   7.825  10.869  1.00  0.00     0.135 C 
HETATM   15  O2  UNL     1       1.910   8.361  10.007  1.00  0.00    -0.297 OA
HETATM   16  C22 UNL     1       1.520   7.954  12.364  1.00  0.00     0.017 C 
HETATM   17  C23 UNL     1       2.594   6.907  12.719  1.00  0.00     0.023 C 
HETATM   18  C24 UNL     1       2.171   9.336  12.613  1.00  0.00     0.023 C 
HETATM   19  C25 UNL     1       0.195   7.776  13.208  1.00  0.00     0.009 C 
HETATM   20  C26 UNL     1      -0.729   9.016  13.070  1.00  0.00     0.007 C 
HETATM   21  C27 UNL     1      -1.880   9.026  14.068  1.00  0.00     0.011 C 
HETATM   22  C28 UNL     1      -2.640   7.681  14.185  1.00  0.00    -0.032 C 
HETATM   23  C29 UNL     1      -2.288   7.133  15.600  1.00  0.00     0.016 C 
ENDROOT
BRANCH   1  24
HETATM   24  C7  UNL     1      -7.241   5.876  15.217  1.00  0.00     0.093 A 
HETATM   25  C30 UNL     1      -8.494   6.344  15.954  1.00  0.00     0.207 A 
HETATM   26  O3  UNL     1      -7.245   6.127  16.631  1.00  0.00    -0.374 OA
BRANCH  24  27
HETATM   27  C6  UNL     1      -7.093   4.413  14.847  1.00  0.00     0.123 C 
BRANCH  27  28
HETATM   28  C5  UNL     1      -7.660   3.980  13.515  1.00  0.00     0.152 C 
HETATM   29  O1  UNL     1      -8.455   4.706  12.908  1.00  0.00    -0.293 OA
BRANCH  28  30
HETATM   30  C4  UNL     1      -7.238   2.717  12.837  1.00  0.00     0.052 C 
HETATM   31  C2  UNL     1      -6.401   2.451  11.815  1.00  0.00    -0.084 C 
HETATM   32  C1  UNL     1      -6.245   1.025  11.338  1.00  0.00     0.043 C 
HETATM   33  C3  UNL     1      -5.537   3.426  11.065  1.00  0.00     0.043 C 
ENDBRANCH  28  30
ENDBRANCH  27  28
ENDBRANCH  24  27
ENDBRANCH   1  24
TORSDOF 4
ENDMDL
MODEL 8
REMARK minimizedAffinity -6.8357873
REMARK CNNscore 0.230347872
REMARK CNNaffinity 5.37258005
REMARK  4 active torsions:
REMARK  status: ('A' for Active; 'I' for Inactive)
REMARK    1  A    between atoms: C4_4  and  C5_5 
REMARK    2  A    between atoms: C5_5  and  C6_7 
REMARK    3  A    between atoms: C6_7  and  C7_8 
REMARK    4  A    between atoms: C7_8  and  C8_9 
ROOT
HETATM    1  C8  UNL     1     -16.131  -0.738  14.371  1.00  0.00     0.028 C 
HETATM    2  C9  UNL     1     -17.509  -1.112  13.746  1.00  0.00     0.009 C 
HETATM    3  C10 UNL     1     -18.345   0.174  13.693  1.00  0.00     0.011 C 
HETATM    4  C11 UNL     1     -17.306   1.305  13.627  1.00  0.00    -0.032 C 
HETATM    5  C12 UNL     1     -16.727   1.295  12.169  1.00  0.00     0.016 C 
HETATM    6  C13 UNL     1     -16.276   0.777  14.664  1.00  0.00     0.001 C 
HETATM    7  C14 UNL     1     -15.027   1.655  14.643  1.00  0.00     0.006 C 
HETATM    8  C15 UNL     1     -15.388   3.116  14.966  1.00  0.00     0.006 C 
HETATM    9  C16 UNL     1     -16.522   3.709  14.076  1.00  0.00     0.003 C 
HETATM   10  C17 UNL     1     -16.798   5.261  14.314  1.00  0.00    -0.035 C 
HETATM   11  C18 UNL     1     -16.822   5.586  15.831  1.00  0.00     0.016 C 
HETATM   12  C19 UNL     1     -15.594   6.078  13.728  1.00  0.00     0.017 C 
HETATM   13  C20 UNL     1     -15.766   6.493  12.277  1.00  0.00     0.080 C 
HETATM   14  C21 UNL     1     -16.973   7.383  12.104  1.00  0.00     0.135 C 
HETATM   15  O2  UNL     1     -16.994   8.225  11.203  1.00  0.00    -0.297 OA
HETATM   16  C22 UNL     1     -18.156   7.187  13.060  1.00  0.00     0.017 C 
HETATM   17  C23 UNL     1     -18.048   8.248  14.173  1.00  0.00     0.023 C 
HETATM   18  C24 UNL     1     -19.463   7.502  12.294  1.00  0.00     0.023 C 
HETATM   19  C25 UNL     1     -18.155   5.710  13.624  1.00  0.00     0.009 C 
HETATM   20  C26 UNL     1     -18.586   4.693  12.532  1.00  0.00     0.007 C 
HETATM   21  C27 UNL     1     -18.870   3.302  13.083  1.00  0.00     0.011 C 
HETATM   22  C28 UNL     1     -17.794   2.763  14.060  1.00  0.00    -0.032 C 
HETATM   23  C29 UNL     1     -18.483   2.738  15.455  1.00  0.00     0.016 C 
ENDROOT
BRANCH   1  24
HETATM   24  C7  UNL     1     -15.736  -1.586  15.587  1.00  0.00     0.093 A 
HETATM   25  C30 UNL     1     -14.429  -2.376  15.548  1.00  0.00     0.207 A 
HETATM   26  O3  UNL     1     -15.708  -3.002  15.349  1.00  0.00    -0.374 OA
BRANCH  24  27
HETATM   27  C6  UNL     1     -16.333  -1.195  16.925  1.00  0.00     0.123 C 
BRANCH  27  28
HETATM   28  C5  UNL     1     -16.703  -2.317  17.866  1.00  0.00     0.152 C 
HETATM   29  O1  UNL     1     -16.206  -2.378  18.995  1.00  0.00    -0.293 OA
BRANCH  28  30
HETATM   30  C4  UNL     1     -17.731  -3.347  17.520  1.00  0.00     0.052 C 
HETATM   31  C2  UNL     1     -18.986  -3.581  17.949  1.00  0.00    -0.084 C 
HETATM   32  C1  UNL     1     -19.741  -4.775  17.411  1.00  0.00     0.043 C 
HETATM   33  C3  UNL     1     -19.788  -2.761  18.920  1.00  0.00     0.043 C 
ENDBRANCH  28  30
ENDBRANCH  27  28
ENDBRANCH  24  27
ENDBRANCH   1  24
TORSDOF 4
ENDMDL
MODEL 9
REMARK minimizedAffinity -6.56023979
REMARK CNNscore 0.229641169
REMARK CNNaffinity 5.03159332
REMARK  4 active torsions:
REMARK  status: ('A' for Active; 'I' for Inactive)
REMARK    1  A    between atoms: C4_4  and  C5_5 
REMARK    2  A    between atoms: C5_5  and  C6_7 
REMARK    3  A    between atoms: C6_7  and  C7_8 
REMARK    4  A    between atoms: C7_8  and  C8_9 
ROOT
HETATM    1  C8  UNL     1     -13.343  -5.519  13.048  1.00  0.00     0.028 C 
HETATM    2  C9  UNL     1     -14.179  -5.691  11.744  1.00  0.00     0.009 C 
HETATM    3  C10 UNL     1     -15.366  -4.722  11.837  1.00  0.00     0.011 C 
HETATM    4  C11 UNL     1     -14.873  -3.600  12.764  1.00  0.00    -0.032 C 
HETATM    5  C12 UNL     1     -13.876  -2.730  11.921  1.00  0.00     0.016 C 
HETATM    6  C13 UNL     1     -14.137  -4.449  13.838  1.00  0.00     0.001 C 
HETATM    7  C14 UNL     1     -13.382  -3.529  14.795  1.00  0.00     0.006 C 
HETATM    8  C15 UNL     1     -14.352  -2.550  15.481  1.00  0.00     0.006 C 
HETATM    9  C16 UNL     1     -15.252  -1.742  14.497  1.00  0.00     0.003 C 
HETATM   10  C17 UNL     1     -16.154  -0.629  15.197  1.00  0.00    -0.035 C 
HETATM   11  C18 UNL     1     -16.810  -1.189  16.487  1.00  0.00     0.016 C 
HETATM   12  C19 UNL     1     -15.224   0.541  15.673  1.00  0.00     0.017 C 
HETATM   13  C20 UNL     1     -15.037   1.647  14.649  1.00  0.00     0.080 C 
HETATM   14  C21 UNL     1     -16.355   2.300  14.305  1.00  0.00     0.135 C 
HETATM   15  O2  UNL     1     -16.384   3.483  13.956  1.00  0.00    -0.297 OA
HETATM   16  C22 UNL     1     -17.624   1.445  14.384  1.00  0.00     0.017 C 
HETATM   17  C23 UNL     1     -18.307   1.732  15.736  1.00  0.00     0.023 C 
HETATM   18  C24 UNL     1     -18.611   1.930  13.295  1.00  0.00     0.023 C 
HETATM   19  C25 UNL     1     -17.260  -0.082  14.198  1.00  0.00     0.009 C 
HETATM   20  C26 UNL     1     -16.880  -0.392  12.725  1.00  0.00     0.007 C 
HETATM   21  C27 UNL     1     -16.788  -1.883  12.426  1.00  0.00     0.011 C 
HETATM   22  C28 UNL     1     -15.988  -2.701  13.472  1.00  0.00    -0.032 C 
HETATM   23  C29 UNL     1     -17.046  -3.582  14.199  1.00  0.00     0.016 C 
ENDROOT
BRANCH   1  24
HETATM   24  C7  UNL     1     -13.095  -6.824  13.818  1.00  0.00     0.093 A 
HETATM   25  C30 UNL     1     -13.835  -8.090  13.390  1.00  0.00     0.207 A 
HETATM   26  O3  UNL     1     -14.234  -7.322  14.538  1.00  0.00    -0.374 OA
BRANCH  24  27
HETATM   27  C6  UNL     1     -11.785  -6.942  14.572  1.00  0.00     0.123 C 
BRANCH  27  28
HETATM   28  C5  UNL     1     -11.868  -7.071  16.075  1.00  0.00     0.152 C 
HETATM   29  O1  UNL     1     -12.042  -6.071  16.780  1.00  0.00    -0.293 OA
BRANCH  28  30
HETATM   30  C4  UNL     1     -11.825  -8.394  16.770  1.00  0.00     0.052 C 
HETATM   31  C2  UNL     1     -10.944  -8.970  17.610  1.00  0.00    -0.084 C 
HETATM   32  C1  UNL     1     -11.195 -10.380  18.093  1.00  0.00     0.043 C 
HETATM   33  C3  UNL     1      -9.694  -8.360  18.181  1.00  0.00     0.043 C 
ENDBRANCH  28  30
ENDBRANCH  27  28
ENDBRANCH  24  27
ENDBRANCH   1  24
TORSDOF 4
ENDMDL
