MODEL 1
REMARK minimizedAffinity -5.52145958
REMARK CNNscore 0.61929208
REMARK CNNaffinity 6.18671751
REMARK  6 active torsions:
REMARK  status: ('A' for Active; 'I' for Inactive)
REMARK    1  A    between atoms: C2_2  and  C4_4 
REMARK    2  A    between atoms: C11_11  and  C12_12 
REMARK    3  A    between atoms: C12_12  and  O2_14 
REMARK    4  A    between atoms: C21_23  and  O3_24 
REMARK    5  A    between atoms: C22_25  and  C24_27 
REMARK    6  A    between atoms: C24_27  and  O4_28 
ROOT
HETATM    1  C4  UNL     1     -18.765  -3.683  15.602  1.00  0.00     0.018 C 
HETATM    2  C5  UNL     1     -18.086  -5.021  16.013  1.00  0.00     0.010 C 
HETATM    3  C6  UNL     1     -16.585  -4.725  16.177  1.00  0.00     0.010 C 
HETATM    4  C7  UNL     1     -16.358  -3.450  15.354  1.00  0.00    -0.039 C 
HETATM    5  C8  UNL     1     -16.252  -3.849  13.858  1.00  0.00     0.015 C 
HETATM    6  C9  UNL     1     -15.122  -2.642  15.759  1.00  0.00     0.011 C 
HETATM    7  C10 UNL     1     -15.131  -1.228  15.134  1.00  0.00     0.022 C 
HETATM    8  C11 UNL     1     -16.455  -0.401  15.380  1.00  0.00     0.057 C 
HETATM    9  C13 UNL     1     -17.682  -1.310  14.974  1.00  0.00     0.011 C 
HETATM   10  C14 UNL     1     -19.030  -0.591  15.030  1.00  0.00     0.007 C 
HETATM   11  C15 UNL     1     -19.025   0.722  14.252  1.00  0.00     0.006 C 
HETATM   12  C16 UNL     1     -17.877   1.677  14.653  1.00  0.00     0.003 C 
HETATM   13  C17 UNL     1     -18.010   3.150  14.010  1.00  0.00    -0.035 C 
HETATM   14  C18 UNL     1     -18.590   3.068  12.574  1.00  0.00     0.016 C 
HETATM   15  C19 UNL     1     -19.057   3.910  14.890  1.00  0.00     0.012 C 
HETATM   16  C20 UNL     1     -19.141   5.408  14.642  1.00  0.00     0.033 C 
HETATM   17  C21 UNL     1     -17.786   6.062  14.873  1.00  0.00     0.128 C 
HETATM   18  C22 UNL     1     -16.688   5.515  13.929  1.00  0.00     0.007 C 
HETATM   19  C23 UNL     1     -16.946   5.957  12.459  1.00  0.00     0.020 C 
HETATM   20  C25 UNL     1     -16.621   3.920  14.022  1.00  0.00     0.007 C 
HETATM   21  C26 UNL     1     -15.794   3.409  15.218  1.00  0.00     0.007 C 
HETATM   22  C27 UNL     1     -15.368   1.949  15.059  1.00  0.00     0.011 C 
HETATM   23  C28 UNL     1     -16.470   0.981  14.537  1.00  0.00    -0.022 C 
HETATM   24  C29 UNL     1     -16.145   0.694  13.041  1.00  0.00     0.017 C 
HETATM   25  C30 UNL     1     -17.627  -2.648  15.745  1.00  0.00     0.007 C 
ENDROOT
BRANCH   8  26
HETATM   26  C12 UNL     1     -16.452  -0.101  16.909  1.00  0.00     0.149 C 
HETATM   27  O1  UNL     1     -15.489   0.248  17.577  1.00  0.00    -0.649 OA
BRANCH  26  28
HETATM   28  O2  UNL     1     -17.628  -0.224  17.534  1.00  0.00    -0.776 OA
HETATM   29  H18 UNL     1     -17.427   0.015  18.463  1.00  0.00     0.167 HD
ENDBRANCH  26  28
ENDBRANCH   8  26
BRANCH   1  30
HETATM   30  C2  UNL     1     -20.060  -3.489  16.378  1.00  0.00    -0.089 C 
HETATM   31  C1  UNL     1     -21.294  -3.568  15.852  1.00  0.00     0.014 C 
HETATM   32  C3  UNL     1     -19.882  -3.166  17.838  1.00  0.00     0.043 C 
ENDBRANCH   1  30
BRANCH  18  33
HETATM   33  C24 UNL     1     -15.322   6.191  14.273  1.00  0.00     0.176 C 
BRANCH  33  34
HETATM   34  O4  UNL     1     -15.338   6.839  15.542  1.00  0.00    -0.400 OA
HETATM   35  H39 UNL     1     -14.420   7.104  15.735  1.00  0.00     0.209 HD
ENDBRANCH  33  34
ENDBRANCH  18  33
BRANCH  17  36
HETATM   36  O3  UNL     1     -17.944   7.473  14.710  1.00  0.00    -0.395 OA
HETATM   37  H33 UNL     1     -17.233   7.884  15.233  1.00  0.00     0.210 HD
ENDBRANCH  17  36
TORSDOF 6
ENDMDL
MODEL 2
REMARK minimizedAffinity -6.39367723
REMARK CNNscore 0.533092082
REMARK CNNaffinity 6.39411116
REMARK  6 active torsions:
REMARK  status: ('A' for Active; 'I' for Inactive)
REMARK    1  A    between atoms: C2_2  and  C4_4 
REMARK    2  A    between atoms: C11_11  and  C12_12 
REMARK    3  A    between atoms: C12_12  and  O2_14 
REMARK    4  A    between atoms: C21_23  and  O3_24 
REMARK    5  A    between atoms: C22_25  and  C24_27 
REMARK    6  A    between atoms: C24_27  and  O4_28 
ROOT
HETATM    1  C4  UNL     1     -13.936   5.277  23.846  1.00  0.00     0.018 C 
HETATM    2  C5  UNL     1     -13.837   4.672  22.416  1.00  0.00     0.010 C 
HETATM    3  C6  UNL     1     -14.018   3.151  22.563  1.00  0.00     0.010 C 
HETATM    4  C7  UNL     1     -13.666   2.868  24.029  1.00  0.00    -0.039 C 
HETATM    5  C8  UNL     1     -12.121   2.829  24.160  1.00  0.00     0.015 C 
HETATM    6  C9  UNL     1     -14.262   1.572  24.588  1.00  0.00     0.011 C 
HETATM    7  C10 UNL     1     -14.155   1.509  26.129  1.00  0.00     0.022 C 
HETATM    8  C11 UNL     1     -14.729   2.771  26.887  1.00  0.00     0.057 C 
HETATM    9  C13 UNL     1     -14.098   4.064  26.234  1.00  0.00     0.011 C 
HETATM   10  C14 UNL     1     -14.459   5.362  26.957  1.00  0.00     0.007 C 
HETATM   11  C15 UNL     1     -14.172   5.295  28.454  1.00  0.00     0.006 C 
HETATM   12  C16 UNL     1     -14.818   4.079  29.157  1.00  0.00     0.003 C 
HETATM   13  C17 UNL     1     -14.720   4.136  30.766  1.00  0.00    -0.035 C 
HETATM   14  C18 UNL     1     -13.370   4.760  31.208  1.00  0.00     0.016 C 
HETATM   15  C19 UNL     1     -15.854   5.108  31.231  1.00  0.00     0.012 C 
HETATM   16  C20 UNL     1     -16.133   5.104  32.726  1.00  0.00     0.033 C 
HETATM   17  C21 UNL     1     -16.507   3.705  33.194  1.00  0.00     0.128 C 
HETATM   18  C22 UNL     1     -15.382   2.670  32.947  1.00  0.00     0.007 C 
HETATM   19  C23 UNL     1     -14.162   2.941  33.877  1.00  0.00     0.020 C 
HETATM   20  C25 UNL     1     -14.926   2.701  31.415  1.00  0.00     0.007 C 
HETATM   21  C26 UNL     1     -15.836   1.875  30.487  1.00  0.00     0.007 C 
HETATM   22  C27 UNL     1     -15.172   1.547  29.149  1.00  0.00     0.011 C 
HETATM   23  C28 UNL     1     -14.406   2.722  28.473  1.00  0.00    -0.022 C 
HETATM   24  C29 UNL     1     -12.887   2.458  28.698  1.00  0.00     0.017 C 
HETATM   25  C30 UNL     1     -14.367   4.072  24.712  1.00  0.00     0.007 C 
ENDROOT
BRANCH   8  26
HETATM   26  C12 UNL     1     -16.267   2.706  26.648  1.00  0.00     0.149 C 
HETATM   27  O1  UNL     1     -17.059   3.631  26.759  1.00  0.00    -0.649 OA
BRANCH  26  28
HETATM   28  O2  UNL     1     -16.752   1.518  26.267  1.00  0.00    -0.776 OA
HETATM   29  H18 UNL     1     -17.712   1.680  26.157  1.00  0.00     0.167 HD
ENDBRANCH  26  28
ENDBRANCH   8  26
BRANCH   1  30
HETATM   30  C2  UNL     1     -14.793   6.534  23.828  1.00  0.00    -0.089 C 
HETATM   31  C1  UNL     1     -16.132   6.554  23.717  1.00  0.00     0.014 C 
HETATM   32  C3  UNL     1     -14.026   7.827  23.926  1.00  0.00     0.043 C 
ENDBRANCH   1  30
BRANCH  18  33
HETATM   33  C24 UNL     1     -15.869   1.255  33.396  1.00  0.00     0.176 C 
BRANCH  33  34
HETATM   34  O4  UNL     1     -15.017   0.672  34.379  1.00  0.00    -0.400 OA
HETATM   35  H39 UNL     1     -15.466  -0.131  34.701  1.00  0.00     0.209 HD
ENDBRANCH  33  34
ENDBRANCH  18  33
BRANCH  17  36
HETATM   36  O3  UNL     1     -16.839   3.778  34.581  1.00  0.00    -0.395 OA
HETATM   37  H33 UNL     1     -17.435   3.027  34.753  1.00  0.00     0.210 HD
ENDBRANCH  17  36
TORSDOF 6
ENDMDL
MODEL 3
REMARK minimizedAffinity -6.2824378
REMARK CNNscore 0.442514896
REMARK CNNaffinity 5.94033575
REMARK  6 active torsions:
REMARK  status: ('A' for Active; 'I' for Inactive)
REMARK    1  A    between atoms: C2_2  and  C4_4 
REMARK    2  A    between atoms: C11_11  and  C12_12 
REMARK    3  A    between atoms: C12_12  and  O2_14 
REMARK    4  A    between atoms: C21_23  and  O3_24 
REMARK    5  A    between atoms: C22_25  and  C24_27 
REMARK    6  A    between atoms: C24_27  and  O4_28 
ROOT
HETATM    1  C4  UNL     1     -17.507   4.511  14.961  1.00  0.00     0.018 C 
HETATM    2  C5  UNL     1     -17.994   5.354  16.174  1.00  0.00     0.010 C 
HETATM    3  C6  UNL     1     -18.204   4.373  17.341  1.00  0.00     0.010 C 
HETATM    4  C7  UNL     1     -18.378   3.008  16.661  1.00  0.00    -0.039 C 
HETATM    5  C8  UNL     1     -19.835   2.905  16.140  1.00  0.00     0.015 C 
HETATM    6  C9  UNL     1     -18.068   1.806  17.559  1.00  0.00     0.011 C 
HETATM    7  C10 UNL     1     -17.937   0.499  16.743  1.00  0.00     0.022 C 
HETATM    8  C11 UNL     1     -16.932   0.573  15.526  1.00  0.00     0.057 C 
HETATM    9  C13 UNL     1     -17.291   1.852  14.671  1.00  0.00     0.011 C 
HETATM   10  C14 UNL     1     -16.484   1.979  13.379  1.00  0.00     0.007 C 
HETATM   11  C15 UNL     1     -16.533   0.710  12.533  1.00  0.00     0.006 C 
HETATM   12  C16 UNL     1     -16.131  -0.567  13.307  1.00  0.00     0.003 C 
HETATM   13  C17 UNL     1     -15.949  -1.862  12.363  1.00  0.00    -0.035 C 
HETATM   14  C18 UNL     1     -16.992  -1.852  11.216  1.00  0.00     0.016 C 
HETATM   15  C19 UNL     1     -14.536  -1.720  11.705  1.00  0.00     0.012 C 
HETATM   16  C20 UNL     1     -14.031  -2.962  10.989  1.00  0.00     0.033 C 
HETATM   17  C21 UNL     1     -13.974  -4.144  11.948  1.00  0.00     0.128 C 
HETATM   18  C22 UNL     1     -15.359  -4.502  12.539  1.00  0.00     0.007 C 
HETATM   19  C23 UNL     1     -16.295  -5.096  11.445  1.00  0.00     0.020 C 
HETATM   20  C25 UNL     1     -16.031  -3.211  13.199  1.00  0.00     0.007 C 
HETATM   21  C26 UNL     1     -15.538  -2.925  14.630  1.00  0.00     0.007 C 
HETATM   22  C27 UNL     1     -16.472  -1.993  15.402  1.00  0.00     0.011 C 
HETATM   23  C28 UNL     1     -16.996  -0.759  14.608  1.00  0.00    -0.022 C 
HETATM   24  C29 UNL     1     -18.472  -1.066  14.220  1.00  0.00     0.017 C 
HETATM   25  C30 UNL     1     -17.280   3.109  15.570  1.00  0.00     0.007 C 
ENDROOT
BRANCH   8  26
HETATM   26  C12 UNL     1     -15.527   0.707  16.186  1.00  0.00     0.149 C 
HETATM   27  O1  UNL     1     -15.285   0.700  17.385  1.00  0.00    -0.649 OA
BRANCH  26  28
HETATM   28  O2  UNL     1     -14.492   0.822  15.346  1.00  0.00    -0.776 OA
HETATM   29  H18 UNL     1     -13.713   0.879  15.938  1.00  0.00     0.167 HD
ENDBRANCH  26  28
ENDBRANCH   8  26
BRANCH   1  30
HETATM   30  C2  UNL     1     -16.360   5.218  14.254  1.00  0.00    -0.089 C 
HETATM   31  C1  UNL     1     -15.062   5.103  14.585  1.00  0.00     0.014 C 
HETATM   32  C3  UNL     1     -16.772   6.118  13.119  1.00  0.00     0.043 C 
ENDBRANCH   1  30
BRANCH  18  33
HETATM   33  C24 UNL     1     -15.202  -5.679  13.555  1.00  0.00     0.176 C 
BRANCH  33  34
HETATM   34  O4  UNL     1     -13.850  -5.873  13.961  1.00  0.00    -0.400 OA
HETATM   35  H39 UNL     1     -13.865  -6.519  14.690  1.00  0.00     0.209 HD
ENDBRANCH  33  34
ENDBRANCH  18  33
BRANCH  17  36
HETATM   36  O3  UNL     1     -13.415  -5.255  11.245  1.00  0.00    -0.395 OA
HETATM   37  H33 UNL     1     -13.021  -5.830  11.925  1.00  0.00     0.210 HD
ENDBRANCH  17  36
TORSDOF 6
ENDMDL
MODEL 4
REMARK minimizedAffinity -7.52998018
REMARK CNNscore 0.432020366
REMARK CNNaffinity 6.4620285
REMARK  6 active torsions:
REMARK  status: ('A' for Active; 'I' for Inactive)
REMARK    1  A    between atoms: C2_2  and  C4_4 
REMARK    2  A    between atoms: C11_11  and  C12_12 
REMARK    3  A    between atoms: C12_12  and  O2_14 
REMARK    4  A    between atoms: C21_23  and  O3_24 
REMARK    5  A    between atoms: C22_25  and  C24_27 
REMARK    6  A    between atoms: C24_27  and  O4_28 
ROOT
HETATM    1  C4  UNL     1      -3.675  12.149  17.070  1.00  0.00     0.018 C 
HETATM    2  C5  UNL     1      -3.626  12.893  18.435  1.00  0.00     0.010 C 
HETATM    3  C6  UNL     1      -2.221  12.661  19.018  1.00  0.00     0.010 C 
HETATM    4  C7  UNL     1      -1.717  11.401  18.302  1.00  0.00    -0.039 C 
HETATM    5  C8  UNL     1      -2.350  10.164  18.991  1.00  0.00     0.015 C 
HETATM    6  C9  UNL     1      -0.193  11.251  18.275  1.00  0.00     0.011 C 
HETATM    7  C10 UNL     1       0.258  10.162  17.274  1.00  0.00     0.022 C 
HETATM    8  C11 UNL     1      -0.323  10.322  15.812  1.00  0.00     0.057 C 
HETATM    9  C13 UNL     1      -1.887  10.507  15.925  1.00  0.00     0.011 C 
HETATM   10  C14 UNL     1      -2.605  10.539  14.575  1.00  0.00     0.007 C 
HETATM   11  C15 UNL     1      -2.246   9.345  13.695  1.00  0.00     0.006 C 
HETATM   12  C16 UNL     1      -0.724   9.153  13.502  1.00  0.00     0.003 C 
HETATM   13  C17 UNL     1      -0.350   8.049  12.386  1.00  0.00    -0.035 C 
HETATM   14  C18 UNL     1      -1.362   6.874  12.422  1.00  0.00     0.016 C 
HETATM   15  C19 UNL     1      -0.516   8.762  11.004  1.00  0.00     0.012 C 
HETATM   16  C20 UNL     1       0.048   8.001   9.815  1.00  0.00     0.033 C 
HETATM   17  C21 UNL     1       1.532   7.726  10.014  1.00  0.00     0.128 C 
HETATM   18  C22 UNL     1       1.819   6.867  11.269  1.00  0.00     0.007 C 
HETATM   19  C23 UNL     1       1.305   5.410  11.077  1.00  0.00     0.020 C 
HETATM   20  C25 UNL     1       1.140   7.526  12.558  1.00  0.00     0.007 C 
HETATM   21  C26 UNL     1       1.981   8.654  13.186  1.00  0.00     0.007 C 
HETATM   22  C27 UNL     1       1.566   8.969  14.624  1.00  0.00     0.011 C 
HETATM   23  C28 UNL     1       0.032   9.048  14.879  1.00  0.00    -0.022 C 
HETATM   24  C29 UNL     1      -0.373   7.730  15.603  1.00  0.00     0.017 C 
HETATM   25  C30 UNL     1      -2.214  11.693  16.862  1.00  0.00     0.007 C 
ENDROOT
BRANCH   8  26
HETATM   26  C12 UNL     1       0.364  11.606  15.257  1.00  0.00     0.149 C 
HETATM   27  O1  UNL     1       1.463  12.036  15.575  1.00  0.00    -0.649 OA
BRANCH  26  28
HETATM   28  O2  UNL     1      -0.322  12.284  14.329  1.00  0.00    -0.776 OA
HETATM   29  H18 UNL     1       0.267  13.032  14.100  1.00  0.00     0.167 HD
ENDBRANCH  26  28
ENDBRANCH   8  26
BRANCH   1  30
HETATM   30  C2  UNL     1      -4.348  13.020  16.019  1.00  0.00    -0.089 C 
HETATM   31  C1  UNL     1      -3.715  13.630  15.003  1.00  0.00     0.014 C 
HETATM   32  C3  UNL     1      -5.834  13.190  16.193  1.00  0.00     0.043 C 
ENDBRANCH   1  30
BRANCH  18  33
HETATM   33  C24 UNL     1       3.361   6.685  11.434  1.00  0.00     0.176 C 
BRANCH  33  34
HETATM   34  O4  UNL     1       3.868   5.600  10.663  1.00  0.00    -0.400 OA
HETATM   35  H39 UNL     1       4.840   5.648  10.712  1.00  0.00     0.209 HD
ENDBRANCH  33  34
ENDBRANCH  18  33
BRANCH  17  36
HETATM   36  O3  UNL     1       2.024   7.087   8.834  1.00  0.00    -0.395 OA
HETATM   37  H33 UNL     1       2.977   7.285   8.802  1.00  0.00     0.210 HD
ENDBRANCH  17  36
TORSDOF 6
ENDMDL
MODEL 5
REMARK minimizedAffinity -5.74831676
REMARK CNNscore 0.420216471
REMARK CNNaffinity 5.99689293
REMARK  6 active torsions:
REMARK  status: ('A' for Active; 'I' for Inactive)
REMARK    1  A    between atoms: C2_2  and  C4_4 
REMARK    2  A    between atoms: C11_11  and  C12_12 
REMARK    3  A    between atoms: C12_12  and  O2_14 
REMARK    4  A    between atoms: C21_23  and  O3_24 
REMARK    5  A    between atoms: C22_25  and  C24_27 
REMARK    6  A    between atoms: C24_27  and  O4_28 
ROOT
HETATM    1  C4  UNL     1      16.874  12.483  14.502  1.00  0.00     0.018 C 
HETATM    2  C5  UNL     1      17.981  13.445  15.017  1.00  0.00     0.010 C 
HETATM    3  C6  UNL     1      17.336  14.327  16.101  1.00  0.00     0.010 C 
HETATM    4  C7  UNL     1      15.833  14.253  15.802  1.00  0.00    -0.039 C 
HETATM    5  C8  UNL     1      15.519  15.227  14.637  1.00  0.00     0.015 C 
HETATM    6  C9  UNL     1      14.930  14.575  16.997  1.00  0.00     0.011 C 
HETATM    7  C10 UNL     1      13.462  14.167  16.734  1.00  0.00     0.022 C 
HETATM    8  C11 UNL     1      13.263  12.674  16.257  1.00  0.00     0.057 C 
HETATM    9  C13 UNL     1      14.248  12.408  15.051  1.00  0.00     0.011 C 
HETATM   10  C14 UNL     1      14.069  11.039  14.396  1.00  0.00     0.007 C 
HETATM   11  C15 UNL     1      12.620  10.763  14.005  1.00  0.00     0.006 C 
HETATM   12  C16 UNL     1      11.617  10.950  15.166  1.00  0.00     0.003 C 
HETATM   13  C17 UNL     1      10.129  10.430  14.823  1.00  0.00    -0.035 C 
HETATM   14  C18 UNL     1       9.780  10.717  13.339  1.00  0.00     0.016 C 
HETATM   15  C19 UNL     1      10.165   8.876  14.998  1.00  0.00     0.012 C 
HETATM   16  C20 UNL     1       8.806   8.196  14.997  1.00  0.00     0.033 C 
HETATM   17  C21 UNL     1       7.926   8.762  16.102  1.00  0.00     0.128 C 
HETATM   18  C22 UNL     1       7.665  10.279  15.942  1.00  0.00     0.007 C 
HETATM   19  C23 UNL     1       6.755  10.562  14.711  1.00  0.00     0.020 C 
HETATM   20  C25 UNL     1       9.049  11.068  15.798  1.00  0.00     0.007 C 
HETATM   21  C26 UNL     1       9.729  11.366  17.147  1.00  0.00     0.007 C 
HETATM   22  C27 UNL     1      10.783  12.470  17.045  1.00  0.00     0.011 C 
HETATM   23  C28 UNL     1      11.733  12.380  15.814  1.00  0.00    -0.022 C 
HETATM   24  C29 UNL     1      11.257  13.460  14.798  1.00  0.00     0.017 C 
HETATM   25  C30 UNL     1      15.698  12.744  15.469  1.00  0.00     0.007 C 
ENDROOT
BRANCH   8  26
HETATM   26  C12 UNL     1      13.640  11.813  17.500  1.00  0.00     0.149 C 
HETATM   27  O1  UNL     1      13.226  11.965  18.640  1.00  0.00    -0.649 OA
BRANCH  26  28
HETATM   28  O2  UNL     1      14.487  10.801  17.278  1.00  0.00    -0.776 OA
HETATM   29  H18 UNL     1      14.587  10.381  18.158  1.00  0.00     0.167 HD
ENDBRANCH  26  28
ENDBRANCH   8  26
BRANCH   1  30
HETATM   30  C2  UNL     1      17.427  11.073  14.355  1.00  0.00    -0.089 C 
HETATM   31  C1  UNL     1      17.910  10.325  15.362  1.00  0.00     0.014 C 
HETATM   32  C3  UNL     1      17.426  10.534  12.949  1.00  0.00     0.043 C 
ENDBRANCH   1  30
BRANCH  18  33
HETATM   33  C24 UNL     1       6.810  10.790  17.146  1.00  0.00     0.176 C 
BRANCH  33  34
HETATM   34  O4  UNL     1       6.977   9.989  18.313  1.00  0.00    -0.400 OA
HETATM   35  H39 UNL     1       6.528  10.455  19.041  1.00  0.00     0.209 HD
ENDBRANCH  33  34
ENDBRANCH  18  33
BRANCH  17  36
HETATM   36  O3  UNL     1       6.699   8.030  16.107  1.00  0.00    -0.395 OA
HETATM   37  H33 UNL     1       6.346   8.107  17.012  1.00  0.00     0.210 HD
ENDBRANCH  17  36
TORSDOF 6
ENDMDL
MODEL 6
REMARK minimizedAffinity -7.50253534
REMARK CNNscore 0.348215014
REMARK CNNaffinity 5.46894979
REMARK  6 active torsions:
REMARK  status: ('A' for Active; 'I' for Inactive)
REMARK    1  A    between atoms: C2_2  and  C4_4 
REMARK    2  A    between atoms: C11_11  and  C12_12 
REMARK    3  A    between atoms: C12_12  and  O2_14 
REMARK    4  A    between atoms: C21_23  and  O3_24 
REMARK    5  A    between atoms: C22_25  and  C24_27 
REMARK    6  A    between atoms: C24_27  and  O4_28 
ROOT
HETATM    1  C4  UNL     1       6.653  12.789  20.657  1.00  0.00     0.018 C 
HETATM    2  C5  UNL     1       7.456  12.564  21.969  1.00  0.00     0.010 C 
HETATM    3  C6  UNL     1       6.462  12.021  23.011  1.00  0.00     0.010 C 
HETATM    4  C7  UNL     1       5.088  12.459  22.487  1.00  0.00    -0.039 C 
HETATM    5  C8  UNL     1       4.875  13.948  22.865  1.00  0.00     0.015 C 
HETATM    6  C9  UNL     1       3.913  11.624  23.005  1.00  0.00     0.011 C 
HETATM    7  C10 UNL     1       2.620  11.891  22.201  1.00  0.00     0.022 C 
HETATM    8  C11 UNL     1       2.771  11.749  20.634  1.00  0.00     0.057 C 
HETATM    9  C13 UNL     1       4.018  12.606  20.182  1.00  0.00     0.011 C 
HETATM   10  C14 UNL     1       4.207  12.672  18.666  1.00  0.00     0.007 C 
HETATM   11  C15 UNL     1       2.937  13.106  17.939  1.00  0.00     0.006 C 
HETATM   12  C16 UNL     1       1.695  12.260  18.300  1.00  0.00     0.003 C 
HETATM   13  C17 UNL     1       0.417  12.558  17.361  1.00  0.00    -0.035 C 
HETATM   14  C18 UNL     1       0.348  14.063  16.995  1.00  0.00     0.016 C 
HETATM   15  C19 UNL     1       0.667  11.769  16.033  1.00  0.00     0.012 C 
HETATM   16  C20 UNL     1      -0.533  11.676  15.105  1.00  0.00     0.033 C 
HETATM   17  C21 UNL     1      -1.707  11.017  15.816  1.00  0.00     0.128 C 
HETATM   18  C22 UNL     1      -2.170  11.806  17.064  1.00  0.00     0.007 C 
HETATM   19  C23 UNL     1      -2.833  13.154  16.657  1.00  0.00     0.020 C 
HETATM   20  C25 UNL     1      -0.934  12.072  18.042  1.00  0.00     0.007 C 
HETATM   21  C26 UNL     1      -0.611  10.880  18.963  1.00  0.00     0.007 C 
HETATM   22  C27 UNL     1       0.247  11.278  20.164  1.00  0.00     0.011 C 
HETATM   23  C28 UNL     1       1.438  12.232  19.853  1.00  0.00    -0.022 C 
HETATM   24  C29 UNL     1       1.019  13.650  20.344  1.00  0.00     0.017 C 
HETATM   25  C30 UNL     1       5.273  12.172  20.974  1.00  0.00     0.007 C 
ENDROOT
BRANCH   8  26
HETATM   26  C12 UNL     1       3.011  10.227  20.401  1.00  0.00     0.149 C 
HETATM   27  O1  UNL     1       3.350   9.409  21.244  1.00  0.00    -0.649 OA
BRANCH  26  28
HETATM   28  O2  UNL     1       2.806   9.785  19.155  1.00  0.00    -0.776 OA
HETATM   29  H18 UNL     1       2.991   8.824  19.212  1.00  0.00     0.167 HD
ENDBRANCH  26  28
ENDBRANCH   8  26
BRANCH   1  30
HETATM   30  C2  UNL     1       7.446  12.283  19.460  1.00  0.00    -0.089 C 
HETATM   31  C1  UNL     1       7.335  11.055  18.925  1.00  0.00     0.014 C 
HETATM   32  C3  UNL     1       8.428  13.269  18.886  1.00  0.00     0.043 C 
ENDBRANCH   1  30
BRANCH  18  33
HETATM   33  C24 UNL     1      -3.331  11.032  17.767  1.00  0.00     0.176 C 
BRANCH  33  34
HETATM   34  O4  UNL     1      -3.442   9.685  17.316  1.00  0.00    -0.400 OA
HETATM   35  H39 UNL     1      -4.085   9.244  17.899  1.00  0.00     0.209 HD
ENDBRANCH  33  34
ENDBRANCH  18  33
BRANCH  17  36
HETATM   36  O3  UNL     1      -2.772  10.879  14.874  1.00  0.00    -0.395 OA
HETATM   37  H33 UNL     1      -3.315  10.136  15.192  1.00  0.00     0.210 HD
ENDBRANCH  17  36
TORSDOF 6
ENDMDL
MODEL 7
REMARK minimizedAffinity -8.32926559
REMARK CNNscore 0.302537441
REMARK CNNaffinity 6.38834047
REMARK  6 active torsions:
REMARK  status: ('A' for Active; 'I' for Inactive)
REMARK    1  A    between atoms: C2_2  and  C4_4 
REMARK    2  A    between atoms: C11_11  and  C12_12 
REMARK    3  A    between atoms: C12_12  and  O2_14 
REMARK    4  A    between atoms: C21_23  and  O3_24 
REMARK    5  A    between atoms: C22_25  and  C24_27 
REMARK    6  A    between atoms: C24_27  and  O4_28 
ROOT
HETATM    1  C4  UNL     1      -4.627   9.262  14.749  1.00  0.00     0.018 C 
HETATM    2  C5  UNL     1      -5.798   8.791  15.658  1.00  0.00     0.010 C 
HETATM    3  C6  UNL     1      -5.666   7.264  15.798  1.00  0.00     0.010 C 
HETATM    4  C7  UNL     1      -4.823   6.845  14.586  1.00  0.00    -0.039 C 
HETATM    5  C8  UNL     1      -5.753   6.783  13.345  1.00  0.00     0.015 C 
HETATM    6  C9  UNL     1      -4.095   5.507  14.749  1.00  0.00     0.011 C 
HETATM    7  C10 UNL     1      -3.020   5.302  13.656  1.00  0.00     0.022 C 
HETATM    8  C11 UNL     1      -1.994   6.494  13.502  1.00  0.00     0.057 C 
HETATM    9  C13 UNL     1      -2.816   7.836  13.375  1.00  0.00     0.011 C 
HETATM   10  C14 UNL     1      -1.954   9.065  13.083  1.00  0.00     0.007 C 
HETATM   11  C15 UNL     1      -1.032   8.859  11.884  1.00  0.00     0.006 C 
HETATM   12  C16 UNL     1      -0.158   7.588  11.985  1.00  0.00     0.003 C 
HETATM   13  C17 UNL     1       0.981   7.497  10.846  1.00  0.00    -0.035 C 
HETATM   14  C18 UNL     1       0.456   8.068   9.503  1.00  0.00     0.016 C 
HETATM   15  C19 UNL     1       2.142   8.429  11.323  1.00  0.00     0.012 C 
HETATM   16  C20 UNL     1       3.441   8.290  10.547  1.00  0.00     0.033 C 
HETATM   17  C21 UNL     1       3.949   6.856  10.610  1.00  0.00     0.128 C 
HETATM   18  C22 UNL     1       2.953   5.841   9.999  1.00  0.00     0.007 C 
HETATM   19  C23 UNL     1       2.855   6.016   8.455  1.00  0.00     0.020 C 
HETATM   20  C25 UNL     1       1.510   6.009  10.666  1.00  0.00     0.007 C 
HETATM   21  C26 UNL     1       1.368   5.278  12.015  1.00  0.00     0.007 C 
HETATM   22  C27 UNL     1      -0.091   5.070  12.422  1.00  0.00     0.011 C 
HETATM   23  C28 UNL     1      -1.028   6.297  12.217  1.00  0.00    -0.022 C 
HETATM   24  C29 UNL     1      -1.884   6.003  10.950  1.00  0.00     0.017 C 
HETATM   25  C30 UNL     1      -3.773   7.986  14.580  1.00  0.00     0.007 C 
ENDROOT
BRANCH   8  26
HETATM   26  C12 UNL     1      -1.156   6.461  14.816  1.00  0.00     0.149 C 
HETATM   27  O1  UNL     1      -0.604   7.413  15.347  1.00  0.00    -0.649 OA
BRANCH  26  28
HETATM   28  O2  UNL     1      -1.056   5.270  15.418  1.00  0.00    -0.776 OA
HETATM   29  H18 UNL     1      -0.516   5.454  16.215  1.00  0.00     0.167 HD
ENDBRANCH  26  28
ENDBRANCH   8  26
BRANCH   1  30
HETATM   30  C2  UNL     1      -3.991  10.522  15.319  1.00  0.00    -0.089 C 
HETATM   31  C1  UNL     1      -4.669  11.577  15.802  1.00  0.00     0.014 C 
HETATM   32  C3  UNL     1      -2.486  10.539  15.297  1.00  0.00     0.043 C 
ENDBRANCH   1  30
BRANCH  18  33
HETATM   33  C24 UNL     1       3.520   4.394  10.161  1.00  0.00     0.176 C 
BRANCH  33  34
HETATM   34  O4  UNL     1       3.329   3.600   8.993  1.00  0.00    -0.400 OA
HETATM   35  H39 UNL     1       3.830   2.776   9.128  1.00  0.00     0.209 HD
ENDBRANCH  33  34
ENDBRANCH  18  33
BRANCH  17  36
HETATM   36  O3  UNL     1       5.209   6.804   9.938  1.00  0.00    -0.395 OA
HETATM   37  H33 UNL     1       5.684   6.045  10.321  1.00  0.00     0.210 HD
ENDBRANCH  17  36
TORSDOF 6
ENDMDL
MODEL 8
REMARK minimizedAffinity -5.66456175
REMARK CNNscore 0.29498589
REMARK CNNaffinity 6.01277733
REMARK  6 active torsions:
REMARK  status: ('A' for Active; 'I' for Inactive)
REMARK    1  A    between atoms: C2_2  and  C4_4 
REMARK    2  A    between atoms: C11_11  and  C12_12 
REMARK    3  A    between atoms: C12_12  and  O2_14 
REMARK    4  A    between atoms: C21_23  and  O3_24 
REMARK    5  A    between atoms: C22_25  and  C24_27 
REMARK    6  A    between atoms: C24_27  and  O4_28 
ROOT
HETATM    1  C4  UNL     1     -13.814   4.038  25.177  1.00  0.00     0.018 C 
HETATM    2  C5  UNL     1     -14.880   3.195  25.934  1.00  0.00     0.010 C 
HETATM    3  C6  UNL     1     -16.089   4.116  26.171  1.00  0.00     0.010 C 
HETATM    4  C7  UNL     1     -15.511   5.533  26.067  1.00  0.00    -0.039 C 
HETATM    5  C8  UNL     1     -14.818   5.877  27.412  1.00  0.00     0.015 C 
HETATM    6  C9  UNL     1     -16.540   6.617  25.728  1.00  0.00     0.011 C 
HETATM    7  C10 UNL     1     -15.860   7.943  25.315  1.00  0.00     0.022 C 
HETATM    8  C11 UNL     1     -14.779   7.808  24.170  1.00  0.00     0.057 C 
HETATM    9  C13 UNL     1     -13.780   6.653  24.574  1.00  0.00     0.011 C 
HETATM   10  C14 UNL     1     -12.595   6.498  23.620  1.00  0.00     0.007 C 
HETATM   11  C15 UNL     1     -11.861   7.814  23.384  1.00  0.00     0.006 C 
HETATM   12  C16 UNL     1     -12.784   8.967  22.927  1.00  0.00     0.003 C 
HETATM   13  C17 UNL     1     -11.984  10.283  22.447  1.00  0.00    -0.035 C 
HETATM   14  C18 UNL     1     -10.717  10.497  23.315  1.00  0.00     0.016 C 
HETATM   15  C19 UNL     1     -11.502   9.985  20.989  1.00  0.00     0.012 C 
HETATM   16  C20 UNL     1     -10.964  11.187  20.230  1.00  0.00     0.033 C 
HETATM   17  C21 UNL     1     -12.018  12.282  20.150  1.00  0.00     0.128 C 
HETATM   18  C22 UNL     1     -12.457  12.794  21.543  1.00  0.00     0.007 C 
HETATM   19  C23 UNL     1     -11.307  13.587  22.233  1.00  0.00     0.020 C 
HETATM   20  C25 UNL     1     -12.914  11.571  22.465  1.00  0.00     0.007 C 
HETATM   21  C26 UNL     1     -14.367  11.124  22.216  1.00  0.00     0.007 C 
HETATM   22  C27 UNL     1     -14.932  10.285  23.363  1.00  0.00     0.011 C 
HETATM   23  C28 UNL     1     -13.976   9.193  23.930  1.00  0.00    -0.022 C 
HETATM   24  C29 UNL     1     -13.430   9.732  25.285  1.00  0.00     0.017 C 
HETATM   25  C30 UNL     1     -14.563   5.350  24.853  1.00  0.00     0.007 C 
ENDROOT
BRANCH   8  26
HETATM   26  C12 UNL     1     -15.599   7.432  22.900  1.00  0.00     0.149 C 
HETATM   27  O1  UNL     1     -16.787   7.654  22.711  1.00  0.00    -0.649 OA
BRANCH  26  28
HETATM   28  O2  UNL     1     -14.920   6.823  21.921  1.00  0.00    -0.776 OA
HETATM   29  H18 UNL     1     -15.590   6.684  21.220  1.00  0.00     0.167 HD
ENDBRANCH  26  28
ENDBRANCH   8  26
BRANCH   1  30
HETATM   30  C2  UNL     1     -13.202   3.223  24.047  1.00  0.00    -0.089 C 
HETATM   31  C1  UNL     1     -13.692   3.146  22.798  1.00  0.00     0.014 C 
HETATM   32  C3  UNL     1     -11.966   2.449  24.420  1.00  0.00     0.043 C 
ENDBRANCH   1  30
BRANCH  18  33
HETATM   33  C24 UNL     1     -13.580  13.867  21.374  1.00  0.00     0.176 C 
BRANCH  33  34
HETATM   34  O4  UNL     1     -13.706  14.710  22.516  1.00  0.00    -0.400 OA
HETATM   35  H39 UNL     1     -14.319  15.426  22.272  1.00  0.00     0.209 HD
ENDBRANCH  33  34
ENDBRANCH  18  33
BRANCH  17  36
HETATM   36  O3  UNL     1     -11.489  13.347  19.358  1.00  0.00    -0.395 OA
HETATM   37  H33 UNL     1     -12.260  13.814  18.989  1.00  0.00     0.210 HD
ENDBRANCH  17  36
TORSDOF 6
ENDMDL
MODEL 9
REMARK minimizedAffinity -6.77671766
REMARK CNNscore 0.227539718
REMARK CNNaffinity 5.80167961
REMARK  6 active torsions:
REMARK  status: ('A' for Active; 'I' for Inactive)
REMARK    1  A    between atoms: C2_2  and  C4_4 
REMARK    2  A    between atoms: C11_11  and  C12_12 
REMARK    3  A    between atoms: C12_12  and  O2_14 
REMARK    4  A    between atoms: C21_23  and  O3_24 
REMARK    5  A    between atoms: C22_25  and  C24_27 
REMARK    6  A    between atoms: C24_27  and  O4_28 
ROOT
HETATM    1  C4  UNL     1      -3.495   7.224  13.375  1.00  0.00     0.018 C 
HETATM    2  C5  UNL     1      -2.642   6.203  12.571  1.00  0.00     0.010 C 
HETATM    3  C6  UNL     1      -1.173   6.639  12.716  1.00  0.00     0.010 C 
HETATM    4  C7  UNL     1      -1.255   8.124  13.094  1.00  0.00    -0.039 C 
HETATM    5  C8  UNL     1      -1.507   8.942  11.801  1.00  0.00     0.015 C 
HETATM    6  C9  UNL     1      -0.015   8.667  13.812  1.00  0.00     0.011 C 
HETATM    7  C10 UNL     1      -0.283  10.049  14.453  1.00  0.00     0.022 C 
HETATM    8  C11 UNL     1      -1.555  10.112  15.388  1.00  0.00     0.057 C 
HETATM    9  C13 UNL     1      -2.778   9.505  14.594  1.00  0.00     0.011 C 
HETATM   10  C14 UNL     1      -4.114   9.625  15.328  1.00  0.00     0.007 C 
HETATM   11  C15 UNL     1      -4.400  11.052  15.790  1.00  0.00     0.006 C 
HETATM   12  C16 UNL     1      -3.257  11.675  16.625  1.00  0.00     0.003 C 
HETATM   13  C17 UNL     1      -3.653  13.079  17.312  1.00  0.00    -0.035 C 
HETATM   14  C18 UNL     1      -4.574  13.904  16.376  1.00  0.00     0.016 C 
HETATM   15  C19 UNL     1      -4.491  12.715  18.583  1.00  0.00     0.012 C 
HETATM   16  C20 UNL     1      -4.740  13.868  19.542  1.00  0.00     0.033 C 
HETATM   17  C21 UNL     1      -3.420  14.460  20.016  1.00  0.00     0.128 C 
HETATM   18  C22 UNL     1      -2.565  15.023  18.856  1.00  0.00     0.007 C 
HETATM   19  C23 UNL     1      -3.221  16.297  18.247  1.00  0.00     0.020 C 
HETATM   20  C25 UNL     1      -2.365  13.912  17.725  1.00  0.00     0.007 C 
HETATM   21  C26 UNL     1      -1.225  12.921  18.032  1.00  0.00     0.007 C 
HETATM   22  C27 UNL     1      -0.753  12.161  16.792  1.00  0.00     0.011 C 
HETATM   23  C28 UNL     1      -1.882  11.626  15.861  1.00  0.00    -0.022 C 
HETATM   24  C29 UNL     1      -1.931  12.570  14.624  1.00  0.00     0.017 C 
HETATM   25  C30 UNL     1      -2.434   8.081  14.101  1.00  0.00     0.007 C 
ENDROOT
BRANCH   8  26
HETATM   26  C12 UNL     1      -1.181   9.231  16.618  1.00  0.00     0.149 C 
HETATM   27  O1  UNL     1      -0.052   8.978  17.012  1.00  0.00    -0.649 OA
BRANCH  26  28
HETATM   28  O2  UNL     1      -2.208   8.724  17.310  1.00  0.00    -0.776 OA
HETATM   29  H18 UNL     1      -1.778   8.224  18.035  1.00  0.00     0.167 HD
ENDBRANCH  26  28
ENDBRANCH   8  26
BRANCH   1  30
HETATM   30  C2  UNL     1      -4.558   6.499  14.188  1.00  0.00    -0.089 C 
HETATM   31  C1  UNL     1      -4.410   6.084  15.457  1.00  0.00     0.014 C 
HETATM   32  C3  UNL     1      -5.847   6.235  13.454  1.00  0.00     0.043 C 
ENDBRANCH   1  30
BRANCH  18  33
HETATM   33  C24 UNL     1      -1.207  15.553  19.419  1.00  0.00     0.176 C 
BRANCH  33  34
HETATM   34  O4  UNL     1      -0.938  15.073  20.734  1.00  0.00    -0.400 OA
HETATM   35  H39 UNL     1      -0.023  15.332  20.946  1.00  0.00     0.209 HD
ENDBRANCH  33  34
ENDBRANCH  18  33
BRANCH  17  36
HETATM   36  O3  UNL     1      -3.713  15.478  20.976  1.00  0.00    -0.395 OA
HETATM   37  H33 UNL     1      -2.922  15.549  21.539  1.00  0.00     0.210 HD
ENDBRANCH  17  36
TORSDOF 6
ENDMDL
