MODEL 1
REMARK minimizedAffinity -8.63932896
REMARK CNNscore 0.682852149
REMARK CNNaffinity 7.47234917
REMARK  19 active torsions:
REMARK  status: ('A' for Active; 'I' for Inactive)
REMARK    1  A    between atoms: C14_15  and  O2_16 
REMARK    2  A    between atoms: C14_15  and  C15_17 
REMARK    3  A    between atoms: C15_17  and  C16_19 
REMARK    4  A    between atoms: C16_19  and  O4_20 
REMARK    5  A    between atoms: O4_20  and  C17_21 
REMARK    6  A    between atoms: C17_21  and  C18_23 
REMARK    7  A    between atoms: C18_23  and  C19_24 
REMARK    8  A    between atoms: C19_24  and  C20_25 
REMARK       I    between atoms: C20_25  and  N1_27 
REMARK    9  A    between atoms: N1_27  and  C21_28 
REMARK   10  A    between atoms: C21_28  and  C22_29 
REMARK   11  A    between atoms: C22_29  and  C23_30 
REMARK   12  A    between atoms: C23_30  and  C24_31 
REMARK   13  A    between atoms: C24_31  and  C25_32 
REMARK   14  A    between atoms: C25_32  and  C26_33 
REMARK       I    between atoms: C26_33  and  N2_35 
REMARK   15  A    between atoms: N2_35  and  C27_36 
REMARK   16  A    between atoms: C27_36  and  C28_37 
REMARK   17  A    between atoms: C28_37  and  C29_38 
REMARK   18  A    between atoms: C32_41  and  O8_42 
REMARK   19  A    between atoms: C33_43  and  O9_44 
ROOT
HETATM    1  C17 UNL     1      -2.527  49.380 -15.129  1.00  0.00     0.259 C 
HETATM    2  O5  UNL     1      -2.946  50.489 -15.429  1.00  0.00    -0.265 OA
ENDROOT
BRANCH   1   3
HETATM    3  O4  UNL     1      -2.886  48.219 -15.736  1.00  0.00    -0.314 OA
BRANCH   3   4
HETATM    4  C16 UNL     1      -2.166  47.899 -16.911  1.00  0.00     0.260 C 
BRANCH   4   5
HETATM    5  C15 UNL     1      -2.677  48.327 -18.288  1.00  0.00     0.185 C 
HETATM    6  O3  UNL     1      -3.779  47.906 -18.685  1.00  0.00    -0.292 OA
BRANCH   5   7
HETATM    7  C14 UNL     1      -1.798  49.139 -19.284  1.00  0.00     0.128 C 
HETATM    8  C13 UNL     1      -0.810  48.295 -20.080  1.00  0.00     0.047 C 
HETATM    9  C12 UNL     1      -1.468  48.027 -21.427  1.00  0.00     0.009 C 
HETATM   10  C11 UNL     1      -2.610  49.050 -21.595  1.00  0.00     0.002 C 
HETATM   11  C10 UNL     1      -2.540  49.841 -22.916  1.00  0.00    -0.004 C 
HETATM   12  C35 UNL     1      -2.563  49.989 -20.354  1.00  0.00    -0.002 C 
HETATM   13  C9  UNL     1      -2.775  48.955 -24.143  1.00  0.00     0.010 C 
HETATM   14  C39 UNL     1      -1.198  50.603 -23.071  1.00  0.00     0.002 C 
HETATM   15  C8  UNL     1      -2.832  49.807 -25.408  1.00  0.00     0.035 C 
HETATM   16  C7  UNL     1      -1.593  50.657 -25.574  1.00  0.00    -0.068 C 
HETATM   17  C2  UNL     1      -1.153  51.500 -24.365  1.00  0.00    -0.016 C 
HETATM   18  C6  UNL     1      -0.942  50.648 -26.749  1.00  0.00     0.053 C 
HETATM   19  C1  UNL     1      -2.083  52.727 -24.253  1.00  0.00     0.020 C 
HETATM   20  C3  UNL     1       0.316  51.983 -24.571  1.00  0.00     0.022 C 
HETATM   21  C4  UNL     1       0.586  52.545 -25.959  1.00  0.00     0.084 C 
HETATM   22  C5  UNL     1       0.210  51.542 -27.018  1.00  0.00     0.149 C 
HETATM   23  O1  UNL     1       0.768  51.496 -28.110  1.00  0.00    -0.293 OA
HETATM   24  C38 UNL     1      -0.781  51.300 -21.756  1.00  0.00     0.007 C 
HETATM   25  C37 UNL     1      -1.889  51.356 -20.711  1.00  0.00     0.013 C 
HETATM   26  C36 UNL     1      -3.991  50.364 -19.890  1.00  0.00     0.019 C 
BRANCH   7  27
HETATM   27  O2  UNL     1      -1.007  50.010 -18.447  1.00  0.00    -0.381 OA
HETATM   28  H19 UNL     1      -1.502  50.108 -17.604  1.00  0.00     0.211 HD
ENDBRANCH   7  27
ENDBRANCH   5   7
ENDBRANCH   4   5
ENDBRANCH   3   4
ENDBRANCH   1   3
BRANCH   1  29
HETATM   29  C18 UNL     1      -1.495  49.099 -14.065  1.00  0.00     0.120 C 
BRANCH  29  30
HETATM   30  C19 UNL     1      -2.059  49.358 -12.675  1.00  0.00     0.112 C 
BRANCH  30  31
HETATM   31  C20 UNL     1      -2.129  50.840 -12.368  1.00  0.00     0.217 C 
HETATM   32  O6  UNL     1      -1.146  51.519 -12.092  1.00  0.00    -0.274 OA
HETATM   33  N1  UNL     1      -3.410  51.334 -12.428  1.00  0.00    -0.361 N 
HETATM   34  H26 UNL     1      -4.094  50.778 -12.944  1.00  0.00     0.162 HD
BRANCH  33  35
HETATM   35  C21 UNL     1      -3.710  52.728 -12.201  1.00  0.00     0.122 C 
BRANCH  35  36
HETATM   36  C22 UNL     1      -3.896  53.083 -10.728  1.00  0.00     0.020 C 
BRANCH  36  37
HETATM   37  C23 UNL     1      -3.282  54.405 -10.259  1.00  0.00     0.002 C 
BRANCH  37  38
HETATM   38  C24 UNL     1      -1.782  54.607 -10.502  1.00  0.00     0.009 C 
BRANCH  38  39
HETATM   39  C25 UNL     1      -0.913  55.221  -9.405  1.00  0.00     0.103 C 
BRANCH  39  40
HETATM   40  C26 UNL     1       0.551  54.813  -9.424  1.00  0.00     0.217 C 
HETATM   41  O7  UNL     1       1.098  54.170  -8.534  1.00  0.00    -0.274 OA
HETATM   42  N2  UNL     1       1.205  55.172 -10.580  1.00  0.00    -0.361 N 
HETATM   43  H37 UNL     1       0.669  55.508 -11.371  1.00  0.00     0.162 HD
BRANCH  42  44
HETATM   44  C27 UNL     1       2.602  54.836 -10.807  1.00  0.00     0.127 C 
BRANCH  44  45
HETATM   45  C28 UNL     1       3.533  56.055 -10.798  1.00  0.00     0.058 C 
BRANCH  45  46
HETATM   46  C29 UNL     1       4.250  56.243  -9.482  1.00  0.00    -0.054 A 
HETATM   47  C30 UNL     1       3.812  57.217  -8.568  1.00  0.00     0.010 A 
HETATM   48  C31 UNL     1       4.483  57.406  -7.359  1.00  0.00     0.040 A 
HETATM   49  C32 UNL     1       5.587  56.617  -7.065  1.00  0.00     0.098 A 
HETATM   50  C33 UNL     1       6.026  55.643  -7.957  1.00  0.00     0.099 A 
HETATM   51  C34 UNL     1       5.365  55.448  -9.165  1.00  0.00     0.046 A 
BRANCH  49  52
HETATM   52  O8  UNL     1       6.238  56.810  -5.881  1.00  0.00    -0.358 OA
HETATM   53  H44 UNL     1       6.984  56.178  -5.905  1.00  0.00     0.217 HD
ENDBRANCH  49  52
BRANCH  50  54
HETATM   54  O9  UNL     1       7.116  54.897  -7.603  1.00  0.00    -0.358 OA
HETATM   55  H45 UNL     1       7.252  54.216  -8.286  1.00  0.00     0.217 HD
ENDBRANCH  50  54
ENDBRANCH  45  46
ENDBRANCH  44  45
ENDBRANCH  42  44
ENDBRANCH  39  40
ENDBRANCH  38  39
ENDBRANCH  37  38
ENDBRANCH  36  37
ENDBRANCH  35  36
ENDBRANCH  33  35
ENDBRANCH  30  31
ENDBRANCH  29  30
ENDBRANCH   1  29
TORSDOF 19
ENDMDL
MODEL 2
REMARK minimizedAffinity -8.38161278
REMARK CNNscore 0.644663751
REMARK CNNaffinity 7.19015121
REMARK  19 active torsions:
REMARK  status: ('A' for Active; 'I' for Inactive)
REMARK    1  A    between atoms: C14_15  and  O2_16 
REMARK    2  A    between atoms: C14_15  and  C15_17 
REMARK    3  A    between atoms: C15_17  and  C16_19 
REMARK    4  A    between atoms: C16_19  and  O4_20 
REMARK    5  A    between atoms: O4_20  and  C17_21 
REMARK    6  A    between atoms: C17_21  and  C18_23 
REMARK    7  A    between atoms: C18_23  and  C19_24 
REMARK    8  A    between atoms: C19_24  and  C20_25 
REMARK       I    between atoms: C20_25  and  N1_27 
REMARK    9  A    between atoms: N1_27  and  C21_28 
REMARK   10  A    between atoms: C21_28  and  C22_29 
REMARK   11  A    between atoms: C22_29  and  C23_30 
REMARK   12  A    between atoms: C23_30  and  C24_31 
REMARK   13  A    between atoms: C24_31  and  C25_32 
REMARK   14  A    between atoms: C25_32  and  C26_33 
REMARK       I    between atoms: C26_33  and  N2_35 
REMARK   15  A    between atoms: N2_35  and  C27_36 
REMARK   16  A    between atoms: C27_36  and  C28_37 
REMARK   17  A    between atoms: C28_37  and  C29_38 
REMARK   18  A    between atoms: C32_41  and  O8_42 
REMARK   19  A    between atoms: C33_43  and  O9_44 
ROOT
HETATM    1  C17 UNL     1      -5.044  48.140 -28.397  1.00  0.00     0.259 C 
HETATM    2  O5  UNL     1      -4.615  48.480 -29.490  1.00  0.00    -0.265 OA
ENDROOT
BRANCH   1   3
HETATM    3  O4  UNL     1      -4.334  48.160 -27.239  1.00  0.00    -0.314 OA
BRANCH   3   4
HETATM    4  C16 UNL     1      -3.206  49.013 -27.231  1.00  0.00     0.260 C 
BRANCH   4   5
HETATM    5  C15 UNL     1      -3.333  50.481 -26.819  1.00  0.00     0.185 C 
HETATM    6  O3  UNL     1      -3.181  51.368 -27.677  1.00  0.00    -0.292 OA
BRANCH   5   7
HETATM    7  C14 UNL     1      -3.483  50.916 -25.331  1.00  0.00     0.128 C 
HETATM    8  C13 UNL     1      -4.568  50.169 -24.565  1.00  0.00     0.047 C 
HETATM    9  C12 UNL     1      -3.861  49.057 -23.802  1.00  0.00     0.009 C 
HETATM   10  C11 UNL     1      -2.360  49.408 -23.759  1.00  0.00     0.002 C 
HETATM   11  C10 UNL     1      -1.764  49.393 -22.337  1.00  0.00    -0.004 C 
HETATM   12  C35 UNL     1      -2.200  50.799 -24.440  1.00  0.00    -0.002 C 
HETATM   13  C9  UNL     1      -1.742  47.989 -21.725  1.00  0.00     0.010 C 
HETATM   14  C39 UNL     1      -2.505  50.367 -21.383  1.00  0.00     0.002 C 
HETATM   15  C8  UNL     1      -1.019  48.010 -20.380  1.00  0.00     0.035 C 
HETATM   16  C7  UNL     1      -1.627  49.014 -19.428  1.00  0.00    -0.068 C 
HETATM   17  C2  UNL     1      -1.842  50.443 -19.956  1.00  0.00    -0.016 C 
HETATM   18  C6  UNL     1      -1.944  48.629 -18.180  1.00  0.00     0.053 C 
HETATM   19  C1  UNL     1      -0.480  51.168 -19.986  1.00  0.00     0.020 C 
HETATM   20  C3  UNL     1      -2.815  51.210 -19.008  1.00  0.00     0.022 C 
HETATM   21  C4  UNL     1      -2.487  51.047 -17.531  1.00  0.00     0.084 C 
HETATM   22  C5  UNL     1      -2.435  49.587 -17.161  1.00  0.00     0.149 C 
HETATM   23  O1  UNL     1      -2.707  49.184 -16.034  1.00  0.00    -0.293 OA
HETATM   24  C38 UNL     1      -2.792  51.725 -22.063  1.00  0.00     0.007 C 
HETATM   25  C37 UNL     1      -2.037  51.931 -23.371  1.00  0.00     0.013 C 
HETATM   26  C36 UNL     1      -0.900  50.859 -25.277  1.00  0.00     0.019 C 
BRANCH   7  27
HETATM   27  O2  UNL     1      -3.905  52.295 -25.394  1.00  0.00    -0.381 OA
HETATM   28  H19 UNL     1      -3.611  52.635 -26.267  1.00  0.00     0.211 HD
ENDBRANCH   7  27
ENDBRANCH   5   7
ENDBRANCH   4   5
ENDBRANCH   3   4
ENDBRANCH   1   3
BRANCH   1  29
HETATM   29  C18 UNL     1      -6.456  47.688 -28.119  1.00  0.00     0.120 C 
BRANCH  29  30
HETATM   30  C19 UNL     1      -7.410  48.186 -29.195  1.00  0.00     0.112 C 
BRANCH  30  31
HETATM   31  C20 UNL     1      -8.052  47.038 -29.947  1.00  0.00     0.217 C 
HETATM   32  O6  UNL     1      -7.415  46.226 -30.609  1.00  0.00    -0.274 OA
HETATM   33  N1  UNL     1      -9.419  47.011 -29.809  1.00  0.00    -0.361 N 
HETATM   34  H26 UNL     1      -9.812  47.528 -29.020  1.00  0.00     0.162 HD
BRANCH  33  35
HETATM   35  C21 UNL     1     -10.235  45.986 -30.414  1.00  0.00     0.122 C 
BRANCH  35  36
HETATM   36  C22 UNL     1      -9.528  45.216 -31.527  1.00  0.00     0.020 C 
BRANCH  36  37
HETATM   37  C23 UNL     1     -10.331  44.105 -32.208  1.00  0.00     0.002 C 
BRANCH  37  38
HETATM   38  C24 UNL     1     -10.368  44.105 -33.741  1.00  0.00     0.009 C 
BRANCH  38  39
HETATM   39  C25 UNL     1      -9.197  44.694 -34.526  1.00  0.00     0.103 C 
BRANCH  39  40
HETATM   40  C26 UNL     1      -9.572  45.478 -35.773  1.00  0.00     0.217 C 
HETATM   41  O7  UNL     1      -9.707  46.697 -35.805  1.00  0.00    -0.274 OA
HETATM   42  N2  UNL     1      -9.679  44.697 -36.901  1.00  0.00    -0.361 N 
HETATM   43  H37 UNL     1      -9.352  43.738 -36.875  1.00  0.00     0.162 HD
BRANCH  42  44
HETATM   44  C27 UNL     1      -9.990  45.267 -38.202  1.00  0.00     0.127 C 
BRANCH  44  45
HETATM   45  C28 UNL     1     -11.494  45.315 -38.504  1.00  0.00     0.058 C 
BRANCH  45  46
HETATM   46  C29 UNL     1     -12.022  46.721 -38.660  1.00  0.00    -0.054 A 
HETATM   47  C30 UNL     1     -11.214  47.725 -39.221  1.00  0.00     0.010 A 
HETATM   48  C31 UNL     1     -11.693  49.029 -39.349  1.00  0.00     0.040 A 
HETATM   49  C32 UNL     1     -12.980  49.327 -38.922  1.00  0.00     0.098 A 
HETATM   50  C33 UNL     1     -13.794  48.339 -38.373  1.00  0.00     0.099 A 
HETATM   51  C34 UNL     1     -13.326  47.037 -38.240  1.00  0.00     0.046 A 
BRANCH  49  52
HETATM   52  O8  UNL     1     -13.439  50.605 -39.051  1.00  0.00    -0.358 OA
HETATM   53  H44 UNL     1     -14.337  50.584 -38.664  1.00  0.00     0.217 HD
ENDBRANCH  49  52
BRANCH  50  54
HETATM   54  O9  UNL     1     -15.053  48.698 -37.978  1.00  0.00    -0.358 OA
HETATM   55  H45 UNL     1     -15.520  47.893 -37.690  1.00  0.00     0.217 HD
ENDBRANCH  50  54
ENDBRANCH  45  46
ENDBRANCH  44  45
ENDBRANCH  42  44
ENDBRANCH  39  40
ENDBRANCH  38  39
ENDBRANCH  37  38
ENDBRANCH  36  37
ENDBRANCH  35  36
ENDBRANCH  33  35
ENDBRANCH  30  31
ENDBRANCH  29  30
ENDBRANCH   1  29
TORSDOF 19
ENDMDL
MODEL 3
REMARK minimizedAffinity -8.50216293
REMARK CNNscore 0.633577406
REMARK CNNaffinity 7.25925684
REMARK  19 active torsions:
REMARK  status: ('A' for Active; 'I' for Inactive)
REMARK    1  A    between atoms: C14_15  and  O2_16 
REMARK    2  A    between atoms: C14_15  and  C15_17 
REMARK    3  A    between atoms: C15_17  and  C16_19 
REMARK    4  A    between atoms: C16_19  and  O4_20 
REMARK    5  A    between atoms: O4_20  and  C17_21 
REMARK    6  A    between atoms: C17_21  and  C18_23 
REMARK    7  A    between atoms: C18_23  and  C19_24 
REMARK    8  A    between atoms: C19_24  and  C20_25 
REMARK       I    between atoms: C20_25  and  N1_27 
REMARK    9  A    between atoms: N1_27  and  C21_28 
REMARK   10  A    between atoms: C21_28  and  C22_29 
REMARK   11  A    between atoms: C22_29  and  C23_30 
REMARK   12  A    between atoms: C23_30  and  C24_31 
REMARK   13  A    between atoms: C24_31  and  C25_32 
REMARK   14  A    between atoms: C25_32  and  C26_33 
REMARK       I    between atoms: C26_33  and  N2_35 
REMARK   15  A    between atoms: N2_35  and  C27_36 
REMARK   16  A    between atoms: C27_36  and  C28_37 
REMARK   17  A    between atoms: C28_37  and  C29_38 
REMARK   18  A    between atoms: C32_41  and  O8_42 
REMARK   19  A    between atoms: C33_43  and  O9_44 
ROOT
HETATM    1  C17 UNL     1      -5.798  47.842 -28.070  1.00  0.00     0.259 C 
HETATM    2  O5  UNL     1      -6.157  47.520 -26.947  1.00  0.00    -0.265 OA
ENDROOT
BRANCH   1   3
HETATM    3  O4  UNL     1      -4.535  48.210 -28.410  1.00  0.00    -0.314 OA
BRANCH   3   4
HETATM    4  C16 UNL     1      -3.698  48.584 -27.333  1.00  0.00     0.260 C 
BRANCH   4   5
HETATM    5  C15 UNL     1      -3.449  50.058 -27.006  1.00  0.00     0.185 C 
HETATM    6  O3  UNL     1      -3.048  50.820 -27.903  1.00  0.00    -0.292 OA
BRANCH   5   7
HETATM    7  C14 UNL     1      -3.517  50.608 -25.551  1.00  0.00     0.128 C 
HETATM    8  C13 UNL     1      -4.617  49.988 -24.697  1.00  0.00     0.047 C 
HETATM    9  C12 UNL     1      -3.951  48.892 -23.876  1.00  0.00     0.009 C 
HETATM   10  C11 UNL     1      -2.431  49.151 -23.906  1.00  0.00     0.002 C 
HETATM   11  C10 UNL     1      -1.786  49.202 -22.507  1.00  0.00    -0.004 C 
HETATM   12  C35 UNL     1      -2.213  50.475 -24.695  1.00  0.00    -0.002 C 
HETATM   13  C9  UNL     1      -1.826  47.847 -21.793  1.00  0.00     0.010 C 
HETATM   14  C39 UNL     1      -2.431  50.287 -21.605  1.00  0.00     0.002 C 
HETATM   15  C8  UNL     1      -1.055  47.920 -20.477  1.00  0.00     0.035 C 
HETATM   16  C7  UNL     1      -1.566  49.027 -19.584  1.00  0.00    -0.068 C 
HETATM   17  C2  UNL     1      -1.713  50.424 -20.210  1.00  0.00    -0.016 C 
HETATM   18  C6  UNL     1      -1.860  48.754 -18.301  1.00  0.00     0.053 C 
HETATM   19  C1  UNL     1      -0.312  51.059 -20.338  1.00  0.00     0.020 C 
HETATM   20  C3  UNL     1      -2.603  51.318 -19.292  1.00  0.00     0.022 C 
HETATM   21  C4  UNL     1      -2.232  51.242 -17.818  1.00  0.00     0.084 C 
HETATM   22  C5  UNL     1      -2.255  49.813 -17.341  1.00  0.00     0.149 C 
HETATM   23  O1  UNL     1      -2.509  49.510 -16.179  1.00  0.00    -0.293 OA
HETATM   24  C38 UNL     1      -2.660  51.607 -22.375  1.00  0.00     0.007 C 
HETATM   25  C37 UNL     1      -1.943  51.670 -23.719  1.00  0.00     0.013 C 
HETATM   26  C36 UNL     1      -0.943  50.393 -25.574  1.00  0.00     0.019 C 
BRANCH   7  27
HETATM   27  O2  UNL     1      -3.858  52.003 -25.703  1.00  0.00    -0.381 OA
HETATM   28  H19 UNL     1      -3.575  52.259 -26.608  1.00  0.00     0.211 HD
ENDBRANCH   7  27
ENDBRANCH   5   7
ENDBRANCH   4   5
ENDBRANCH   3   4
ENDBRANCH   1   3
BRANCH   1  29
HETATM   29  C18 UNL     1      -6.674  47.839 -29.298  1.00  0.00     0.120 C 
BRANCH  29  30
HETATM   30  C19 UNL     1      -6.158  46.851 -30.334  1.00  0.00     0.112 C 
BRANCH  30  31
HETATM   31  C20 UNL     1      -7.157  45.743 -30.595  1.00  0.00     0.217 C 
HETATM   32  O6  UNL     1      -7.023  44.910 -31.485  1.00  0.00    -0.274 OA
HETATM   33  N1  UNL     1      -8.227  45.779 -29.734  1.00  0.00    -0.361 N 
HETATM   34  H26 UNL     1      -8.102  46.305 -28.867  1.00  0.00     0.162 HD
BRANCH  33  35
HETATM   35  C21 UNL     1      -9.287  44.800 -29.779  1.00  0.00     0.122 C 
BRANCH  35  36
HETATM   36  C22 UNL     1     -10.661  45.367 -29.432  1.00  0.00     0.020 C 
BRANCH  36  37
HETATM   37  C23 UNL     1     -11.043  46.692 -30.097  1.00  0.00     0.002 C 
BRANCH  37  38
HETATM   38  C24 UNL     1     -11.839  47.696 -29.255  1.00  0.00     0.009 C 
BRANCH  38  39
HETATM   39  C25 UNL     1     -13.143  47.259 -28.588  1.00  0.00     0.103 C 
BRANCH  39  40
HETATM   40  C26 UNL     1     -13.143  47.290 -27.069  1.00  0.00     0.217 C 
HETATM   41  O7  UNL     1     -12.509  48.097 -26.396  1.00  0.00    -0.274 OA
HETATM   42  N2  UNL     1     -13.988  46.364 -26.501  1.00  0.00    -0.361 N 
HETATM   43  H37 UNL     1     -14.648  45.867 -27.089  1.00  0.00     0.162 HD
BRANCH  42  44
HETATM   44  C27 UNL     1     -14.159  46.263 -25.061  1.00  0.00     0.127 C 
BRANCH  44  45
HETATM   45  C28 UNL     1     -15.123  47.310 -24.486  1.00  0.00     0.058 C 
BRANCH  45  46
HETATM   46  C29 UNL     1     -16.444  46.723 -24.049  1.00  0.00    -0.054 A 
HETATM   47  C30 UNL     1     -16.520  45.936 -22.887  1.00  0.00     0.010 A 
HETATM   48  C31 UNL     1     -17.736  45.376 -22.492  1.00  0.00     0.040 A 
HETATM   49  C32 UNL     1     -18.873  45.609 -23.254  1.00  0.00     0.098 A 
HETATM   50  C33 UNL     1     -18.812  46.395 -24.402  1.00  0.00     0.099 A 
HETATM   51  C34 UNL     1     -17.605  46.956 -24.805  1.00  0.00     0.046 A 
BRANCH  49  52
HETATM   52  O8  UNL     1     -20.056  45.057 -22.859  1.00  0.00    -0.358 OA
HETATM   53  H44 UNL     1     -20.695  45.326 -23.549  1.00  0.00     0.217 HD
ENDBRANCH  49  52
BRANCH  50  54
HETATM   54  O9  UNL     1     -19.969  46.591 -25.103  1.00  0.00    -0.358 OA
HETATM   55  H45 UNL     1     -19.783  47.216 -25.827  1.00  0.00     0.217 HD
ENDBRANCH  50  54
ENDBRANCH  45  46
ENDBRANCH  44  45
ENDBRANCH  42  44
ENDBRANCH  39  40
ENDBRANCH  38  39
ENDBRANCH  37  38
ENDBRANCH  36  37
ENDBRANCH  35  36
ENDBRANCH  33  35
ENDBRANCH  30  31
ENDBRANCH  29  30
ENDBRANCH   1  29
TORSDOF 19
ENDMDL
MODEL 4
REMARK minimizedAffinity -9.01960659
REMARK CNNscore 0.523830354
REMARK CNNaffinity 7.17078257
REMARK  19 active torsions:
REMARK  status: ('A' for Active; 'I' for Inactive)
REMARK    1  A    between atoms: C14_15  and  O2_16 
REMARK    2  A    between atoms: C14_15  and  C15_17 
REMARK    3  A    between atoms: C15_17  and  C16_19 
REMARK    4  A    between atoms: C16_19  and  O4_20 
REMARK    5  A    between atoms: O4_20  and  C17_21 
REMARK    6  A    between atoms: C17_21  and  C18_23 
REMARK    7  A    between atoms: C18_23  and  C19_24 
REMARK    8  A    between atoms: C19_24  and  C20_25 
REMARK       I    between atoms: C20_25  and  N1_27 
REMARK    9  A    between atoms: N1_27  and  C21_28 
REMARK   10  A    between atoms: C21_28  and  C22_29 
REMARK   11  A    between atoms: C22_29  and  C23_30 
REMARK   12  A    between atoms: C23_30  and  C24_31 
REMARK   13  A    between atoms: C24_31  and  C25_32 
REMARK   14  A    between atoms: C25_32  and  C26_33 
REMARK       I    between atoms: C26_33  and  N2_35 
REMARK   15  A    between atoms: N2_35  and  C27_36 
REMARK   16  A    between atoms: C27_36  and  C28_37 
REMARK   17  A    between atoms: C28_37  and  C29_38 
REMARK   18  A    between atoms: C32_41  and  O8_42 
REMARK   19  A    between atoms: C33_43  and  O9_44 
ROOT
HETATM    1  C17 UNL     1      -4.823  48.377 -29.022  1.00  0.00     0.259 C 
HETATM    2  O5  UNL     1      -4.925  48.878 -30.133  1.00  0.00    -0.265 OA
ENDROOT
BRANCH   1   3
HETATM    3  O4  UNL     1      -3.747  48.505 -28.203  1.00  0.00    -0.314 OA
BRANCH   3   4
HETATM    4  C16 UNL     1      -3.922  49.371 -27.098  1.00  0.00     0.260 C 
BRANCH   4   5
HETATM    5  C15 UNL     1      -3.386  50.804 -27.130  1.00  0.00     0.185 C 
HETATM    6  O3  UNL     1      -3.172  51.349 -28.228  1.00  0.00    -0.292 OA
BRANCH   5   7
HETATM    7  C14 UNL     1      -2.941  51.552 -25.839  1.00  0.00     0.128 C 
HETATM    8  C13 UNL     1      -3.969  51.528 -24.714  1.00  0.00     0.047 C 
HETATM    9  C12 UNL     1      -3.552  50.399 -23.781  1.00  0.00     0.009 C 
HETATM   10  C11 UNL     1      -2.081  50.059 -24.096  1.00  0.00     0.002 C 
HETATM   11  C10 UNL     1      -1.165  50.074 -22.856  1.00  0.00    -0.004 C 
HETATM   12  C35 UNL     1      -1.605  51.069 -25.181  1.00  0.00    -0.002 C 
HETATM   13  C9  UNL     1      -1.504  48.958 -21.863  1.00  0.00     0.010 C 
HETATM   14  C39 UNL     1      -1.187  51.445 -22.130  1.00  0.00     0.002 C 
HETATM   15  C8  UNL     1      -0.485  48.933 -20.727  1.00  0.00     0.035 C 
HETATM   16  C7  UNL     1      -0.378  50.272 -20.033  1.00  0.00    -0.068 C 
HETATM   17  C2  UNL     1      -0.176  51.510 -20.924  1.00  0.00    -0.016 C 
HETATM   18  C6  UNL     1      -0.457  50.326 -18.693  1.00  0.00     0.053 C 
HETATM   19  C1  UNL     1       1.292  51.543 -21.398  1.00  0.00     0.020 C 
HETATM   20  C3  UNL     1      -0.483  52.800 -20.102  1.00  0.00     0.022 C 
HETATM   21  C4  UNL     1       0.155  52.813 -18.721  1.00  0.00     0.084 C 
HETATM   22  C5  UNL     1      -0.246  51.587 -17.942  1.00  0.00     0.149 C 
HETATM   23  O1  UNL     1      -0.326  51.581 -16.717  1.00  0.00    -0.293 OA
HETATM   24  C38 UNL     1      -1.118  52.621 -23.129  1.00  0.00     0.007 C 
HETATM   25  C37 UNL     1      -0.737  52.206 -24.545  1.00  0.00     0.013 C 
HETATM   26  C36 UNL     1      -0.666  50.383 -26.202  1.00  0.00     0.019 C 
BRANCH   7  27
HETATM   27  O2  UNL     1      -2.812  52.933 -26.242  1.00  0.00    -0.381 OA
HETATM   28  H19 UNL     1      -2.666  52.925 -27.214  1.00  0.00     0.211 HD
ENDBRANCH   7  27
ENDBRANCH   5   7
ENDBRANCH   4   5
ENDBRANCH   3   4
ENDBRANCH   1   3
BRANCH   1  29
HETATM   29  C18 UNL     1      -5.894  47.568 -28.332  1.00  0.00     0.120 C 
BRANCH  29  30
HETATM   30  C19 UNL     1      -7.281  48.002 -28.781  1.00  0.00     0.112 C 
BRANCH  30  31
HETATM   31  C20 UNL     1      -8.344  47.594 -27.782  1.00  0.00     0.217 C 
HETATM   32  O6  UNL     1      -8.189  47.659 -26.567  1.00  0.00    -0.274 OA
HETATM   33  N1  UNL     1      -9.492  47.139 -28.385  1.00  0.00    -0.361 N 
HETATM   34  H26 UNL     1      -9.632  47.399 -29.363  1.00  0.00     0.162 HD
BRANCH  33  35
HETATM   35  C21 UNL     1     -10.649  46.725 -27.627  1.00  0.00     0.122 C 
BRANCH  35  36
HETATM   36  C22 UNL     1     -11.651  47.849 -27.373  1.00  0.00     0.020 C 
BRANCH  36  37
HETATM   37  C23 UNL     1     -13.087  47.606 -27.846  1.00  0.00     0.002 C 
BRANCH  37  38
HETATM   38  C24 UNL     1     -13.321  46.436 -28.808  1.00  0.00     0.009 C 
BRANCH  38  39
HETATM   39  C25 UNL     1     -14.503  45.495 -28.582  1.00  0.00     0.103 C 
BRANCH  39  40
HETATM   40  C26 UNL     1     -14.828  45.189 -27.129  1.00  0.00     0.217 C 
HETATM   41  O7  UNL     1     -14.110  44.524 -26.389  1.00  0.00    -0.274 OA
HETATM   42  N2  UNL     1     -15.983  45.792 -26.686  1.00  0.00    -0.361 N 
HETATM   43  H37 UNL     1     -16.427  46.499 -27.261  1.00  0.00     0.162 HD
BRANCH  42  44
HETATM   44  C27 UNL     1     -16.442  45.654 -25.313  1.00  0.00     0.127 C 
BRANCH  44  45
HETATM   45  C28 UNL     1     -17.938  45.946 -25.137  1.00  0.00     0.058 C 
BRANCH  45  46
HETATM   46  C29 UNL     1     -18.427  45.704 -23.729  1.00  0.00    -0.054 A 
HETATM   47  C30 UNL     1     -17.869  46.414 -22.652  1.00  0.00     0.010 A 
HETATM   48  C31 UNL     1     -18.306  46.178 -21.348  1.00  0.00     0.040 A 
HETATM   49  C32 UNL     1     -19.303  45.239 -21.124  1.00  0.00     0.098 A 
HETATM   50  C33 UNL     1     -19.871  44.535 -22.183  1.00  0.00     0.099 A 
HETATM   51  C34 UNL     1     -19.441  44.762 -23.486  1.00  0.00     0.046 A 
BRANCH  49  52
HETATM   52  O8  UNL     1     -19.723  45.015 -19.845  1.00  0.00    -0.358 OA
HETATM   53  H44 UNL     1     -20.393  44.307 -19.926  1.00  0.00     0.217 HD
ENDBRANCH  49  52
BRANCH  50  54
HETATM   54  O9  UNL     1     -20.852  43.629 -21.893  1.00  0.00    -0.358 OA
HETATM   55  H45 UNL     1     -21.199  43.279 -22.734  1.00  0.00     0.217 HD
ENDBRANCH  50  54
ENDBRANCH  45  46
ENDBRANCH  44  45
ENDBRANCH  42  44
ENDBRANCH  39  40
ENDBRANCH  38  39
ENDBRANCH  37  38
ENDBRANCH  36  37
ENDBRANCH  35  36
ENDBRANCH  33  35
ENDBRANCH  30  31
ENDBRANCH  29  30
ENDBRANCH   1  29
TORSDOF 19
ENDMDL
MODEL 5
REMARK minimizedAffinity -8.81778336
REMARK CNNscore 0.476515174
REMARK CNNaffinity 7.29117441
REMARK  19 active torsions:
REMARK  status: ('A' for Active; 'I' for Inactive)
REMARK    1  A    between atoms: C14_15  and  O2_16 
REMARK    2  A    between atoms: C14_15  and  C15_17 
REMARK    3  A    between atoms: C15_17  and  C16_19 
REMARK    4  A    between atoms: C16_19  and  O4_20 
REMARK    5  A    between atoms: O4_20  and  C17_21 
REMARK    6  A    between atoms: C17_21  and  C18_23 
REMARK    7  A    between atoms: C18_23  and  C19_24 
REMARK    8  A    between atoms: C19_24  and  C20_25 
REMARK       I    between atoms: C20_25  and  N1_27 
REMARK    9  A    between atoms: N1_27  and  C21_28 
REMARK   10  A    between atoms: C21_28  and  C22_29 
REMARK   11  A    between atoms: C22_29  and  C23_30 
REMARK   12  A    between atoms: C23_30  and  C24_31 
REMARK   13  A    between atoms: C24_31  and  C25_32 
REMARK   14  A    between atoms: C25_32  and  C26_33 
REMARK       I    between atoms: C26_33  and  N2_35 
REMARK   15  A    between atoms: N2_35  and  C27_36 
REMARK   16  A    between atoms: C27_36  and  C28_37 
REMARK   17  A    between atoms: C28_37  and  C29_38 
REMARK   18  A    between atoms: C32_41  and  O8_42 
REMARK   19  A    between atoms: C33_43  and  O9_44 
ROOT
HETATM    1  C17 UNL     1      -4.911  48.334 -28.971  1.00  0.00     0.259 C 
HETATM    2  O5  UNL     1      -4.935  48.784 -30.107  1.00  0.00    -0.265 OA
ENDROOT
BRANCH   1   3
HETATM    3  O4  UNL     1      -3.833  48.355 -28.145  1.00  0.00    -0.314 OA
BRANCH   3   4
HETATM    4  C16 UNL     1      -3.938  49.217 -27.029  1.00  0.00     0.260 C 
BRANCH   4   5
HETATM    5  C15 UNL     1      -3.429  50.659 -27.098  1.00  0.00     0.185 C 
HETATM    6  O3  UNL     1      -3.243  51.185 -28.211  1.00  0.00    -0.292 OA
BRANCH   5   7
HETATM    7  C14 UNL     1      -2.976  51.441 -25.831  1.00  0.00     0.128 C 
HETATM    8  C13 UNL     1      -3.991  51.435 -24.694  1.00  0.00     0.047 C 
HETATM    9  C12 UNL     1      -3.554  50.333 -23.739  1.00  0.00     0.009 C 
HETATM   10  C11 UNL     1      -2.084  49.997 -24.062  1.00  0.00     0.002 C 
HETATM   11  C10 UNL     1      -1.155  50.049 -22.833  1.00  0.00    -0.004 C 
HETATM   12  C35 UNL     1      -1.629  50.985 -25.176  1.00  0.00    -0.002 C 
HETATM   13  C9  UNL     1      -1.474  48.955 -21.810  1.00  0.00     0.010 C 
HETATM   14  C39 UNL     1      -1.180  51.437 -22.139  1.00  0.00     0.002 C 
HETATM   15  C8  UNL     1      -0.441  48.965 -20.686  1.00  0.00     0.035 C 
HETATM   16  C7  UNL     1      -0.339  50.321 -20.025  1.00  0.00    -0.068 C 
HETATM   17  C2  UNL     1      -0.158  51.539 -20.947  1.00  0.00    -0.016 C 
HETATM   18  C6  UNL     1      -0.403  50.406 -18.685  1.00  0.00     0.053 C 
HETATM   19  C1  UNL     1       1.305  51.574 -21.438  1.00  0.00     0.020 C 
HETATM   20  C3  UNL     1      -0.466  52.846 -20.153  1.00  0.00     0.022 C 
HETATM   21  C4  UNL     1       0.187  52.897 -18.779  1.00  0.00     0.084 C 
HETATM   22  C5  UNL     1      -0.195  51.687 -17.968  1.00  0.00     0.149 C 
HETATM   23  O1  UNL     1      -0.261  51.709 -16.742  1.00  0.00    -0.293 OA
HETATM   24  C38 UNL     1      -1.132  52.590 -23.167  1.00  0.00     0.007 C 
HETATM   25  C37 UNL     1      -0.763  52.144 -24.577  1.00  0.00     0.013 C 
HETATM   26  C36 UNL     1      -0.695  50.283 -26.191  1.00  0.00     0.019 C 
BRANCH   7  27
HETATM   27  O2  UNL     1      -2.863  52.813 -26.268  1.00  0.00    -0.381 OA
HETATM   28  H19 UNL     1      -2.728  52.783 -27.241  1.00  0.00     0.211 HD
ENDBRANCH   7  27
ENDBRANCH   5   7
ENDBRANCH   4   5
ENDBRANCH   3   4
ENDBRANCH   1   3
BRANCH   1  29
HETATM   29  C18 UNL     1      -6.088  47.719 -28.254  1.00  0.00     0.120 C 
BRANCH  29  30
HETATM   30  C19 UNL     1      -7.398  48.098 -28.930  1.00  0.00     0.112 C 
BRANCH  30  31
HETATM   31  C20 UNL     1      -8.479  47.070 -28.668  1.00  0.00     0.217 C 
HETATM   32  O6  UNL     1      -8.342  45.873 -28.897  1.00  0.00    -0.274 OA
HETATM   33  N1  UNL     1      -9.626  47.625 -28.153  1.00  0.00    -0.361 N 
HETATM   34  H26 UNL     1      -9.539  48.550 -27.729  1.00  0.00     0.162 HD
BRANCH  33  35
HETATM   35  C21 UNL     1     -10.776  46.828 -27.798  1.00  0.00     0.122 C 
BRANCH  35  36
HETATM   36  C22 UNL     1     -10.780  46.371 -26.342  1.00  0.00     0.020 C 
BRANCH  36  37
HETATM   37  C23 UNL     1     -11.953  46.845 -25.478  1.00  0.00     0.002 C 
BRANCH  37  38
HETATM   38  C24 UNL     1     -12.369  45.947 -24.307  1.00  0.00     0.009 C 
BRANCH  38  39
HETATM   39  C25 UNL     1     -12.705  46.575 -22.955  1.00  0.00     0.103 C 
BRANCH  39  40
HETATM   40  C26 UNL     1     -14.148  47.017 -22.779  1.00  0.00     0.217 C 
HETATM   41  O7  UNL     1     -14.741  47.757 -23.558  1.00  0.00    -0.274 OA
HETATM   42  N2  UNL     1     -14.767  46.450 -21.689  1.00  0.00    -0.361 N 
HETATM   43  H37 UNL     1     -14.313  45.687 -21.201  1.00  0.00     0.162 HD
BRANCH  42  44
HETATM   44  C27 UNL     1     -16.161  46.716 -21.374  1.00  0.00     0.127 C 
BRANCH  44  45
HETATM   45  C28 UNL     1     -17.094  45.539 -21.687  1.00  0.00     0.058 C 
BRANCH  45  46
HETATM   46  C29 UNL     1     -17.563  45.520 -23.122  1.00  0.00    -0.054 A 
HETATM   47  C30 UNL     1     -16.769  44.930 -24.120  1.00  0.00     0.010 A 
HETATM   48  C31 UNL     1     -17.191  44.928 -25.451  1.00  0.00     0.040 A 
HETATM   49  C32 UNL     1     -18.408  45.509 -25.779  1.00  0.00     0.098 A 
HETATM   50  C33 UNL     1     -19.210  46.088 -24.798  1.00  0.00     0.099 A 
HETATM   51  C34 UNL     1     -18.797  46.097 -23.470  1.00  0.00     0.046 A 
BRANCH  49  52
HETATM   52  O8  UNL     1     -18.812  45.502 -27.082  1.00  0.00    -0.358 OA
HETATM   53  H44 UNL     1     -19.664  45.983 -27.079  1.00  0.00     0.217 HD
ENDBRANCH  49  52
BRANCH  50  54
HETATM   54  O9  UNL     1     -20.399  46.637 -25.188  1.00  0.00    -0.358 OA
HETATM   55  H45 UNL     1     -20.874  46.930 -24.389  1.00  0.00     0.217 HD
ENDBRANCH  50  54
ENDBRANCH  45  46
ENDBRANCH  44  45
ENDBRANCH  42  44
ENDBRANCH  39  40
ENDBRANCH  38  39
ENDBRANCH  37  38
ENDBRANCH  36  37
ENDBRANCH  35  36
ENDBRANCH  33  35
ENDBRANCH  30  31
ENDBRANCH  29  30
ENDBRANCH   1  29
TORSDOF 19
ENDMDL
MODEL 6
REMARK minimizedAffinity -9.05846119
REMARK CNNscore 0.424150646
REMARK CNNaffinity 6.86764097
REMARK  19 active torsions:
REMARK  status: ('A' for Active; 'I' for Inactive)
REMARK    1  A    between atoms: C14_15  and  O2_16 
REMARK    2  A    between atoms: C14_15  and  C15_17 
REMARK    3  A    between atoms: C15_17  and  C16_19 
REMARK    4  A    between atoms: C16_19  and  O4_20 
REMARK    5  A    between atoms: O4_20  and  C17_21 
REMARK    6  A    between atoms: C17_21  and  C18_23 
REMARK    7  A    between atoms: C18_23  and  C19_24 
REMARK    8  A    between atoms: C19_24  and  C20_25 
REMARK       I    between atoms: C20_25  and  N1_27 
REMARK    9  A    between atoms: N1_27  and  C21_28 
REMARK   10  A    between atoms: C21_28  and  C22_29 
REMARK   11  A    between atoms: C22_29  and  C23_30 
REMARK   12  A    between atoms: C23_30  and  C24_31 
REMARK   13  A    between atoms: C24_31  and  C25_32 
REMARK   14  A    between atoms: C25_32  and  C26_33 
REMARK       I    between atoms: C26_33  and  N2_35 
REMARK   15  A    between atoms: N2_35  and  C27_36 
REMARK   16  A    between atoms: C27_36  and  C28_37 
REMARK   17  A    between atoms: C28_37  and  C29_38 
REMARK   18  A    between atoms: C32_41  and  O8_42 
REMARK   19  A    between atoms: C33_43  and  O9_44 
ROOT
HETATM    1  C17 UNL     1      -7.905  47.270 -19.960  1.00  0.00     0.259 C 
HETATM    2  O5  UNL     1      -8.010  47.331 -21.176  1.00  0.00    -0.265 OA
ENDROOT
BRANCH   1   3
HETATM    3  O4  UNL     1      -6.731  47.291 -19.276  1.00  0.00    -0.314 OA
BRANCH   3   4
HETATM    4  C16 UNL     1      -5.562  47.260 -20.071  1.00  0.00     0.260 C 
BRANCH   4   5
HETATM    5  C15 UNL     1      -4.178  47.441 -19.443  1.00  0.00     0.185 C 
HETATM    6  O3  UNL     1      -3.940  46.924 -18.337  1.00  0.00    -0.292 OA
BRANCH   5   7
HETATM    7  C14 UNL     1      -3.106  48.388 -20.058  1.00  0.00     0.128 C 
HETATM    8  C13 UNL     1      -1.898  47.670 -20.647  1.00  0.00     0.047 C 
HETATM    9  C12 UNL     1      -2.154  47.565 -22.144  1.00  0.00     0.009 C 
HETATM   10  C11 UNL     1      -3.259  48.581 -22.496  1.00  0.00     0.002 C 
HETATM   11  C10 UNL     1      -2.877  49.535 -23.645  1.00  0.00    -0.004 C 
HETATM   12  C35 UNL     1      -3.597  49.355 -21.188  1.00  0.00    -0.002 C 
HETATM   13  C9  UNL     1      -2.727  48.809 -24.985  1.00  0.00     0.010 C 
HETATM   14  C39 UNL     1      -1.584  50.334 -23.336  1.00  0.00     0.002 C 
HETATM   15  C8  UNL     1      -2.485  49.814 -26.108  1.00  0.00     0.035 C 
HETATM   16  C7  UNL     1      -1.293  50.700 -25.827  1.00  0.00    -0.068 C 
HETATM   17  C2  UNL     1      -1.239  51.389 -24.453  1.00  0.00    -0.016 C 
HETATM   18  C6  UNL     1      -0.349  50.852 -26.772  1.00  0.00     0.053 C 
HETATM   19  C1  UNL     1      -2.226  52.575 -24.456  1.00  0.00     0.020 C 
HETATM   20  C3  UNL     1       0.205  51.919 -24.191  1.00  0.00     0.022 C 
HETATM   21  C4  UNL     1       0.810  52.659 -25.375  1.00  0.00     0.084 C 
HETATM   22  C5  UNL     1       0.785  51.792 -26.607  1.00  0.00     0.149 C 
HETATM   23  O1  UNL     1       1.619  51.896 -27.503  1.00  0.00    -0.293 OA
HETATM   24  C38 UNL     1      -1.573  50.864 -21.884  1.00  0.00     0.007 C 
HETATM   25  C37 UNL     1      -2.923  50.768 -21.183  1.00  0.00     0.013 C 
HETATM   26  C36 UNL     1      -5.114  49.643 -21.091  1.00  0.00     0.019 C 
BRANCH   7  27
HETATM   27  O2  UNL     1      -2.616  49.160 -18.940  1.00  0.00    -0.381 OA
HETATM   28  H19 UNL     1      -3.323  49.141 -18.259  1.00  0.00     0.211 HD
ENDBRANCH   7  27
ENDBRANCH   5   7
ENDBRANCH   4   5
ENDBRANCH   3   4
ENDBRANCH   1   3
BRANCH   1  29
HETATM   29  C18 UNL     1      -9.057  47.212 -18.988  1.00  0.00     0.120 C 
BRANCH  29  30
HETATM   30  C19 UNL     1     -10.129  48.229 -19.351  1.00  0.00     0.112 C 
BRANCH  30  31
HETATM   31  C20 UNL     1     -11.522  47.663 -19.167  1.00  0.00     0.217 C 
HETATM   32  O6  UNL     1     -11.768  46.697 -18.453  1.00  0.00    -0.274 OA
HETATM   33  N1  UNL     1     -12.472  48.345 -19.888  1.00  0.00    -0.361 N 
HETATM   34  H26 UNL     1     -12.225  49.286 -20.200  1.00  0.00     0.162 HD
BRANCH  33  35
HETATM   35  C21 UNL     1     -13.873  47.999 -19.839  1.00  0.00     0.122 C 
BRANCH  35  36
HETATM   36  C22 UNL     1     -14.647  48.727 -18.744  1.00  0.00     0.020 C 
BRANCH  36  37
HETATM   37  C23 UNL     1     -15.999  48.128 -18.347  1.00  0.00     0.002 C 
BRANCH  37  38
HETATM   38  C24 UNL     1     -16.770  47.360 -19.427  1.00  0.00     0.009 C 
BRANCH  38  39
HETATM   39  C25 UNL     1     -18.297  47.322 -19.384  1.00  0.00     0.103 C 
BRANCH  39  40
HETATM   40  C26 UNL     1     -18.924  45.951 -19.578  1.00  0.00     0.217 C 
HETATM   41  O7  UNL     1     -19.953  45.580 -19.024  1.00  0.00    -0.274 OA
HETATM   42  N2  UNL     1     -18.265  45.173 -20.503  1.00  0.00    -0.361 N 
HETATM   43  H37 UNL     1     -17.553  45.593 -21.089  1.00  0.00     0.162 HD
BRANCH  42  44
HETATM   44  C27 UNL     1     -18.734  43.843 -20.858  1.00  0.00     0.127 C 
BRANCH  44  45
HETATM   45  C28 UNL     1     -19.985  43.854 -21.746  1.00  0.00     0.058 C 
BRANCH  45  46
HETATM   46  C29 UNL     1     -19.707  44.317 -23.156  1.00  0.00    -0.054 A 
HETATM   47  C30 UNL     1     -19.530  43.380 -24.189  1.00  0.00     0.010 A 
HETATM   48  C31 UNL     1     -19.254  43.805 -25.490  1.00  0.00     0.040 A 
HETATM   49  C32 UNL     1     -19.162  45.164 -25.756  1.00  0.00     0.098 A 
HETATM   50  C33 UNL     1     -19.345  46.103 -24.744  1.00  0.00     0.099 A 
HETATM   51  C34 UNL     1     -19.618  45.690 -23.445  1.00  0.00     0.046 A 
BRANCH  49  52
HETATM   52  O8  UNL     1     -18.891  45.569 -27.031  1.00  0.00    -0.358 OA
HETATM   53  H44 UNL     1     -18.844  46.545 -26.974  1.00  0.00     0.217 HD
ENDBRANCH  49  52
BRANCH  50  54
HETATM   54  O9  UNL     1     -19.246  47.426 -25.075  1.00  0.00    -0.358 OA
HETATM   55  H45 UNL     1     -19.472  47.953 -24.287  1.00  0.00     0.217 HD
ENDBRANCH  50  54
ENDBRANCH  45  46
ENDBRANCH  44  45
ENDBRANCH  42  44
ENDBRANCH  39  40
ENDBRANCH  38  39
ENDBRANCH  37  38
ENDBRANCH  36  37
ENDBRANCH  35  36
ENDBRANCH  33  35
ENDBRANCH  30  31
ENDBRANCH  29  30
ENDBRANCH   1  29
TORSDOF 19
ENDMDL
MODEL 7
REMARK minimizedAffinity -8.30879498
REMARK CNNscore 0.423313618
REMARK CNNaffinity 7.27434015
REMARK  19 active torsions:
REMARK  status: ('A' for Active; 'I' for Inactive)
REMARK    1  A    between atoms: C14_15  and  O2_16 
REMARK    2  A    between atoms: C14_15  and  C15_17 
REMARK    3  A    between atoms: C15_17  and  C16_19 
REMARK    4  A    between atoms: C16_19  and  O4_20 
REMARK    5  A    between atoms: O4_20  and  C17_21 
REMARK    6  A    between atoms: C17_21  and  C18_23 
REMARK    7  A    between atoms: C18_23  and  C19_24 
REMARK    8  A    between atoms: C19_24  and  C20_25 
REMARK       I    between atoms: C20_25  and  N1_27 
REMARK    9  A    between atoms: N1_27  and  C21_28 
REMARK   10  A    between atoms: C21_28  and  C22_29 
REMARK   11  A    between atoms: C22_29  and  C23_30 
REMARK   12  A    between atoms: C23_30  and  C24_31 
REMARK   13  A    between atoms: C24_31  and  C25_32 
REMARK   14  A    between atoms: C25_32  and  C26_33 
REMARK       I    between atoms: C26_33  and  N2_35 
REMARK   15  A    between atoms: N2_35  and  C27_36 
REMARK   16  A    between atoms: C27_36  and  C28_37 
REMARK   17  A    between atoms: C28_37  and  C29_38 
REMARK   18  A    between atoms: C32_41  and  O8_42 
REMARK   19  A    between atoms: C33_43  and  O9_44 
ROOT
HETATM    1  C17 UNL     1      -2.833  52.351 -23.843  1.00  0.00     0.259 C 
HETATM    2  O5  UNL     1      -1.640  52.593 -23.961  1.00  0.00    -0.265 OA
ENDROOT
BRANCH   1   3
HETATM    3  O4  UNL     1      -3.504  52.289 -22.663  1.00  0.00    -0.314 OA
BRANCH   3   4
HETATM    4  C16 UNL     1      -3.920  50.997 -22.266  1.00  0.00     0.260 C 
BRANCH   4   5
HETATM    5  C15 UNL     1      -2.939  49.823 -22.258  1.00  0.00     0.185 C 
HETATM    6  O3  UNL     1      -2.742  49.188 -23.310  1.00  0.00    -0.292 OA
BRANCH   5   7
HETATM    7  C14 UNL     1      -2.298  49.286 -20.945  1.00  0.00     0.128 C 
HETATM    8  C13 UNL     1      -0.823  48.925 -21.068  1.00  0.00     0.047 C 
HETATM    9  C12 UNL     1      -0.046  50.123 -20.541  1.00  0.00     0.009 C 
HETATM   10  C11 UNL     1      -1.026  50.983 -19.717  1.00  0.00     0.002 C 
HETATM   11  C10 UNL     1      -0.521  51.301 -18.295  1.00  0.00    -0.004 C 
HETATM   12  C35 UNL     1      -2.385  50.225 -19.694  1.00  0.00    -0.002 C 
HETATM   13  C9  UNL     1       0.712  52.209 -18.300  1.00  0.00     0.010 C 
HETATM   14  C39 UNL     1      -0.222  50.016 -17.480  1.00  0.00     0.002 C 
HETATM   15  C8  UNL     1       1.085  52.603 -16.872  1.00  0.00     0.035 C 
HETATM   16  C7  UNL     1       1.296  51.394 -15.989  1.00  0.00    -0.068 C 
HETATM   17  C2  UNL     1       0.193  50.322 -15.992  1.00  0.00    -0.016 C 
HETATM   18  C6  UNL     1       2.413  51.309 -15.247  1.00  0.00     0.053 C 
HETATM   19  C1  UNL     1      -0.996  50.834 -15.152  1.00  0.00     0.020 C 
HETATM   20  C3  UNL     1       0.742  49.006 -15.360  1.00  0.00     0.022 C 
HETATM   21  C4  UNL     1       1.512  49.223 -14.065  1.00  0.00     0.084 C 
HETATM   22  C5  UNL     1       2.630  50.211 -14.275  1.00  0.00     0.149 C 
HETATM   23  O1  UNL     1       3.667  50.181 -13.619  1.00  0.00    -0.293 OA
HETATM   24  C38 UNL     1      -1.327  48.952 -17.664  1.00  0.00     0.007 C 
HETATM   25  C37 UNL     1      -2.591  49.484 -18.330  1.00  0.00     0.013 C 
HETATM   26  C36 UNL     1      -3.572  51.213 -19.787  1.00  0.00     0.019 C 
BRANCH   7  27
HETATM   27  O2  UNL     1      -2.998  48.052 -20.674  1.00  0.00    -0.381 OA
HETATM   28  H19 UNL     1      -3.863  48.118 -21.136  1.00  0.00     0.211 HD
ENDBRANCH   7  27
ENDBRANCH   5   7
ENDBRANCH   4   5
ENDBRANCH   3   4
ENDBRANCH   1   3
BRANCH   1  29
HETATM   29  C18 UNL     1      -3.793  52.131 -24.986  1.00  0.00     0.120 C 
BRANCH  29  30
HETATM   30  C19 UNL     1      -3.050  52.020 -26.309  1.00  0.00     0.112 C 
BRANCH  30  31
HETATM   31  C20 UNL     1      -3.209  50.645 -26.925  1.00  0.00     0.217 C 
HETATM   32  O6  UNL     1      -2.821  50.362 -28.053  1.00  0.00    -0.274 OA
HETATM   33  N1  UNL     1      -3.839  49.757 -26.085  1.00  0.00    -0.361 N 
HETATM   34  H26 UNL     1      -3.850  49.993 -25.091  1.00  0.00     0.162 HD
BRANCH  33  35
HETATM   35  C21 UNL     1      -4.070  48.380 -26.453  1.00  0.00     0.122 C 
BRANCH  35  36
HETATM   36  C22 UNL     1      -5.416  48.144 -27.132  1.00  0.00     0.020 C 
BRANCH  36  37
HETATM   37  C23 UNL     1      -5.392  47.949 -28.651  1.00  0.00     0.002 C 
BRANCH  37  38
HETATM   38  C24 UNL     1      -6.386  46.944 -29.244  1.00  0.00     0.009 C 
BRANCH  38  39
HETATM   39  C25 UNL     1      -7.469  46.335 -28.354  1.00  0.00     0.103 C 
BRANCH  39  40
HETATM   40  C26 UNL     1      -8.901  46.644 -28.760  1.00  0.00     0.217 C 
HETATM   41  O7  UNL     1      -9.883  46.375 -28.076  1.00  0.00    -0.274 OA
HETATM   42  N2  UNL     1      -8.998  47.330 -29.948  1.00  0.00    -0.361 N 
HETATM   43  H37 UNL     1      -8.162  47.717 -30.369  1.00  0.00     0.162 HD
BRANCH  42  44
HETATM   44  C27 UNL     1     -10.281  47.753 -30.486  1.00  0.00     0.127 C 
BRANCH  44  45
HETATM   45  C28 UNL     1     -11.114  46.599 -31.060  1.00  0.00     0.058 C 
BRANCH  45  46
HETATM   46  C29 UNL     1     -10.445  45.908 -32.224  1.00  0.00    -0.054 A 
HETATM   47  C30 UNL     1      -9.255  45.184 -32.032  1.00  0.00     0.010 A 
HETATM   48  C31 UNL     1      -8.625  44.560 -33.109  1.00  0.00     0.040 A 
HETATM   49  C32 UNL     1      -9.187  44.656 -34.375  1.00  0.00     0.098 A 
HETATM   50  C33 UNL     1     -10.370  45.362 -34.578  1.00  0.00     0.099 A 
HETATM   51  C34 UNL     1     -11.005  45.989 -33.511  1.00  0.00     0.046 A 
BRANCH  49  52
HETATM   52  O8  UNL     1      -8.562  44.043 -35.421  1.00  0.00    -0.358 OA
HETATM   53  H44 UNL     1      -9.110  44.268 -36.200  1.00  0.00     0.217 HD
ENDBRANCH  49  52
BRANCH  50  54
HETATM   54  O9  UNL     1     -10.873  45.412 -35.848  1.00  0.00    -0.358 OA
HETATM   55  H45 UNL     1     -11.732  45.871 -35.815  1.00  0.00     0.217 HD
ENDBRANCH  50  54
ENDBRANCH  45  46
ENDBRANCH  44  45
ENDBRANCH  42  44
ENDBRANCH  39  40
ENDBRANCH  38  39
ENDBRANCH  37  38
ENDBRANCH  36  37
ENDBRANCH  35  36
ENDBRANCH  33  35
ENDBRANCH  30  31
ENDBRANCH  29  30
ENDBRANCH   1  29
TORSDOF 19
ENDMDL
MODEL 8
REMARK minimizedAffinity -9.45680428
REMARK CNNscore 0.41729477
REMARK CNNaffinity 6.82956839
REMARK  19 active torsions:
REMARK  status: ('A' for Active; 'I' for Inactive)
REMARK    1  A    between atoms: C14_15  and  O2_16 
REMARK    2  A    between atoms: C14_15  and  C15_17 
REMARK    3  A    between atoms: C15_17  and  C16_19 
REMARK    4  A    between atoms: C16_19  and  O4_20 
REMARK    5  A    between atoms: O4_20  and  C17_21 
REMARK    6  A    between atoms: C17_21  and  C18_23 
REMARK    7  A    between atoms: C18_23  and  C19_24 
REMARK    8  A    between atoms: C19_24  and  C20_25 
REMARK       I    between atoms: C20_25  and  N1_27 
REMARK    9  A    between atoms: N1_27  and  C21_28 
REMARK   10  A    between atoms: C21_28  and  C22_29 
REMARK   11  A    between atoms: C22_29  and  C23_30 
REMARK   12  A    between atoms: C23_30  and  C24_31 
REMARK   13  A    between atoms: C24_31  and  C25_32 
REMARK   14  A    between atoms: C25_32  and  C26_33 
REMARK       I    between atoms: C26_33  and  N2_35 
REMARK   15  A    between atoms: N2_35  and  C27_36 
REMARK   16  A    between atoms: C27_36  and  C28_37 
REMARK   17  A    between atoms: C28_37  and  C29_38 
REMARK   18  A    between atoms: C32_41  and  O8_42 
REMARK   19  A    between atoms: C33_43  and  O9_44 
ROOT
HETATM    1  C17 UNL     1      -2.321  50.095 -16.433  1.00  0.00     0.259 C 
HETATM    2  O5  UNL     1      -1.248  50.577 -16.767  1.00  0.00    -0.265 OA
ENDROOT
BRANCH   1   3
HETATM    3  O4  UNL     1      -3.250  49.589 -17.286  1.00  0.00    -0.314 OA
BRANCH   3   4
HETATM    4  C16 UNL     1      -2.745  49.085 -18.507  1.00  0.00     0.260 C 
BRANCH   4   5
HETATM    5  C15 UNL     1      -3.688  48.555 -19.589  1.00  0.00     0.185 C 
HETATM    6  O3  UNL     1      -4.318  47.502 -19.383  1.00  0.00    -0.292 OA
BRANCH   5   7
HETATM    7  C14 UNL     1      -3.765  49.193 -21.007  1.00  0.00     0.128 C 
HETATM    8  C13 UNL     1      -4.082  50.683 -21.008  1.00  0.00     0.047 C 
HETATM    9  C12 UNL     1      -2.746  51.402 -21.143  1.00  0.00     0.009 C 
HETATM   10  C11 UNL     1      -1.718  50.374 -21.657  1.00  0.00     0.002 C 
HETATM   11  C10 UNL     1      -0.956  50.839 -22.913  1.00  0.00    -0.004 C 
HETATM   12  C35 UNL     1      -2.492  49.046 -21.906  1.00  0.00    -0.002 C 
HETATM   13  C9  UNL     1      -0.041  52.035 -22.635  1.00  0.00     0.010 C 
HETATM   14  C39 UNL     1      -1.913  51.176 -24.087  1.00  0.00     0.002 C 
HETATM   15  C8  UNL     1       0.790  52.366 -23.872  1.00  0.00     0.035 C 
HETATM   16  C7  UNL     1      -0.077  52.609 -25.086  1.00  0.00    -0.068 C 
HETATM   17  C2  UNL     1      -1.145  51.551 -25.410  1.00  0.00    -0.016 C 
HETATM   18  C6  UNL     1       0.120  53.715 -25.824  1.00  0.00     0.053 C 
HETATM   19  C1  UNL     1      -0.452  50.327 -26.045  1.00  0.00     0.020 C 
HETATM   20  C3  UNL     1      -2.177  52.141 -26.420  1.00  0.00     0.022 C 
HETATM   21  C4  UNL     1      -1.538  52.878 -27.588  1.00  0.00     0.084 C 
HETATM   22  C5  UNL     1      -0.615  53.959 -27.088  1.00  0.00     0.149 C 
HETATM   23  O1  UNL     1      -0.395  54.985 -27.726  1.00  0.00    -0.293 OA
HETATM   24  C38 UNL     1      -3.029  50.118 -24.235  1.00  0.00     0.007 C 
HETATM   25  C37 UNL     1      -2.784  48.846 -23.432  1.00  0.00     0.013 C 
HETATM   26  C36 UNL     1      -1.633  47.822 -21.508  1.00  0.00     0.019 C 
BRANCH   7  27
HETATM   27  O2  UNL     1      -4.885  48.538 -21.642  1.00  0.00    -0.381 OA
HETATM   28  H19 UNL     1      -5.003  47.680 -21.178  1.00  0.00     0.211 HD
ENDBRANCH   7  27
ENDBRANCH   5   7
ENDBRANCH   4   5
ENDBRANCH   3   4
ENDBRANCH   1   3
BRANCH   1  29
HETATM   29  C18 UNL     1      -2.791  49.921 -15.009  1.00  0.00     0.120 C 
BRANCH  29  30
HETATM   30  C19 UNL     1      -2.102  50.912 -14.082  1.00  0.00     0.112 C 
BRANCH  30  31
HETATM   31  C20 UNL     1      -3.059  51.985 -13.603  1.00  0.00     0.217 C 
HETATM   32  O6  UNL     1      -3.851  52.561 -14.341  1.00  0.00    -0.274 OA
HETATM   33  N1  UNL     1      -2.937  52.243 -12.259  1.00  0.00    -0.361 N 
HETATM   34  H26 UNL     1      -2.481  51.525 -11.692  1.00  0.00     0.162 HD
BRANCH  33  35
HETATM   35  C21 UNL     1      -3.770  53.206 -11.580  1.00  0.00     0.122 C 
BRANCH  35  36
HETATM   36  C22 UNL     1      -3.060  53.938 -10.444  1.00  0.00     0.020 C 
BRANCH  36  37
HETATM   37  C23 UNL     1      -1.543  54.103 -10.577  1.00  0.00     0.002 C 
BRANCH  37  38
HETATM   38  C24 UNL     1      -0.893  55.263  -9.815  1.00  0.00     0.009 C 
BRANCH  38  39
HETATM   39  C25 UNL     1      -0.518  55.087  -8.344  1.00  0.00     0.103 C 
BRANCH  39  40
HETATM   40  C26 UNL     1       0.087  56.307  -7.671  1.00  0.00     0.217 C 
HETATM   41  O7  UNL     1      -0.538  57.329  -7.408  1.00  0.00    -0.274 OA
HETATM   42  N2  UNL     1       1.404  56.138  -7.310  1.00  0.00    -0.361 N 
HETATM   43  H37 UNL     1       1.816  55.213  -7.351  1.00  0.00     0.162 HD
BRANCH  42  44
HETATM   44  C27 UNL     1       2.149  57.178  -6.618  1.00  0.00     0.127 C 
BRANCH  44  45
HETATM   45  C28 UNL     1       3.187  57.879  -7.505  1.00  0.00     0.058 C 
BRANCH  45  46
HETATM   46  C29 UNL     1       4.270  56.950  -7.997  1.00  0.00    -0.054 A 
HETATM   47  C30 UNL     1       4.131  56.288  -9.229  1.00  0.00     0.010 A 
HETATM   48  C31 UNL     1       5.123  55.414  -9.678  1.00  0.00     0.040 A 
HETATM   49  C32 UNL     1       6.253  55.208  -8.898  1.00  0.00     0.098 A 
HETATM   50  C33 UNL     1       6.407  55.866  -7.680  1.00  0.00     0.099 A 
HETATM   51  C34 UNL     1       5.424  56.737  -7.223  1.00  0.00     0.046 A 
BRANCH  49  52
HETATM   52  O8  UNL     1       7.216  54.352  -9.345  1.00  0.00    -0.358 OA
HETATM   53  H44 UNL     1       7.886  54.342  -8.633  1.00  0.00     0.217 HD
ENDBRANCH  49  52
BRANCH  50  54
HETATM   54  O9  UNL     1       7.546  55.623  -6.964  1.00  0.00    -0.358 OA
HETATM   55  H45 UNL     1       7.543  56.207  -6.184  1.00  0.00     0.217 HD
ENDBRANCH  50  54
ENDBRANCH  45  46
ENDBRANCH  44  45
ENDBRANCH  42  44
ENDBRANCH  39  40
ENDBRANCH  38  39
ENDBRANCH  37  38
ENDBRANCH  36  37
ENDBRANCH  35  36
ENDBRANCH  33  35
ENDBRANCH  30  31
ENDBRANCH  29  30
ENDBRANCH   1  29
TORSDOF 19
ENDMDL
MODEL 9
REMARK minimizedAffinity -8.25163555
REMARK CNNscore 0.398780555
REMARK CNNaffinity 7.04402018
REMARK  19 active torsions:
REMARK  status: ('A' for Active; 'I' for Inactive)
REMARK    1  A    between atoms: C14_15  and  O2_16 
REMARK    2  A    between atoms: C14_15  and  C15_17 
REMARK    3  A    between atoms: C15_17  and  C16_19 
REMARK    4  A    between atoms: C16_19  and  O4_20 
REMARK    5  A    between atoms: O4_20  and  C17_21 
REMARK    6  A    between atoms: C17_21  and  C18_23 
REMARK    7  A    between atoms: C18_23  and  C19_24 
REMARK    8  A    between atoms: C19_24  and  C20_25 
REMARK       I    between atoms: C20_25  and  N1_27 
REMARK    9  A    between atoms: N1_27  and  C21_28 
REMARK   10  A    between atoms: C21_28  and  C22_29 
REMARK   11  A    between atoms: C22_29  and  C23_30 
REMARK   12  A    between atoms: C23_30  and  C24_31 
REMARK   13  A    between atoms: C24_31  and  C25_32 
REMARK   14  A    between atoms: C25_32  and  C26_33 
REMARK       I    between atoms: C26_33  and  N2_35 
REMARK   15  A    between atoms: N2_35  and  C27_36 
REMARK   16  A    between atoms: C27_36  and  C28_37 
REMARK   17  A    between atoms: C28_37  and  C29_38 
REMARK   18  A    between atoms: C32_41  and  O8_42 
REMARK   19  A    between atoms: C33_43  and  O9_44 
ROOT
HETATM    1  C17 UNL     1       1.116  53.452 -21.825  1.00  0.00     0.259 C 
HETATM    2  O5  UNL     1       1.440  54.212 -22.727  1.00  0.00    -0.265 OA
ENDROOT
BRANCH   1   3
HETATM    3  O4  UNL     1       0.488  52.259 -21.997  1.00  0.00    -0.314 OA
BRANCH   3   4
HETATM    4  C16 UNL     1      -0.162  52.087 -23.240  1.00  0.00     0.260 C 
BRANCH   4   5
HETATM    5  C15 UNL     1      -1.318  51.096 -23.393  1.00  0.00     0.185 C 
HETATM    6  O3  UNL     1      -1.384  50.392 -24.416  1.00  0.00    -0.292 OA
BRANCH   5   7
HETATM    7  C14 UNL     1      -2.509  51.050 -22.391  1.00  0.00     0.128 C 
HETATM    8  C13 UNL     1      -3.794  51.681 -22.915  1.00  0.00     0.047 C 
HETATM    9  C12 UNL     1      -4.648  50.534 -23.438  1.00  0.00     0.009 C 
HETATM   10  C11 UNL     1      -4.087  49.229 -22.837  1.00  0.00     0.002 C 
HETATM   11  C10 UNL     1      -5.152  48.370 -22.126  1.00  0.00    -0.004 C 
HETATM   12  C35 UNL     1      -2.931  49.633 -21.876  1.00  0.00    -0.002 C 
HETATM   13  C9  UNL     1      -6.195  47.806 -23.096  1.00  0.00     0.010 C 
HETATM   14  C39 UNL     1      -5.863  49.146 -20.986  1.00  0.00     0.002 C 
HETATM   15  C8  UNL     1      -7.139  46.856 -22.364  1.00  0.00     0.035 C 
HETATM   16  C7  UNL     1      -7.796  47.518 -21.175  1.00  0.00    -0.068 C 
HETATM   17  C2  UNL     1      -6.878  48.250 -20.182  1.00  0.00    -0.016 C 
HETATM   18  C6  UNL     1      -9.130  47.437 -21.031  1.00  0.00     0.053 C 
HETATM   19  C1  UNL     1      -6.159  47.200 -19.308  1.00  0.00     0.020 C 
HETATM   20  C3  UNL     1      -7.732  49.183 -19.269  1.00  0.00     0.022 C 
HETATM   21  C4  UNL     1      -8.983  48.519 -18.714  1.00  0.00     0.084 C 
HETATM   22  C5  UNL     1      -9.826  47.963 -19.832  1.00  0.00     0.149 C 
HETATM   23  O1  UNL     1     -11.047  47.860 -19.749  1.00  0.00    -0.293 OA
HETATM   24  C38 UNL     1      -4.860  49.957 -20.135  1.00  0.00     0.007 C 
HETATM   25  C37 UNL     1      -3.402  49.589 -20.383  1.00  0.00     0.013 C 
HETATM   26  C36 UNL     1      -1.768  48.615 -21.950  1.00  0.00     0.019 C 
BRANCH   7  27
HETATM   27  O2  UNL     1      -2.082  51.863 -21.277  1.00  0.00    -0.381 OA
HETATM   28  H19 UNL     1      -1.099  51.873 -21.302  1.00  0.00     0.211 HD
ENDBRANCH   7  27
ENDBRANCH   5   7
ENDBRANCH   4   5
ENDBRANCH   3   4
ENDBRANCH   1   3
BRANCH   1  29
HETATM   29  C18 UNL     1       1.400  53.671 -20.360  1.00  0.00     0.120 C 
BRANCH  29  30
HETATM   30  C19 UNL     1       0.118  53.623 -19.542  1.00  0.00     0.112 C 
BRANCH  30  31
HETATM   31  C20 UNL     1       0.138  52.487 -18.539  1.00  0.00     0.217 C 
HETATM   32  O6  UNL     1      -0.615  51.522 -18.599  1.00  0.00    -0.274 OA
HETATM   33  N1  UNL     1       1.083  52.663 -17.557  1.00  0.00    -0.361 N 
HETATM   34  H26 UNL     1       1.838  53.322 -17.758  1.00  0.00     0.162 HD
BRANCH  33  35
HETATM   35  C21 UNL     1       1.300  51.690 -16.513  1.00  0.00     0.122 C 
BRANCH  35  36
HETATM   36  C22 UNL     1       1.024  52.224 -15.110  1.00  0.00     0.020 C 
BRANCH  36  37
HETATM   37  C23 UNL     1       0.281  51.287 -14.154  1.00  0.00     0.002 C 
BRANCH  37  38
HETATM   38  C24 UNL     1      -0.765  50.348 -14.765  1.00  0.00     0.009 C 
BRANCH  38  39
HETATM   39  C25 UNL     1      -2.116  50.167 -14.072  1.00  0.00     0.103 C 
BRANCH  39  40
HETATM   40  C26 UNL     1      -2.960  51.424 -13.946  1.00  0.00     0.217 C 
HETATM   41  O7  UNL     1      -3.557  51.950 -14.880  1.00  0.00    -0.274 OA
HETATM   42  N2  UNL     1      -3.060  51.890 -12.655  1.00  0.00    -0.361 N 
HETATM   43  H37 UNL     1      -2.733  51.311 -11.890  1.00  0.00     0.162 HD
BRANCH  42  44
HETATM   44  C27 UNL     1      -3.857  53.059 -12.322  1.00  0.00     0.127 C 
BRANCH  44  45
HETATM   45  C28 UNL     1      -4.055  53.254 -10.812  1.00  0.00     0.058 C 
BRANCH  45  46
HETATM   46  C29 UNL     1      -2.788  53.652 -10.095  1.00  0.00    -0.054 A 
HETATM   47  C30 UNL     1      -2.104  54.824 -10.461  1.00  0.00     0.010 A 
HETATM   48  C31 UNL     1      -0.922  55.185  -9.812  1.00  0.00     0.040 A 
HETATM   49  C32 UNL     1      -0.430  54.378  -8.796  1.00  0.00     0.098 A 
HETATM   50  C33 UNL     1      -1.103  53.219  -8.417  1.00  0.00     0.099 A 
HETATM   51  C34 UNL     1      -2.280  52.850  -9.058  1.00  0.00     0.046 A 
BRANCH  49  52
HETATM   52  O8  UNL     1       0.727  54.739  -8.169  1.00  0.00    -0.358 OA
HETATM   53  H44 UNL     1       0.892  54.020  -7.525  1.00  0.00     0.217 HD
ENDBRANCH  49  52
BRANCH  50  54
HETATM   54  O9  UNL     1      -0.567  52.472  -7.405  1.00  0.00    -0.358 OA
HETATM   55  H45 UNL     1      -1.184  51.745  -7.206  1.00  0.00     0.217 HD
ENDBRANCH  50  54
ENDBRANCH  45  46
ENDBRANCH  44  45
ENDBRANCH  42  44
ENDBRANCH  39  40
ENDBRANCH  38  39
ENDBRANCH  37  38
ENDBRANCH  36  37
ENDBRANCH  35  36
ENDBRANCH  33  35
ENDBRANCH  30  31
ENDBRANCH  29  30
ENDBRANCH   1  29
TORSDOF 19
ENDMDL
