MODEL 1
REMARK minimizedAffinity -8.54148388
REMARK CNNscore 0.133763373
REMARK CNNaffinity 4.59315729
REMARK  7 active torsions:
REMARK  status: ('A' for Active; 'I' for Inactive)
REMARK    1  A    between atoms: C6_7  and  O2_8 
REMARK    2  A    between atoms: C11_15  and  C13_17 
REMARK    3  A    between atoms: C26_34  and  C27_35 
REMARK    4  A    between atoms: C27_35  and  C28_36 
REMARK    5  A    between atoms: C32_40  and  C33_41 
REMARK    6  A    between atoms: C33_41  and  N2_42 
REMARK    7  A    between atoms: C33_41  and  N3_43 
ROOT
HETATM    1  C1  UNL     1       7.216  19.441  27.105  1.00  0.00     0.077 C 
HETATM    2  C2  UNL     1       7.873  18.696  25.985  1.00  0.00     0.053 A 
HETATM    3  C3  UNL     1       9.101  18.999  25.542  1.00  0.00     0.088 A 
HETATM    4  C4  UNL     1       9.680  18.216  24.440  1.00  0.00     0.190 A 
HETATM    5  O1  UNL     1      10.802  18.452  24.008  1.00  0.00    -0.287 OA
HETATM    6  C5  UNL     1       8.856  17.134  23.883  1.00  0.00     0.082 A 
HETATM    7  C6  UNL     1       9.309  16.326  22.827  1.00  0.00     0.092 A 
HETATM    8  C7  UNL     1       8.499  15.302  22.298  1.00  0.00     0.016 A 
HETATM    9  C8  UNL     1       7.275  15.053  22.942  1.00  0.00     0.082 A 
HETATM   10  C9  UNL     1       6.814  15.873  23.977  1.00  0.00     0.075 A 
HETATM   11  C10 UNL     1       7.603  16.918  24.441  1.00  0.00     0.095 A 
HETATM   12  O3  UNL     1       7.096  17.672  25.470  1.00  0.00    -0.314 OA
HETATM   13  O4  UNL     1       6.449  14.001  22.649  1.00  0.00    -0.337 OA
HETATM   14  C11 UNL     1       7.076  12.870  22.005  1.00  0.00     0.095 C 
HETATM   15  C12 UNL     1       7.969  12.140  23.034  1.00  0.00     0.050 C 
HETATM   16  C18 UNL     1       7.854  13.398  20.771  1.00  0.00     0.175 C 
HETATM   17  O5  UNL     1       8.271  12.368  19.848  1.00  0.00    -0.310 OA
HETATM   18  C19 UNL     1       9.454  11.731  20.020  1.00  0.00     0.297 C 
HETATM   19  O6  UNL     1      10.057  11.575  21.067  1.00  0.00    -0.262 OA
HETATM   20  C20 UNL     1      10.034  11.399  18.690  1.00  0.00     0.175 A 
HETATM   21  C21 UNL     1      10.973  12.395  18.027  1.00  0.00     0.051 C 
HETATM   22  C22 UNL     1      11.025  13.768  18.720  1.00  0.00     0.004 C 
HETATM   23  C23 UNL     1       9.725  14.576  18.574  1.00  0.00     0.001 C 
HETATM   24  C24 UNL     1       9.288  15.315  19.853  1.00  0.00     0.012 C 
HETATM   25  C25 UNL     1       8.949  14.449  21.112  1.00  0.00     0.057 C 
HETATM   26  O7  UNL     1      10.516  10.044  18.582  1.00  0.00    -0.358 OA
HETATM   27  C26 UNL     1       9.301  10.310  17.879  1.00  0.00     0.172 A 
ENDROOT
BRANCH  27  28
HETATM   28  C27 UNL     1       9.330  10.227  16.382  1.00  0.00     0.074 C 
BRANCH  28  29
HETATM   29  C28 UNL     1       7.968  10.199  15.734  1.00  0.00    -0.055 A 
HETATM   30  C29 UNL     1       7.280  11.390  15.468  1.00  0.00     0.007 A 
HETATM   31  C30 UNL     1       6.023  11.361  14.868  1.00  0.00     0.001 A 
HETATM   32  C31 UNL     1       5.436  10.141  14.532  1.00  0.00     0.011 A 
HETATM   33  C32 UNL     1       6.095   8.929  14.795  1.00  0.00     0.004 A 
HETATM   34  C34 UNL     1       7.371   8.979  15.386  1.00  0.00     0.018 A 
BRANCH  33  35
HETATM   35  C33 UNL     1       5.445   7.623  14.398  1.00  0.00     0.479 C 
BRANCH  35  36
HETATM   36  N2  UNL     1       6.414   6.618  14.067  1.00  0.00     0.116 N 
HETATM   37  H37 UNL     1       7.111   7.032  13.454  1.00  0.00     0.316 HD
HETATM   38  H38 UNL     1       6.902   6.403  14.934  1.00  0.00     0.316 HD
ENDBRANCH  35  36
BRANCH  35  39
HETATM   39  N3  UNL     1       4.716   6.999  15.468  1.00  0.00     0.116 N 
HETATM   40  H39 UNL     1       3.887   7.558  15.657  1.00  0.00     0.316 HD
HETATM   41  H40 UNL     1       4.388   6.107  15.107  1.00  0.00     0.316 HD
ENDBRANCH  35  39
ENDBRANCH  33  35
ENDBRANCH  28  29
ENDBRANCH  27  28
BRANCH  14  42
HETATM   42  C13 UNL     1       5.908  11.899  21.574  1.00  0.00     0.026 C 
HETATM   43  C14 UNL     1       4.902  12.550  20.594  1.00  0.00     0.037 C 
HETATM   44  C15 UNL     1       3.589  11.775  20.541  1.00  0.00     0.270 C 
HETATM   45  N1  UNL     1       2.883  11.772  21.820  1.00  0.00     0.083 N 
HETATM   46  C16 UNL     1       3.762  11.913  22.979  1.00  0.00     0.270 C 
HETATM   47  H15 UNL     1       2.332  10.918  21.898  1.00  0.00     0.315 HD
HETATM   48  C17 UNL     1       5.136  11.279  22.769  1.00  0.00     0.037 C 
ENDBRANCH  14  42
BRANCH   7  49
HETATM   49  O2  UNL     1      10.570  16.487  22.309  1.00  0.00    -0.359 OA
HETATM   50  H5  UNL     1      11.012  17.233  22.775  1.00  0.00     0.217 HD
ENDBRANCH   7  49
TORSDOF 7
ENDMDL
MODEL 2
REMARK minimizedAffinity -7.86960793
REMARK CNNscore 0.132092416
REMARK CNNaffinity 5.94745588
REMARK  7 active torsions:
REMARK  status: ('A' for Active; 'I' for Inactive)
REMARK    1  A    between atoms: C6_7  and  O2_8 
REMARK    2  A    between atoms: C11_15  and  C13_17 
REMARK    3  A    between atoms: C26_34  and  C27_35 
REMARK    4  A    between atoms: C27_35  and  C28_36 
REMARK    5  A    between atoms: C32_40  and  C33_41 
REMARK    6  A    between atoms: C33_41  and  N2_42 
REMARK    7  A    between atoms: C33_41  and  N3_43 
ROOT
HETATM    1  C1  UNL     1       5.905   7.170  12.754  1.00  0.00     0.077 C 
HETATM    2  C2  UNL     1       5.140   8.132  13.607  1.00  0.00     0.053 A 
HETATM    3  C3  UNL     1       5.711   9.203  14.176  1.00  0.00     0.088 A 
HETATM    4  C4  UNL     1       4.890  10.104  14.998  1.00  0.00     0.190 A 
HETATM    5  O1  UNL     1       5.368  11.099  15.530  1.00  0.00    -0.287 OA
HETATM    6  C5  UNL     1       3.469   9.762  15.149  1.00  0.00     0.082 A 
HETATM    7  C6  UNL     1       2.594  10.551  15.914  1.00  0.00     0.092 A 
HETATM    8  C7  UNL     1       1.237  10.200  16.057  1.00  0.00     0.016 A 
HETATM    9  C8  UNL     1       0.776   9.098  15.317  1.00  0.00     0.082 A 
HETATM   10  C9  UNL     1       1.652   8.299  14.575  1.00  0.00     0.075 A 
HETATM   11  C10 UNL     1       3.000   8.628  14.498  1.00  0.00     0.095 A 
HETATM   12  O3  UNL     1       3.799   7.810  13.740  1.00  0.00    -0.314 OA
HETATM   13  O4  UNL     1      -0.538   8.723  15.227  1.00  0.00    -0.337 OA
HETATM   14  C11 UNL     1      -1.507   9.757  15.507  1.00  0.00     0.095 C 
HETATM   15  C12 UNL     1      -1.509  10.770  14.339  1.00  0.00     0.050 C 
HETATM   16  C18 UNL     1      -1.144  10.390  16.876  1.00  0.00     0.175 C 
HETATM   17  O5  UNL     1      -2.185  11.214  17.444  1.00  0.00    -0.310 OA
HETATM   18  C19 UNL     1      -2.267  12.528  17.130  1.00  0.00     0.297 C 
HETATM   19  O6  UNL     1      -1.863  13.066  16.114  1.00  0.00    -0.262 OA
HETATM   20  C20 UNL     1      -2.762  13.288  18.310  1.00  0.00     0.175 A 
HETATM   21  C21 UNL     1      -1.752  13.861  19.293  1.00  0.00     0.051 C 
HETATM   22  C22 UNL     1      -0.310  13.370  19.072  1.00  0.00     0.004 C 
HETATM   23  C23 UNL     1      -0.113  11.883  19.410  1.00  0.00     0.001 C 
HETATM   24  C24 UNL     1       0.776  11.117  18.413  1.00  0.00     0.012 C 
HETATM   25  C25 UNL     1       0.282  11.011  16.932  1.00  0.00     0.057 C 
HETATM   26  O7  UNL     1      -3.814  14.226  18.006  1.00  0.00    -0.358 OA
HETATM   27  C26 UNL     1      -4.235  13.054  18.705  1.00  0.00     0.172 A 
ENDROOT
BRANCH  27  28
HETATM   28  C27 UNL     1      -4.760  13.224  20.098  1.00  0.00     0.074 C 
BRANCH  28  29
HETATM   29  C28 UNL     1      -6.254  13.423  20.180  1.00  0.00    -0.055 A 
HETATM   30  C29 UNL     1      -6.967  13.934  19.088  1.00  0.00     0.007 A 
HETATM   31  C30 UNL     1      -8.346  14.115  19.167  1.00  0.00     0.001 A 
HETATM   32  C31 UNL     1      -9.029  13.792  20.340  1.00  0.00     0.011 A 
HETATM   33  C32 UNL     1      -8.342  13.287  21.456  1.00  0.00     0.004 A 
HETATM   34  C34 UNL     1      -6.951  13.096  21.352  1.00  0.00     0.018 A 
BRANCH  33  35
HETATM   35  C33 UNL     1      -9.111  12.924  22.705  1.00  0.00     0.479 C 
BRANCH  35  36
HETATM   36  N2  UNL     1      -9.766  11.652  22.584  1.00  0.00     0.116 N 
HETATM   37  H37 UNL     1     -10.236  11.618  21.684  1.00  0.00     0.316 HD
HETATM   38  H38 UNL     1      -9.024  10.958  22.534  1.00  0.00     0.316 HD
ENDBRANCH  35  36
BRANCH  35  39
HETATM   39  N3  UNL     1      -8.271  12.721  23.855  1.00  0.00     0.116 N 
HETATM   40  H39 UNL     1      -7.894  13.624  24.136  1.00  0.00     0.316 HD
HETATM   41  H40 UNL     1      -8.885  12.416  24.606  1.00  0.00     0.316 HD
ENDBRANCH  35  39
ENDBRANCH  33  35
ENDBRANCH  28  29
ENDBRANCH  27  28
BRANCH  14  42
HETATM   42  C13 UNL     1      -2.915   9.047  15.559  1.00  0.00     0.026 C 
HETATM   43  C14 UNL     1      -2.817   7.506  15.677  1.00  0.00     0.037 C 
HETATM   44  C15 UNL     1      -4.129   6.830  15.290  1.00  0.00     0.270 C 
HETATM   45  N1  UNL     1      -4.490   7.054  13.892  1.00  0.00     0.083 N 
HETATM   46  C16 UNL     1      -3.958   8.297  13.339  1.00  0.00     0.270 C 
HETATM   47  H15 UNL     1      -5.505   7.033  13.800  1.00  0.00     0.315 HD
HETATM   48  C17 UNL     1      -3.847   9.414  14.374  1.00  0.00     0.037 C 
ENDBRANCH  14  42
BRANCH   7  49
HETATM   49  O2  UNL     1       3.029  11.709  16.509  1.00  0.00    -0.359 OA
HETATM   50  H5  UNL     1       3.989  11.821  16.322  1.00  0.00     0.217 HD
ENDBRANCH   7  49
TORSDOF 7
ENDMDL
MODEL 3
REMARK minimizedAffinity -8.51505756
REMARK CNNscore 0.0911553875
REMARK CNNaffinity 5.95714808
REMARK  7 active torsions:
REMARK  status: ('A' for Active; 'I' for Inactive)
REMARK    1  A    between atoms: C6_7  and  O2_8 
REMARK    2  A    between atoms: C11_15  and  C13_17 
REMARK    3  A    between atoms: C26_34  and  C27_35 
REMARK    4  A    between atoms: C27_35  and  C28_36 
REMARK    5  A    between atoms: C32_40  and  C33_41 
REMARK    6  A    between atoms: C33_41  and  N2_42 
REMARK    7  A    between atoms: C33_41  and  N3_43 
ROOT
HETATM    1  C1  UNL     1       6.466   6.454  10.809  1.00  0.00     0.077 C 
HETATM    2  C2  UNL     1       5.650   7.561  11.400  1.00  0.00     0.053 A 
HETATM    3  C3  UNL     1       5.949   8.855  11.214  1.00  0.00     0.088 A 
HETATM    4  C4  UNL     1       5.095   9.884  11.824  1.00  0.00     0.190 A 
HETATM    5  O1  UNL     1       5.325  11.079  11.674  1.00  0.00    -0.287 OA
HETATM    6  C5  UNL     1       3.949   9.418  12.619  1.00  0.00     0.082 A 
HETATM    7  C6  UNL     1       3.071  10.315  13.248  1.00  0.00     0.092 A 
HETATM    8  C7  UNL     1       1.985   9.849  14.016  1.00  0.00     0.016 A 
HETATM    9  C8  UNL     1       1.756   8.463  14.031  1.00  0.00     0.082 A 
HETATM   10  C9  UNL     1       2.645   7.569  13.424  1.00  0.00     0.075 A 
HETATM   11  C10 UNL     1       3.745   8.048  12.724  1.00  0.00     0.095 A 
HETATM   12  O3  UNL     1       4.567   7.117  12.140  1.00  0.00    -0.314 OA
HETATM   13  O4  UNL     1       0.662   7.866  14.599  1.00  0.00    -0.337 OA
HETATM   14  C11 UNL     1      -0.500   8.709  14.759  1.00  0.00     0.095 C 
HETATM   15  C12 UNL     1      -1.119   8.977  13.367  1.00  0.00     0.050 C 
HETATM   16  C18 UNL     1      -0.054   9.998  15.498  1.00  0.00     0.175 C 
HETATM   17  O5  UNL     1      -1.144  10.795  16.011  1.00  0.00    -0.310 OA
HETATM   18  C19 UNL     1      -1.732  11.734  15.233  1.00  0.00     0.297 C 
HETATM   19  O6  UNL     1      -1.786  11.748  14.015  1.00  0.00    -0.262 OA
HETATM   20  C20 UNL     1      -2.156  12.883  16.078  1.00  0.00     0.175 A 
HETATM   21  C21 UNL     1      -1.192  14.042  16.282  1.00  0.00     0.051 C 
HETATM   22  C22 UNL     1       0.234  13.772  15.770  1.00  0.00     0.004 C 
HETATM   23  C23 UNL     1       0.992  12.721  16.597  1.00  0.00     0.001 C 
HETATM   24  C24 UNL     1       1.820  11.729  15.760  1.00  0.00     0.012 C 
HETATM   25  C25 UNL     1       1.051  10.805  14.757  1.00  0.00     0.057 C 
HETATM   26  O7  UNL     1      -3.501  13.335  15.825  1.00  0.00    -0.358 OA
HETATM   27  C26 UNL     1      -3.326  12.621  17.049  1.00  0.00     0.172 A 
ENDROOT
BRANCH  27  28
HETATM   28  C27 UNL     1      -3.530  13.373  18.329  1.00  0.00     0.074 C 
BRANCH  28  29
HETATM   29  C28 UNL     1      -4.976  13.559  18.719  1.00  0.00    -0.055 A 
HETATM   30  C29 UNL     1      -5.947  13.838  17.749  1.00  0.00     0.007 A 
HETATM   31  C30 UNL     1      -7.281  14.007  18.112  1.00  0.00     0.001 A 
HETATM   32  C31 UNL     1      -7.661  13.905  19.451  1.00  0.00     0.011 A 
HETATM   33  C32 UNL     1      -6.710  13.636  20.449  1.00  0.00     0.004 A 
HETATM   34  C34 UNL     1      -5.369  13.452  20.061  1.00  0.00     0.018 A 
BRANCH  33  35
HETATM   35  C33 UNL     1      -7.154  13.507  21.888  1.00  0.00     0.479 C 
BRANCH  35  36
HETATM   36  N2  UNL     1      -6.128  12.943  22.719  1.00  0.00     0.116 N 
HETATM   37  H37 UNL     1      -5.740  12.132  22.245  1.00  0.00     0.316 HD
HETATM   38  H38 UNL     1      -5.380  13.631  22.747  1.00  0.00     0.316 HD
ENDBRANCH  35  36
BRANCH  35  39
HETATM   39  N3  UNL     1      -7.397  14.772  22.527  1.00  0.00     0.116 N 
HETATM   40  H39 UNL     1      -8.236  15.177  22.119  1.00  0.00     0.316 HD
HETATM   41  H40 UNL     1      -7.617  14.563  23.498  1.00  0.00     0.316 HD
ENDBRANCH  35  39
ENDBRANCH  33  35
ENDBRANCH  28  29
ENDBRANCH  27  28
BRANCH  14  42
HETATM   42  C13 UNL     1      -1.535   7.884  15.619  1.00  0.00     0.026 C 
HETATM   43  C14 UNL     1      -2.187   6.719  14.836  1.00  0.00     0.037 C 
HETATM   44  C15 UNL     1      -3.462   6.230  15.518  1.00  0.00     0.270 C 
HETATM   45  N1  UNL     1      -4.505   7.251  15.564  1.00  0.00     0.083 N 
HETATM   46  C16 UNL     1      -3.992   8.619  15.563  1.00  0.00     0.270 C 
HETATM   47  H15 UNL     1      -5.092   7.096  16.384  1.00  0.00     0.315 HD
HETATM   48  C17 UNL     1      -2.644   8.753  16.269  1.00  0.00     0.037 C 
ENDBRANCH  14  42
BRANCH   7  49
HETATM   49  O2  UNL     1       3.222  11.671  13.099  1.00  0.00    -0.359 OA
HETATM   50  H5  UNL     1       4.016  11.842  12.542  1.00  0.00     0.217 HD
ENDBRANCH   7  49
TORSDOF 7
ENDMDL
MODEL 4
REMARK minimizedAffinity -8.37348843
REMARK CNNscore 0.0889296532
REMARK CNNaffinity 5.44865656
REMARK  7 active torsions:
REMARK  status: ('A' for Active; 'I' for Inactive)
REMARK    1  A    between atoms: C6_7  and  O2_8 
REMARK    2  A    between atoms: C11_15  and  C13_17 
REMARK    3  A    between atoms: C26_34  and  C27_35 
REMARK    4  A    between atoms: C27_35  and  C28_36 
REMARK    5  A    between atoms: C32_40  and  C33_41 
REMARK    6  A    between atoms: C33_41  and  N2_42 
REMARK    7  A    between atoms: C33_41  and  N3_43 
ROOT
HETATM    1  C1  UNL     1       6.488   6.476  10.801  1.00  0.00     0.077 C 
HETATM    2  C2  UNL     1       5.676   7.581  11.401  1.00  0.00     0.053 A 
HETATM    3  C3  UNL     1       5.976   8.875  11.222  1.00  0.00     0.088 A 
HETATM    4  C4  UNL     1       5.126   9.902  11.841  1.00  0.00     0.190 A 
HETATM    5  O1  UNL     1       5.357  11.097  11.697  1.00  0.00    -0.287 OA
HETATM    6  C5  UNL     1       3.984   9.434  12.638  1.00  0.00     0.082 A 
HETATM    7  C6  UNL     1       3.109  10.328  13.276  1.00  0.00     0.092 A 
HETATM    8  C7  UNL     1       2.026   9.859  14.046  1.00  0.00     0.016 A 
HETATM    9  C8  UNL     1       1.795   8.473  14.054  1.00  0.00     0.082 A 
HETATM   10  C9  UNL     1       2.680   7.582  13.439  1.00  0.00     0.075 A 
HETATM   11  C10 UNL     1       3.778   8.063  12.737  1.00  0.00     0.095 A 
HETATM   12  O3  UNL     1       4.596   7.134  12.144  1.00  0.00    -0.314 OA
HETATM   13  O4  UNL     1       0.702   7.875  14.623  1.00  0.00    -0.337 OA
HETATM   14  C11 UNL     1      -0.458   8.719  14.793  1.00  0.00     0.095 C 
HETATM   15  C12 UNL     1      -1.083   8.995  13.406  1.00  0.00     0.050 C 
HETATM   16  C18 UNL     1      -0.007  10.003  15.537  1.00  0.00     0.175 C 
HETATM   17  O5  UNL     1      -1.093  10.799  16.059  1.00  0.00    -0.310 OA
HETATM   18  C19 UNL     1      -1.684  11.743  15.289  1.00  0.00     0.297 C 
HETATM   19  O6  UNL     1      -1.743  11.764  14.072  1.00  0.00    -0.262 OA
HETATM   20  C20 UNL     1      -2.102  12.887  16.143  1.00  0.00     0.175 A 
HETATM   21  C21 UNL     1      -1.136  14.043  16.349  1.00  0.00     0.051 C 
HETATM   22  C22 UNL     1       0.288  13.775  15.829  1.00  0.00     0.004 C 
HETATM   23  C23 UNL     1       1.047  12.718  16.648  1.00  0.00     0.001 C 
HETATM   24  C24 UNL     1       1.871  11.730  15.801  1.00  0.00     0.012 C 
HETATM   25  C25 UNL     1       1.096  10.813  14.797  1.00  0.00     0.057 C 
HETATM   26  O7  UNL     1      -3.448  13.342  15.897  1.00  0.00    -0.358 OA
HETATM   27  C26 UNL     1      -3.269  12.622  17.117  1.00  0.00     0.172 A 
ENDROOT
BRANCH  27  28
HETATM   28  C27 UNL     1      -3.466  13.367  18.402  1.00  0.00     0.074 C 
BRANCH  28  29
HETATM   29  C28 UNL     1      -4.909  13.528  18.813  1.00  0.00    -0.055 A 
HETATM   30  C29 UNL     1      -5.280  13.446  20.161  1.00  0.00     0.007 A 
HETATM   31  C30 UNL     1      -6.613  13.596  20.537  1.00  0.00     0.001 A 
HETATM   32  C31 UNL     1      -7.593  13.825  19.570  1.00  0.00     0.011 A 
HETATM   33  C32 UNL     1      -7.254  13.903  18.210  1.00  0.00     0.004 A 
HETATM   34  C34 UNL     1      -5.901  13.765  17.850  1.00  0.00     0.018 A 
BRANCH  33  35
HETATM   35  C33 UNL     1      -8.333  14.176  17.186  1.00  0.00     0.479 C 
BRANCH  35  36
HETATM   36  N2  UNL     1      -8.307  15.535  16.726  1.00  0.00     0.116 N 
HETATM   37  H37 UNL     1      -8.223  16.147  17.534  1.00  0.00     0.316 HD
HETATM   38  H38 UNL     1      -7.437  15.640  16.210  1.00  0.00     0.316 HD
ENDBRANCH  35  36
BRANCH  35  39
HETATM   39  N3  UNL     1      -8.159  13.441  15.963  1.00  0.00     0.116 N 
HETATM   40  H39 UNL     1      -8.342  12.458  16.154  1.00  0.00     0.316 HD
HETATM   41  H40 UNL     1      -8.893  13.756  15.334  1.00  0.00     0.316 HD
ENDBRANCH  35  39
ENDBRANCH  33  35
ENDBRANCH  28  29
ENDBRANCH  27  28
BRANCH  14  42
HETATM   42  C13 UNL     1      -1.490   7.890  15.653  1.00  0.00     0.026 C 
HETATM   43  C14 UNL     1      -2.119   6.707  14.878  1.00  0.00     0.037 C 
HETATM   44  C15 UNL     1      -3.394   6.209  15.554  1.00  0.00     0.270 C 
HETATM   45  N1  UNL     1      -4.451   7.217  15.577  1.00  0.00     0.083 N 
HETATM   46  C16 UNL     1      -3.956   8.591  15.564  1.00  0.00     0.270 C 
HETATM   47  H15 UNL     1      -5.044   7.064  16.393  1.00  0.00     0.315 HD
HETATM   48  C17 UNL     1      -2.617   8.752  16.282  1.00  0.00     0.037 C 
ENDBRANCH  14  42
BRANCH   7  49
HETATM   49  O2  UNL     1       3.262  11.685  13.134  1.00  0.00    -0.359 OA
HETATM   50  H5  UNL     1       4.053  11.858  12.574  1.00  0.00     0.217 HD
ENDBRANCH   7  49
TORSDOF 7
ENDMDL
MODEL 5
REMARK minimizedAffinity -10.027029
REMARK CNNscore 0.0884113386
REMARK CNNaffinity 6.55563879
REMARK  7 active torsions:
REMARK  status: ('A' for Active; 'I' for Inactive)
REMARK    1  A    between atoms: C6_7  and  O2_8 
REMARK    2  A    between atoms: C11_15  and  C13_17 
REMARK    3  A    between atoms: C26_34  and  C27_35 
REMARK    4  A    between atoms: C27_35  and  C28_36 
REMARK    5  A    between atoms: C32_40  and  C33_41 
REMARK    6  A    between atoms: C33_41  and  N2_42 
REMARK    7  A    between atoms: C33_41  and  N3_43 
ROOT
HETATM    1  C1  UNL     1      -6.313   0.971  10.932  1.00  0.00     0.077 C 
HETATM    2  C2  UNL     1      -6.107   2.194  11.770  1.00  0.00     0.053 A 
HETATM    3  C3  UNL     1      -7.016   2.621  12.658  1.00  0.00     0.088 A 
HETATM    4  C4  UNL     1      -6.738   3.829  13.447  1.00  0.00     0.190 A 
HETATM    5  O1  UNL     1      -7.536   4.251  14.276  1.00  0.00    -0.287 OA
HETATM    6  C5  UNL     1      -5.457   4.508  13.202  1.00  0.00     0.082 A 
HETATM    7  C6  UNL     1      -5.090   5.671  13.898  1.00  0.00     0.092 A 
HETATM    8  C7  UNL     1      -3.863   6.314  13.641  1.00  0.00     0.016 A 
HETATM    9  C8  UNL     1      -2.981   5.682  12.747  1.00  0.00     0.082 A 
HETATM   10  C9  UNL     1      -3.356   4.537  12.037  1.00  0.00     0.075 A 
HETATM   11  C10 UNL     1      -4.598   3.955  12.261  1.00  0.00     0.095 A 
HETATM   12  O3  UNL     1      -4.895   2.825  11.542  1.00  0.00    -0.314 OA
HETATM   13  O4  UNL     1      -1.697   6.094  12.509  1.00  0.00    -0.337 OA
HETATM   14  C11 UNL     1      -1.092   6.897  13.546  1.00  0.00     0.095 C 
HETATM   15  C12 UNL     1      -0.788   5.994  14.764  1.00  0.00     0.050 C 
HETATM   16  C18 UNL     1      -2.059   8.067  13.867  1.00  0.00     0.175 C 
HETATM   17  O5  UNL     1      -1.468   9.128  14.648  1.00  0.00    -0.310 OA
HETATM   18  C19 UNL     1      -1.477   9.068  16.001  1.00  0.00     0.297 C 
HETATM   19  O6  UNL     1      -1.526   8.065  16.691  1.00  0.00    -0.262 OA
HETATM   20  C20 UNL     1      -1.613  10.443  16.555  1.00  0.00     0.175 A 
HETATM   21  C21 UNL     1      -3.004  10.988  16.839  1.00  0.00     0.051 C 
HETATM   22  C22 UNL     1      -4.146  10.120  16.281  1.00  0.00     0.004 C 
HETATM   23  C23 UNL     1      -4.225  10.128  14.745  1.00  0.00     0.001 C 
HETATM   24  C24 UNL     1      -4.517   8.753  14.117  1.00  0.00     0.012 C 
HETATM   25  C25 UNL     1      -3.469   7.613  14.343  1.00  0.00     0.057 C 
HETATM   26  O7  UNL     1      -0.686  10.742  17.619  1.00  0.00    -0.358 OA
HETATM   27  C26 UNL     1      -0.398  11.376  16.373  1.00  0.00     0.172 A 
ENDROOT
BRANCH  27  28
HETATM   28  C27 UNL     1      -0.498  12.870  16.312  1.00  0.00     0.074 C 
BRANCH  28  29
HETATM   29  C28 UNL     1      -0.610  13.542  17.658  1.00  0.00    -0.055 A 
HETATM   30  C29 UNL     1      -1.825  14.094  18.081  1.00  0.00     0.007 A 
HETATM   31  C30 UNL     1      -1.925  14.713  19.325  1.00  0.00     0.001 A 
HETATM   32  C31 UNL     1      -0.810  14.792  20.160  1.00  0.00     0.011 A 
HETATM   33  C32 UNL     1       0.425  14.257  19.761  1.00  0.00     0.004 A 
HETATM   34  C34 UNL     1       0.504  13.622  18.508  1.00  0.00     0.018 A 
BRANCH  33  35
HETATM   35  C33 UNL     1       1.611  14.336  20.696  1.00  0.00     0.479 C 
BRANCH  35  36
HETATM   36  N2  UNL     1       1.399  15.280  21.756  1.00  0.00     0.116 N 
HETATM   37  H37 UNL     1       1.025  16.136  21.354  1.00  0.00     0.316 HD
HETATM   38  H38 UNL     1       0.651  14.895  22.329  1.00  0.00     0.316 HD
ENDBRANCH  35  36
BRANCH  35  39
HETATM   39  N3  UNL     1       1.849  13.117  21.421  1.00  0.00     0.116 N 
HETATM   40  H39 UNL     1       2.188  12.418  20.765  1.00  0.00     0.316 HD
HETATM   41  H40 UNL     1       2.615  13.312  22.061  1.00  0.00     0.316 HD
ENDBRANCH  35  39
ENDBRANCH  33  35
ENDBRANCH  28  29
ENDBRANCH  27  28
BRANCH  14  42
HETATM   42  C13 UNL     1       0.275   7.427  12.959  1.00  0.00     0.026 C 
HETATM   43  C14 UNL     1       0.133   8.049  11.548  1.00  0.00     0.037 C 
HETATM   44  C15 UNL     1       1.481   8.146  10.841  1.00  0.00     0.270 C 
HETATM   45  N1  UNL     1       2.083   6.839  10.591  1.00  0.00     0.083 N 
HETATM   46  C16 UNL     1       1.676   5.810  11.545  1.00  0.00     0.270 C 
HETATM   47  H15 UNL     1       3.099   6.932  10.585  1.00  0.00     0.315 HD
HETATM   48  C17 UNL     1       1.404   6.363  12.942  1.00  0.00     0.037 C 
ENDBRANCH  14  42
BRANCH   7  49
HETATM   49  O2  UNL     1      -5.899   6.191  14.877  1.00  0.00    -0.359 OA
HETATM   50  H5  UNL     1      -6.713   5.640  14.942  1.00  0.00     0.217 HD
ENDBRANCH   7  49
TORSDOF 7
ENDMDL
MODEL 6
REMARK minimizedAffinity -8.20768166
REMARK CNNscore 0.0848428607
REMARK CNNaffinity 5.63538027
REMARK  7 active torsions:
REMARK  status: ('A' for Active; 'I' for Inactive)
REMARK    1  A    between atoms: C6_7  and  O2_8 
REMARK    2  A    between atoms: C11_15  and  C13_17 
REMARK    3  A    between atoms: C26_34  and  C27_35 
REMARK    4  A    between atoms: C27_35  and  C28_36 
REMARK    5  A    between atoms: C32_40  and  C33_41 
REMARK    6  A    between atoms: C33_41  and  N2_42 
REMARK    7  A    between atoms: C33_41  and  N3_43 
ROOT
HETATM    1  C1  UNL     1      -8.287  16.329  14.380  1.00  0.00     0.077 C 
HETATM    2  C2  UNL     1      -9.479  15.424  14.383  1.00  0.00     0.053 A 
HETATM    3  C3  UNL     1     -10.726  15.875  14.188  1.00  0.00     0.088 A 
HETATM    4  C4  UNL     1     -11.845  14.921  14.201  1.00  0.00     0.190 A 
HETATM    5  O1  UNL     1     -13.000  15.286  14.019  1.00  0.00    -0.287 OA
HETATM    6  C5  UNL     1     -11.516  13.508  14.436  1.00  0.00     0.082 A 
HETATM    7  C6  UNL     1     -12.507  12.513  14.471  1.00  0.00     0.092 A 
HETATM    8  C7  UNL     1     -12.173  11.165  14.710  1.00  0.00     0.016 A 
HETATM    9  C8  UNL     1     -10.808  10.846  14.799  1.00  0.00     0.082 A 
HETATM   10  C9  UNL     1      -9.824  11.840  14.788  1.00  0.00     0.075 A 
HETATM   11  C10 UNL     1     -10.180  13.171  14.613  1.00  0.00     0.095 A 
HETATM   12  O3  UNL     1      -9.163  14.092  14.596  1.00  0.00    -0.314 OA
HETATM   13  O4  UNL     1     -10.316   9.570  14.875  1.00  0.00    -0.337 OA
HETATM   14  C11 UNL     1     -11.185   8.531  14.375  1.00  0.00     0.095 C 
HETATM   15  C12 UNL     1     -11.245   8.629  12.832  1.00  0.00     0.050 C 
HETATM   16  C18 UNL     1     -12.566   8.695  15.061  1.00  0.00     0.175 C 
HETATM   17  O5  UNL     1     -13.443   7.557  14.911  1.00  0.00    -0.310 OA
HETATM   18  C19 UNL     1     -14.259   7.459  13.835  1.00  0.00     0.297 C 
HETATM   19  O6  UNL     1     -14.090   7.961  12.738  1.00  0.00    -0.262 OA
HETATM   20  C20 UNL     1     -15.527   6.791  14.236  1.00  0.00     0.175 A 
HETATM   21  C21 UNL     1     -16.693   7.646  14.706  1.00  0.00     0.051 C 
HETATM   22  C22 UNL     1     -16.335   9.124  14.943  1.00  0.00     0.004 C 
HETATM   23  C23 UNL     1     -15.413   9.342  16.154  1.00  0.00     0.001 C 
HETATM   24  C24 UNL     1     -14.297  10.379  15.925  1.00  0.00     0.012 C 
HETATM   25  C25 UNL     1     -13.241  10.075  14.811  1.00  0.00     0.057 C 
HETATM   26  O7  UNL     1     -15.949   5.744  13.338  1.00  0.00    -0.358 OA
HETATM   27  C26 UNL     1     -15.427   5.292  14.588  1.00  0.00     0.172 A 
ENDROOT
BRANCH  27  28
HETATM   28  C27 UNL     1     -16.367   4.592  15.523  1.00  0.00     0.074 C 
BRANCH  28  29
HETATM   29  C28 UNL     1     -16.324   3.087  15.437  1.00  0.00    -0.055 A 
HETATM   30  C29 UNL     1     -16.675   2.298  16.541  1.00  0.00     0.007 A 
HETATM   31  C30 UNL     1     -16.636   0.908  16.458  1.00  0.00     0.001 A 
HETATM   32  C31 UNL     1     -16.240   0.288  15.272  1.00  0.00     0.011 A 
HETATM   33  C32 UNL     1     -15.873   1.050  14.151  1.00  0.00     0.004 A 
HETATM   34  C34 UNL     1     -15.934   2.453  14.248  1.00  0.00     0.018 A 
BRANCH  33  35
HETATM   35  C33 UNL     1     -15.472   0.351  12.872  1.00  0.00     0.479 C 
BRANCH  35  36
HETATM   36  N2  UNL     1     -15.478  -1.077  13.014  1.00  0.00     0.116 N 
HETATM   37  H37 UNL     1     -15.003  -1.316  13.880  1.00  0.00     0.316 HD
HETATM   38  H38 UNL     1     -16.450  -1.341  13.150  1.00  0.00     0.316 HD
ENDBRANCH  35  36
BRANCH  35  39
HETATM   39  N3  UNL     1     -16.403   0.551  11.795  1.00  0.00     0.116 N 
HETATM   40  H39 UNL     1     -16.339   1.521  11.494  1.00  0.00     0.316 HD
HETATM   41  H40 UNL     1     -16.069  -0.017  11.020  1.00  0.00     0.316 HD
ENDBRANCH  35  39
ENDBRANCH  33  35
ENDBRANCH  28  29
ENDBRANCH  27  28
BRANCH  14  42
HETATM   42  C13 UNL     1     -10.510   7.158  14.765  1.00  0.00     0.026 C 
HETATM   43  C14 UNL     1      -9.376   7.311  15.809  1.00  0.00     0.037 C 
HETATM   44  C15 UNL     1      -8.474   6.082  15.839  1.00  0.00     0.270 C 
HETATM   45  N1  UNL     1      -7.766   5.870  14.578  1.00  0.00     0.083 N 
HETATM   46  C16 UNL     1      -8.466   6.404  13.412  1.00  0.00     0.270 C 
HETATM   47  H15 UNL     1      -7.588   4.873  14.456  1.00  0.00     0.315 HD
HETATM   48  C17 UNL     1      -9.986   6.349  13.549  1.00  0.00     0.037 C 
ENDBRANCH  14  42
BRANCH   7  49
HETATM   49  O2  UNL     1     -13.823  12.821  14.233  1.00  0.00    -0.359 OA
HETATM   50  H5  UNL     1     -13.900  13.791  14.084  1.00  0.00     0.217 HD
ENDBRANCH   7  49
TORSDOF 7
ENDMDL
MODEL 7
REMARK minimizedAffinity -8.04665947
REMARK CNNscore 0.0832460076
REMARK CNNaffinity 4.72667694
REMARK  7 active torsions:
REMARK  status: ('A' for Active; 'I' for Inactive)
REMARK    1  A    between atoms: C6_7  and  O2_8 
REMARK    2  A    between atoms: C11_15  and  C13_17 
REMARK    3  A    between atoms: C26_34  and  C27_35 
REMARK    4  A    between atoms: C27_35  and  C28_36 
REMARK    5  A    between atoms: C32_40  and  C33_41 
REMARK    6  A    between atoms: C33_41  and  N2_42 
REMARK    7  A    between atoms: C33_41  and  N3_43 
ROOT
HETATM    1  C1  UNL     1       8.478  19.503  27.038  1.00  0.00     0.077 C 
HETATM    2  C2  UNL     1       8.848  18.711  25.823  1.00  0.00     0.053 A 
HETATM    3  C3  UNL     1       9.978  18.932  25.136  1.00  0.00     0.088 A 
HETATM    4  C4  UNL     1      10.273  18.108  23.955  1.00  0.00     0.190 A 
HETATM    5  O1  UNL     1      11.297  18.268  23.301  1.00  0.00    -0.287 OA
HETATM    6  C5  UNL     1       9.286  17.079  23.593  1.00  0.00     0.082 A 
HETATM    7  C6  UNL     1       9.466  16.239  22.483  1.00  0.00     0.092 A 
HETATM    8  C7  UNL     1       8.503  15.267  22.145  1.00  0.00     0.016 A 
HETATM    9  C8  UNL     1       7.421  15.101  23.026  1.00  0.00     0.082 A 
HETATM   10  C9  UNL     1       7.230  15.954  24.118  1.00  0.00     0.075 A 
HETATM   11  C10 UNL     1       8.161  16.947  24.396  1.00  0.00     0.095 A 
HETATM   12  O3  UNL     1       7.920  17.738  25.492  1.00  0.00    -0.314 OA
HETATM   13  O4  UNL     1       6.488  14.104  22.924  1.00  0.00    -0.337 OA
HETATM   14  C11 UNL     1       6.899  12.932  22.187  1.00  0.00     0.095 C 
HETATM   15  C12 UNL     1       7.934  12.150  23.029  1.00  0.00     0.050 C 
HETATM   16  C18 UNL     1       7.444  13.401  20.812  1.00  0.00     0.175 C 
HETATM   17  O5  UNL     1       7.601  12.343  19.843  1.00  0.00    -0.310 OA
HETATM   18  C19 UNL     1       8.752  11.631  19.785  1.00  0.00     0.297 C 
HETATM   19  O6  UNL     1       9.542  11.441  20.692  1.00  0.00    -0.262 OA
HETATM   20  C20 UNL     1       9.030  11.255  18.372  1.00  0.00     0.175 A 
HETATM   21  C21 UNL     1       9.876  12.185  17.517  1.00  0.00     0.051 C 
HETATM   22  C22 UNL     1      10.154  13.555  18.160  1.00  0.00     0.004 C 
HETATM   23  C23 UNL     1       8.904  14.445  18.264  1.00  0.00     0.001 C 
HETATM   24  C24 UNL     1       8.782  15.217  19.591  1.00  0.00     0.012 C 
HETATM   25  C25 UNL     1       8.649  14.381  20.908  1.00  0.00     0.057 C 
HETATM   26  O7  UNL     1       9.393   9.872  18.193  1.00  0.00    -0.358 OA
HETATM   27  C26 UNL     1       8.082  10.213  17.743  1.00  0.00     0.172 A 
ENDROOT
BRANCH  27  28
HETATM   28  C27 UNL     1       7.803  10.121  16.274  1.00  0.00     0.074 C 
BRANCH  28  29
HETATM   29  C28 UNL     1       8.949   9.581  15.455  1.00  0.00    -0.055 A 
HETATM   30  C29 UNL     1       9.076   8.205  15.226  1.00  0.00     0.007 A 
HETATM   31  C30 UNL     1      10.136   7.709  14.469  1.00  0.00     0.001 A 
HETATM   32  C31 UNL     1      11.085   8.582  13.936  1.00  0.00     0.011 A 
HETATM   33  C32 UNL     1      10.991   9.966  14.156  1.00  0.00     0.004 A 
HETATM   34  C34 UNL     1       9.906  10.450  14.909  1.00  0.00     0.018 A 
BRANCH  33  35
HETATM   35  C33 UNL     1      12.020  10.890  13.546  1.00  0.00     0.479 C 
BRANCH  35  36
HETATM   36  N2  UNL     1      13.296  10.250  13.393  1.00  0.00     0.116 N 
HETATM   37  H37 UNL     1      13.517   9.762  14.257  1.00  0.00     0.316 HD
HETATM   38  H38 UNL     1      13.163   9.524  12.693  1.00  0.00     0.316 HD
ENDBRANCH  35  36
BRANCH  35  39
HETATM   39  N3  UNL     1      11.713  11.276  12.196  1.00  0.00     0.116 N 
HETATM   40  H39 UNL     1      10.908  11.898  12.218  1.00  0.00     0.316 HD
HETATM   41  H40 UNL     1      12.501  11.831  11.872  1.00  0.00     0.316 HD
ENDBRANCH  35  39
ENDBRANCH  33  35
ENDBRANCH  28  29
ENDBRANCH  27  28
BRANCH  14  42
HETATM   42  C13 UNL     1       5.610  12.036  22.017  1.00  0.00     0.026 C 
HETATM   43  C14 UNL     1       4.945  12.183  20.626  1.00  0.00     0.037 C 
HETATM   44  C15 UNL     1       3.507  11.672  20.637  1.00  0.00     0.270 C 
HETATM   45  N1  UNL     1       2.640  12.443  21.525  1.00  0.00     0.083 N 
HETATM   46  C16 UNL     1       3.347  13.069  22.640  1.00  0.00     0.270 C 
HETATM   47  H15 UNL     1       1.895  11.840  21.874  1.00  0.00     0.315 HD
HETATM   48  C17 UNL     1       4.545  12.255  23.123  1.00  0.00     0.037 C 
ENDBRANCH  14  42
BRANCH   7  49
HETATM   49  O2  UNL     1      10.604  16.314  21.719  1.00  0.00    -0.359 OA
HETATM   50  H5  UNL     1      11.177  17.032  22.073  1.00  0.00     0.217 HD
ENDBRANCH   7  49
TORSDOF 7
ENDMDL
MODEL 8
REMARK minimizedAffinity -8.01038647
REMARK CNNscore 0.0649224296
REMARK CNNaffinity 4.96536493
REMARK  7 active torsions:
REMARK  status: ('A' for Active; 'I' for Inactive)
REMARK    1  A    between atoms: C6_7  and  O2_8 
REMARK    2  A    between atoms: C11_15  and  C13_17 
REMARK    3  A    between atoms: C26_34  and  C27_35 
REMARK    4  A    between atoms: C27_35  and  C28_36 
REMARK    5  A    between atoms: C32_40  and  C33_41 
REMARK    6  A    between atoms: C33_41  and  N2_42 
REMARK    7  A    between atoms: C33_41  and  N3_43 
ROOT
HETATM    1  C1  UNL     1     -20.304  -1.731  -5.879  1.00  0.00     0.077 C 
HETATM    2  C2  UNL     1     -19.265  -2.808  -5.878  1.00  0.00     0.053 A 
HETATM    3  C3  UNL     1     -19.567  -4.100  -6.063  1.00  0.00     0.088 A 
HETATM    4  C4  UNL     1     -18.488  -5.099  -6.052  1.00  0.00     0.190 A 
HETATM    5  O1  UNL     1     -18.716  -6.291  -6.226  1.00  0.00    -0.287 OA
HETATM    6  C5  UNL     1     -17.122  -4.605  -5.829  1.00  0.00     0.082 A 
HETATM    7  C6  UNL     1     -16.017  -5.472  -5.796  1.00  0.00     0.092 A 
HETATM    8  C7  UNL     1     -14.716  -4.981  -5.568  1.00  0.00     0.016 A 
HETATM    9  C8  UNL     1     -14.560  -3.587  -5.488  1.00  0.00     0.082 A 
HETATM   10  C9  UNL     1     -15.662  -2.726  -5.497  1.00  0.00     0.075 A 
HETATM   11  C10 UNL     1     -16.944  -3.238  -5.660  1.00  0.00     0.095 A 
HETATM   12  O3  UNL     1     -17.978  -2.336  -5.675  1.00  0.00    -0.314 OA
HETATM   13  O4  UNL     1     -13.350  -2.947  -5.423  1.00  0.00    -0.337 OA
HETATM   14  C11 UNL     1     -12.219  -3.691  -5.927  1.00  0.00     0.095 C 
HETATM   15  C12 UNL     1     -12.319  -3.770  -7.468  1.00  0.00     0.050 C 
HETATM   16  C18 UNL     1     -12.215  -5.078  -5.233  1.00  0.00     0.175 C 
HETATM   17  O5  UNL     1     -10.983  -5.816  -5.388  1.00  0.00    -0.310 OA
HETATM   18  C19 UNL     1     -10.796  -6.621  -6.461  1.00  0.00     0.297 C 
HETATM   19  O6  UNL     1     -11.322  -6.517  -7.555  1.00  0.00    -0.262 OA
HETATM   20  C20 UNL     1      -9.980  -7.799  -6.059  1.00  0.00     0.175 A 
HETATM   21  C21 UNL     1     -10.690  -9.055  -5.578  1.00  0.00     0.051 C 
HETATM   22  C22 UNL     1     -12.198  -8.871  -5.331  1.00  0.00     0.004 C 
HETATM   23  C23 UNL     1     -12.515  -7.975  -4.123  1.00  0.00     0.001 C 
HETATM   24  C24 UNL     1     -13.677  -6.991  -4.350  1.00  0.00     0.012 C 
HETATM   25  C25 UNL     1     -13.507  -5.912  -5.471  1.00  0.00     0.057 C 
HETATM   26  O7  UNL     1      -8.897  -8.100  -6.962  1.00  0.00    -0.358 OA
HETATM   27  C26 UNL     1      -8.501  -7.521  -5.718  1.00  0.00     0.172 A 
ENDROOT
BRANCH  27  28
HETATM   28  C27 UNL     1      -7.690  -8.367  -4.783  1.00  0.00     0.074 C 
BRANCH  28  29
HETATM   29  C28 UNL     1      -7.988  -8.141  -3.322  1.00  0.00    -0.055 A 
HETATM   30  C29 UNL     1      -8.732  -7.029  -2.908  1.00  0.00     0.007 A 
HETATM   31  C30 UNL     1      -9.006  -6.823  -1.558  1.00  0.00     0.001 A 
HETATM   32  C31 UNL     1      -8.536  -7.726  -0.603  1.00  0.00     0.011 A 
HETATM   33  C32 UNL     1      -7.780  -8.846  -0.984  1.00  0.00     0.004 A 
HETATM   34  C34 UNL     1      -7.526  -9.045  -2.354  1.00  0.00     0.018 A 
BRANCH  33  35
HETATM   35  C33 UNL     1      -7.304  -9.819   0.070  1.00  0.00     0.479 C 
BRANCH  35  36
HETATM   36  N2  UNL     1      -5.943 -10.222  -0.144  1.00  0.00     0.116 N 
HETATM   37  H37 UNL     1      -5.828 -10.458  -1.126  1.00  0.00     0.316 HD
HETATM   38  H38 UNL     1      -5.377  -9.391   0.008  1.00  0.00     0.316 HD
ENDBRANCH  35  36
BRANCH  35  39
HETATM   39  N3  UNL     1      -7.247  -9.251   1.389  1.00  0.00     0.116 N 
HETATM   40  H39 UNL     1      -8.199  -9.095   1.710  1.00  0.00     0.316 HD
HETATM   41  H40 UNL     1      -6.850  -9.968   1.992  1.00  0.00     0.316 HD
ENDBRANCH  35  39
ENDBRANCH  33  35
ENDBRANCH  28  29
ENDBRANCH  27  28
BRANCH  14  42
HETATM   42  C13 UNL     1     -10.933  -2.857  -5.549  1.00  0.00     0.026 C 
HETATM   43  C14 UNL     1     -11.261  -1.466  -4.955  1.00  0.00     0.037 C 
HETATM   44  C15 UNL     1     -10.054  -0.535  -5.009  1.00  0.00     0.270 C 
HETATM   45  N1  UNL     1      -9.627  -0.242  -6.376  1.00  0.00     0.083 N 
HETATM   46  C16 UNL     1      -9.955  -1.295  -7.333  1.00  0.00     0.270 C 
HETATM   47  H15 UNL     1      -8.624  -0.058  -6.383  1.00  0.00     0.315 HD
HETATM   48  C17 UNL     1      -9.926  -2.693  -6.719  1.00  0.00     0.037 C 
ENDBRANCH  14  42
BRANCH   7  49
HETATM   49  O2  UNL     1     -16.169  -6.816  -6.026  1.00  0.00    -0.359 OA
HETATM   50  H5  UNL     1     -17.125  -7.008  -6.168  1.00  0.00     0.217 HD
ENDBRANCH   7  49
TORSDOF 7
ENDMDL
MODEL 9
REMARK minimizedAffinity -8.32500839
REMARK CNNscore 0.0603463426
REMARK CNNaffinity 4.85619879
REMARK  7 active torsions:
REMARK  status: ('A' for Active; 'I' for Inactive)
REMARK    1  A    between atoms: C6_7  and  O2_8 
REMARK    2  A    between atoms: C11_15  and  C13_17 
REMARK    3  A    between atoms: C26_34  and  C27_35 
REMARK    4  A    between atoms: C27_35  and  C28_36 
REMARK    5  A    between atoms: C32_40  and  C33_41 
REMARK    6  A    between atoms: C33_41  and  N2_42 
REMARK    7  A    between atoms: C33_41  and  N3_43 
ROOT
HETATM    1  C1  UNL     1      -2.570   3.958  11.134  1.00  0.00     0.077 C 
HETATM    2  C2  UNL     1      -2.367   4.852  12.317  1.00  0.00     0.053 A 
HETATM    3  C3  UNL     1      -3.153   4.801  13.402  1.00  0.00     0.088 A 
HETATM    4  C4  UNL     1      -2.886   5.711  14.525  1.00  0.00     0.190 A 
HETATM    5  O1  UNL     1      -3.572   5.694  15.541  1.00  0.00    -0.287 OA
HETATM    6  C5  UNL     1      -1.755   6.639  14.381  1.00  0.00     0.082 A 
HETATM    7  C6  UNL     1      -1.412   7.552  15.391  1.00  0.00     0.092 A 
HETATM    8  C7  UNL     1      -0.332   8.442  15.228  1.00  0.00     0.016 A 
HETATM    9  C8  UNL     1       0.449   8.300  14.069  1.00  0.00     0.082 A 
HETATM   10  C9  UNL     1       0.094   7.407  13.053  1.00  0.00     0.075 A 
HETATM   11  C10 UNL     1      -1.013   6.582  13.208  1.00  0.00     0.095 A 
HETATM   12  O3  UNL     1      -1.295   5.719  12.179  1.00  0.00    -0.314 OA
HETATM   13  O4  UNL     1       1.615   8.979  13.836  1.00  0.00    -0.337 OA
HETATM   14  C11 UNL     1       2.292   9.486  15.007  1.00  0.00     0.095 C 
HETATM   15  C12 UNL     1       2.907   8.297  15.783  1.00  0.00     0.050 C 
HETATM   16  C18 UNL     1       1.265  10.302  15.834  1.00  0.00     0.175 C 
HETATM   17  O5  UNL     1       1.853  11.130  16.861  1.00  0.00    -0.310 OA
HETATM   18  C19 UNL     1       2.086  10.627  18.097  1.00  0.00     0.297 C 
HETATM   19  O6  UNL     1       2.275   9.460  18.390  1.00  0.00    -0.262 OA
HETATM   20  C20 UNL     1       1.888  11.698  19.111  1.00  0.00     0.175 A 
HETATM   21  C21 UNL     1       0.512  11.874  19.736  1.00  0.00     0.051 C 
HETATM   22  C22 UNL     1      -0.599  11.058  19.052  1.00  0.00     0.004 C 
HETATM   23  C23 UNL     1      -0.944  11.558  17.639  1.00  0.00     0.001 C 
HETATM   24  C24 UNL     1      -1.177  10.439  16.608  1.00  0.00     0.012 C 
HETATM   25  C25 UNL     1       0.022   9.484  16.289  1.00  0.00     0.057 C 
HETATM   26  O7  UNL     1       2.942  11.782  20.091  1.00  0.00    -0.358 OA
HETATM   27  C26 UNL     1       2.935  12.831  19.122  1.00  0.00     0.172 A 
ENDROOT
BRANCH  27  28
HETATM   28  C27 UNL     1       2.651  14.222  19.603  1.00  0.00     0.074 C 
BRANCH  28  29
HETATM   29  C28 UNL     1       3.255  14.551  20.946  1.00  0.00    -0.055 A 
HETATM   30  C29 UNL     1       4.632  14.417  21.162  1.00  0.00     0.007 A 
HETATM   31  C30 UNL     1       5.187  14.723  22.402  1.00  0.00     0.001 A 
HETATM   32  C31 UNL     1       4.370  15.162  23.445  1.00  0.00     0.011 A 
HETATM   33  C32 UNL     1       2.985  15.298  23.264  1.00  0.00     0.004 A 
HETATM   34  C34 UNL     1       2.444  14.999  22.000  1.00  0.00     0.018 A 
BRANCH  33  35
HETATM   35  C33 UNL     1       2.128  15.799  24.405  1.00  0.00     0.479 C 
BRANCH  35  36
HETATM   36  N2  UNL     1       0.815  16.178  23.966  1.00  0.00     0.116 N 
HETATM   37  H37 UNL     1       0.908  16.746  23.128  1.00  0.00     0.316 HD
HETATM   38  H38 UNL     1       0.360  15.319  23.668  1.00  0.00     0.316 HD
ENDBRANCH  35  36
BRANCH  35  39
HETATM   39  N3  UNL     1       1.838  14.790  25.387  1.00  0.00     0.116 N 
HETATM   40  H39 UNL     1       2.696  14.580  25.891  1.00  0.00     0.316 HD
HETATM   41  H40 UNL     1       1.205  15.219  26.058  1.00  0.00     0.316 HD
ENDBRANCH  35  39
ENDBRANCH  33  35
ENDBRANCH  28  29
ENDBRANCH  27  28
BRANCH  14  42
HETATM   42  C13 UNL     1       3.465  10.404  14.483  1.00  0.00     0.026 C 
HETATM   43  C14 UNL     1       3.617  10.379  12.942  1.00  0.00     0.037 C 
HETATM   44  C15 UNL     1       4.983  10.900  12.506  1.00  0.00     0.270 C 
HETATM   45  N1  UNL     1       6.084  10.066  12.981  1.00  0.00     0.083 N 
HETATM   46  C16 UNL     1       5.785   9.343  14.215  1.00  0.00     0.270 C 
HETATM   47  H15 UNL     1       6.914  10.645  13.105  1.00  0.00     0.315 HD
HETATM   48  C17 UNL     1       4.838  10.104  15.141  1.00  0.00     0.037 C 
ENDBRANCH  14  42
BRANCH   7  49
HETATM   49  O2  UNL     1      -2.096   7.575  16.581  1.00  0.00    -0.359 OA
HETATM   50  H5  UNL     1      -2.815   6.903  16.547  1.00  0.00     0.217 HD
ENDBRANCH   7  49
TORSDOF 7
ENDMDL
