MODEL 1
REMARK minimizedAffinity -6.60975885
REMARK CNNscore 0.468555212
REMARK CNNaffinity 6.95985603
REMARK  7 active torsions:
REMARK  status: ('A' for Active; 'I' for Inactive)
REMARK    1  A    between atoms: C2_2  and  C3_3 
REMARK    2  A    between atoms: C2_2  and  C4_6 
REMARK    3  A    between atoms: C3_3  and  O2_5 
REMARK    4  A    between atoms: C4_6  and  C6_8 
REMARK    5  A    between atoms: C6_8  and  C7_10 
REMARK    6  A    between atoms: C7_10  and  C8_11 
REMARK    7  A    between atoms: C8_11  and  C10_13 
ROOT
HETATM    1  C10 UNL     1     -10.207  -7.082  -5.035  1.00  0.00    -0.001 C 
HETATM    2  C11 UNL     1      -8.826  -6.959  -5.742  1.00  0.00     0.007 C 
HETATM    3  C12 UNL     1      -7.833  -7.851  -4.973  1.00  0.00     0.015 C 
HETATM    4  C13 UNL     1      -8.710  -8.729  -4.066  1.00  0.00    -0.013 C 
HETATM    5  C14 UNL     1      -9.204  -9.931  -4.932  1.00  0.00     0.021 C 
HETATM    6  C15 UNL     1      -8.089  -9.363  -2.826  1.00  0.00    -0.068 C 
HETATM    7  C16 UNL     1      -8.873  -9.655  -1.752  1.00  0.00    -0.068 C 
HETATM    8  C17 UNL     1     -10.355  -9.282  -1.724  1.00  0.00     0.036 C 
HETATM    9  C18 UNL     1     -10.922  -8.479  -2.917  1.00  0.00     0.015 C 
HETATM   10  C19 UNL     1      -9.827  -7.697  -3.652  1.00  0.00    -0.029 C 
HETATM   11  C20 UNL     1      -9.307  -6.568  -2.708  1.00  0.00     0.016 C 
HETATM   12  C21 UNL     1      -8.255 -10.291  -0.481  1.00  0.00    -0.015 C 
HETATM   13  C22 UNL     1      -7.767  -9.079   0.358  1.00  0.00     0.020 C 
HETATM   14  C23 UNL     1      -9.239 -11.098   0.421  1.00  0.00     0.021 C 
HETATM   15  C24 UNL     1      -9.203 -12.596   0.172  1.00  0.00     0.080 C 
HETATM   16  C25 UNL     1      -7.829 -13.120   0.532  1.00  0.00     0.135 C 
HETATM   17  O4  UNL     1      -7.707 -14.160   1.183  1.00  0.00    -0.297 OA
HETATM   18  C26 UNL     1      -6.610 -12.312   0.050  1.00  0.00     0.018 C 
HETATM   19  C27 UNL     1      -5.905 -11.728   1.279  1.00  0.00     0.023 C 
HETATM   20  C28 UNL     1      -5.648 -13.312  -0.630  1.00  0.00     0.023 C 
HETATM   21  C29 UNL     1      -7.108 -11.251  -0.982  1.00  0.00     0.013 C 
HETATM   22  C30 UNL     1      -6.019 -10.439  -1.695  1.00  0.00     0.011 C 
HETATM   23  C31 UNL     1      -6.608  -9.685  -2.895  1.00  0.00     0.036 C 
ENDROOT
BRANCH   1  24
HETATM   24  C8  UNL     1     -11.021  -5.758  -5.091  1.00  0.00    -0.007 C 
HETATM   25  C9  UNL     1     -12.164  -5.792  -6.111  1.00  0.00     0.011 C 
BRANCH  24  26
HETATM   26  C7  UNL     1     -10.145  -4.501  -5.321  1.00  0.00     0.083 C 
BRANCH  26  27
HETATM   27  C6  UNL     1     -10.756  -3.154  -4.941  1.00  0.00     0.135 C 
HETATM   28  O3  UNL     1     -11.967  -2.997  -4.786  1.00  0.00    -0.297 OA
BRANCH  27  29
HETATM   29  C4  UNL     1      -9.783  -1.976  -4.809  1.00  0.00     0.090 C 
HETATM   30  C5  UNL     1     -10.564  -0.694  -4.498  1.00  0.00     0.023 C 
BRANCH  29  31
HETATM   31  C2  UNL     1      -8.927  -1.916  -6.060  1.00  0.00     0.017 C 
HETATM   32  C1  UNL     1      -9.405  -1.825  -7.316  1.00  0.00     0.026 C 
BRANCH  31  33
HETATM   33  C3  UNL     1      -7.461  -1.939  -5.817  1.00  0.00     0.172 C 
HETATM   34  O1  UNL     1      -6.620  -1.521  -6.593  1.00  0.00    -0.646 OA
BRANCH  33  35
HETATM   35  O2  UNL     1      -7.107  -2.479  -4.639  1.00  0.00    -0.773 OA
HETATM   36  H3  UNL     1      -6.128  -2.424  -4.635  1.00  0.00     0.167 HD
ENDBRANCH  33  35
ENDBRANCH  31  33
ENDBRANCH  29  31
ENDBRANCH  27  29
ENDBRANCH  26  27
ENDBRANCH  24  26
ENDBRANCH   1  24
TORSDOF 7
ENDMDL
MODEL 2
REMARK minimizedAffinity -6.90756035
REMARK CNNscore 0.443936259
REMARK CNNaffinity 6.58600855
REMARK  7 active torsions:
REMARK  status: ('A' for Active; 'I' for Inactive)
REMARK    1  A    between atoms: C2_2  and  C3_3 
REMARK    2  A    between atoms: C2_2  and  C4_6 
REMARK    3  A    between atoms: C3_3  and  O2_5 
REMARK    4  A    between atoms: C4_6  and  C6_8 
REMARK    5  A    between atoms: C6_8  and  C7_10 
REMARK    6  A    between atoms: C7_10  and  C8_11 
REMARK    7  A    between atoms: C8_11  and  C10_13 
ROOT
HETATM    1  C10 UNL     1     -13.548 -12.946  27.741  1.00  0.00    -0.001 C 
HETATM    2  C11 UNL     1     -14.989 -13.394  28.127  1.00  0.00     0.007 C 
HETATM    3  C12 UNL     1     -15.681 -12.194  28.801  1.00  0.00     0.015 C 
HETATM    4  C13 UNL     1     -14.777 -10.990  28.489  1.00  0.00    -0.013 C 
HETATM    5  C14 UNL     1     -15.166 -10.484  27.064  1.00  0.00     0.021 C 
HETATM    6  C15 UNL     1     -14.854  -9.757  29.383  1.00  0.00    -0.068 C 
HETATM    7  C16 UNL     1     -13.768  -8.946  29.510  1.00  0.00    -0.068 C 
HETATM    8  C17 UNL     1     -12.437  -9.289  28.843  1.00  0.00     0.036 C 
HETATM    9  C18 UNL     1     -12.330 -10.635  28.091  1.00  0.00     0.015 C 
HETATM   10  C19 UNL     1     -13.353 -11.658  28.600  1.00  0.00    -0.029 C 
HETATM   11  C20 UNL     1     -12.969 -12.060  30.058  1.00  0.00     0.016 C 
HETATM   12  C21 UNL     1     -13.828  -7.694  30.421  1.00  0.00    -0.015 C 
HETATM   13  C22 UNL     1     -13.446  -8.224  31.830  1.00  0.00     0.020 C 
HETATM   14  C23 UNL     1     -12.819  -6.556  30.078  1.00  0.00     0.021 C 
HETATM   15  C24 UNL     1     -13.420  -5.444  29.234  1.00  0.00     0.080 C 
HETATM   16  C25 UNL     1     -14.516  -4.764  30.028  1.00  0.00     0.135 C 
HETATM   17  O4  UNL     1     -14.602  -3.534  30.049  1.00  0.00    -0.297 OA
HETATM   18  C26 UNL     1     -15.507  -5.664  30.788  1.00  0.00     0.018 C 
HETATM   19  C27 UNL     1     -15.294  -5.449  32.291  1.00  0.00     0.023 C 
HETATM   20  C28 UNL     1     -16.928  -5.176  30.426  1.00  0.00     0.023 C 
HETATM   21  C29 UNL     1     -15.299  -7.134  30.305  1.00  0.00     0.013 C 
HETATM   22  C30 UNL     1     -16.297  -8.169  30.838  1.00  0.00     0.011 C 
HETATM   23  C31 UNL     1     -16.190  -9.480  30.045  1.00  0.00     0.036 C 
ENDROOT
BRANCH   1  24
HETATM   24  C8  UNL     1     -12.519 -14.107  27.849  1.00  0.00    -0.007 C 
HETATM   25  C9  UNL     1     -11.610 -13.998  29.078  1.00  0.00     0.011 C 
BRANCH  24  26
HETATM   26  C7  UNL     1     -11.661 -14.297  26.573  1.00  0.00     0.083 C 
BRANCH  26  27
HETATM   27  C6  UNL     1     -10.373 -13.482  26.478  1.00  0.00     0.135 C 
HETATM   28  O3  UNL     1     -10.336 -12.274  26.711  1.00  0.00    -0.297 OA
BRANCH  27  29
HETATM   29  C4  UNL     1      -9.119 -14.240  26.024  1.00  0.00     0.090 C 
HETATM   30  C5  UNL     1      -8.275 -14.619  27.246  1.00  0.00     0.023 C 
BRANCH  29  31
HETATM   31  C2  UNL     1      -8.399 -13.400  24.986  1.00  0.00     0.017 C 
HETATM   32  C1  UNL     1      -8.307 -12.056  25.011  1.00  0.00     0.026 C 
BRANCH  31  33
HETATM   33  C3  UNL     1      -7.748 -14.174  23.898  1.00  0.00     0.172 C 
HETATM   34  O1  UNL     1      -8.153 -14.238  22.750  1.00  0.00    -0.646 OA
BRANCH  33  35
HETATM   35  O2  UNL     1      -6.640 -14.832  24.277  1.00  0.00    -0.773 OA
HETATM   36  H3  UNL     1      -6.340 -15.287  23.462  1.00  0.00     0.167 HD
ENDBRANCH  33  35
ENDBRANCH  31  33
ENDBRANCH  29  31
ENDBRANCH  27  29
ENDBRANCH  26  27
ENDBRANCH  24  26
ENDBRANCH   1  24
TORSDOF 7
ENDMDL
MODEL 3
REMARK minimizedAffinity -6.78898764
REMARK CNNscore 0.379361451
REMARK CNNaffinity 5.81503439
REMARK  7 active torsions:
REMARK  status: ('A' for Active; 'I' for Inactive)
REMARK    1  A    between atoms: C2_2  and  C3_3 
REMARK    2  A    between atoms: C2_2  and  C4_6 
REMARK    3  A    between atoms: C3_3  and  O2_5 
REMARK    4  A    between atoms: C4_6  and  C6_8 
REMARK    5  A    between atoms: C6_8  and  C7_10 
REMARK    6  A    between atoms: C7_10  and  C8_11 
REMARK    7  A    between atoms: C8_11  and  C10_13 
ROOT
HETATM    1  C10 UNL     1     -17.386   3.450  14.399  1.00  0.00    -0.001 C 
HETATM    2  C11 UNL     1     -17.176   3.380  15.940  1.00  0.00     0.007 C 
HETATM    3  C12 UNL     1     -16.597   1.990  16.265  1.00  0.00     0.015 C 
HETATM    4  C13 UNL     1     -16.161   1.416  14.907  1.00  0.00    -0.013 C 
HETATM    5  C14 UNL     1     -14.744   1.996  14.599  1.00  0.00     0.021 C 
HETATM    6  C15 UNL     1     -16.013  -0.093  14.756  1.00  0.00    -0.068 C 
HETATM    7  C16 UNL     1     -16.178  -0.669  13.534  1.00  0.00    -0.068 C 
HETATM    8  C17 UNL     1     -16.596   0.153  12.316  1.00  0.00     0.036 C 
HETATM    9  C18 UNL     1     -16.916   1.651  12.530  1.00  0.00     0.015 C 
HETATM   10  C19 UNL     1     -17.319   1.948  13.980  1.00  0.00    -0.029 C 
HETATM   11  C20 UNL     1     -18.697   1.270  14.260  1.00  0.00     0.016 C 
HETATM   12  C21 UNL     1     -16.039  -2.204  13.366  1.00  0.00    -0.015 C 
HETATM   13  C22 UNL     1     -17.456  -2.756  13.684  1.00  0.00     0.020 C 
HETATM   14  C23 UNL     1     -15.672  -2.700  11.933  1.00  0.00     0.021 C 
HETATM   15  C24 UNL     1     -14.189  -2.974  11.747  1.00  0.00     0.080 C 
HETATM   16  C25 UNL     1     -13.782  -4.108  12.666  1.00  0.00     0.135 C 
HETATM   17  O4  UNL     1     -13.057  -5.017  12.254  1.00  0.00    -0.297 OA
HETATM   18  C26 UNL     1     -14.297  -4.069  14.116  1.00  0.00     0.018 C 
HETATM   19  C27 UNL     1     -15.270  -5.238  14.310  1.00  0.00     0.023 C 
HETATM   20  C28 UNL     1     -13.076  -4.297  15.034  1.00  0.00     0.023 C 
HETATM   21  C29 UNL     1     -14.915  -2.658  14.375  1.00  0.00     0.013 C 
HETATM   22  C30 UNL     1     -15.353  -2.366  15.815  1.00  0.00     0.011 C 
HETATM   23  C31 UNL     1     -15.626  -0.867  16.002  1.00  0.00     0.036 C 
ENDROOT
BRANCH   1  24
HETATM   24  C8  UNL     1     -18.626   4.304  14.008  1.00  0.00    -0.007 C 
HETATM   25  C9  UNL     1     -19.323   3.813  12.735  1.00  0.00     0.011 C 
BRANCH  24  26
HETATM   26  C7  UNL     1     -18.326   5.819  13.895  1.00  0.00     0.083 C 
BRANCH  26  27
HETATM   27  C6  UNL     1     -17.045   6.218  13.166  1.00  0.00     0.135 C 
HETATM   28  O3  UNL     1     -16.830   5.915  11.992  1.00  0.00    -0.297 OA
BRANCH  27  29
HETATM   29  C4  UNL     1     -16.000   6.980  13.990  1.00  0.00     0.090 C 
HETATM   30  C5  UNL     1     -16.702   7.984  14.911  1.00  0.00     0.023 C 
BRANCH  29  31
HETATM   31  C2  UNL     1     -14.985   7.585  13.039  1.00  0.00     0.017 C 
HETATM   32  C1  UNL     1     -13.708   7.176  12.912  1.00  0.00     0.026 C 
BRANCH  31  33
HETATM   33  C3  UNL     1     -15.503   8.693  12.195  1.00  0.00     0.172 C 
HETATM   34  O1  UNL     1     -15.594   9.855  12.551  1.00  0.00    -0.646 OA
BRANCH  33  35
HETATM   35  O2  UNL     1     -15.885   8.316  10.964  1.00  0.00    -0.773 OA
HETATM   36  H3  UNL     1     -16.199   9.145  10.546  1.00  0.00     0.167 HD
ENDBRANCH  33  35
ENDBRANCH  31  33
ENDBRANCH  29  31
ENDBRANCH  27  29
ENDBRANCH  26  27
ENDBRANCH  24  26
ENDBRANCH   1  24
TORSDOF 7
ENDMDL
MODEL 4
REMARK minimizedAffinity -6.70498514
REMARK CNNscore 0.353070378
REMARK CNNaffinity 6.37037468
REMARK  7 active torsions:
REMARK  status: ('A' for Active; 'I' for Inactive)
REMARK    1  A    between atoms: C2_2  and  C3_3 
REMARK    2  A    between atoms: C2_2  and  C4_6 
REMARK    3  A    between atoms: C3_3  and  O2_5 
REMARK    4  A    between atoms: C4_6  and  C6_8 
REMARK    5  A    between atoms: C6_8  and  C7_10 
REMARK    6  A    between atoms: C7_10  and  C8_11 
REMARK    7  A    between atoms: C8_11  and  C10_13 
ROOT
HETATM    1  C10 UNL     1      -2.905  12.364  17.793  1.00  0.00    -0.001 C 
HETATM    2  C11 UNL     1      -3.193  11.285  18.877  1.00  0.00     0.007 C 
HETATM    3  C12 UNL     1      -2.929   9.908  18.240  1.00  0.00     0.015 C 
HETATM    4  C13 UNL     1      -2.172  10.214  16.936  1.00  0.00    -0.013 C 
HETATM    5  C14 UNL     1      -0.666  10.391  17.312  1.00  0.00     0.021 C 
HETATM    6  C15 UNL     1      -2.182   9.181  15.816  1.00  0.00    -0.068 C 
HETATM    7  C16 UNL     1      -2.035   9.584  14.524  1.00  0.00    -0.068 C 
HETATM    8  C17 UNL     1      -1.945  11.065  14.158  1.00  0.00     0.036 C 
HETATM    9  C18 UNL     1      -2.118  12.102  15.291  1.00  0.00     0.015 C 
HETATM   10  C19 UNL     1      -2.908  11.529  16.475  1.00  0.00    -0.029 C 
HETATM   11  C20 UNL     1      -4.380  11.288  16.017  1.00  0.00     0.016 C 
HETATM   12  C21 UNL     1      -2.052   8.547  13.373  1.00  0.00    -0.015 C 
HETATM   13  C22 UNL     1      -3.556   8.384  13.023  1.00  0.00     0.020 C 
HETATM   14  C23 UNL     1      -1.328   8.977  12.060  1.00  0.00     0.021 C 
HETATM   15  C24 UNL     1       0.092   8.445  11.946  1.00  0.00     0.080 C 
HETATM   16  C25 UNL     1       0.044   6.933  11.885  1.00  0.00     0.135 C 
HETATM   17  O4  UNL     1       0.736   6.318  11.069  1.00  0.00    -0.297 OA
HETATM   18  C26 UNL     1      -0.885   6.208  12.876  1.00  0.00     0.018 C 
HETATM   19  C27 UNL     1      -2.013   5.545  12.078  1.00  0.00     0.023 C 
HETATM   20  C28 UNL     1      -0.048   5.097  13.548  1.00  0.00     0.023 C 
HETATM   21  C29 UNL     1      -1.363   7.246  13.941  1.00  0.00     0.013 C 
HETATM   22  C30 UNL     1      -2.184   6.686  15.109  1.00  0.00     0.011 C 
HETATM   23  C31 UNL     1      -2.304   7.727  16.232  1.00  0.00     0.036 C 
ENDROOT
BRANCH   1  24
HETATM   24  C8  UNL     1      -3.841  13.599  17.925  1.00  0.00    -0.007 C 
HETATM   25  C9  UNL     1      -3.327  14.831  17.172  1.00  0.00     0.011 C 
BRANCH  24  26
HETATM   26  C7  UNL     1      -4.171  13.975  19.390  1.00  0.00     0.083 C 
BRANCH  26  27
HETATM   27  C6  UNL     1      -5.634  14.265  19.717  1.00  0.00     0.135 C 
HETATM   28  O3  UNL     1      -6.563  13.828  19.038  1.00  0.00    -0.297 OA
BRANCH  27  29
HETATM   29  C4  UNL     1      -5.896  15.182  20.919  1.00  0.00     0.090 C 
HETATM   30  C5  UNL     1      -5.139  16.502  20.735  1.00  0.00     0.023 C 
BRANCH  29  31
HETATM   31  C2  UNL     1      -5.557  14.422  22.187  1.00  0.00     0.017 C 
HETATM   32  C1  UNL     1      -5.871  13.133  22.420  1.00  0.00     0.026 C 
BRANCH  31  33
HETATM   33  C3  UNL     1      -4.804  15.203  23.202  1.00  0.00     0.172 C 
HETATM   34  O1  UNL     1      -3.589  15.241  23.290  1.00  0.00    -0.646 OA
BRANCH  33  35
HETATM   35  O2  UNL     1      -5.580  15.892  24.055  1.00  0.00    -0.773 OA
HETATM   36  H3  UNL     1      -4.943  16.340  24.650  1.00  0.00     0.167 HD
ENDBRANCH  33  35
ENDBRANCH  31  33
ENDBRANCH  29  31
ENDBRANCH  27  29
ENDBRANCH  26  27
ENDBRANCH  24  26
ENDBRANCH   1  24
TORSDOF 7
ENDMDL
MODEL 5
REMARK minimizedAffinity -6.67316437
REMARK CNNscore 0.322683334
REMARK CNNaffinity 6.40973902
REMARK  7 active torsions:
REMARK  status: ('A' for Active; 'I' for Inactive)
REMARK    1  A    between atoms: C2_2  and  C3_3 
REMARK    2  A    between atoms: C2_2  and  C4_6 
REMARK    3  A    between atoms: C3_3  and  O2_5 
REMARK    4  A    between atoms: C4_6  and  C6_8 
REMARK    5  A    between atoms: C6_8  and  C7_10 
REMARK    6  A    between atoms: C7_10  and  C8_11 
REMARK    7  A    between atoms: C8_11  and  C10_13 
ROOT
HETATM    1  C10 UNL     1      -0.927   9.936  16.529  1.00  0.00    -0.001 C 
HETATM    2  C11 UNL     1       0.280  10.908  16.370  1.00  0.00     0.007 C 
HETATM    3  C12 UNL     1      -0.044  12.182  17.173  1.00  0.00     0.015 C 
HETATM    4  C13 UNL     1      -1.248  11.801  18.050  1.00  0.00    -0.013 C 
HETATM    5  C14 UNL     1      -0.682  11.082  19.316  1.00  0.00     0.021 C 
HETATM    6  C15 UNL     1      -2.147  12.907  18.591  1.00  0.00    -0.068 C 
HETATM    7  C16 UNL     1      -3.452  12.640  18.871  1.00  0.00    -0.068 C 
HETATM    8  C17 UNL     1      -4.067  11.274  18.573  1.00  0.00     0.036 C 
HETATM    9  C18 UNL     1      -3.185  10.224  17.858  1.00  0.00     0.015 C 
HETATM   10  C19 UNL     1      -2.053  10.879  17.057  1.00  0.00    -0.029 C 
HETATM   11  C20 UNL     1      -2.680  11.658  15.859  1.00  0.00     0.016 C 
HETATM   12  C21 UNL     1      -4.381  13.757  19.413  1.00  0.00    -0.015 C 
HETATM   13  C22 UNL     1      -4.923  14.459  18.139  1.00  0.00     0.020 C 
HETATM   14  C23 UNL     1      -5.622  13.272  20.225  1.00  0.00     0.021 C 
HETATM   15  C24 UNL     1      -5.414  13.304  21.730  1.00  0.00     0.080 C 
HETATM   16  C25 UNL     1      -5.202  14.739  22.165  1.00  0.00     0.135 C 
HETATM   17  O4  UNL     1      -5.773  15.179  23.166  1.00  0.00    -0.297 OA
HETATM   18  C26 UNL     1      -4.250  15.606  21.321  1.00  0.00     0.018 C 
HETATM   19  C27 UNL     1      -5.077  16.704  20.643  1.00  0.00     0.023 C 
HETATM   20  C28 UNL     1      -3.264  16.278  22.302  1.00  0.00     0.023 C 
HETATM   21  C29 UNL     1      -3.483  14.668  20.336  1.00  0.00     0.013 C 
HETATM   22  C30 UNL     1      -2.372  15.323  19.506  1.00  0.00     0.011 C 
HETATM   23  C31 UNL     1      -1.494  14.254  18.840  1.00  0.00     0.036 C 
ENDROOT
BRANCH   1  24
HETATM   24  C8  UNL     1      -1.172   9.084  15.252  1.00  0.00    -0.007 C 
HETATM   25  C9  UNL     1      -0.990   9.874  13.952  1.00  0.00     0.011 C 
BRANCH  24  26
HETATM   26  C7  UNL     1      -2.541   8.359  15.242  1.00  0.00     0.083 C 
BRANCH  26  27
HETATM   27  C6  UNL     1      -2.654   7.107  14.375  1.00  0.00     0.135 C 
HETATM   28  O3  UNL     1      -1.857   6.172  14.455  1.00  0.00    -0.297 OA
BRANCH  27  29
HETATM   29  C4  UNL     1      -3.793   7.088  13.349  1.00  0.00     0.090 C 
HETATM   30  C5  UNL     1      -4.420   8.484  13.249  1.00  0.00     0.023 C 
BRANCH  29  31
HETATM   31  C2  UNL     1      -4.759   5.980  13.722  1.00  0.00     0.017 C 
HETATM   32  C1  UNL     1      -5.631   6.029  14.747  1.00  0.00     0.026 C 
BRANCH  31  33
HETATM   33  C3  UNL     1      -4.710   4.785  12.839  1.00  0.00     0.172 C 
HETATM   34  O1  UNL     1      -3.762   4.475  12.139  1.00  0.00    -0.646 OA
BRANCH  33  35
HETATM   35  O2  UNL     1      -5.827   4.039  12.859  1.00  0.00    -0.773 OA
HETATM   36  H3  UNL     1      -5.638   3.308  12.234  1.00  0.00     0.167 HD
ENDBRANCH  33  35
ENDBRANCH  31  33
ENDBRANCH  29  31
ENDBRANCH  27  29
ENDBRANCH  26  27
ENDBRANCH  24  26
ENDBRANCH   1  24
TORSDOF 7
ENDMDL
MODEL 6
REMARK minimizedAffinity -8.01110649
REMARK CNNscore 0.283101737
REMARK CNNaffinity 6.93893051
REMARK  7 active torsions:
REMARK  status: ('A' for Active; 'I' for Inactive)
REMARK    1  A    between atoms: C2_2  and  C3_3 
REMARK    2  A    between atoms: C2_2  and  C4_6 
REMARK    3  A    between atoms: C3_3  and  O2_5 
REMARK    4  A    between atoms: C4_6  and  C6_8 
REMARK    5  A    between atoms: C6_8  and  C7_10 
REMARK    6  A    between atoms: C7_10  and  C8_11 
REMARK    7  A    between atoms: C8_11  and  C10_13 
ROOT
HETATM    1  C10 UNL     1      -5.542   5.486  13.685  1.00  0.00    -0.001 C 
HETATM    2  C11 UNL     1      -6.472   4.280  13.363  1.00  0.00     0.007 C 
HETATM    3  C12 UNL     1      -7.925   4.752  13.560  1.00  0.00     0.015 C 
HETATM    4  C13 UNL     1      -7.834   6.284  13.650  1.00  0.00    -0.013 C 
HETATM    5  C14 UNL     1      -7.798   6.827  12.186  1.00  0.00     0.021 C 
HETATM    6  C15 UNL     1      -8.961   7.052  14.329  1.00  0.00    -0.068 C 
HETATM    7  C16 UNL     1      -8.703   8.255  14.913  1.00  0.00    -0.068 C 
HETATM    8  C17 UNL     1      -7.285   8.818  14.981  1.00  0.00     0.036 C 
HETATM    9  C18 UNL     1      -6.131   7.939  14.445  1.00  0.00     0.015 C 
HETATM   10  C19 UNL     1      -6.493   6.449  14.461  1.00  0.00    -0.029 C 
HETATM   11  C20 UNL     1      -6.605   5.982  15.946  1.00  0.00     0.016 C 
HETATM   12  C21 UNL     1      -9.837   9.044  15.616  1.00  0.00    -0.015 C 
HETATM   13  C22 UNL     1      -9.857   8.482  17.064  1.00  0.00     0.020 C 
HETATM   14  C23 UNL     1      -9.620  10.584  15.733  1.00  0.00     0.021 C 
HETATM   15  C24 UNL     1     -10.321  11.381  14.644  1.00  0.00     0.080 C 
HETATM   16  C25 UNL     1     -11.817  11.188  14.783  1.00  0.00     0.135 C 
HETATM   17  O4  UNL     1     -12.583  12.151  14.693  1.00  0.00    -0.297 OA
HETATM   18  C26 UNL     1     -12.331   9.757  15.028  1.00  0.00     0.018 C 
HETATM   19  C27 UNL     1     -12.933   9.699  16.437  1.00  0.00     0.023 C 
HETATM   20  C28 UNL     1     -13.463   9.504  14.007  1.00  0.00     0.023 C 
HETATM   21  C29 UNL     1     -11.148   8.767  14.784  1.00  0.00     0.013 C 
HETATM   22  C30 UNL     1     -11.495   7.274  14.832  1.00  0.00     0.011 C 
HETATM   23  C31 UNL     1     -10.345   6.434  14.260  1.00  0.00     0.036 C 
ENDROOT
BRANCH   1  24
HETATM   24  C8  UNL     1      -4.200   5.041  14.333  1.00  0.00    -0.007 C 
HETATM   25  C9  UNL     1      -3.615   6.083  15.292  1.00  0.00     0.011 C 
BRANCH  24  26
HETATM   26  C7  UNL     1      -3.126   4.608  13.304  1.00  0.00     0.083 C 
BRANCH  26  27
HETATM   27  C6  UNL     1      -3.509   3.494  12.333  1.00  0.00     0.135 C 
HETATM   28  O3  UNL     1      -4.519   2.806  12.480  1.00  0.00    -0.297 OA
BRANCH  27  29
HETATM   29  C4  UNL     1      -2.536   3.233  11.176  1.00  0.00     0.090 C 
HETATM   30  C5  UNL     1      -3.154   3.722   9.862  1.00  0.00     0.023 C 
BRANCH  29  31
HETATM   31  C2  UNL     1      -2.149   1.766  11.194  1.00  0.00     0.017 C 
HETATM   32  C1  UNL     1      -2.906   0.776  11.706  1.00  0.00     0.026 C 
BRANCH  31  33
HETATM   33  C3  UNL     1      -0.839   1.457  10.566  1.00  0.00     0.172 C 
HETATM   34  O1  UNL     1      -0.676   0.683   9.639  1.00  0.00    -0.646 OA
BRANCH  33  35
HETATM   35  O2  UNL     1       0.202   2.108  11.112  1.00  0.00    -0.773 OA
HETATM   36  H3  UNL     1       0.976   1.797  10.598  1.00  0.00     0.167 HD
ENDBRANCH  33  35
ENDBRANCH  31  33
ENDBRANCH  29  31
ENDBRANCH  27  29
ENDBRANCH  26  27
ENDBRANCH  24  26
ENDBRANCH   1  24
TORSDOF 7
ENDMDL
MODEL 7
REMARK minimizedAffinity -8.64300156
REMARK CNNscore 0.275033414
REMARK CNNaffinity 6.81266785
REMARK  7 active torsions:
REMARK  status: ('A' for Active; 'I' for Inactive)
REMARK    1  A    between atoms: C2_2  and  C3_3 
REMARK    2  A    between atoms: C2_2  and  C4_6 
REMARK    3  A    between atoms: C3_3  and  O2_5 
REMARK    4  A    between atoms: C4_6  and  C6_8 
REMARK    5  A    between atoms: C6_8  and  C7_10 
REMARK    6  A    between atoms: C7_10  and  C8_11 
REMARK    7  A    between atoms: C8_11  and  C10_13 
ROOT
HETATM    1  C10 UNL     1      -6.558   7.291  15.003  1.00  0.00    -0.001 C 
HETATM    2  C11 UNL     1      -6.248   8.761  15.412  1.00  0.00     0.007 C 
HETATM    3  C12 UNL     1      -4.811   9.075  14.954  1.00  0.00     0.015 C 
HETATM    4  C13 UNL     1      -4.442   7.929  13.998  1.00  0.00    -0.013 C 
HETATM    5  C14 UNL     1      -5.028   8.295  12.597  1.00  0.00     0.021 C 
HETATM    6  C15 UNL     1      -2.970   7.624  13.744  1.00  0.00    -0.068 C 
HETATM    7  C16 UNL     1      -2.593   6.363  13.394  1.00  0.00    -0.068 C 
HETATM    8  C17 UNL     1      -3.602   5.218  13.333  1.00  0.00     0.036 C 
HETATM    9  C18 UNL     1      -5.056   5.511  13.768  1.00  0.00     0.015 C 
HETATM   10  C19 UNL     1      -5.137   6.712  14.719  1.00  0.00    -0.029 C 
HETATM   11  C20 UNL     1      -4.457   6.322  16.069  1.00  0.00     0.016 C 
HETATM   12  C21 UNL     1      -1.099   6.035  13.142  1.00  0.00    -0.015 C 
HETATM   13  C22 UNL     1      -0.539   5.682  14.547  1.00  0.00     0.020 C 
HETATM   14  C23 UNL     1      -0.820   4.806  12.223  1.00  0.00     0.021 C 
HETATM   15  C24 UNL     1      -0.542   5.179  10.776  1.00  0.00     0.080 C 
HETATM   16  C25 UNL     1       0.729   6.002  10.719  1.00  0.00     0.135 C 
HETATM   17  O4  UNL     1       1.581   5.777   9.856  1.00  0.00    -0.297 OA
HETATM   18  C26 UNL     1       0.900   7.121  11.763  1.00  0.00     0.018 C 
HETATM   19  C27 UNL     1       2.061   6.738  12.688  1.00  0.00     0.023 C 
HETATM   20  C28 UNL     1       1.296   8.399  10.993  1.00  0.00     0.023 C 
HETATM   21  C29 UNL     1      -0.469   7.324  12.487  1.00  0.00     0.013 C 
HETATM   22  C30 UNL     1      -0.547   8.502  13.466  1.00  0.00     0.011 C 
HETATM   23  C31 UNL     1      -2.005   8.789  13.849  1.00  0.00     0.036 C 
ENDROOT
BRANCH   1  24
HETATM   24  C8  UNL     1      -7.491   6.577  16.022  1.00  0.00    -0.007 C 
HETATM   25  C9  UNL     1      -7.604   5.068  15.786  1.00  0.00     0.011 C 
BRANCH  24  26
HETATM   26  C7  UNL     1      -8.904   7.204  16.114  1.00  0.00     0.083 C 
BRANCH  26  27
HETATM   27  C6  UNL     1      -9.783   7.117  14.869  1.00  0.00     0.135 C 
HETATM   28  O3  UNL     1      -9.421   6.540  13.843  1.00  0.00    -0.297 OA
BRANCH  27  29
HETATM   29  C4  UNL     1     -11.137   7.835  14.936  1.00  0.00     0.090 C 
HETATM   30  C5  UNL     1     -12.247   6.885  14.473  1.00  0.00     0.023 C 
BRANCH  29  31
HETATM   31  C2  UNL     1     -11.034   9.130  14.152  1.00  0.00     0.017 C 
HETATM   32  C1  UNL     1     -10.498  10.273  14.620  1.00  0.00     0.026 C 
BRANCH  31  33
HETATM   33  C3  UNL     1     -11.561   9.064  12.765  1.00  0.00     0.172 C 
HETATM   34  O1  UNL     1     -11.418   8.118  12.010  1.00  0.00    -0.646 OA
BRANCH  33  35
HETATM   35  O2  UNL     1     -12.229  10.162  12.376  1.00  0.00    -0.773 OA
HETATM   36  H3  UNL     1     -12.501   9.965  11.455  1.00  0.00     0.167 HD
ENDBRANCH  33  35
ENDBRANCH  31  33
ENDBRANCH  29  31
ENDBRANCH  27  29
ENDBRANCH  26  27
ENDBRANCH  24  26
ENDBRANCH   1  24
TORSDOF 7
ENDMDL
MODEL 8
REMARK minimizedAffinity -7.15780878
REMARK CNNscore 0.257622749
REMARK CNNaffinity 6.72277117
REMARK  7 active torsions:
REMARK  status: ('A' for Active; 'I' for Inactive)
REMARK    1  A    between atoms: C2_2  and  C3_3 
REMARK    2  A    between atoms: C2_2  and  C4_6 
REMARK    3  A    between atoms: C3_3  and  O2_5 
REMARK    4  A    between atoms: C4_6  and  C6_8 
REMARK    5  A    between atoms: C6_8  and  C7_10 
REMARK    6  A    between atoms: C7_10  and  C8_11 
REMARK    7  A    between atoms: C8_11  and  C10_13 
ROOT
HETATM    1  C10 UNL     1     -10.301   7.746  14.323  1.00  0.00    -0.001 C 
HETATM    2  C11 UNL     1     -11.354   6.696  13.863  1.00  0.00     0.007 C 
HETATM    3  C12 UNL     1     -12.641   7.459  13.499  1.00  0.00     0.015 C 
HETATM    4  C13 UNL     1     -12.216   8.935  13.420  1.00  0.00    -0.013 C 
HETATM    5  C14 UNL     1     -11.613   9.162  11.997  1.00  0.00     0.021 C 
HETATM    6  C15 UNL     1     -13.276  10.019  13.578  1.00  0.00    -0.068 C 
HETATM    7  C16 UNL     1     -12.923  11.243  14.058  1.00  0.00    -0.068 C 
HETATM    8  C17 UNL     1     -11.499  11.535  14.526  1.00  0.00     0.036 C 
HETATM    9  C18 UNL     1     -10.484  10.368  14.525  1.00  0.00     0.015 C 
HETATM   10  C19 UNL     1     -11.181   9.004  14.606  1.00  0.00    -0.029 C 
HETATM   11  C20 UNL     1     -11.842   8.869  16.013  1.00  0.00     0.016 C 
HETATM   12  C21 UNL     1     -13.991  12.353  14.233  1.00  0.00    -0.015 C 
HETATM   13  C22 UNL     1     -14.579  12.102  15.648  1.00  0.00     0.020 C 
HETATM   14  C23 UNL     1     -13.456  13.818  14.220  1.00  0.00     0.021 C 
HETATM   15  C24 UNL     1     -13.586  14.500  12.867  1.00  0.00     0.080 C 
HETATM   16  C25 UNL     1     -15.055  14.621  12.519  1.00  0.00     0.135 C 
HETATM   17  O4  UNL     1     -15.503  15.672  12.056  1.00  0.00    -0.297 OA
HETATM   18  C26 UNL     1     -15.946  13.388  12.756  1.00  0.00     0.018 C 
HETATM   19  C27 UNL     1     -16.938  13.722  13.876  1.00  0.00     0.023 C 
HETATM   20  C28 UNL     1     -16.746  13.154  11.455  1.00  0.00     0.023 C 
HETATM   21  C29 UNL     1     -15.019  12.167  13.050  1.00  0.00     0.013 C 
HETATM   22  C30 UNL     1     -15.713  10.804  13.168  1.00  0.00     0.011 C 
HETATM   23  C31 UNL     1     -14.681   9.668  13.127  1.00  0.00     0.036 C 
ENDROOT
BRANCH   1  24
HETATM   24  C8  UNL     1      -9.364   7.196  15.436  1.00  0.00    -0.007 C 
HETATM   25  C9  UNL     1      -9.355   8.059  16.702  1.00  0.00     0.011 C 
BRANCH  24  26
HETATM   26  C7  UNL     1      -7.913   6.946  14.957  1.00  0.00     0.083 C 
BRANCH  26  27
HETATM   27  C6  UNL     1      -7.571   5.531  14.496  1.00  0.00     0.135 C 
HETATM   28  O3  UNL     1      -7.545   4.572  15.268  1.00  0.00    -0.297 OA
BRANCH  27  29
HETATM   29  C4  UNL     1      -7.205   5.364  13.016  1.00  0.00     0.090 C 
HETATM   30  C5  UNL     1      -8.483   5.245  12.179  1.00  0.00     0.023 C 
BRANCH  29  31
HETATM   31  C2  UNL     1      -6.244   4.197  12.886  1.00  0.00     0.017 C 
HETATM   32  C1  UNL     1      -4.923   4.256  13.139  1.00  0.00     0.026 C 
BRANCH  31  33
HETATM   33  C3  UNL     1      -6.870   2.916  12.467  1.00  0.00     0.172 C 
HETATM   34  O1  UNL     1      -7.859   2.424  12.980  1.00  0.00    -0.646 OA
BRANCH  33  35
HETATM   35  O2  UNL     1      -6.245   2.306  11.446  1.00  0.00    -0.773 OA
HETATM   36  H3  UNL     1      -6.768   1.491  11.298  1.00  0.00     0.167 HD
ENDBRANCH  33  35
ENDBRANCH  31  33
ENDBRANCH  29  31
ENDBRANCH  27  29
ENDBRANCH  26  27
ENDBRANCH  24  26
ENDBRANCH   1  24
TORSDOF 7
ENDMDL
MODEL 9
REMARK minimizedAffinity -7.54142141
REMARK CNNscore 0.24567996
REMARK CNNaffinity 5.66921473
REMARK  7 active torsions:
REMARK  status: ('A' for Active; 'I' for Inactive)
REMARK    1  A    between atoms: C2_2  and  C3_3 
REMARK    2  A    between atoms: C2_2  and  C4_6 
REMARK    3  A    between atoms: C3_3  and  O2_5 
REMARK    4  A    between atoms: C4_6  and  C6_8 
REMARK    5  A    between atoms: C6_8  and  C7_10 
REMARK    6  A    between atoms: C7_10  and  C8_11 
REMARK    7  A    between atoms: C8_11  and  C10_13 
ROOT
HETATM    1  C10 UNL     1       5.194  11.726  22.357  1.00  0.00    -0.001 C 
HETATM    2  C11 UNL     1       4.028  11.904  23.373  1.00  0.00     0.007 C 
HETATM    3  C12 UNL     1       2.708  11.755  22.593  1.00  0.00     0.015 C 
HETATM    4  C13 UNL     1       3.117  11.159  21.236  1.00  0.00    -0.013 C 
HETATM    5  C14 UNL     1       3.239   9.615  21.433  1.00  0.00     0.021 C 
HETATM    6  C15 UNL     1       2.185  11.334  20.042  1.00  0.00    -0.068 C 
HETATM    7  C16 UNL     1       2.698  11.338  18.780  1.00  0.00    -0.068 C 
HETATM    8  C17 UNL     1       4.203  11.258  18.533  1.00  0.00     0.036 C 
HETATM    9  C18 UNL     1       5.140  11.263  19.763  1.00  0.00     0.015 C 
HETATM   10  C19 UNL     1       4.477  11.914  20.983  1.00  0.00    -0.029 C 
HETATM   11  C20 UNL     1       4.297  13.437  20.696  1.00  0.00     0.016 C 
HETATM   12  C21 UNL     1       1.765  11.524  17.557  1.00  0.00    -0.015 C 
HETATM   13  C22 UNL     1       1.654  13.063  17.387  1.00  0.00     0.020 C 
HETATM   14  C23 UNL     1       2.298  10.958  16.205  1.00  0.00     0.021 C 
HETATM   15  C24 UNL     1       1.758   9.577  15.869  1.00  0.00     0.080 C 
HETATM   16  C25 UNL     1       0.257   9.669  15.686  1.00  0.00     0.135 C 
HETATM   17  O4  UNL     1      -0.294   9.100  14.741  1.00  0.00    -0.297 OA
HETATM   18  C26 UNL     1      -0.538  10.486  16.722  1.00  0.00     0.018 C 
HETATM   19  C27 UNL     1      -1.113  11.720  16.018  1.00  0.00     0.023 C 
HETATM   20  C28 UNL     1      -1.715   9.600  17.186  1.00  0.00     0.023 C 
HETATM   21  C29 UNL     1       0.410  10.802  17.922  1.00  0.00     0.013 C 
HETATM   22  C30 UNL     1      -0.238  11.485  19.133  1.00  0.00     0.011 C 
HETATM   23  C31 UNL     1       0.703  11.439  20.345  1.00  0.00     0.036 C 
ENDROOT
BRANCH   1  24
HETATM   24  C8  UNL     1       6.426  12.608  22.709  1.00  0.00    -0.007 C 
HETATM   25  C9  UNL     1       6.055  14.050  23.070  1.00  0.00     0.011 C 
BRANCH  24  26
HETATM   26  C7  UNL     1       7.526  12.602  21.619  1.00  0.00     0.083 C 
BRANCH  26  27
HETATM   27  C6  UNL     1       8.970  12.752  22.093  1.00  0.00     0.135 C 
HETATM   28  O3  UNL     1       9.312  12.522  23.253  1.00  0.00    -0.297 OA
BRANCH  27  29
HETATM   29  C4  UNL     1       9.980  13.258  21.056  1.00  0.00     0.090 C 
HETATM   30  C5  UNL     1       9.407  14.483  20.334  1.00  0.00     0.023 C 
BRANCH  29  31
HETATM   31  C2  UNL     1      10.359  12.102  20.149  1.00  0.00     0.017 C 
HETATM   32  C1  UNL     1       9.500  11.424  19.364  1.00  0.00     0.026 C 
BRANCH  31  33
HETATM   33  C3  UNL     1      11.804  11.753  20.154  1.00  0.00     0.172 C 
HETATM   34  O1  UNL     1      12.713  12.552  20.293  1.00  0.00    -0.646 OA
BRANCH  33  35
HETATM   35  O2  UNL     1      12.055  10.444  19.982  1.00  0.00    -0.773 OA
HETATM   36  H3  UNL     1      13.032  10.382  20.004  1.00  0.00     0.167 HD
ENDBRANCH  33  35
ENDBRANCH  31  33
ENDBRANCH  29  31
ENDBRANCH  27  29
ENDBRANCH  26  27
ENDBRANCH  24  26
ENDBRANCH   1  24
TORSDOF 7
ENDMDL
