MODEL 1
REMARK minimizedAffinity -7.18085814
REMARK CNNscore 0.636175394
REMARK CNNaffinity 5.51910448
REMARK  5 active torsions:
REMARK  status: ('A' for Active; 'I' for Inactive)
REMARK    1  A    between atoms: C4_4  and  O1_5 
REMARK    2  A    between atoms: C5_6  and  O2_7 
REMARK    3  A    between atoms: C8_11  and  C9_12 
REMARK    4  A    between atoms: C19_23  and  C20_24 
REMARK    5  A    between atoms: C26_32  and  O7_33 
ROOT
HETATM    1  C1  UNL     1     -17.687  -6.469  17.448  1.00  0.00     0.040 C 
HETATM    2  C2  UNL     1     -17.325  -5.010  17.690  1.00  0.00     0.123 C 
HETATM    3  C3  UNL     1     -18.418  -4.291  18.495  1.00  0.00     0.069 C 
HETATM    4  C4  UNL     1     -18.501  -2.804  18.132  1.00  0.00     0.188 C 
HETATM    5  C5  UNL     1     -17.104  -2.241  17.760  1.00  0.00     0.240 C 
HETATM    6  O3  UNL     1     -17.192  -0.826  17.606  1.00  0.00    -0.341 OA
HETATM    7  C6  UNL     1     -16.595  -0.334  16.408  1.00  0.00     0.156 C 
HETATM    8  C7  UNL     1     -16.963   1.151  16.311  1.00  0.00     0.056 C 
HETATM    9  C8  UNL     1     -16.470   1.840  15.016  1.00  0.00     0.043 C 
HETATM   10  C10 UNL     1     -16.874   0.988  13.813  1.00  0.00    -0.065 C 
HETATM   11  C11 UNL     1     -17.408   1.518  12.699  1.00  0.00    -0.022 C 
HETATM   12  C12 UNL     1     -17.627   2.983  12.482  1.00  0.00     0.035 C 
HETATM   13  C13 UNL     1     -16.914   3.893  13.510  1.00  0.00     0.030 C 
HETATM   14  C14 UNL     1     -17.077   3.296  14.931  1.00  0.00     0.012 C 
HETATM   15  C15 UNL     1     -16.536   4.246  16.015  1.00  0.00     0.007 C 
HETATM   16  C16 UNL     1     -17.115   5.649  15.895  1.00  0.00     0.013 C 
HETATM   17  C17 UNL     1     -16.856   6.306  14.510  1.00  0.00    -0.005 C 
HETATM   18  C18 UNL     1     -15.349   6.618  14.385  1.00  0.00     0.019 C 
HETATM   19  C19 UNL     1     -17.778   7.581  14.398  1.00  0.00     0.028 C 
HETATM   20  C24 UNL     1     -19.033   7.111  13.623  1.00  0.00     0.013 C 
HETATM   21  C25 UNL     1     -18.884   5.608  13.404  1.00  0.00     0.040 C 
HETATM   22  C26 UNL     1     -17.368   5.374  13.373  1.00  0.00     0.070 C 
HETATM   23  C27 UNL     1     -16.617  -0.499  13.901  1.00  0.00     0.069 C 
HETATM   24  C28 UNL     1     -17.109  -1.124  15.208  1.00  0.00     0.158 C 
HETATM   25  O8  UNL     1     -16.626  -2.467  15.241  1.00  0.00    -0.347 OA
HETATM   26  C29 UNL     1     -16.545  -3.071  16.534  1.00  0.00     0.325 C 
HETATM   27  O9  UNL     1     -17.164  -4.370  16.424  1.00  0.00    -0.351 OA
ENDROOT
BRANCH  19  28
HETATM   28  C20 UNL     1     -17.165   8.833  13.830  1.00  0.00    -0.045 A 
HETATM   29  C21 UNL     1     -16.498   9.806  14.453  1.00  0.00     0.087 A 
HETATM   30  C22 UNL     1     -16.126  10.789  13.440  1.00  0.00     0.283 A 
HETATM   31  O5  UNL     1     -15.506  11.814  13.657  1.00  0.00    -0.260 OA
HETATM   32  O6  UNL     1     -16.572  10.371  12.225  1.00  0.00    -0.314 OA
HETATM   33  C23 UNL     1     -17.258   9.131  12.381  1.00  0.00     0.213 A 
ENDBRANCH  19  28
BRANCH  22  34
HETATM   34  O7  UNL     1     -16.885   5.879  12.121  1.00  0.00    -0.389 OA
HETATM   35  H34 UNL     1     -17.325   5.402  11.398  1.00  0.00     0.210 HD
ENDBRANCH  22  34
BRANCH   9  36
HETATM   36  C9  UNL     1     -14.930   1.921  15.083  1.00  0.00     0.245 C 
HETATM   37  O4  UNL     1     -14.206   1.214  15.778  1.00  0.00    -0.306 OA
ENDBRANCH   9  36
BRANCH   5  38
HETATM   38  O2  UNL     1     -16.258  -2.446  18.907  1.00  0.00    -0.360 OA
HETATM   39  H9  UNL     1     -15.411  -2.030  18.685  1.00  0.00     0.213 HD
ENDBRANCH   5  38
BRANCH   4  40
HETATM   40  O1  UNL     1     -19.444  -2.641  17.056  1.00  0.00    -0.390 OA
HETATM   41  H8  UNL     1     -19.191  -3.273  16.355  1.00  0.00     0.210 HD
ENDBRANCH   4  40
TORSDOF 5
ENDMDL
MODEL 2
REMARK minimizedAffinity -7.23623466
REMARK CNNscore 0.568117797
REMARK CNNaffinity 6.23183107
REMARK  5 active torsions:
REMARK  status: ('A' for Active; 'I' for Inactive)
REMARK    1  A    between atoms: C4_4  and  O1_5 
REMARK    2  A    between atoms: C5_6  and  O2_7 
REMARK    3  A    between atoms: C8_11  and  C9_12 
REMARK    4  A    between atoms: C19_23  and  C20_24 
REMARK    5  A    between atoms: C26_32  and  O7_33 
ROOT
HETATM    1  C1  UNL     1       0.816  19.452  19.584  1.00  0.00     0.040 C 
HETATM    2  C2  UNL     1       0.907  18.288  18.608  1.00  0.00     0.123 C 
HETATM    3  C3  UNL     1       0.230  18.627  17.272  1.00  0.00     0.069 C 
HETATM    4  C4  UNL     1      -0.359  17.378  16.604  1.00  0.00     0.188 C 
HETATM    5  C5  UNL     1       0.497  16.123  16.916  1.00  0.00     0.240 C 
HETATM    6  O3  UNL     1       0.025  15.026  16.136  1.00  0.00    -0.341 OA
HETATM    7  C6  UNL     1      -0.185  13.829  16.884  1.00  0.00     0.156 C 
HETATM    8  C7  UNL     1      -0.880  12.838  15.943  1.00  0.00     0.056 C 
HETATM    9  C8  UNL     1      -1.270  11.499  16.613  1.00  0.00     0.043 C 
HETATM   10  C10 UNL     1      -2.013  11.791  17.915  1.00  0.00    -0.065 C 
HETATM   11  C11 UNL     1      -3.136  11.141  18.268  1.00  0.00    -0.022 C 
HETATM   12  C12 UNL     1      -3.760  10.041  17.469  1.00  0.00     0.035 C 
HETATM   13  C13 UNL     1      -2.859   9.479  16.344  1.00  0.00     0.030 C 
HETATM   14  C14 UNL     1      -2.151  10.649  15.615  1.00  0.00     0.012 C 
HETATM   15  C15 UNL     1      -1.374  10.163  14.377  1.00  0.00     0.007 C 
HETATM   16  C16 UNL     1      -2.238   9.324  13.445  1.00  0.00     0.013 C 
HETATM   17  C17 UNL     1      -2.860   8.080  14.138  1.00  0.00    -0.005 C 
HETATM   18  C18 UNL     1      -1.734   7.072  14.451  1.00  0.00     0.019 C 
HETATM   19  C19 UNL     1      -3.978   7.503  13.184  1.00  0.00     0.028 C 
HETATM   20  C24 UNL     1      -5.308   8.104  13.704  1.00  0.00     0.013 C 
HETATM   21  C25 UNL     1      -4.950   9.071  14.830  1.00  0.00     0.040 C 
HETATM   22  C26 UNL     1      -3.644   8.513  15.411  1.00  0.00     0.070 C 
HETATM   23  C27 UNL     1      -1.416  12.833  18.835  1.00  0.00     0.069 C 
HETATM   24  C28 UNL     1      -1.034  14.128  18.117  1.00  0.00     0.158 C 
HETATM   25  O8  UNL     1      -0.308  14.929  19.049  1.00  0.00    -0.347 OA
HETATM   26  C29 UNL     1       0.542  15.930  18.486  1.00  0.00     0.325 C 
HETATM   27  O9  UNL     1       0.265  17.157  19.195  1.00  0.00    -0.351 OA
ENDROOT
BRANCH  19  28
HETATM   28  C20 UNL     1      -4.034   6.010  13.004  1.00  0.00    -0.045 A 
HETATM   29  C21 UNL     1      -3.168   5.200  12.394  1.00  0.00     0.087 A 
HETATM   30  C22 UNL     1      -3.700   3.844  12.498  1.00  0.00     0.283 A 
HETATM   31  O5  UNL     1      -3.165   2.848  12.047  1.00  0.00    -0.260 OA
HETATM   32  O6  UNL     1      -4.874   3.876  13.185  1.00  0.00    -0.314 OA
HETATM   33  C23 UNL     1      -5.171   5.224  13.540  1.00  0.00     0.213 A 
ENDBRANCH  19  28
BRANCH  22  34
HETATM   34  O7  UNL     1      -3.979   7.337  16.161  1.00  0.00    -0.389 OA
HETATM   35  H34 UNL     1      -4.599   7.580  16.868  1.00  0.00     0.210 HD
ENDBRANCH  22  34
BRANCH   9  36
HETATM   36  C9  UNL     1       0.034  10.737  16.935  1.00  0.00     0.245 C 
HETATM   37  O4  UNL     1       0.260  10.111  17.967  1.00  0.00    -0.306 OA
ENDBRANCH   9  36
BRANCH   5  38
HETATM   38  O2  UNL     1       1.822  16.393  16.425  1.00  0.00    -0.360 OA
HETATM   39  H9  UNL     1       2.326  15.577  16.565  1.00  0.00     0.213 HD
ENDBRANCH   5  38
BRANCH   4  40
HETATM   40  O1  UNL     1      -1.721  17.217  17.042  1.00  0.00    -0.390 OA
HETATM   41  H8  UNL     1      -1.715  17.258  18.018  1.00  0.00     0.210 HD
ENDBRANCH   4  40
TORSDOF 5
ENDMDL
MODEL 3
REMARK minimizedAffinity -6.83914804
REMARK CNNscore 0.469713449
REMARK CNNaffinity 6.16328096
REMARK  5 active torsions:
REMARK  status: ('A' for Active; 'I' for Inactive)
REMARK    1  A    between atoms: C4_4  and  O1_5 
REMARK    2  A    between atoms: C5_6  and  O2_7 
REMARK    3  A    between atoms: C8_11  and  C9_12 
REMARK    4  A    between atoms: C19_23  and  C20_24 
REMARK    5  A    between atoms: C26_32  and  O7_33 
ROOT
HETATM    1  C1  UNL     1      -8.069  -9.496  13.249  1.00  0.00     0.040 C 
HETATM    2  C2  UNL     1      -7.362  -9.512  11.901  1.00  0.00     0.123 C 
HETATM    3  C3  UNL     1      -7.055  -8.088  11.415  1.00  0.00     0.069 C 
HETATM    4  C4  UNL     1      -7.069  -7.998   9.884  1.00  0.00     0.188 C 
HETATM    5  C5  UNL     1      -6.573  -9.321   9.244  1.00  0.00     0.240 C 
HETATM    6  O3  UNL     1      -6.429  -9.138   7.837  1.00  0.00    -0.341 OA
HETATM    7  C6  UNL     1      -7.038 -10.161   7.052  1.00  0.00     0.156 C 
HETATM    8  C7  UNL     1      -6.966  -9.698   5.592  1.00  0.00     0.056 C 
HETATM    9  C8  UNL     1      -7.663 -10.651   4.593  1.00  0.00     0.043 C 
HETATM   10  C10 UNL     1      -9.065 -10.974   5.106  1.00  0.00    -0.065 C 
HETATM   11  C11 UNL     1     -10.147 -10.965   4.307  1.00  0.00    -0.022 C 
HETATM   12  C12 UNL     1     -10.109 -10.692   2.837  1.00  0.00     0.035 C 
HETATM   13  C13 UNL     1      -8.690 -10.713   2.221  1.00  0.00     0.030 C 
HETATM   14  C14 UNL     1      -7.705  -9.977   3.165  1.00  0.00     0.012 C 
HETATM   15  C15 UNL     1      -6.313  -9.817   2.525  1.00  0.00     0.007 C 
HETATM   16  C16 UNL     1      -6.383  -9.190   1.139  1.00  0.00     0.013 C 
HETATM   17  C17 UNL     1      -7.276  -9.987   0.147  1.00  0.00    -0.005 C 
HETATM   18  C18 UNL     1      -6.577 -11.321  -0.188  1.00  0.00     0.019 C 
HETATM   19  C19 UNL     1      -7.535  -9.073  -1.113  1.00  0.00     0.028 C 
HETATM   20  C24 UNL     1      -8.908  -8.403  -0.857  1.00  0.00     0.013 C 
HETATM   21  C25 UNL     1      -9.356  -8.826   0.540  1.00  0.00     0.040 C 
HETATM   22  C26 UNL     1      -8.694 -10.194   0.755  1.00  0.00     0.070 C 
HETATM   23  C27 UNL     1      -9.200 -11.345   6.566  1.00  0.00     0.069 C 
HETATM   24  C28 UNL     1      -8.478 -10.379   7.506  1.00  0.00     0.158 C 
HETATM   25  O8  UNL     1      -8.515 -10.954   8.812  1.00  0.00    -0.347 OA
HETATM   26  C29 UNL     1      -7.521 -10.492   9.728  1.00  0.00     0.325 C 
HETATM   27  O9  UNL     1      -8.207 -10.168  10.957  1.00  0.00    -0.351 OA
ENDROOT
BRANCH  19  28
HETATM   28  C20 UNL     1      -7.435  -9.717  -2.470  1.00  0.00    -0.045 A 
HETATM   29  C21 UNL     1      -7.667  -9.191  -3.674  1.00  0.00     0.087 A 
HETATM   30  C22 UNL     1      -7.429 -10.245  -4.656  1.00  0.00     0.283 A 
HETATM   31  O5  UNL     1      -7.549 -10.116  -5.860  1.00  0.00    -0.260 OA
HETATM   32  O6  UNL     1      -7.045 -11.379  -4.011  1.00  0.00    -0.314 OA
HETATM   33  C23 UNL     1      -7.029 -11.136  -2.606  1.00  0.00     0.213 A 
ENDBRANCH  19  28
BRANCH  22  34
HETATM   34  O7  UNL     1      -9.402 -11.142  -0.056  1.00  0.00    -0.389 OA
HETATM   35  H34 UNL     1     -10.334 -11.159   0.220  1.00  0.00     0.210 HD
ENDBRANCH  22  34
BRANCH   9  36
HETATM   36  C9  UNL     1      -6.836 -11.953   4.530  1.00  0.00     0.245 C 
HETATM   37  O4  UNL     1      -6.398 -12.569   5.497  1.00  0.00    -0.306 OA
ENDBRANCH   9  36
BRANCH   5  38
HETATM   38  O2  UNL     1      -5.240  -9.544   9.735  1.00  0.00    -0.360 OA
HETATM   39  H9  UNL     1      -4.919 -10.336   9.275  1.00  0.00     0.213 HD
ENDBRANCH   5  38
BRANCH   4  40
HETATM   40  O1  UNL     1      -8.400  -7.662   9.451  1.00  0.00    -0.390 OA
HETATM   41  H8  UNL     1      -9.009  -8.293   9.881  1.00  0.00     0.210 HD
ENDBRANCH   4  40
TORSDOF 5
ENDMDL
MODEL 4
REMARK minimizedAffinity -7.02064276
REMARK CNNscore 0.452973127
REMARK CNNaffinity 5.7436142
REMARK  5 active torsions:
REMARK  status: ('A' for Active; 'I' for Inactive)
REMARK    1  A    between atoms: C4_4  and  O1_5 
REMARK    2  A    between atoms: C5_6  and  O2_7 
REMARK    3  A    between atoms: C8_11  and  C9_12 
REMARK    4  A    between atoms: C19_23  and  C20_24 
REMARK    5  A    between atoms: C26_32  and  O7_33 
ROOT
HETATM    1  C1  UNL     1     -12.882  16.139   2.764  1.00  0.00     0.040 C 
HETATM    2  C2  UNL     1     -11.557  15.837   2.078  1.00  0.00     0.123 C 
HETATM    3  C3  UNL     1     -11.236  14.336   2.122  1.00  0.00     0.069 C 
HETATM    4  C4  UNL     1      -9.725  14.082   2.162  1.00  0.00     0.188 C 
HETATM    5  C5  UNL     1      -8.956  15.169   1.367  1.00  0.00     0.240 C 
HETATM    6  O3  UNL     1      -7.581  14.801   1.276  1.00  0.00    -0.341 OA
HETATM    7  C6  UNL     1      -6.675  15.847   1.625  1.00  0.00     0.156 C 
HETATM    8  C7  UNL     1      -5.276  15.220   1.672  1.00  0.00     0.056 C 
HETATM    9  C8  UNL     1      -4.163  16.194   2.125  1.00  0.00     0.043 C 
HETATM   10  C10 UNL     1      -4.606  16.896   3.407  1.00  0.00    -0.065 C 
HETATM   11  C11 UNL     1      -3.788  17.056   4.463  1.00  0.00    -0.022 C 
HETATM   12  C12 UNL     1      -2.357  16.619   4.496  1.00  0.00     0.035 C 
HETATM   13  C13 UNL     1      -1.776  16.234   3.115  1.00  0.00     0.030 C 
HETATM   14  C14 UNL     1      -2.817  15.395   2.331  1.00  0.00     0.012 C 
HETATM   15  C15 UNL     1      -2.230  14.839   1.020  1.00  0.00     0.007 C 
HETATM   16  C16 UNL     1      -0.919  14.096   1.243  1.00  0.00     0.013 C 
HETATM   17  C17 UNL     1       0.173  14.967   1.924  1.00  0.00    -0.005 C 
HETATM   18  C18 UNL     1       0.636  16.050   0.927  1.00  0.00     0.019 C 
HETATM   19  C19 UNL     1       1.332  14.006   2.398  1.00  0.00     0.028 C 
HETATM   20  C24 UNL     1       1.036  13.714   3.890  1.00  0.00     0.013 C 
HETATM   21  C25 UNL     1      -0.295  14.385   4.219  1.00  0.00     0.040 C 
HETATM   22  C26 UNL     1      -0.376  15.571   3.249  1.00  0.00     0.070 C 
HETATM   23  C27 UNL     1      -6.013  17.449   3.444  1.00  0.00     0.069 C 
HETATM   24  C28 UNL     1      -7.070  16.449   2.971  1.00  0.00     0.158 C 
HETATM   25  O8  UNL     1      -8.304  17.159   2.864  1.00  0.00    -0.347 OA
HETATM   26  C29 UNL     1      -9.288  16.579   2.006  1.00  0.00     0.325 C 
HETATM   27  O9  UNL     1     -10.528  16.566   2.745  1.00  0.00    -0.351 OA
ENDROOT
BRANCH  19  28
HETATM   28  C20 UNL     1       2.748  14.453   2.151  1.00  0.00    -0.045 A 
HETATM   29  C21 UNL     1       3.666  14.870   3.025  1.00  0.00     0.087 A 
HETATM   30  C22 UNL     1       4.871  15.188   2.263  1.00  0.00     0.283 A 
HETATM   31  O5  UNL     1       5.911  15.601   2.742  1.00  0.00    -0.260 OA
HETATM   32  O6  UNL     1       4.645  14.939   0.945  1.00  0.00    -0.314 OA
HETATM   33  C23 UNL     1       3.308  14.473   0.779  1.00  0.00     0.213 A 
ENDBRANCH  19  28
BRANCH  22  34
HETATM   34  O7  UNL     1       0.550  16.564   3.712  1.00  0.00    -0.389 OA
HETATM   35  H34 UNL     1       0.299  16.833   4.612  1.00  0.00     0.210 HD
ENDBRANCH  22  34
BRANCH   9  36
HETATM   36  C9  UNL     1      -3.978  17.247   1.011  1.00  0.00     0.245 C 
HETATM   37  O4  UNL     1      -4.370  17.139  -0.148  1.00  0.00    -0.306 OA
ENDBRANCH   9  36
BRANCH   5  38
HETATM   38  O2  UNL     1      -9.451  15.123   0.017  1.00  0.00    -0.360 OA
HETATM   39  H9  UNL     1      -8.915  15.759  -0.481  1.00  0.00     0.213 HD
ENDBRANCH   5  38
BRANCH   4  40
HETATM   40  O1  UNL     1      -9.300  14.026   3.537  1.00  0.00    -0.390 OA
HETATM   41  H8  UNL     1      -9.644  14.827   3.976  1.00  0.00     0.210 HD
ENDBRANCH   4  40
TORSDOF 5
ENDMDL
MODEL 5
REMARK minimizedAffinity -8.52382851
REMARK CNNscore 0.445228577
REMARK CNNaffinity 5.90966415
REMARK  5 active torsions:
REMARK  status: ('A' for Active; 'I' for Inactive)
REMARK    1  A    between atoms: C4_4  and  O1_5 
REMARK    2  A    between atoms: C5_6  and  O2_7 
REMARK    3  A    between atoms: C8_11  and  C9_12 
REMARK    4  A    between atoms: C19_23  and  C20_24 
REMARK    5  A    between atoms: C26_32  and  O7_33 
ROOT
HETATM    1  C1  UNL     1       2.315   5.838   6.855  1.00  0.00     0.040 C 
HETATM    2  C2  UNL     1       2.364   6.542   8.204  1.00  0.00     0.123 C 
HETATM    3  C3  UNL     1       2.242   8.064   8.043  1.00  0.00     0.069 C 
HETATM    4  C4  UNL     1       3.000   8.812   9.147  1.00  0.00     0.188 C 
HETATM    5  C5  UNL     1       2.973   8.018  10.478  1.00  0.00     0.240 C 
HETATM    6  O3  UNL     1       3.527   8.822  11.517  1.00  0.00    -0.341 OA
HETATM    7  C6  UNL     1       4.510   8.155  12.307  1.00  0.00     0.156 C 
HETATM    8  C7  UNL     1       5.134   9.216  13.221  1.00  0.00     0.056 C 
HETATM    9  C8  UNL     1       6.295   8.689  14.098  1.00  0.00     0.043 C 
HETATM   10  C10 UNL     1       7.281   7.926  13.216  1.00  0.00    -0.065 C 
HETATM   11  C11 UNL     1       8.612   8.088  13.313  1.00  0.00    -0.022 C 
HETATM   12  C12 UNL     1       9.284   8.981  14.309  1.00  0.00     0.035 C 
HETATM   13  C13 UNL     1       8.355   9.488  15.438  1.00  0.00     0.030 C 
HETATM   14  C14 UNL     1       6.987   9.901  14.837  1.00  0.00     0.012 C 
HETATM   15  C15 UNL     1       6.083  10.573  15.887  1.00  0.00     0.007 C 
HETATM   16  C16 UNL     1       6.783  11.720  16.604  1.00  0.00     0.013 C 
HETATM   17  C17 UNL     1       8.099  11.292  17.311  1.00  0.00    -0.005 C 
HETATM   18  C18 UNL     1       7.746  10.391  18.512  1.00  0.00     0.019 C 
HETATM   19  C19 UNL     1       8.882  12.602  17.710  1.00  0.00     0.028 C 
HETATM   20  C24 UNL     1       9.904  12.832  16.569  1.00  0.00     0.013 C 
HETATM   21  C25 UNL     1       9.635  11.766  15.510  1.00  0.00     0.040 C 
HETATM   22  C26 UNL     1       9.045  10.587  16.295  1.00  0.00     0.070 C 
HETATM   23  C27 UNL     1       6.705   6.935  12.230  1.00  0.00     0.069 C 
HETATM   24  C28 UNL     1       5.551   7.504  11.402  1.00  0.00     0.158 C 
HETATM   25  O8  UNL     1       4.980   6.418  10.672  1.00  0.00    -0.347 OA
HETATM   26  C29 UNL     1       3.636   6.603  10.225  1.00  0.00     0.325 C 
HETATM   27  O9  UNL     1       3.606   6.226   8.832  1.00  0.00    -0.351 OA
ENDROOT
BRANCH  19  28
HETATM   28  C20 UNL     1       9.505  12.648  19.080  1.00  0.00    -0.045 A 
HETATM   29  C21 UNL     1       8.929  12.862  20.263  1.00  0.00     0.087 A 
HETATM   30  C22 UNL     1       9.983  12.809  21.272  1.00  0.00     0.283 A 
HETATM   31  O5  UNL     1       9.814  12.964  22.467  1.00  0.00    -0.260 OA
HETATM   32  O6  UNL     1      11.172  12.549  20.662  1.00  0.00    -0.314 OA
HETATM   33  C23 UNL     1      10.962  12.440  19.256  1.00  0.00     0.213 A 
ENDBRANCH  19  28
BRANCH  22  34
HETATM   34  O7  UNL     1      10.122   9.980  17.023  1.00  0.00    -0.389 OA
HETATM   35  H34 UNL     1      10.796   9.676  16.394  1.00  0.00     0.210 HD
ENDBRANCH  22  34
BRANCH   9  36
HETATM   36  C9  UNL     1       5.694   7.719  15.139  1.00  0.00     0.245 C 
HETATM   37  O4  UNL     1       4.525   7.705  15.513  1.00  0.00    -0.306 OA
ENDBRANCH   9  36
BRANCH   5  38
HETATM   38  O2  UNL     1       1.588   7.846  10.829  1.00  0.00    -0.360 OA
HETATM   39  H9  UNL     1       1.589   7.408  11.695  1.00  0.00     0.213 HD
ENDBRANCH   5  38
BRANCH   4  40
HETATM   40  O1  UNL     1       4.346   9.058   8.699  1.00  0.00    -0.390 OA
HETATM   41  H8  UNL     1       4.706   8.204   8.391  1.00  0.00     0.210 HD
ENDBRANCH   4  40
TORSDOF 5
ENDMDL
MODEL 6
REMARK minimizedAffinity -6.90916872
REMARK CNNscore 0.439631671
REMARK CNNaffinity 5.95061827
REMARK  5 active torsions:
REMARK  status: ('A' for Active; 'I' for Inactive)
REMARK    1  A    between atoms: C4_4  and  O1_5 
REMARK    2  A    between atoms: C5_6  and  O2_7 
REMARK    3  A    between atoms: C8_11  and  C9_12 
REMARK    4  A    between atoms: C19_23  and  C20_24 
REMARK    5  A    between atoms: C26_32  and  O7_33 
ROOT
HETATM    1  C1  UNL     1      -0.146  19.090  20.620  1.00  0.00     0.040 C 
HETATM    2  C2  UNL     1      -1.142  18.157  19.948  1.00  0.00     0.123 C 
HETATM    3  C3  UNL     1      -1.924  17.337  20.984  1.00  0.00     0.069 C 
HETATM    4  C4  UNL     1      -2.324  15.963  20.433  1.00  0.00     0.188 C 
HETATM    5  C5  UNL     1      -2.602  16.034  18.908  1.00  0.00     0.240 C 
HETATM    6  O3  UNL     1      -3.142  14.789  18.470  1.00  0.00    -0.341 OA
HETATM    7  C6  UNL     1      -2.507  14.256  17.309  1.00  0.00     0.156 C 
HETATM    8  C7  UNL     1      -3.066  12.842  17.111  1.00  0.00     0.056 C 
HETATM    9  C8  UNL     1      -2.421  12.068  15.937  1.00  0.00     0.043 C 
HETATM   10  C10 UNL     1      -0.901  12.157  16.055  1.00  0.00    -0.065 C 
HETATM   11  C11 UNL     1      -0.099  11.091  15.883  1.00  0.00    -0.022 C 
HETATM   12  C12 UNL     1      -0.580   9.723  15.514  1.00  0.00     0.035 C 
HETATM   13  C13 UNL     1      -2.052   9.672  15.042  1.00  0.00     0.030 C 
HETATM   14  C14 UNL     1      -2.922  10.570  15.957  1.00  0.00     0.012 C 
HETATM   15  C15 UNL     1      -4.422  10.424  15.641  1.00  0.00     0.007 C 
HETATM   16  C16 UNL     1      -4.874   8.969  15.640  1.00  0.00     0.013 C 
HETATM   17  C17 UNL     1      -4.085   8.081  14.638  1.00  0.00    -0.005 C 
HETATM   18  C18 UNL     1      -4.473   8.491  13.202  1.00  0.00     0.019 C 
HETATM   19  C19 UNL     1      -4.404   6.572  14.974  1.00  0.00     0.028 C 
HETATM   20  C24 UNL     1      -3.236   6.099  15.874  1.00  0.00     0.013 C 
HETATM   21  C25 UNL     1      -2.353   7.316  16.135  1.00  0.00     0.040 C 
HETATM   22  C26 UNL     1      -2.556   8.207  14.902  1.00  0.00     0.070 C 
HETATM   23  C27 UNL     1      -0.307  13.517  16.345  1.00  0.00     0.069 C 
HETATM   24  C28 UNL     1      -0.993  14.244  17.503  1.00  0.00     0.158 C 
HETATM   25  O8  UNL     1      -0.476  15.574  17.532  1.00  0.00    -0.347 OA
HETATM   26  C29 UNL     1      -1.289  16.548  18.188  1.00  0.00     0.325 C 
HETATM   27  O9  UNL     1      -0.424  17.277  19.085  1.00  0.00    -0.351 OA
ENDROOT
BRANCH  19  28
HETATM   28  C20 UNL     1      -4.673   5.646  13.818  1.00  0.00    -0.045 A 
HETATM   29  C21 UNL     1      -5.826   5.105  13.420  1.00  0.00     0.087 A 
HETATM   30  C22 UNL     1      -5.533   4.279  12.252  1.00  0.00     0.283 A 
HETATM   31  O5  UNL     1      -6.356   3.635  11.629  1.00  0.00    -0.260 OA
HETATM   32  O6  UNL     1      -4.204   4.358  11.972  1.00  0.00    -0.314 OA
HETATM   33  C23 UNL     1      -3.573   5.205  12.929  1.00  0.00     0.213 A 
ENDBRANCH  19  28
BRANCH  22  34
HETATM   34  O7  UNL     1      -1.855   7.592  13.812  1.00  0.00    -0.389 OA
HETATM   35  H34 UNL     1      -0.913   7.525  14.041  1.00  0.00     0.210 HD
ENDBRANCH  22  34
BRANCH   9  36
HETATM   36  C9  UNL     1      -2.866  12.748  14.625  1.00  0.00     0.245 C 
HETATM   37  O4  UNL     1      -2.132  13.349  13.846  1.00  0.00    -0.306 OA
ENDBRANCH   9  36
BRANCH   5  38
HETATM   38  O2  UNL     1      -3.660  16.991  18.725  1.00  0.00    -0.360 OA
HETATM   39  H9  UNL     1      -3.868  16.974  17.778  1.00  0.00     0.213 HD
ENDBRANCH   5  38
BRANCH   4  40
HETATM   40  O1  UNL     1      -1.282  15.018  20.742  1.00  0.00    -0.390 OA
HETATM   41  H8  UNL     1      -0.441  15.409  20.437  1.00  0.00     0.210 HD
ENDBRANCH   4  40
TORSDOF 5
ENDMDL
MODEL 7
REMARK minimizedAffinity -7.97854185
REMARK CNNscore 0.419394553
REMARK CNNaffinity 6.36497498
REMARK  5 active torsions:
REMARK  status: ('A' for Active; 'I' for Inactive)
REMARK    1  A    between atoms: C4_4  and  O1_5 
REMARK    2  A    between atoms: C5_6  and  O2_7 
REMARK    3  A    between atoms: C8_11  and  C9_12 
REMARK    4  A    between atoms: C19_23  and  C20_24 
REMARK    5  A    between atoms: C26_32  and  O7_33 
ROOT
HETATM    1  C1  UNL     1     -11.068  -0.913  -8.892  1.00  0.00     0.040 C 
HETATM    2  C2  UNL     1     -11.032  -1.654  -7.563  1.00  0.00     0.123 C 
HETATM    3  C3  UNL     1     -10.008  -1.029  -6.604  1.00  0.00     0.069 C 
HETATM    4  C4  UNL     1      -9.404  -2.076  -5.661  1.00  0.00     0.188 C 
HETATM    5  C5  UNL     1     -10.439  -3.180  -5.318  1.00  0.00     0.240 C 
HETATM    6  O3  UNL     1      -9.903  -4.029  -4.305  1.00  0.00    -0.341 OA
HETATM    7  C6  UNL     1     -10.017  -5.422  -4.593  1.00  0.00     0.156 C 
HETATM    8  C7  UNL     1      -9.216  -6.161  -3.515  1.00  0.00     0.056 C 
HETATM    9  C8  UNL     1      -9.151  -7.693  -3.717  1.00  0.00     0.043 C 
HETATM   10  C10 UNL     1      -8.735  -7.990  -5.157  1.00  0.00    -0.065 C 
HETATM   11  C11 UNL     1      -7.812  -8.918  -5.465  1.00  0.00    -0.022 C 
HETATM   12  C12 UNL     1      -7.127  -9.793  -4.463  1.00  0.00     0.035 C 
HETATM   13  C13 UNL     1      -7.768  -9.774  -3.056  1.00  0.00     0.030 C 
HETATM   14  C14 UNL     1      -8.142  -8.319  -2.676  1.00  0.00     0.012 C 
HETATM   15  C15 UNL     1      -8.627  -8.217  -1.218  1.00  0.00     0.007 C 
HETATM   16  C16 UNL     1      -7.649  -8.850  -0.237  1.00  0.00     0.013 C 
HETATM   17  C17 UNL     1      -7.357 -10.346  -0.540  1.00  0.00    -0.005 C 
HETATM   18  C18 UNL     1      -8.626 -11.170  -0.235  1.00  0.00     0.019 C 
HETATM   19  C19 UNL     1      -6.102 -10.777   0.314  1.00  0.00     0.028 C 
HETATM   20  C24 UNL     1      -4.891 -10.641  -0.642  1.00  0.00     0.013 C 
HETATM   21  C25 UNL     1      -5.418 -10.048  -1.946  1.00  0.00     0.040 C 
HETATM   22  C26 UNL     1      -6.880 -10.510  -2.013  1.00  0.00     0.070 C 
HETATM   23  C27 UNL     1      -9.432  -7.215  -6.253  1.00  0.00     0.069 C 
HETATM   24  C28 UNL     1      -9.481  -5.708  -5.993  1.00  0.00     0.158 C 
HETATM   25  O8  UNL     1     -10.330  -5.136  -6.987  1.00  0.00    -0.347 OA
HETATM   26  C29 UNL     1     -10.899  -3.865  -6.669  1.00  0.00     0.325 C 
HETATM   27  O9  UNL     1     -10.683  -3.014  -7.815  1.00  0.00    -0.351 OA
ENDROOT
BRANCH  19  28
HETATM   28  C20 UNL     1      -6.160 -12.111   1.009  1.00  0.00    -0.045 A 
HETATM   29  C21 UNL     1      -5.861 -13.323   0.538  1.00  0.00     0.087 A 
HETATM   30  C22 UNL     1      -6.097 -14.275   1.620  1.00  0.00     0.283 A 
HETATM   31  O5  UNL     1      -5.927 -15.477   1.541  1.00  0.00    -0.260 OA
HETATM   32  O6  UNL     1      -6.521 -13.601   2.723  1.00  0.00    -0.314 OA
HETATM   33  C23 UNL     1      -6.600 -12.211   2.421  1.00  0.00     0.213 A 
ENDBRANCH  19  28
BRANCH  22  34
HETATM   34  O7  UNL     1      -6.871 -11.907  -2.335  1.00  0.00    -0.389 OA
HETATM   35  H34 UNL     1      -6.428 -12.031  -3.191  1.00  0.00     0.210 HD
ENDBRANCH  22  34
BRANCH   9  36
HETATM   36  C9  UNL     1     -10.567  -8.260  -3.474  1.00  0.00     0.245 C 
HETATM   37  O4  UNL     1     -11.489  -7.666  -2.922  1.00  0.00    -0.306 OA
ENDBRANCH   9  36
BRANCH   5  38
HETATM   38  O2  UNL     1     -11.561  -2.520  -4.705  1.00  0.00    -0.360 OA
HETATM   39  H9  UNL     1     -12.167  -3.227  -4.436  1.00  0.00     0.213 HD
ENDBRANCH   5  38
BRANCH   4  40
HETATM   40  O1  UNL     1      -8.222  -2.625  -6.273  1.00  0.00    -0.390 OA
HETATM   41  H8  UNL     1      -8.470  -2.906  -7.175  1.00  0.00     0.210 HD
ENDBRANCH   4  40
TORSDOF 5
ENDMDL
MODEL 8
REMARK minimizedAffinity -9.07778454
REMARK CNNscore 0.415675581
REMARK CNNaffinity 6.48152399
REMARK  5 active torsions:
REMARK  status: ('A' for Active; 'I' for Inactive)
REMARK    1  A    between atoms: C4_4  and  O1_5 
REMARK    2  A    between atoms: C5_6  and  O2_7 
REMARK    3  A    between atoms: C8_11  and  C9_12 
REMARK    4  A    between atoms: C19_23  and  C20_24 
REMARK    5  A    between atoms: C26_32  and  O7_33 
ROOT
HETATM    1  C1  UNL     1       7.411  13.558  14.463  1.00  0.00     0.040 C 
HETATM    2  C2  UNL     1       6.462  12.521  13.877  1.00  0.00     0.123 C 
HETATM    3  C3  UNL     1       5.627  13.113  12.734  1.00  0.00     0.069 C 
HETATM    4  C4  UNL     1       4.248  12.448  12.638  1.00  0.00     0.188 C 
HETATM    5  C5  UNL     1       4.318  10.957  13.057  1.00  0.00     0.240 C 
HETATM    6  O3  UNL     1       3.066  10.332  12.785  1.00  0.00    -0.341 OA
HETATM    7  C6  UNL     1       2.547   9.570  13.874  1.00  0.00     0.156 C 
HETATM    8  C7  UNL     1       1.124   9.153  13.482  1.00  0.00     0.056 C 
HETATM    9  C8  UNL     1       0.364   8.386  14.588  1.00  0.00     0.043 C 
HETATM   10  C10 UNL     1       0.478   9.159  15.901  1.00  0.00    -0.065 C 
HETATM   11  C11 UNL     1      -0.573   9.361  16.714  1.00  0.00    -0.022 C 
HETATM   12  C12 UNL     1      -1.948   8.825  16.466  1.00  0.00     0.035 C 
HETATM   13  C13 UNL     1      -2.023   7.755  15.352  1.00  0.00     0.030 C 
HETATM   14  C14 UNL     1      -1.142   8.191  14.154  1.00  0.00     0.012 C 
HETATM   15  C15 UNL     1      -1.312   7.249  12.948  1.00  0.00     0.007 C 
HETATM   16  C16 UNL     1      -2.774   7.057  12.566  1.00  0.00     0.013 C 
HETATM   17  C17 UNL     1      -3.646   6.507  13.728  1.00  0.00    -0.005 C 
HETATM   18  C18 UNL     1      -3.239   5.044  14.004  1.00  0.00     0.019 C 
HETATM   19  C19 UNL     1      -5.161   6.676  13.319  1.00  0.00     0.028 C 
HETATM   20  C24 UNL     1      -5.618   8.000  13.981  1.00  0.00     0.013 C 
HETATM   21  C25 UNL     1      -4.386   8.616  14.640  1.00  0.00     0.040 C 
HETATM   22  C26 UNL     1      -3.496   7.414  14.984  1.00  0.00     0.070 C 
HETATM   23  C27 UNL     1       1.848   9.673  16.285  1.00  0.00     0.069 C 
HETATM   24  C28 UNL     1       2.559  10.409  15.148  1.00  0.00     0.158 C 
HETATM   25  O8  UNL     1       3.898  10.656  15.578  1.00  0.00    -0.347 OA
HETATM   26  C29 UNL     1       4.856  10.883  14.544  1.00  0.00     0.325 C 
HETATM   27  O9  UNL     1       5.597  12.065  14.916  1.00  0.00    -0.351 OA
ENDROOT
BRANCH  19  28
HETATM   28  C20 UNL     1      -6.089   5.524  13.599  1.00  0.00    -0.045 A 
HETATM   29  C21 UNL     1      -6.361   4.457  12.847  1.00  0.00     0.087 A 
HETATM   30  C22 UNL     1      -7.331   3.649  13.581  1.00  0.00     0.283 A 
HETATM   31  O5  UNL     1      -7.805   2.599  13.189  1.00  0.00    -0.260 OA
HETATM   32  O6  UNL     1      -7.606   4.252  14.769  1.00  0.00    -0.314 OA
HETATM   33  C23 UNL     1      -6.862   5.464  14.862  1.00  0.00     0.213 A 
ENDBRANCH  19  28
BRANCH  22  34
HETATM   34  O7  UNL     1      -4.096   6.746  16.102  1.00  0.00    -0.389 OA
HETATM   35  H34 UNL     1      -4.148   7.366  16.849  1.00  0.00     0.210 HD
ENDBRANCH  22  34
BRANCH   9  36
HETATM   36  C9  UNL     1       1.040   7.008  14.754  1.00  0.00     0.245 C 
HETATM   37  O4  UNL     1       1.569   6.358  13.856  1.00  0.00    -0.306 OA
ENDBRANCH   9  36
BRANCH   5  38
HETATM   38  O2  UNL     1       5.258  10.322  12.172  1.00  0.00    -0.360 OA
HETATM   39  H9  UNL     1       5.241   9.380  12.401  1.00  0.00     0.213 HD
ENDBRANCH   5  38
BRANCH   4  40
HETATM   40  O1  UNL     1       3.320  13.188  13.454  1.00  0.00    -0.390 OA
HETATM   41  H8  UNL     1       3.726  13.282  14.337  1.00  0.00     0.210 HD
ENDBRANCH   4  40
TORSDOF 5
ENDMDL
MODEL 9
REMARK minimizedAffinity -6.87820482
REMARK CNNscore 0.404470295
REMARK CNNaffinity 6.05462122
REMARK  5 active torsions:
REMARK  status: ('A' for Active; 'I' for Inactive)
REMARK    1  A    between atoms: C4_4  and  O1_5 
REMARK    2  A    between atoms: C5_6  and  O2_7 
REMARK    3  A    between atoms: C8_11  and  C9_12 
REMARK    4  A    between atoms: C19_23  and  C20_24 
REMARK    5  A    between atoms: C26_32  and  O7_33 
ROOT
HETATM    1  C1  UNL     1       5.778  10.901  -6.324  1.00  0.00     0.040 C 
HETATM    2  C2  UNL     1       4.869  11.478  -5.249  1.00  0.00     0.123 C 
HETATM    3  C3  UNL     1       4.163  12.751  -5.740  1.00  0.00     0.069 C 
HETATM    4  C4  UNL     1       3.887  13.724  -4.587  1.00  0.00     0.188 C 
HETATM    5  C5  UNL     1       3.605  12.960  -3.268  1.00  0.00     0.240 C 
HETATM    6  O3  UNL     1       3.178  13.885  -2.270  1.00  0.00    -0.341 OA
HETATM    7  C6  UNL     1       3.858  13.751  -1.023  1.00  0.00     0.156 C 
HETATM    8  C7  UNL     1       3.427  14.939  -0.156  1.00  0.00     0.056 C 
HETATM    9  C8  UNL     1       4.138  15.010   1.216  1.00  0.00     0.043 C 
HETATM   10  C10 UNL     1       5.645  14.869   1.005  1.00  0.00    -0.065 C 
HETATM   11  C11 UNL     1       6.539  15.658   1.627  1.00  0.00    -0.022 C 
HETATM   12  C12 UNL     1       6.181  16.719   2.619  1.00  0.00     0.035 C 
HETATM   13  C13 UNL     1       4.720  16.656   3.122  1.00  0.00     0.030 C 
HETATM   14  C14 UNL     1       3.773  16.372   1.928  1.00  0.00     0.012 C 
HETATM   15  C15 UNL     1       2.292  16.467   2.339  1.00  0.00     0.007 C 
HETATM   16  C16 UNL     1       1.972  17.777   3.047  1.00  0.00     0.013 C 
HETATM   17  C17 UNL     1       2.836  18.018   4.316  1.00  0.00    -0.005 C 
HETATM   18  C18 UNL     1       2.414  17.006   5.402  1.00  0.00     0.019 C 
HETATM   19  C19 UNL     1       2.654  19.524   4.748  1.00  0.00     0.028 C 
HETATM   20  C24 UNL     1       3.859  20.275   4.130  1.00  0.00     0.013 C 
HETATM   21  C25 UNL     1       4.630  19.263   3.287  1.00  0.00     0.040 C 
HETATM   22  C26 UNL     1       4.348  17.913   3.960  1.00  0.00     0.070 C 
HETATM   23  C27 UNL     1       6.114  13.767   0.081  1.00  0.00     0.069 C 
HETATM   24  C28 UNL     1       5.366  13.735  -1.253  1.00  0.00     0.158 C 
HETATM   25  O8  UNL     1       5.763  12.542  -1.929  1.00  0.00    -0.347 OA
HETATM   26  C29 UNL     1       4.866  12.064  -2.933  1.00  0.00     0.325 C 
HETATM   27  O9  UNL     1       5.663  11.783  -4.103  1.00  0.00    -0.351 OA
ENDROOT
BRANCH  19  28
HETATM   28  C20 UNL     1       2.468  19.809   6.214  1.00  0.00    -0.045 A 
HETATM   29  C21 UNL     1       1.345  19.828   6.935  1.00  0.00     0.087 A 
HETATM   30  C22 UNL     1       1.721  20.164   8.306  1.00  0.00     0.283 A 
HETATM   31  O5  UNL     1       0.943  20.271   9.236  1.00  0.00    -0.260 OA
HETATM   32  O6  UNL     1       3.070  20.325   8.373  1.00  0.00    -0.314 OA
HETATM   33  C23 UNL     1       3.630  20.125   7.077  1.00  0.00     0.213 A 
ENDBRANCH  19  28
BRANCH  22  34
HETATM   34  O7  UNL     1       5.101  17.879   5.180  1.00  0.00    -0.389 OA
HETATM   35  H34 UNL     1       6.045  17.973   4.970  1.00  0.00     0.210 HD
ENDBRANCH  22  34
BRANCH   9  36
HETATM   36  C9  UNL     1       3.634  13.825   2.068  1.00  0.00     0.245 C 
HETATM   37  O4  UNL     1       2.582  13.796   2.700  1.00  0.00    -0.306 OA
ENDBRANCH   9  36
BRANCH   5  38
HETATM   38  O2  UNL     1       2.465  12.116  -3.514  1.00  0.00    -0.360 OA
HETATM   39  H9  UNL     1       2.259  11.697  -2.664  1.00  0.00     0.213 HD
ENDBRANCH   5  38
BRANCH   4  40
HETATM   40  O1  UNL     1       5.009  14.617  -4.456  1.00  0.00    -0.390 OA
HETATM   41  H8  UNL     1       5.812  14.064  -4.409  1.00  0.00     0.210 HD
ENDBRANCH   4  40
TORSDOF 5
ENDMDL
