MODEL 1
REMARK minimizedAffinity -7.25995159
REMARK CNNscore 0.718739033
REMARK CNNaffinity 7.13989782
REMARK  9 active torsions:
REMARK  status: ('A' for Active; 'I' for Inactive)
REMARK    1  A    between atoms: C2_2  and  C3_3 
REMARK    2  A    between atoms: C2_2  and  C9_12 
REMARK    3  A    between atoms: C3_3  and  C4_4 
REMARK    4  A    between atoms: C4_4  and  C5_5 
REMARK    5  A    between atoms: C5_5  and  O1_6 
REMARK    6  A    between atoms: C5_5  and  C6_7 
REMARK    7  A    between atoms: C6_7  and  O2_9 
REMARK    8  A    between atoms: C6_7  and  C8_10 
REMARK    9  A    between atoms: C8_10  and  O3_11 
ROOT
HETATM    1  C9  UNL     1      -2.302  53.420  -9.929  1.00  0.00    -0.002 C 
HETATM    2  C10 UNL     1      -2.451  52.821  -8.500  1.00  0.00     0.007 C 
HETATM    3  C11 UNL     1      -1.243  53.306  -7.677  1.00  0.00     0.015 C 
HETATM    4  C12 UNL     1      -0.126  53.466  -8.724  1.00  0.00    -0.013 C 
HETATM    5  C13 UNL     1       0.396  52.024  -9.028  1.00  0.00     0.021 C 
HETATM    6  C14 UNL     1       1.135  54.251  -8.347  1.00  0.00    -0.070 C 
HETATM    7  C15 UNL     1       1.654  54.186  -7.107  1.00  0.00    -0.022 C 
HETATM    8  C16 UNL     1       3.050  54.620  -6.785  1.00  0.00     0.034 C 
HETATM    9  C17 UNL     1       3.948  54.475  -8.032  1.00  0.00     0.013 C 
HETATM   10  C18 UNL     1       5.486  54.561  -7.721  1.00  0.00     0.018 C 
HETATM   11  C19 UNL     1       5.904  53.315  -6.896  1.00  0.00     0.023 C 
HETATM   12  C20 UNL     1       5.932  55.796  -6.920  1.00  0.00     0.023 C 
HETATM   13  C21 UNL     1       6.280  54.533  -9.038  1.00  0.00     0.135 C 
HETATM   14  O4  UNL     1       7.355  53.936  -9.143  1.00  0.00    -0.297 OA
HETATM   15  C22 UNL     1       5.772  55.367 -10.187  1.00  0.00     0.080 C 
HETATM   16  C23 UNL     1       4.295  55.112 -10.444  1.00  0.00     0.017 C 
HETATM   17  C24 UNL     1       3.394  55.355  -9.208  1.00  0.00    -0.031 C 
HETATM   18  C25 UNL     1       3.421  56.875  -8.882  1.00  0.00     0.016 C 
HETATM   19  C26 UNL     1       1.853  55.000  -9.483  1.00  0.00     0.024 C 
HETATM   20  C27 UNL     1       1.512  54.412 -10.872  1.00  0.00     0.010 C 
HETATM   21  C28 UNL     1      -0.001  54.174 -11.151  1.00  0.00     0.011 C 
HETATM   22  C29 UNL     1      -0.901  54.153  -9.900  1.00  0.00    -0.029 C 
HETATM   23  C30 UNL     1      -1.300  55.646  -9.582  1.00  0.00     0.016 C 
ENDROOT
BRANCH   1  24
HETATM   24  C2  UNL     1      -2.765  52.471 -11.073  1.00  0.00    -0.014 C 
HETATM   25  C1  UNL     1      -3.824  53.019 -12.032  1.00  0.00     0.010 C 
BRANCH  24  26
HETATM   26  C3  UNL     1      -3.176  51.050 -10.605  1.00  0.00     0.007 C 
BRANCH  26  27
HETATM   27  C4  UNL     1      -4.692  50.803 -10.622  1.00  0.00     0.035 C 
BRANCH  27  28
HETATM   28  C5  UNL     1      -5.186  49.640  -9.738  1.00  0.00     0.154 C 
BRANCH  28  29
HETATM   29  O1  UNL     1      -4.062  48.798  -9.419  1.00  0.00    -0.392 OA
HETATM   30  H10 UNL     1      -3.383  49.366  -9.011  1.00  0.00     0.210 HD
ENDBRANCH  28  29
BRANCH  28  31
HETATM   31  C6  UNL     1      -6.306  48.734 -10.328  1.00  0.00     0.101 C 
HETATM   32  C7  UNL     1      -5.863  48.027 -11.610  1.00  0.00     0.051 C 
BRANCH  31  33
HETATM   33  O2  UNL     1      -6.657  47.728  -9.361  1.00  0.00    -0.385 OA
HETATM   34  H14 UNL     1      -6.663  48.194  -8.502  1.00  0.00     0.210 HD
ENDBRANCH  31  33
BRANCH  31  35
HETATM   35  C8  UNL     1      -7.582  49.566 -10.601  1.00  0.00     0.204 C 
BRANCH  35  36
HETATM   36  O3  UNL     1      -8.021  50.272  -9.444  1.00  0.00    -0.398 OA
HETATM   37  H17 UNL     1      -8.918  49.949  -9.239  1.00  0.00     0.209 HD
ENDBRANCH  35  36
ENDBRANCH  31  35
ENDBRANCH  28  31
ENDBRANCH  27  28
ENDBRANCH  26  27
ENDBRANCH  24  26
ENDBRANCH   1  24
TORSDOF 9
ENDMDL
MODEL 2
REMARK minimizedAffinity -7.29810286
REMARK CNNscore 0.619728684
REMARK CNNaffinity 6.16638708
REMARK  9 active torsions:
REMARK  status: ('A' for Active; 'I' for Inactive)
REMARK    1  A    between atoms: C2_2  and  C3_3 
REMARK    2  A    between atoms: C2_2  and  C9_12 
REMARK    3  A    between atoms: C3_3  and  C4_4 
REMARK    4  A    between atoms: C4_4  and  C5_5 
REMARK    5  A    between atoms: C5_5  and  O1_6 
REMARK    6  A    between atoms: C5_5  and  C6_7 
REMARK    7  A    between atoms: C6_7  and  O2_9 
REMARK    8  A    between atoms: C6_7  and  C8_10 
REMARK    9  A    between atoms: C8_10  and  O3_11 
ROOT
HETATM    1  C9  UNL     1     -11.403  45.503 -28.337  1.00  0.00    -0.002 C 
HETATM    2  C10 UNL     1     -10.806  45.984 -26.982  1.00  0.00     0.007 C 
HETATM    3  C11 UNL     1     -11.829  45.630 -25.886  1.00  0.00     0.015 C 
HETATM    4  C12 UNL     1     -13.184  45.701 -26.612  1.00  0.00    -0.013 C 
HETATM    5  C13 UNL     1     -13.532  47.220 -26.738  1.00  0.00     0.021 C 
HETATM    6  C14 UNL     1     -14.417  45.087 -25.941  1.00  0.00    -0.070 C 
HETATM    7  C15 UNL     1     -14.591  45.149 -24.607  1.00  0.00    -0.022 C 
HETATM    8  C16 UNL     1     -15.910  44.904 -23.945  1.00  0.00     0.034 C 
HETATM    9  C17 UNL     1     -17.060  45.258 -24.914  1.00  0.00     0.013 C 
HETATM   10  C18 UNL     1     -18.463  45.378 -24.218  1.00  0.00     0.018 C 
HETATM   11  C19 UNL     1     -18.458  46.618 -23.285  1.00  0.00     0.023 C 
HETATM   12  C20 UNL     1     -18.881  44.174 -23.358  1.00  0.00     0.023 C 
HETATM   13  C21 UNL     1     -19.548  45.605 -25.284  1.00  0.00     0.135 C 
HETATM   14  O4  UNL     1     -20.507  46.358 -25.094  1.00  0.00    -0.297 OA
HETATM   15  C22 UNL     1     -19.484  44.779 -26.545  1.00  0.00     0.080 C 
HETATM   16  C23 UNL     1     -18.098  44.831 -27.169  1.00  0.00     0.017 C 
HETATM   17  C24 UNL     1     -16.965  44.382 -26.213  1.00  0.00    -0.031 C 
HETATM   18  C25 UNL     1     -17.149  42.864 -25.926  1.00  0.00     0.016 C 
HETATM   19  C26 UNL     1     -15.507  44.524 -26.869  1.00  0.00     0.024 C 
HETATM   20  C27 UNL     1     -15.438  45.142 -28.285  1.00  0.00     0.010 C 
HETATM   21  C28 UNL     1     -14.027  45.173 -28.940  1.00  0.00     0.011 C 
HETATM   22  C29 UNL     1     -12.848  44.983 -27.964  1.00  0.00    -0.029 C 
HETATM   23  C30 UNL     1     -12.623  43.431 -27.795  1.00  0.00     0.016 C 
ENDROOT
BRANCH   1  24
HETATM   24  C2  UNL     1     -11.099  46.444 -29.540  1.00  0.00    -0.014 C 
HETATM   25  C1  UNL     1     -10.654  45.773 -30.841  1.00  0.00     0.010 C 
BRANCH  24  26
HETATM   26  C3  UNL     1     -10.142  47.621 -29.212  1.00  0.00     0.007 C 
BRANCH  26  27
HETATM   27  C4  UNL     1      -9.110  47.909 -30.312  1.00  0.00     0.035 C 
BRANCH  27  28
HETATM   28  C5  UNL     1      -7.639  47.652 -29.927  1.00  0.00     0.154 C 
BRANCH  28  29
HETATM   29  O1  UNL     1      -7.225  48.668 -28.994  1.00  0.00    -0.392 OA
HETATM   30  H10 UNL     1      -7.856  48.650 -28.250  1.00  0.00     0.210 HD
ENDBRANCH  28  29
BRANCH  28  31
HETATM   31  C6  UNL     1      -6.601  47.622 -31.087  1.00  0.00     0.101 C 
HETATM   32  C7  UNL     1      -6.091  46.208 -31.370  1.00  0.00     0.051 C 
BRANCH  31  33
HETATM   33  O2  UNL     1      -7.219  48.123 -32.285  1.00  0.00    -0.385 OA
HETATM   34  H14 UNL     1      -7.759  48.884 -31.992  1.00  0.00     0.210 HD
ENDBRANCH  31  33
BRANCH  31  35
HETATM   35  C8  UNL     1      -5.410  48.555 -30.765  1.00  0.00     0.204 C 
BRANCH  35  36
HETATM   36  O3  UNL     1      -4.517  48.686 -31.868  1.00  0.00    -0.398 OA
HETATM   37  H17 UNL     1      -3.649  48.354 -31.571  1.00  0.00     0.209 HD
ENDBRANCH  35  36
ENDBRANCH  31  35
ENDBRANCH  28  31
ENDBRANCH  27  28
ENDBRANCH  26  27
ENDBRANCH  24  26
ENDBRANCH   1  24
TORSDOF 9
ENDMDL
MODEL 3
REMARK minimizedAffinity -7.19208145
REMARK CNNscore 0.569734633
REMARK CNNaffinity 6.96505737
REMARK  9 active torsions:
REMARK  status: ('A' for Active; 'I' for Inactive)
REMARK    1  A    between atoms: C2_2  and  C3_3 
REMARK    2  A    between atoms: C2_2  and  C9_12 
REMARK    3  A    between atoms: C3_3  and  C4_4 
REMARK    4  A    between atoms: C4_4  and  C5_5 
REMARK    5  A    between atoms: C5_5  and  O1_6 
REMARK    6  A    between atoms: C5_5  and  C6_7 
REMARK    7  A    between atoms: C6_7  and  O2_9 
REMARK    8  A    between atoms: C6_7  and  C8_10 
REMARK    9  A    between atoms: C8_10  and  O3_11 
ROOT
HETATM    1  C9  UNL     1      -2.191  53.605 -10.078  1.00  0.00    -0.002 C 
HETATM    2  C10 UNL     1      -2.377  52.856  -8.727  1.00  0.00     0.007 C 
HETATM    3  C11 UNL     1      -1.180  53.229  -7.834  1.00  0.00     0.015 C 
HETATM    4  C12 UNL     1      -0.039  53.486  -8.836  1.00  0.00    -0.013 C 
HETATM    5  C13 UNL     1       0.470  52.078  -9.286  1.00  0.00     0.021 C 
HETATM    6  C14 UNL     1       1.223  54.205  -8.352  1.00  0.00    -0.070 C 
HETATM    7  C15 UNL     1       1.717  53.998  -7.117  1.00  0.00    -0.022 C 
HETATM    8  C16 UNL     1       3.111  54.373  -6.723  1.00  0.00     0.034 C 
HETATM    9  C17 UNL     1       4.033  54.351  -7.963  1.00  0.00     0.013 C 
HETATM   10  C18 UNL     1       5.565  54.380  -7.615  1.00  0.00     0.018 C 
HETATM   11  C19 UNL     1       5.950  53.044  -6.925  1.00  0.00     0.023 C 
HETATM   12  C20 UNL     1       6.011  55.512  -6.676  1.00  0.00     0.023 C 
HETATM   13  C21 UNL     1       6.385  54.483  -8.912  1.00  0.00     0.135 C 
HETATM   14  O4  UNL     1       7.454  53.886  -9.063  1.00  0.00    -0.297 OA
HETATM   15  C22 UNL     1       5.911  55.446  -9.973  1.00  0.00     0.080 C 
HETATM   16  C23 UNL     1       4.436  55.243 -10.283  1.00  0.00     0.017 C 
HETATM   17  C24 UNL     1       3.514  55.363  -9.045  1.00  0.00    -0.031 C 
HETATM   18  C25 UNL     1       3.555  56.838  -8.553  1.00  0.00     0.016 C 
HETATM   19  C26 UNL     1       1.974  55.063  -9.385  1.00  0.00     0.024 C 
HETATM   20  C27 UNL     1       1.653  54.636 -10.837  1.00  0.00     0.010 C 
HETATM   21  C28 UNL     1       0.143  54.453 -11.168  1.00  0.00     0.011 C 
HETATM   22  C29 UNL     1      -0.782  54.309  -9.943  1.00  0.00    -0.029 C 
HETATM   23  C30 UNL     1      -1.168  55.764  -9.471  1.00  0.00     0.016 C 
ENDROOT
BRANCH   1  24
HETATM   24  C2  UNL     1      -2.644  52.794 -11.328  1.00  0.00    -0.014 C 
HETATM   25  C1  UNL     1      -4.026  53.124 -11.896  1.00  0.00     0.010 C 
BRANCH  24  26
HETATM   26  C3  UNL     1      -2.497  51.256 -11.187  1.00  0.00     0.007 C 
BRANCH  26  27
HETATM   27  C4  UNL     1      -2.296  50.525 -12.522  1.00  0.00     0.035 C 
BRANCH  27  28
HETATM   28  C5  UNL     1      -1.863  51.412 -13.708  1.00  0.00     0.154 C 
BRANCH  28  29
HETATM   29  O1  UNL     1      -2.880  51.345 -14.725  1.00  0.00    -0.392 OA
HETATM   30  H10 UNL     1      -3.724  51.599 -14.307  1.00  0.00     0.210 HD
ENDBRANCH  28  29
BRANCH  28  31
HETATM   31  C6  UNL     1      -0.499  51.075 -14.377  1.00  0.00     0.101 C 
HETATM   32  C7  UNL     1       0.003  49.681 -13.999  1.00  0.00     0.051 C 
BRANCH  31  33
HETATM   33  O2  UNL     1      -0.650  51.124 -15.807  1.00  0.00    -0.385 OA
HETATM   34  H14 UNL     1      -1.217  51.902 -15.975  1.00  0.00     0.210 HD
ENDBRANCH  31  33
BRANCH  31  35
HETATM   35  C8  UNL     1       0.562  52.136 -13.997  1.00  0.00     0.204 C 
BRANCH  35  36
HETATM   36  O3  UNL     1       1.092  52.800 -15.140  1.00  0.00    -0.398 OA
HETATM   37  H17 UNL     1       2.051  52.619 -15.153  1.00  0.00     0.209 HD
ENDBRANCH  35  36
ENDBRANCH  31  35
ENDBRANCH  28  31
ENDBRANCH  27  28
ENDBRANCH  26  27
ENDBRANCH  24  26
ENDBRANCH   1  24
TORSDOF 9
ENDMDL
MODEL 4
REMARK minimizedAffinity -7.64600515
REMARK CNNscore 0.507875144
REMARK CNNaffinity 5.39824677
REMARK  9 active torsions:
REMARK  status: ('A' for Active; 'I' for Inactive)
REMARK    1  A    between atoms: C2_2  and  C3_3 
REMARK    2  A    between atoms: C2_2  and  C9_12 
REMARK    3  A    between atoms: C3_3  and  C4_4 
REMARK    4  A    between atoms: C4_4  and  C5_5 
REMARK    5  A    between atoms: C5_5  and  O1_6 
REMARK    6  A    between atoms: C5_5  and  C6_7 
REMARK    7  A    between atoms: C6_7  and  O2_9 
REMARK    8  A    between atoms: C6_7  and  C8_10 
REMARK    9  A    between atoms: C8_10  and  O3_11 
ROOT
HETATM    1  C9  UNL     1       4.935  68.092 -37.359  1.00  0.00    -0.002 C 
HETATM    2  C10 UNL     1       5.484  67.430 -38.657  1.00  0.00     0.007 C 
HETATM    3  C11 UNL     1       4.637  67.961 -39.828  1.00  0.00     0.015 C 
HETATM    4  C12 UNL     1       3.261  68.232 -39.194  1.00  0.00    -0.013 C 
HETATM    5  C13 UNL     1       2.565  66.841 -39.049  1.00  0.00     0.021 C 
HETATM    6  C14 UNL     1       2.246  69.083 -39.964  1.00  0.00    -0.070 C 
HETATM    7  C15 UNL     1       2.141  69.005 -41.304  1.00  0.00    -0.022 C 
HETATM    8  C16 UNL     1       0.956  69.516 -42.060  1.00  0.00     0.034 C 
HETATM    9  C17 UNL     1      -0.299  69.477 -41.160  1.00  0.00     0.013 C 
HETATM   10  C18 UNL     1      -1.649  69.651 -41.946  1.00  0.00     0.018 C 
HETATM   11  C19 UNL     1      -1.875  68.403 -42.841  1.00  0.00     0.023 C 
HETATM   12  C20 UNL     1      -1.727  70.880 -42.866  1.00  0.00     0.023 C 
HETATM   13  C21 UNL     1      -2.818  69.725 -40.950  1.00  0.00     0.135 C 
HETATM   14  O4  UNL     1      -3.912  69.204 -41.182  1.00  0.00    -0.297 OA
HETATM   15  C22 UNL     1      -2.640  70.568 -39.712  1.00  0.00     0.080 C 
HETATM   16  C23 UNL     1      -1.342  70.227 -38.994  1.00  0.00     0.017 C 
HETATM   17  C24 UNL     1      -0.082  70.363 -39.884  1.00  0.00    -0.031 C 
HETATM   18  C25 UNL     1       0.107  71.869 -40.225  1.00  0.00     0.016 C 
HETATM   19  C26 UNL     1       1.263  69.920 -39.127  1.00  0.00     0.024 C 
HETATM   20  C27 UNL     1       1.103  69.364 -37.693  1.00  0.00     0.010 C 
HETATM   21  C28 UNL     1       2.428  69.040 -36.944  1.00  0.00     0.011 C 
HETATM   22  C29 UNL     1       3.674  68.912 -37.843  1.00  0.00    -0.029 C 
HETATM   23  C30 UNL     1       4.262  70.363 -38.041  1.00  0.00     0.016 C 
ENDROOT
BRANCH   1  24
HETATM   24  C2  UNL     1       4.942  67.159 -36.112  1.00  0.00    -0.014 C 
HETATM   25  C1  UNL     1       6.125  67.305 -35.153  1.00  0.00     0.010 C 
BRANCH  24  26
HETATM   26  C3  UNL     1       4.716  65.657 -36.429  1.00  0.00     0.007 C 
BRANCH  26  27
HETATM   27  C4  UNL     1       5.338  64.703 -35.399  1.00  0.00     0.035 C 
BRANCH  27  28
HETATM   28  C5  UNL     1       4.336  63.870 -34.574  1.00  0.00     0.154 C 
BRANCH  28  29
HETATM   29  O1  UNL     1       3.064  64.546 -34.580  1.00  0.00    -0.392 OA
HETATM   30  H10 UNL     1       2.816  64.685 -35.513  1.00  0.00     0.210 HD
ENDBRANCH  28  29
BRANCH  28  31
HETATM   31  C6  UNL     1       4.713  63.580 -33.092  1.00  0.00     0.101 C 
HETATM   32  C7  UNL     1       3.678  62.697 -32.394  1.00  0.00     0.051 C 
BRANCH  31  33
HETATM   33  O2  UNL     1       5.980  62.901 -33.051  1.00  0.00    -0.385 OA
HETATM   34  H14 UNL     1       6.529  63.348 -33.726  1.00  0.00     0.210 HD
ENDBRANCH  31  33
BRANCH  31  35
HETATM   35  C8  UNL     1       4.883  64.906 -32.312  1.00  0.00     0.204 C 
BRANCH  35  36
HETATM   36  O3  UNL     1       4.004  64.989 -31.194  1.00  0.00    -0.398 OA
HETATM   37  H17 UNL     1       3.433  65.766 -31.340  1.00  0.00     0.209 HD
ENDBRANCH  35  36
ENDBRANCH  31  35
ENDBRANCH  28  31
ENDBRANCH  27  28
ENDBRANCH  26  27
ENDBRANCH  24  26
ENDBRANCH   1  24
TORSDOF 9
ENDMDL
MODEL 5
REMARK minimizedAffinity -7.17543077
REMARK CNNscore 0.417836964
REMARK CNNaffinity 6.00752497
REMARK  9 active torsions:
REMARK  status: ('A' for Active; 'I' for Inactive)
REMARK    1  A    between atoms: C2_2  and  C3_3 
REMARK    2  A    between atoms: C2_2  and  C9_12 
REMARK    3  A    between atoms: C3_3  and  C4_4 
REMARK    4  A    between atoms: C4_4  and  C5_5 
REMARK    5  A    between atoms: C5_5  and  O1_6 
REMARK    6  A    between atoms: C5_5  and  C6_7 
REMARK    7  A    between atoms: C6_7  and  O2_9 
REMARK    8  A    between atoms: C6_7  and  C8_10 
REMARK    9  A    between atoms: C8_10  and  O3_11 
ROOT
HETATM    1  C9  UNL     1      -9.957  46.555 -28.543  1.00  0.00    -0.002 C 
HETATM    2  C10 UNL     1      -9.756  47.663 -27.469  1.00  0.00     0.007 C 
HETATM    3  C11 UNL     1     -10.822  47.439 -26.381  1.00  0.00     0.015 C 
HETATM    4  C12 UNL     1     -12.000  46.809 -27.146  1.00  0.00    -0.013 C 
HETATM    5  C13 UNL     1     -12.711  47.982 -27.895  1.00  0.00     0.021 C 
HETATM    6  C14 UNL     1     -13.123  46.134 -26.351  1.00  0.00    -0.070 C 
HETATM    7  C15 UNL     1     -13.537  46.627 -25.169  1.00  0.00    -0.022 C 
HETATM    8  C16 UNL     1     -14.838  46.245 -24.537  1.00  0.00     0.034 C 
HETATM    9  C17 UNL     1     -15.853  45.836 -25.628  1.00  0.00     0.013 C 
HETATM   10  C18 UNL     1     -17.337  45.759 -25.117  1.00  0.00     0.018 C 
HETATM   11  C19 UNL     1     -17.824  47.191 -24.768  1.00  0.00     0.023 C 
HETATM   12  C20 UNL     1     -17.564  44.894 -23.867  1.00  0.00     0.023 C 
HETATM   13  C21 UNL     1     -18.240  45.224 -26.240  1.00  0.00     0.135 C 
HETATM   14  O4  UNL     1     -19.383  45.652 -26.425  1.00  0.00    -0.297 OA
HETATM   15  C22 UNL     1     -17.741  44.055 -27.053  1.00  0.00     0.080 C 
HETATM   16  C23 UNL     1     -16.331  44.303 -27.568  1.00  0.00     0.017 C 
HETATM   17  C24 UNL     1     -15.304  44.619 -26.452  1.00  0.00    -0.031 C 
HETATM   18  C25 UNL     1     -15.125  43.340 -25.585  1.00  0.00     0.016 C 
HETATM   19  C26 UNL     1     -13.844  44.957 -27.029  1.00  0.00     0.024 C 
HETATM   20  C27 UNL     1     -13.697  44.995 -28.568  1.00  0.00     0.010 C 
HETATM   21  C28 UNL     1     -12.252  45.221 -29.101  1.00  0.00     0.011 C 
HETATM   22  C29 UNL     1     -11.255  45.786 -28.070  1.00  0.00    -0.029 C 
HETATM   23  C30 UNL     1     -10.658  44.561 -27.274  1.00  0.00     0.016 C 
ENDROOT
BRANCH   1  24
HETATM   24  C2  UNL     1      -9.709  47.028 -30.006  1.00  0.00    -0.014 C 
HETATM   25  C1  UNL     1     -10.889  47.686 -30.724  1.00  0.00     0.010 C 
BRANCH  24  26
HETATM   26  C3  UNL     1      -9.073  45.956 -30.931  1.00  0.00     0.007 C 
BRANCH  26  27
HETATM   27  C4  UNL     1      -7.552  46.096 -31.090  1.00  0.00     0.035 C 
BRANCH  27  28
HETATM   28  C5  UNL     1      -7.042  46.186 -32.543  1.00  0.00     0.154 C 
BRANCH  28  29
HETATM   29  O1  UNL     1      -7.031  44.861 -33.108  1.00  0.00    -0.392 OA
HETATM   30  H10 UNL     1      -7.931  44.498 -33.009  1.00  0.00     0.210 HD
ENDBRANCH  28  29
BRANCH  28  31
HETATM   31  C6  UNL     1      -5.629  46.804 -32.756  1.00  0.00     0.101 C 
HETATM   32  C7  UNL     1      -4.510  45.793 -32.501  1.00  0.00     0.051 C 
BRANCH  31  33
HETATM   33  O2  UNL     1      -5.515  47.265 -34.114  1.00  0.00    -0.385 OA
HETATM   34  H14 UNL     1      -6.379  47.676 -34.315  1.00  0.00     0.210 HD
ENDBRANCH  31  33
BRANCH  31  35
HETATM   35  C8  UNL     1      -5.440  48.037 -31.840  1.00  0.00     0.204 C 
BRANCH  35  36
HETATM   36  O3  UNL     1      -4.279  48.789 -32.185  1.00  0.00    -0.398 OA
HETATM   37  H17 UNL     1      -3.696  48.784 -31.403  1.00  0.00     0.209 HD
ENDBRANCH  35  36
ENDBRANCH  31  35
ENDBRANCH  28  31
ENDBRANCH  27  28
ENDBRANCH  26  27
ENDBRANCH  24  26
ENDBRANCH   1  24
TORSDOF 9
ENDMDL
MODEL 6
REMARK minimizedAffinity -7.59930372
REMARK CNNscore 0.361626387
REMARK CNNaffinity 6.48571634
REMARK  9 active torsions:
REMARK  status: ('A' for Active; 'I' for Inactive)
REMARK    1  A    between atoms: C2_2  and  C3_3 
REMARK    2  A    between atoms: C2_2  and  C9_12 
REMARK    3  A    between atoms: C3_3  and  C4_4 
REMARK    4  A    between atoms: C4_4  and  C5_5 
REMARK    5  A    between atoms: C5_5  and  O1_6 
REMARK    6  A    between atoms: C5_5  and  C6_7 
REMARK    7  A    between atoms: C6_7  and  O2_9 
REMARK    8  A    between atoms: C6_7  and  C8_10 
REMARK    9  A    between atoms: C8_10  and  O3_11 
ROOT
HETATM    1  C9  UNL     1       3.322  54.221  -9.127  1.00  0.00    -0.002 C 
HETATM    2  C10 UNL     1       4.154  52.909  -9.212  1.00  0.00     0.007 C 
HETATM    3  C11 UNL     1       5.199  52.961  -8.082  1.00  0.00     0.015 C 
HETATM    4  C12 UNL     1       5.478  54.466  -7.910  1.00  0.00    -0.013 C 
HETATM    5  C13 UNL     1       6.422  54.872  -9.087  1.00  0.00     0.021 C 
HETATM    6  C14 UNL     1       6.214  54.943  -6.654  1.00  0.00    -0.070 C 
HETATM    7  C15 UNL     1       7.202  54.213  -6.103  1.00  0.00    -0.022 C 
HETATM    8  C16 UNL     1       8.183  54.778  -5.124  1.00  0.00     0.034 C 
HETATM    9  C17 UNL     1       8.352  56.294  -5.363  1.00  0.00     0.013 C 
HETATM   10  C18 UNL     1       9.602  56.915  -4.641  1.00  0.00     0.018 C 
HETATM   11  C19 UNL     1      10.893  56.356  -5.297  1.00  0.00     0.023 C 
HETATM   12  C20 UNL     1       9.708  56.627  -3.134  1.00  0.00     0.023 C 
HETATM   13  C21 UNL     1       9.606  58.440  -4.838  1.00  0.00     0.135 C 
HETATM   14  O4  UNL     1      10.647  59.076  -5.016  1.00  0.00    -0.297 OA
HETATM   15  C22 UNL     1       8.298  59.176  -4.684  1.00  0.00     0.080 C 
HETATM   16  C23 UNL     1       7.199  58.528  -5.513  1.00  0.00     0.017 C 
HETATM   17  C24 UNL     1       6.976  57.029  -5.194  1.00  0.00    -0.031 C 
HETATM   18  C25 UNL     1       6.414  56.922  -3.748  1.00  0.00     0.016 C 
HETATM   19  C26 UNL     1       5.869  56.351  -6.139  1.00  0.00     0.024 C 
HETATM   20  C27 UNL     1       5.261  57.242  -7.247  1.00  0.00     0.010 C 
HETATM   21  C28 UNL     1       4.118  56.594  -8.081  1.00  0.00     0.011 C 
HETATM   22  C29 UNL     1       4.028  55.058  -7.987  1.00  0.00    -0.029 C 
HETATM   23  C30 UNL     1       3.157  54.714  -6.717  1.00  0.00     0.016 C 
ENDROOT
BRANCH   1  24
HETATM   24  C2  UNL     1       2.908  54.808 -10.509  1.00  0.00    -0.014 C 
HETATM   25  C1  UNL     1       3.354  56.240 -10.807  1.00  0.00     0.010 C 
BRANCH  24  26
HETATM   26  C3  UNL     1       1.402  54.653 -10.850  1.00  0.00     0.007 C 
BRANCH  26  27
HETATM   27  C4  UNL     1       0.866  53.226 -10.667  1.00  0.00     0.035 C 
BRANCH  27  28
HETATM   28  C5  UNL     1      -0.648  53.048 -10.902  1.00  0.00     0.154 C 
BRANCH  28  29
HETATM   29  O1  UNL     1      -0.912  53.188 -12.311  1.00  0.00    -0.392 OA
HETATM   30  H10 UNL     1      -0.344  52.546 -12.776  1.00  0.00     0.210 HD
ENDBRANCH  28  29
BRANCH  28  31
HETATM   31  C6  UNL     1      -1.598  54.020 -10.143  1.00  0.00     0.101 C 
HETATM   32  C7  UNL     1      -1.260  54.113  -8.654  1.00  0.00     0.051 C 
BRANCH  31  33
HETATM   33  O2  UNL     1      -1.481  55.336 -10.712  1.00  0.00    -0.385 OA
HETATM   34  H14 UNL     1      -1.430  55.190 -11.677  1.00  0.00     0.210 HD
ENDBRANCH  31  33
BRANCH  31  35
HETATM   35  C8  UNL     1      -3.070  53.578 -10.319  1.00  0.00     0.204 C 
BRANCH  35  36
HETATM   36  O3  UNL     1      -3.627  54.040 -11.547  1.00  0.00    -0.398 OA
HETATM   37  H17 UNL     1      -4.383  54.612 -11.317  1.00  0.00     0.209 HD
ENDBRANCH  35  36
ENDBRANCH  31  35
ENDBRANCH  28  31
ENDBRANCH  27  28
ENDBRANCH  26  27
ENDBRANCH  24  26
ENDBRANCH   1  24
TORSDOF 9
ENDMDL
MODEL 7
REMARK minimizedAffinity -7.77998972
REMARK CNNscore 0.346397936
REMARK CNNaffinity 6.52997541
REMARK  9 active torsions:
REMARK  status: ('A' for Active; 'I' for Inactive)
REMARK    1  A    between atoms: C2_2  and  C3_3 
REMARK    2  A    between atoms: C2_2  and  C9_12 
REMARK    3  A    between atoms: C3_3  and  C4_4 
REMARK    4  A    between atoms: C4_4  and  C5_5 
REMARK    5  A    between atoms: C5_5  and  O1_6 
REMARK    6  A    between atoms: C5_5  and  C6_7 
REMARK    7  A    between atoms: C6_7  and  O2_9 
REMARK    8  A    between atoms: C6_7  and  C8_10 
REMARK    9  A    between atoms: C8_10  and  O3_11 
ROOT
HETATM    1  C9  UNL     1      -4.855  47.877 -20.691  1.00  0.00    -0.002 C 
HETATM    2  C10 UNL     1      -3.870  48.387 -19.599  1.00  0.00     0.007 C 
HETATM    3  C11 UNL     1      -3.107  49.583 -20.200  1.00  0.00     0.015 C 
HETATM    4  C12 UNL     1      -3.059  49.267 -21.706  1.00  0.00    -0.013 C 
HETATM    5  C13 UNL     1      -1.939  48.193 -21.891  1.00  0.00     0.021 C 
HETATM    6  C14 UNL     1      -2.675  50.383 -22.684  1.00  0.00    -0.070 C 
HETATM    7  C15 UNL     1      -1.748  51.305 -22.364  1.00  0.00    -0.022 C 
HETATM    8  C16 UNL     1      -1.079  52.174 -23.381  1.00  0.00     0.034 C 
HETATM    9  C17 UNL     1      -1.048  51.457 -24.749  1.00  0.00     0.013 C 
HETATM   10  C18 UNL     1      -0.070  52.113 -25.788  1.00  0.00     0.018 C 
HETATM   11  C19 UNL     1       1.391  51.909 -25.304  1.00  0.00     0.023 C 
HETATM   12  C20 UNL     1      -0.258  53.622 -26.015  1.00  0.00     0.023 C 
HETATM   13  C21 UNL     1      -0.210  51.404 -27.146  1.00  0.00     0.135 C 
HETATM   14  O4  UNL     1       0.760  51.189 -27.877  1.00  0.00    -0.297 OA
HETATM   15  C22 UNL     1      -1.601  51.080 -27.633  1.00  0.00     0.080 C 
HETATM   16  C23 UNL     1      -2.406  50.359 -26.564  1.00  0.00     0.017 C 
HETATM   17  C24 UNL     1      -2.508  51.136 -25.228  1.00  0.00    -0.031 C 
HETATM   18  C25 UNL     1      -3.352  52.418 -25.477  1.00  0.00     0.016 C 
HETATM   19  C26 UNL     1      -3.293  50.317 -24.091  1.00  0.00     0.024 C 
HETATM   20  C27 UNL     1      -3.751  48.886 -24.457  1.00  0.00     0.010 C 
HETATM   21  C28 UNL     1      -4.600  48.153 -23.377  1.00  0.00     0.011 C 
HETATM   22  C29 UNL     1      -4.519  48.757 -21.961  1.00  0.00    -0.029 C 
HETATM   23  C30 UNL     1      -5.595  49.907 -21.877  1.00  0.00     0.016 C 
ENDROOT
BRANCH   1  24
HETATM   24  C2  UNL     1      -5.029  46.330 -20.724  1.00  0.00    -0.014 C 
HETATM   25  C1  UNL     1      -3.756  45.500 -20.905  1.00  0.00     0.010 C 
BRANCH  24  26
HETATM   26  C3  UNL     1      -6.120  45.824 -21.705  1.00  0.00     0.007 C 
BRANCH  26  27
HETATM   27  C4  UNL     1      -6.287  44.298 -21.717  1.00  0.00     0.035 C 
BRANCH  27  28
HETATM   28  C5  UNL     1      -7.743  43.788 -21.689  1.00  0.00     0.154 C 
BRANCH  28  29
HETATM   29  O1  UNL     1      -7.793  42.591 -20.889  1.00  0.00    -0.392 OA
HETATM   30  H10 UNL     1      -7.416  42.811 -20.017  1.00  0.00     0.210 HD
ENDBRANCH  28  29
BRANCH  28  31
HETATM   31  C6  UNL     1      -8.404  43.471 -23.062  1.00  0.00     0.101 C 
HETATM   32  C7  UNL     1      -9.610  42.540 -22.921  1.00  0.00     0.051 C 
BRANCH  31  33
HETATM   33  O2  UNL     1      -8.854  44.697 -23.664  1.00  0.00    -0.385 OA
HETATM   34  H14 UNL     1      -8.142  45.343 -23.484  1.00  0.00     0.210 HD
ENDBRANCH  31  33
BRANCH  31  35
HETATM   35  C8  UNL     1      -7.368  42.845 -24.025  1.00  0.00     0.204 C 
BRANCH  35  36
HETATM   36  O3  UNL     1      -7.761  41.549 -24.469  1.00  0.00    -0.398 OA
HETATM   37  H17 UNL     1      -7.071  40.927 -24.173  1.00  0.00     0.209 HD
ENDBRANCH  35  36
ENDBRANCH  31  35
ENDBRANCH  28  31
ENDBRANCH  27  28
ENDBRANCH  26  27
ENDBRANCH  24  26
ENDBRANCH   1  24
TORSDOF 9
ENDMDL
MODEL 8
REMARK minimizedAffinity -7.06256056
REMARK CNNscore 0.319134772
REMARK CNNaffinity 5.61463881
REMARK  9 active torsions:
REMARK  status: ('A' for Active; 'I' for Inactive)
REMARK    1  A    between atoms: C2_2  and  C3_3 
REMARK    2  A    between atoms: C2_2  and  C9_12 
REMARK    3  A    between atoms: C3_3  and  C4_4 
REMARK    4  A    between atoms: C4_4  and  C5_5 
REMARK    5  A    between atoms: C5_5  and  O1_6 
REMARK    6  A    between atoms: C5_5  and  C6_7 
REMARK    7  A    between atoms: C6_7  and  O2_9 
REMARK    8  A    between atoms: C6_7  and  C8_10 
REMARK    9  A    between atoms: C8_10  and  O3_11 
ROOT
HETATM    1  C9  UNL     1       7.303  66.735 -36.331  1.00  0.00    -0.002 C 
HETATM    2  C10 UNL     1       8.239  67.637 -37.188  1.00  0.00     0.007 C 
HETATM    3  C11 UNL     1       7.343  68.653 -37.920  1.00  0.00     0.015 C 
HETATM    4  C12 UNL     1       6.014  67.900 -38.112  1.00  0.00    -0.013 C 
HETATM    5  C13 UNL     1       6.238  66.920 -39.309  1.00  0.00     0.021 C 
HETATM    6  C14 UNL     1       4.763  68.693 -38.503  1.00  0.00    -0.070 C 
HETATM    7  C15 UNL     1       4.835  69.745 -39.339  1.00  0.00    -0.022 C 
HETATM    8  C16 UNL     1       3.639  70.317 -40.034  1.00  0.00     0.034 C 
HETATM    9  C17 UNL     1       2.566  69.222 -40.223  1.00  0.00     0.013 C 
HETATM   10  C18 UNL     1       1.434  69.612 -41.239  1.00  0.00     0.018 C 
HETATM   11  C19 UNL     1       2.043  69.693 -42.665  1.00  0.00     0.023 C 
HETATM   12  C20 UNL     1       0.740  70.959 -40.975  1.00  0.00     0.023 C 
HETATM   13  C21 UNL     1       0.357  68.514 -41.257  1.00  0.00     0.135 C 
HETATM   14  O4  UNL     1      -0.213  68.171 -42.296  1.00  0.00    -0.297 OA
HETATM   15  C22 UNL     1      -0.087  67.938 -39.935  1.00  0.00     0.080 C 
HETATM   16  C23 UNL     1       1.105  67.511 -39.092  1.00  0.00     0.017 C 
HETATM   17  C24 UNL     1       2.126  68.646 -38.831  1.00  0.00    -0.031 C 
HETATM   18  C25 UNL     1       1.441  69.713 -37.930  1.00  0.00     0.016 C 
HETATM   19  C26 UNL     1       3.412  68.148 -38.009  1.00  0.00     0.024 C 
HETATM   20  C27 UNL     1       3.482  66.640 -37.675  1.00  0.00     0.010 C 
HETATM   21  C28 UNL     1       4.684  66.200 -36.789  1.00  0.00     0.011 C 
HETATM   22  C29 UNL     1       5.845  67.211 -36.714  1.00  0.00    -0.029 C 
HETATM   23  C30 UNL     1       5.505  68.235 -35.563  1.00  0.00     0.016 C 
ENDROOT
BRANCH   1  24
HETATM   24  C2  UNL     1       7.742  65.243 -36.260  1.00  0.00    -0.014 C 
HETATM   25  C1  UNL     1       6.760  64.211 -36.820  1.00  0.00     0.010 C 
BRANCH  24  26
HETATM   26  C3  UNL     1       8.235  64.781 -34.862  1.00  0.00     0.007 C 
BRANCH  26  27
HETATM   27  C4  UNL     1       7.192  63.983 -34.067  1.00  0.00     0.035 C 
BRANCH  27  28
HETATM   28  C5  UNL     1       5.982  64.792 -33.557  1.00  0.00     0.154 C 
BRANCH  28  29
HETATM   29  O1  UNL     1       6.417  65.631 -32.471  1.00  0.00    -0.392 OA
HETATM   30  H10 UNL     1       7.162  66.167 -32.800  1.00  0.00     0.210 HD
ENDBRANCH  28  29
BRANCH  28  31
HETATM   31  C6  UNL     1       4.748  63.981 -33.066  1.00  0.00     0.101 C 
HETATM   32  C7  UNL     1       3.713  63.773 -34.173  1.00  0.00     0.051 C 
BRANCH  31  33
HETATM   33  O2  UNL     1       5.184  62.687 -32.613  1.00  0.00    -0.385 OA
HETATM   34  H14 UNL     1       6.014  62.856 -32.126  1.00  0.00     0.210 HD
ENDBRANCH  31  33
BRANCH  31  35
HETATM   35  C8  UNL     1       4.088  64.687 -31.857  1.00  0.00     0.204 C 
BRANCH  35  36
HETATM   36  O3  UNL     1       3.086  63.880 -31.245  1.00  0.00    -0.398 OA
HETATM   37  H17 UNL     1       2.246  64.372 -31.312  1.00  0.00     0.209 HD
ENDBRANCH  35  36
ENDBRANCH  31  35
ENDBRANCH  28  31
ENDBRANCH  27  28
ENDBRANCH  26  27
ENDBRANCH  24  26
ENDBRANCH   1  24
TORSDOF 9
ENDMDL
MODEL 9
REMARK minimizedAffinity -8.49400902
REMARK CNNscore 0.302084208
REMARK CNNaffinity 6.71360826
REMARK  9 active torsions:
REMARK  status: ('A' for Active; 'I' for Inactive)
REMARK    1  A    between atoms: C2_2  and  C3_3 
REMARK    2  A    between atoms: C2_2  and  C9_12 
REMARK    3  A    between atoms: C3_3  and  C4_4 
REMARK    4  A    between atoms: C4_4  and  C5_5 
REMARK    5  A    between atoms: C5_5  and  O1_6 
REMARK    6  A    between atoms: C5_5  and  C6_7 
REMARK    7  A    between atoms: C6_7  and  O2_9 
REMARK    8  A    between atoms: C6_7  and  C8_10 
REMARK    9  A    between atoms: C8_10  and  O3_11 
ROOT
HETATM    1  C9  UNL     1      -1.946  50.133 -23.177  1.00  0.00    -0.002 C 
HETATM    2  C10 UNL     1      -1.515  50.914 -21.901  1.00  0.00     0.007 C 
HETATM    3  C11 UNL     1      -2.351  50.366 -20.730  1.00  0.00     0.015 C 
HETATM    4  C12 UNL     1      -3.669  49.927 -21.394  1.00  0.00    -0.013 C 
HETATM    5  C13 UNL     1      -4.489  51.234 -21.641  1.00  0.00     0.021 C 
HETATM    6  C14 UNL     1      -4.627  49.024 -20.611  1.00  0.00    -0.070 C 
HETATM    7  C15 UNL     1      -4.791  49.163 -19.282  1.00  0.00    -0.022 C 
HETATM    8  C16 UNL     1      -5.950  48.579 -18.538  1.00  0.00     0.034 C 
HETATM    9  C17 UNL     1      -7.168  48.447 -19.480  1.00  0.00     0.013 C 
HETATM   10  C18 UNL     1      -8.523  48.183 -18.732  1.00  0.00     0.018 C 
HETATM   11  C19 UNL     1      -8.904  49.448 -17.917  1.00  0.00     0.023 C 
HETATM   12  C20 UNL     1      -8.518  47.003 -17.746  1.00  0.00     0.023 C 
HETATM   13  C21 UNL     1      -9.641  47.942 -19.761  1.00  0.00     0.135 C 
HETATM   14  O4  UNL     1     -10.788  48.365 -19.595  1.00  0.00    -0.297 OA
HETATM   15  C22 UNL     1      -9.334  47.055 -20.942  1.00  0.00     0.080 C 
HETATM   16  C23 UNL     1      -8.049  47.483 -21.634  1.00  0.00     0.017 C 
HETATM   17  C24 UNL     1      -6.816  47.518 -20.696  1.00  0.00    -0.031 C 
HETATM   18  C25 UNL     1      -6.497  46.060 -20.263  1.00  0.00     0.016 C 
HETATM   19  C26 UNL     1      -5.492  48.051 -21.431  1.00  0.00     0.024 C 
HETATM   20  C27 UNL     1      -5.649  48.511 -22.899  1.00  0.00     0.010 C 
HETATM   21  C28 UNL     1      -4.332  48.923 -23.621  1.00  0.00     0.011 C 
HETATM   22  C29 UNL     1      -3.141  49.220 -22.689  1.00  0.00    -0.029 C 
HETATM   23  C30 UNL     1      -2.424  47.846 -22.390  1.00  0.00     0.016 C 
ENDROOT
BRANCH   1  24
HETATM   24  C2  UNL     1      -1.980  50.994 -24.474  1.00  0.00    -0.014 C 
HETATM   25  C1  UNL     1      -2.853  52.250 -24.441  1.00  0.00     0.010 C 
BRANCH  24  26
HETATM   26  C3  UNL     1      -2.274  50.194 -25.771  1.00  0.00     0.007 C 
BRANCH  26  27
HETATM   27  C4  UNL     1      -1.584  50.759 -27.021  1.00  0.00     0.035 C 
BRANCH  27  28
HETATM   28  C5  UNL     1      -1.489  52.297 -27.090  1.00  0.00     0.154 C 
BRANCH  28  29
HETATM   29  O1  UNL     1      -2.418  52.769 -28.085  1.00  0.00    -0.392 OA
HETATM   30  H10 UNL     1      -3.297  52.419 -27.847  1.00  0.00     0.210 HD
ENDBRANCH  28  29
BRANCH  28  31
HETATM   31  C6  UNL     1      -0.094  52.904 -27.418  1.00  0.00     0.101 C 
HETATM   32  C7  UNL     1       1.051  51.980 -26.999  1.00  0.00     0.051 C 
BRANCH  31  33
HETATM   33  O2  UNL     1       0.004  53.123 -28.836  1.00  0.00    -0.385 OA
HETATM   34  H14 UNL     1      -0.871  53.472 -29.099  1.00  0.00     0.210 HD
ENDBRANCH  31  33
BRANCH  31  35
HETATM   35  C8  UNL     1       0.067  54.282 -26.733  1.00  0.00     0.204 C 
BRANCH  35  36
HETATM   36  O3  UNL     1       0.608  54.169 -25.419  1.00  0.00    -0.398 OA
HETATM   37  H17 UNL     1      -0.056  54.537 -24.807  1.00  0.00     0.209 HD
ENDBRANCH  35  36
ENDBRANCH  31  35
ENDBRANCH  28  31
ENDBRANCH  27  28
ENDBRANCH  26  27
ENDBRANCH  24  26
ENDBRANCH   1  24
TORSDOF 9
ENDMDL
