MODEL 1
REMARK minimizedAffinity -7.35489607
REMARK CNNscore 0.133025914
REMARK CNNaffinity 6.71907282
REMARK  9 active torsions:
REMARK  status: ('A' for Active; 'I' for Inactive)
REMARK    1  A    between atoms: C13_13  and  S1_14 
REMARK    2  A    between atoms: C25_30  and  O5_31 
REMARK    3  A    between atoms: C31_37  and  C32_38 
REMARK    4  A    between atoms: C32_38  and  O6_39 
REMARK    5  A    between atoms: C40_47  and  C41_48 
REMARK    6  A    between atoms: C40_47  and  N1_52 
REMARK    7  A    between atoms: C41_48  and  C42_49 
REMARK    8  A    between atoms: C42_49  and  C43_50 
REMARK    9  A    between atoms: C43_50  and  O7_51 
REMARK       I    between atoms: C44_54  and  N2_55 
REMARK       I    between atoms: C44_54  and  N3_56 
ROOT
HETATM    1  C1  UNL     1     -11.560  -6.888  31.365  1.00  0.00     0.010 C 
HETATM    2  C2  UNL     1     -12.714  -6.167  30.678  1.00  0.00    -0.010 C 
HETATM    3  C3  UNL     1     -13.561  -5.348  31.715  1.00  0.00     0.009 C 
HETATM    4  C4  UNL     1     -15.073  -5.203  31.375  1.00  0.00     0.039 C 
HETATM    5  C5  UNL     1     -15.297  -5.118  29.889  1.00  0.00    -0.049 C 
HETATM    6  C6  UNL     1     -16.350  -4.426  29.301  1.00  0.00     0.044 C 
HETATM    7  C7  UNL     1     -16.405  -4.380  27.914  1.00  0.00     0.072 C 
HETATM    8  C8  UNL     1     -15.309  -4.759  27.137  1.00  0.00     0.037 C 
HETATM    9  C9  UNL     1     -14.336  -5.559  27.715  1.00  0.00     0.011 C 
HETATM   10  C10 UNL     1     -14.440  -5.875  29.069  1.00  0.00    -0.047 C 
HETATM   11  C11 UNL     1     -13.675  -6.991  29.787  1.00  0.00     0.024 C 
HETATM   12  C12 UNL     1     -13.149  -8.100  28.848  1.00  0.00     0.033 C 
HETATM   13  C13 UNL     1     -13.342  -9.596  29.223  1.00  0.00     0.139 C 
HETATM   14  C14 UNL     1     -13.955 -10.511  28.110  1.00  0.00     0.038 C 
HETATM   15  C15 UNL     1     -12.947 -10.948  27.043  1.00  0.00    -0.014 C 
HETATM   16  C16 UNL     1     -13.261 -12.031  26.297  1.00  0.00    -0.050 C 
HETATM   17  C17 UNL     1     -14.655 -12.599  26.494  1.00  0.00     0.042 C 
HETATM   18  C18 UNL     1     -15.605 -11.411  26.235  1.00  0.00     0.001 C 
HETATM   19  C19 UNL     1     -15.391 -10.822  24.785  1.00  0.00     0.038 C 
HETATM   20  C20 UNL     1     -14.595 -11.669  23.756  1.00  0.00     0.130 C 
HETATM   21  O4  UNL     1     -13.214 -11.473  24.077  1.00  0.00    -0.371 OA
HETATM   22  C21 UNL     1     -12.653 -12.429  24.984  1.00  0.00     0.185 C 
HETATM   23  C22 UNL     1     -11.152 -12.474  24.736  1.00  0.00    -0.006 A 
HETATM   24  C23 UNL     1     -10.222 -12.519  25.785  1.00  0.00     0.014 A 
HETATM   25  C24 UNL     1      -8.853 -12.621  25.516  1.00  0.00     0.037 A 
HETATM   26  C25 UNL     1      -8.403 -12.695  24.203  1.00  0.00     0.067 A 
HETATM   27  C26 UNL     1      -9.297 -12.682  23.136  1.00  0.00     0.057 A 
HETATM   28  C27 UNL     1     -10.665 -12.584  23.396  1.00  0.00     0.029 A 
HETATM   29  C28 UNL     1     -11.596 -12.583  22.293  1.00  0.00    -0.066 C 
HETATM   30  C29 UNL     1     -12.607 -12.461  21.655  1.00  0.00    -0.101 C 
HETATM   31  C30 UNL     1     -14.013 -12.196  21.279  1.00  0.00     0.103 C 
HETATM   32  C31 UNL     1     -14.751 -11.224  22.270  1.00  0.00     0.049 C 
HETATM   33  C33 UNL     1     -15.437 -10.383  27.479  1.00  0.00     0.030 C 
HETATM   34  C34 UNL     1     -16.217  -9.061  27.370  1.00  0.00    -0.050 A 
HETATM   35  C35 UNL     1     -17.030  -8.662  28.442  1.00  0.00     0.006 A 
HETATM   36  C36 UNL     1     -17.784  -7.472  28.427  1.00  0.00     0.010 A 
HETATM   37  C37 UNL     1     -17.850  -6.649  27.293  1.00  0.00    -0.000 A 
HETATM   38  C38 UNL     1     -17.089  -7.074  26.195  1.00  0.00     0.138 A 
HETATM   39  C39 UNL     1     -16.253  -8.211  26.261  1.00  0.00     0.133 A 
HETATM   40  C40 UNL     1     -18.554  -5.240  27.320  1.00  0.00     0.169 C 
HETATM   41  O8  UNL     1     -17.571  -4.128  27.245  1.00  0.00    -0.316 OA
HETATM   42 NA1  UNL     1     -15.088  -8.411  26.949  1.00  0.00    -0.401 Na
ATOM     43  HA1 UNL     1     -14.229  -8.764  27.368  1.00  0.00     0.154 HD
ENDROOT
BRANCH  40  44
HETATM   44  C41 UNL     1     -19.392  -5.029  26.005  1.00  0.00     0.069 C 
BRANCH  44  45
HETATM   45  C42 UNL     1     -18.851  -4.004  24.992  1.00  0.00     0.031 C 
BRANCH  45  46
HETATM   46  C43 UNL     1     -19.838  -2.940  24.540  1.00  0.00     0.164 C 
BRANCH  46  47
HETATM   47  O7  UNL     1     -19.166  -2.036  23.664  1.00  0.00    -0.401 OA
HETATM   48  H46 UNL     1     -19.790  -1.309  23.494  1.00  0.00     0.209 HD
ENDBRANCH  46  47
ENDBRANCH  45  46
ENDBRANCH  44  45
ENDBRANCH  40  44
BRANCH  40  49
HETATM   49  N1  UNL     1     -19.482  -5.075  28.465  1.00  0.00    -0.336 N 
HETATM   50  C44 UNL     1     -19.962  -3.966  28.867  1.00  0.00     0.124 C 
HETATM   51  N2  UNL     1     -20.783  -3.956  29.942  1.00  0.00    -0.279 NA
HETATM   52  N3  UNL     1     -19.810  -2.700  28.420  1.00  0.00    -0.279 NA
HETATM   53  H47 UNL     1     -20.549  -3.235  30.610  1.00  0.00     0.126 HD
HETATM   54  H48 UNL     1     -20.810  -4.875  30.373  1.00  0.00     0.126 HD
HETATM   55  H49 UNL     1     -20.683  -2.186  28.478  1.00  0.00     0.126 HD
HETATM   56  H50 UNL     1     -19.466  -2.642  27.466  1.00  0.00     0.126 HD
ATOM     57  H1  UNL     1     -19.759  -5.916  28.970  1.00  0.00     0.165 HD
ENDBRANCH  40  49
BRANCH  13  58
HETATM   58  S1  UNL     1     -13.985 -10.060  30.853  1.00  0.00     0.106 S 
HETATM   59  O1  UNL     1     -12.833  -9.986  31.742  1.00  0.00    -0.595 OA
HETATM   60  O2  UNL     1     -15.037  -9.094  31.140  1.00  0.00    -0.595 OA
HETATM   61  O3  UNL     1     -14.474 -11.426  30.664  1.00  0.00    -0.595 OA
ENDBRANCH  13  58
BRANCH  32  62
HETATM   62  C32 UNL     1     -14.288  -9.779  22.030  1.00  0.00     0.172 C 
BRANCH  62  63
HETATM   63  O6  UNL     1     -13.062  -9.541  22.723  1.00  0.00    -0.400 OA
HETATM   64  H34 UNL     1     -12.359  -9.993  22.224  1.00  0.00     0.209 HD
ENDBRANCH  62  63
ENDBRANCH  32  62
BRANCH  26  65
HETATM   65  O5  UNL     1      -7.058 -12.792  23.998  1.00  0.00    -0.361 OA
HETATM   66  H27 UNL     1      -6.895 -12.812  23.040  1.00  0.00     0.217 HD
ENDBRANCH  26  65
TORSDOF 9
ENDMDL
MODEL 2
REMARK minimizedAffinity -8.06210041
REMARK CNNscore 0.115483545
REMARK CNNaffinity 5.47063971
REMARK  9 active torsions:
REMARK  status: ('A' for Active; 'I' for Inactive)
REMARK    1  A    between atoms: C13_13  and  S1_14 
REMARK    2  A    between atoms: C25_30  and  O5_31 
REMARK    3  A    between atoms: C31_37  and  C32_38 
REMARK    4  A    between atoms: C32_38  and  O6_39 
REMARK    5  A    between atoms: C40_47  and  C41_48 
REMARK    6  A    between atoms: C40_47  and  N1_52 
REMARK    7  A    between atoms: C41_48  and  C42_49 
REMARK    8  A    between atoms: C42_49  and  C43_50 
REMARK    9  A    between atoms: C43_50  and  O7_51 
REMARK       I    between atoms: C44_54  and  N2_55 
REMARK       I    between atoms: C44_54  and  N3_56 
ROOT
HETATM    1  C1  UNL     1      -0.313  17.552  16.645  1.00  0.00     0.010 C 
HETATM    2  C2  UNL     1      -0.018  16.148  16.128  1.00  0.00    -0.010 C 
HETATM    3  C3  UNL     1      -1.223  15.595  15.289  1.00  0.00     0.009 C 
HETATM    4  C4  UNL     1      -1.418  14.052  15.339  1.00  0.00     0.039 C 
HETATM    5  C5  UNL     1      -0.098  13.334  15.446  1.00  0.00    -0.049 C 
HETATM    6  C6  UNL     1       0.137  12.062  14.937  1.00  0.00     0.044 C 
HETATM    7  C7  UNL     1       1.419  11.540  15.055  1.00  0.00     0.072 C 
HETATM    8  C8  UNL     1       2.497  12.353  15.404  1.00  0.00     0.037 C 
HETATM    9  C9  UNL     1       2.236  13.563  16.030  1.00  0.00     0.011 C 
HETATM   10  C10 UNL     1       0.911  13.961  16.199  1.00  0.00    -0.047 C 
HETATM   11  C11 UNL     1       0.424  15.066  17.142  1.00  0.00     0.024 C 
HETATM   12  C12 UNL     1       1.405  15.392  18.291  1.00  0.00     0.033 C 
HETATM   13  C13 UNL     1       0.881  15.540  19.747  1.00  0.00     0.139 C 
HETATM   14  C14 UNL     1       1.645  14.720  20.840  1.00  0.00     0.038 C 
HETATM   15  C15 UNL     1       2.960  15.361  21.289  1.00  0.00    -0.014 C 
HETATM   16  C16 UNL     1       3.472  14.965  22.477  1.00  0.00    -0.050 C 
HETATM   17  C17 UNL     1       2.765  13.807  23.159  1.00  0.00     0.042 C 
HETATM   18  C18 UNL     1       2.764  12.674  22.111  1.00  0.00     0.001 C 
HETATM   19  C19 UNL     1       4.236  12.310  21.672  1.00  0.00     0.038 C 
HETATM   20  C20 UNL     1       5.414  12.823  22.543  1.00  0.00     0.130 C 
HETATM   21  O4  UNL     1       5.606  14.191  22.172  1.00  0.00    -0.371 OA
HETATM   22  C21 UNL     1       4.883  15.146  22.957  1.00  0.00     0.185 C 
HETATM   23  C22 UNL     1       5.631  16.470  22.875  1.00  0.00    -0.006 A 
HETATM   24  C23 UNL     1       4.968  17.694  22.705  1.00  0.00     0.014 A 
HETATM   25  C24 UNL     1       5.685  18.895  22.696  1.00  0.00     0.037 A 
HETATM   26  C25 UNL     1       7.065  18.885  22.872  1.00  0.00     0.067 A 
HETATM   27  C26 UNL     1       7.754  17.693  23.071  1.00  0.00     0.057 A 
HETATM   28  C27 UNL     1       7.044  16.491  23.086  1.00  0.00     0.029 A 
HETATM   29  C28 UNL     1       7.755  15.254  23.306  1.00  0.00    -0.066 C 
HETATM   30  C29 UNL     1       8.011  14.080  23.361  1.00  0.00    -0.101 C 
HETATM   31  C30 UNL     1       7.895  12.607  23.285  1.00  0.00     0.103 C 
HETATM   32  C31 UNL     1       6.782  12.119  22.289  1.00  0.00     0.049 C 
HETATM   33  C33 UNL     1       1.731  13.109  20.937  1.00  0.00     0.030 C 
HETATM   34  C34 UNL     1       1.658  12.166  19.723  1.00  0.00    -0.050 A 
HETATM   35  C35 UNL     1       0.402  11.712  19.291  1.00  0.00     0.006 A 
HETATM   36  C36 UNL     1       0.240  10.844  18.194  1.00  0.00     0.010 A 
HETATM   37  C37 UNL     1       1.337  10.292  17.516  1.00  0.00    -0.000 A 
HETATM   38  C38 UNL     1       2.597  10.692  17.982  1.00  0.00     0.138 A 
HETATM   39  C39 UNL     1       2.744  11.647  19.012  1.00  0.00     0.133 A 
HETATM   40  C40 UNL     1       1.169   9.453  16.192  1.00  0.00     0.169 C 
HETATM   41  O8  UNL     1       1.659  10.194  15.001  1.00  0.00    -0.316 OA
HETATM   42 NA1  UNL     1       2.489  12.990  19.013  1.00  0.00    -0.401 Na
ATOM     43  HA1 UNL     1       2.369  13.980  19.226  1.00  0.00     0.154 HD
ENDROOT
BRANCH  40  44
HETATM   44  C41 UNL     1       2.125   8.203  16.218  1.00  0.00     0.069 C 
BRANCH  44  45
HETATM   45  C42 UNL     1       3.016   7.982  14.983  1.00  0.00     0.031 C 
BRANCH  45  46
HETATM   46  C43 UNL     1       4.501   8.235  15.188  1.00  0.00     0.164 C 
BRANCH  46  47
HETATM   47  O7  UNL     1       5.125   7.010  15.567  1.00  0.00    -0.401 OA
HETATM   48  H46 UNL     1       6.041   7.234  15.805  1.00  0.00     0.209 HD
ENDBRANCH  46  47
ENDBRANCH  45  46
ENDBRANCH  44  45
ENDBRANCH  40  44
BRANCH  40  49
HETATM   49  N1  UNL     1      -0.211   8.948  15.994  1.00  0.00    -0.336 N 
HETATM   50  C44 UNL     1      -0.562   7.726  16.065  1.00  0.00     0.124 C 
HETATM   51  N2  UNL     1      -1.856   7.401  15.840  1.00  0.00    -0.279 NA
HETATM   52  N3  UNL     1       0.133   6.599  16.330  1.00  0.00    -0.279 NA
HETATM   53  H47 UNL     1      -1.961   6.612  15.216  1.00  0.00     0.126 HD
HETATM   54  H48 UNL     1      -2.372   8.211  15.512  1.00  0.00     0.126 HD
HETATM   55  H49 UNL     1      -0.412   5.960  16.900  1.00  0.00     0.126 HD
HETATM   56  H50 UNL     1       1.021   6.767  16.795  1.00  0.00     0.126 HD
ATOM     57  H1  UNL     1      -0.936   9.634  15.785  1.00  0.00     0.165 HD
ENDBRANCH  40  49
BRANCH  13  58
HETATM   58  S1  UNL     1      -0.899  15.548  20.086  1.00  0.00     0.106 S 
HETATM   59  O1  UNL     1      -1.002  15.722  21.529  1.00  0.00    -0.595 OA
HETATM   60  O2  UNL     1      -1.435  16.652  19.301  1.00  0.00    -0.595 OA
HETATM   61  O3  UNL     1      -1.350  14.230  19.636  1.00  0.00    -0.595 OA
ENDBRANCH  13  58
BRANCH  32  62
HETATM   62  C32 UNL     1       7.270  12.276  20.840  1.00  0.00     0.172 C 
BRANCH  62  63
HETATM   63  O6  UNL     1       6.213  11.954  19.935  1.00  0.00    -0.400 OA
HETATM   64  H34 UNL     1       5.588  12.699  19.948  1.00  0.00     0.209 HD
ENDBRANCH  62  63
ENDBRANCH  32  62
BRANCH  26  65
HETATM   65  O5  UNL     1       7.715  20.085  22.853  1.00  0.00    -0.361 OA
HETATM   66  H27 UNL     1       8.665  19.918  22.965  1.00  0.00     0.217 HD
ENDBRANCH  26  65
TORSDOF 9
ENDMDL
MODEL 3
REMARK minimizedAffinity -7.29793024
REMARK CNNscore 0.110673495
REMARK CNNaffinity 6.58465433
REMARK  9 active torsions:
REMARK  status: ('A' for Active; 'I' for Inactive)
REMARK    1  A    between atoms: C13_13  and  S1_14 
REMARK    2  A    between atoms: C25_30  and  O5_31 
REMARK    3  A    between atoms: C31_37  and  C32_38 
REMARK    4  A    between atoms: C32_38  and  O6_39 
REMARK    5  A    between atoms: C40_47  and  C41_48 
REMARK    6  A    between atoms: C40_47  and  N1_52 
REMARK    7  A    between atoms: C41_48  and  C42_49 
REMARK    8  A    between atoms: C42_49  and  C43_50 
REMARK    9  A    between atoms: C43_50  and  O7_51 
REMARK       I    between atoms: C44_54  and  N2_55 
REMARK       I    between atoms: C44_54  and  N3_56 
ROOT
HETATM    1  C1  UNL     1      -4.727  19.116  -0.532  1.00  0.00     0.010 C 
HETATM    2  C2  UNL     1      -3.421  18.734  -1.218  1.00  0.00    -0.010 C 
HETATM    3  C3  UNL     1      -3.678  18.266  -2.694  1.00  0.00     0.009 C 
HETATM    4  C4  UNL     1      -2.682  17.203  -3.240  1.00  0.00     0.039 C 
HETATM    5  C5  UNL     1      -1.301  17.402  -2.675  1.00  0.00    -0.049 C 
HETATM    6  C6  UNL     1      -0.132  17.063  -3.347  1.00  0.00     0.044 C 
HETATM    7  C7  UNL     1       1.080  17.354  -2.733  1.00  0.00     0.072 C 
HETATM    8  C8  UNL     1       1.141  18.205  -1.629  1.00  0.00     0.037 C 
HETATM    9  C9  UNL     1      -0.018  18.423  -0.899  1.00  0.00     0.011 C 
HETATM   10  C10 UNL     1      -1.212  17.862  -1.349  1.00  0.00    -0.047 C 
HETATM   11  C11 UNL     1      -2.494  17.708  -0.523  1.00  0.00     0.024 C 
HETATM   12  C12 UNL     1      -2.265  17.737   1.005  1.00  0.00     0.033 C 
HETATM   13  C13 UNL     1      -2.949  16.678   1.916  1.00  0.00     0.139 C 
HETATM   14  C14 UNL     1      -2.014  15.933   2.927  1.00  0.00     0.038 C 
HETATM   15  C15 UNL     1      -1.686  16.746   4.182  1.00  0.00    -0.014 C 
HETATM   16  C16 UNL     1      -1.244  16.068   5.265  1.00  0.00    -0.050 C 
HETATM   17  C17 UNL     1      -0.969  14.588   5.063  1.00  0.00     0.042 C 
HETATM   18  C18 UNL     1       0.026  14.530   3.885  1.00  0.00     0.001 C 
HETATM   19  C19 UNL     1       1.336  15.350   4.212  1.00  0.00     0.038 C 
HETATM   20  C20 UNL     1       1.601  15.760   5.686  1.00  0.00     0.130 C 
HETATM   21  O4  UNL     1       0.781  16.909   5.923  1.00  0.00    -0.371 OA
HETATM   22  C21 UNL     1      -0.521  16.635   6.452  1.00  0.00     0.185 C 
HETATM   23  C22 UNL     1      -0.985  17.877   7.200  1.00  0.00    -0.006 A 
HETATM   24  C23 UNL     1      -2.295  18.367   7.094  1.00  0.00     0.014 A 
HETATM   25  C24 UNL     1      -2.701  19.476   7.844  1.00  0.00     0.037 A 
HETATM   26  C25 UNL     1      -1.810  20.093   8.716  1.00  0.00     0.067 A 
HETATM   27  C26 UNL     1      -0.511  19.618   8.869  1.00  0.00     0.057 A 
HETATM   28  C27 UNL     1      -0.100  18.510   8.127  1.00  0.00     0.029 A 
HETATM   29  C28 UNL     1       1.243  18.007   8.292  1.00  0.00    -0.066 C 
HETATM   30  C29 UNL     1       2.265  17.401   8.106  1.00  0.00    -0.101 C 
HETATM   31  C30 UNL     1       3.281  16.497   7.526  1.00  0.00     0.103 C 
HETATM   32  C31 UNL     1       3.061  16.210   5.996  1.00  0.00     0.049 C 
HETATM   33  C33 UNL     1      -0.790  14.949   2.547  1.00  0.00     0.030 C 
HETATM   34  C34 UNL     1       0.044  15.068   1.259  1.00  0.00    -0.050 A 
HETATM   35  C35 UNL     1      -0.384  14.389   0.108  1.00  0.00     0.006 A 
HETATM   36  C36 UNL     1       0.319  14.435  -1.112  1.00  0.00     0.010 A 
HETATM   37  C37 UNL     1       1.555  15.087  -1.232  1.00  0.00    -0.000 A 
HETATM   38  C38 UNL     1       2.021  15.715  -0.068  1.00  0.00     0.138 A 
HETATM   39  C39 UNL     1       1.255  15.752   1.119  1.00  0.00     0.133 A 
HETATM   40  C40 UNL     1       2.268  15.283  -2.623  1.00  0.00     0.169 C 
HETATM   41  O8  UNL     1       2.235  16.701  -3.067  1.00  0.00    -0.316 OA
HETATM   42 NA1  UNL     1       0.100  16.428   1.402  1.00  0.00    -0.401 Na
ATOM     43  HA1 UNL     1      -0.739  16.834   1.814  1.00  0.00     0.154 HD
ENDROOT
BRANCH  40  44
HETATM   44  C41 UNL     1       3.813  15.018  -2.483  1.00  0.00     0.069 C 
BRANCH  44  45
HETATM   45  C42 UNL     1       4.235  13.731  -1.753  1.00  0.00     0.031 C 
BRANCH  45  46
HETATM   46  C43 UNL     1       4.808  12.632  -2.633  1.00  0.00     0.164 C 
BRANCH  46  47
HETATM   47  O7  UNL     1       5.688  11.830  -1.847  1.00  0.00    -0.401 OA
HETATM   48  H46 UNL     1       6.124  11.220  -2.467  1.00  0.00     0.209 HD
ENDBRANCH  46  47
ENDBRANCH  45  46
ENDBRANCH  44  45
ENDBRANCH  40  44
BRANCH  40  49
HETATM   49  N1  UNL     1       1.758  14.369  -3.673  1.00  0.00    -0.336 N 
HETATM   50  C44 UNL     1       0.546  13.997  -3.797  1.00  0.00     0.124 C 
HETATM   51  N2  UNL     1       0.221  13.138  -4.790  1.00  0.00    -0.279 NA
HETATM   52  N3  UNL     1      -0.568  14.294  -3.092  1.00  0.00    -0.279 NA
HETATM   53  H47 UNL     1      -0.367  12.378  -4.477  1.00  0.00     0.126 HD
HETATM   54  H48 UNL     1       1.059  12.799  -5.252  1.00  0.00     0.126 HD
HETATM   55  H49 UNL     1      -1.371  14.393  -3.705  1.00  0.00     0.126 HD
HETATM   56  H50 UNL     1      -0.484  15.138  -2.533  1.00  0.00     0.126 HD
ATOM     57  H1  UNL     1       2.431  14.008  -4.349  1.00  0.00     0.165 HD
ENDBRANCH  40  49
BRANCH  13  58
HETATM   58  S1  UNL     1      -4.184  15.541   1.235  1.00  0.00     0.106 S 
HETATM   59  O1  UNL     1      -5.456  16.011   1.768  1.00  0.00    -0.595 OA
HETATM   60  O2  UNL     1      -4.053  15.652  -0.212  1.00  0.00    -0.595 OA
HETATM   61  O3  UNL     1      -3.791  14.234   1.765  1.00  0.00    -0.595 OA
ENDBRANCH  13  58
BRANCH  32  62
HETATM   62  C32 UNL     1       3.496  17.428   5.166  1.00  0.00     0.172 C 
BRANCH  62  63
HETATM   63  O6  UNL     1       4.523  17.049   4.249  1.00  0.00    -0.400 OA
HETATM   64  H34 UNL     1       4.097  16.544   3.535  1.00  0.00     0.209 HD
ENDBRANCH  62  63
ENDBRANCH  32  62
BRANCH  26  65
HETATM   65  O5  UNL     1      -2.258  21.171   9.423  1.00  0.00    -0.361 OA
HETATM   66  H27 UNL     1      -1.525  21.506   9.966  1.00  0.00     0.217 HD
ENDBRANCH  26  65
TORSDOF 9
ENDMDL
MODEL 4
REMARK minimizedAffinity -7.2117157
REMARK CNNscore 0.0961494148
REMARK CNNaffinity 5.64456177
REMARK  9 active torsions:
REMARK  status: ('A' for Active; 'I' for Inactive)
REMARK    1  A    between atoms: C13_13  and  S1_14 
REMARK    2  A    between atoms: C25_30  and  O5_31 
REMARK    3  A    between atoms: C31_37  and  C32_38 
REMARK    4  A    between atoms: C32_38  and  O6_39 
REMARK    5  A    between atoms: C40_47  and  C41_48 
REMARK    6  A    between atoms: C40_47  and  N1_52 
REMARK    7  A    between atoms: C41_48  and  C42_49 
REMARK    8  A    between atoms: C42_49  and  C43_50 
REMARK    9  A    between atoms: C43_50  and  O7_51 
REMARK       I    between atoms: C44_54  and  N2_55 
REMARK       I    between atoms: C44_54  and  N3_56 
ROOT
HETATM    1  C1  UNL     1     -14.762  16.839  18.950  1.00  0.00     0.010 C 
HETATM    2  C2  UNL     1     -14.364  15.780  19.972  1.00  0.00    -0.010 C 
HETATM    3  C3  UNL     1     -13.658  16.433  21.211  1.00  0.00     0.009 C 
HETATM    4  C4  UNL     1     -12.589  15.547  21.915  1.00  0.00     0.039 C 
HETATM    5  C5  UNL     1     -12.963  14.090  21.862  1.00  0.00    -0.049 C 
HETATM    6  C6  UNL     1     -12.601  13.160  22.830  1.00  0.00     0.044 C 
HETATM    7  C7  UNL     1     -13.062  11.857  22.687  1.00  0.00     0.072 C 
HETATM    8  C8  UNL     1     -14.075  11.548  21.780  1.00  0.00     0.037 C 
HETATM    9  C9  UNL     1     -14.327  12.437  20.745  1.00  0.00     0.011 C 
HETATM   10  C10 UNL     1     -13.628  13.641  20.706  1.00  0.00    -0.047 C 
HETATM   11  C11 UNL     1     -13.521  14.573  19.494  1.00  0.00     0.024 C 
HETATM   12  C12 UNL     1     -13.799  13.882  18.141  1.00  0.00     0.033 C 
HETATM   13  C13 UNL     1     -12.852  14.122  16.932  1.00  0.00     0.139 C 
HETATM   14  C14 UNL     1     -12.335  12.841  16.196  1.00  0.00     0.038 C 
HETATM   15  C15 UNL     1     -13.352  12.228  15.229  1.00  0.00    -0.014 C 
HETATM   16  C16 UNL     1     -12.879  11.396  14.274  1.00  0.00    -0.050 C 
HETATM   17  C17 UNL     1     -11.407  11.035  14.368  1.00  0.00     0.042 C 
HETATM   18  C18 UNL     1     -11.233  10.460  15.789  1.00  0.00     0.001 C 
HETATM   19  C19 UNL     1     -12.176   9.213  16.013  1.00  0.00     0.038 C 
HETATM   20  C20 UNL     1     -12.826   8.547  14.771  1.00  0.00     0.130 C 
HETATM   21  O4  UNL     1     -13.942   9.373  14.425  1.00  0.00    -0.371 OA
HETATM   22  C21 UNL     1     -13.669  10.405  13.470  1.00  0.00     0.185 C 
HETATM   23  C22 UNL     1     -14.979  10.746  12.773  1.00  0.00    -0.006 A 
HETATM   24  C23 UNL     1     -15.361  12.069  12.506  1.00  0.00     0.014 A 
HETATM   25  C24 UNL     1     -16.543  12.339  11.810  1.00  0.00     0.037 A 
HETATM   26  C25 UNL     1     -17.344  11.295  11.361  1.00  0.00     0.067 A 
HETATM   27  C26 UNL     1     -16.984   9.969  11.583  1.00  0.00     0.057 A 
HETATM   28  C27 UNL     1     -15.803   9.691  12.274  1.00  0.00     0.029 A 
HETATM   29  C28 UNL     1     -15.420   8.317  12.494  1.00  0.00    -0.066 C 
HETATM   30  C29 UNL     1     -14.861   7.344  12.926  1.00  0.00    -0.101 C 
HETATM   31  C30 UNL     1     -13.945   6.467  13.688  1.00  0.00     0.103 C 
HETATM   32  C31 UNL     1     -13.412   7.123  15.014  1.00  0.00     0.049 C 
HETATM   33  C33 UNL     1     -11.385  11.696  16.829  1.00  0.00     0.030 C 
HETATM   34  C34 UNL     1     -11.357  11.327  18.322  1.00  0.00    -0.050 A 
HETATM   35  C35 UNL     1     -10.483  12.017  19.176  1.00  0.00     0.006 A 
HETATM   36  C36 UNL     1     -10.385  11.742  20.554  1.00  0.00     0.010 A 
HETATM   37  C37 UNL     1     -11.090  10.686  21.152  1.00  0.00    -0.000 A 
HETATM   38  C38 UNL     1     -11.919   9.951  20.293  1.00  0.00     0.138 A 
HETATM   39  C39 UNL     1     -12.089  10.306  18.936  1.00  0.00     0.133 A 
HETATM   40  C40 UNL     1     -11.114  10.473  22.713  1.00  0.00     0.169 C 
HETATM   41  O8  UNL     1     -12.441  10.801  23.296  1.00  0.00    -0.316 OA
HETATM   42 NA1  UNL     1     -12.724  11.381  18.378  1.00  0.00    -0.401 Na
ATOM     43  HA1 UNL     1     -13.134  12.088  17.768  1.00  0.00     0.154 HD
ENDROOT
BRANCH  40  44
HETATM   44  C41 UNL     1     -10.975   8.942  23.052  1.00  0.00     0.069 C 
BRANCH  44  45
HETATM   45  C42 UNL     1     -12.068   8.325  23.943  1.00  0.00     0.031 C 
BRANCH  45  46
HETATM   46  C43 UNL     1     -11.885   8.520  25.440  1.00  0.00     0.164 C 
BRANCH  46  47
HETATM   47  O7  UNL     1     -10.852   9.480  25.652  1.00  0.00    -0.401 OA
HETATM   48  H46 UNL     1     -10.682   9.488  26.610  1.00  0.00     0.209 HD
ENDBRANCH  46  47
ENDBRANCH  45  46
ENDBRANCH  44  45
ENDBRANCH  40  44
BRANCH  40  49
HETATM   49  N1  UNL     1     -10.017  11.181  23.415  1.00  0.00    -0.336 N 
HETATM   50  C44 UNL     1      -9.548  12.318  23.085  1.00  0.00     0.124 C 
HETATM   51  N2  UNL     1      -8.527  12.841  23.802  1.00  0.00    -0.279 NA
HETATM   52  N3  UNL     1      -9.872  13.177  22.093  1.00  0.00    -0.279 NA
HETATM   53  H47 UNL     1      -7.785  13.208  23.221  1.00  0.00     0.126 HD
HETATM   54  H48 UNL     1      -8.180  12.160  24.470  1.00  0.00     0.126 HD
HETATM   55  H49 UNL     1      -9.821  14.139  22.413  1.00  0.00     0.126 HD
HETATM   56  H50 UNL     1     -10.795  13.017  21.700  1.00  0.00     0.126 HD
ATOM     57  H1  UNL     1      -9.605  10.721  24.226  1.00  0.00     0.165 HD
ENDBRANCH  40  49
BRANCH  13  58
HETATM   58  S1  UNL     1     -11.546  15.374  17.024  1.00  0.00     0.106 S 
HETATM   59  O1  UNL     1     -11.011  15.256  18.374  1.00  0.00    -0.595 OA
HETATM   60  O2  UNL     1     -10.606  15.028  15.966  1.00  0.00    -0.595 OA
HETATM   61  O3  UNL     1     -12.250  16.637  16.797  1.00  0.00    -0.595 OA
ENDBRANCH  13  58
BRANCH  32  62
HETATM   62  C32 UNL     1     -14.513   7.109  16.086  1.00  0.00     0.172 C 
BRANCH  62  63
HETATM   63  O6  UNL     1     -14.090   7.859  17.225  1.00  0.00    -0.400 OA
HETATM   64  H34 UNL     1     -14.147   8.800  16.985  1.00  0.00     0.209 HD
ENDBRANCH  62  63
ENDBRANCH  32  62
BRANCH  26  65
HETATM   65  O5  UNL     1     -18.487  11.615  10.689  1.00  0.00    -0.361 OA
HETATM   66  H27 UNL     1     -18.948  10.791  10.461  1.00  0.00     0.217 HD
ENDBRANCH  26  65
TORSDOF 9
ENDMDL
MODEL 5
REMARK minimizedAffinity -7.34601831
REMARK CNNscore 0.0953218937
REMARK CNNaffinity 6.18863916
REMARK  9 active torsions:
REMARK  status: ('A' for Active; 'I' for Inactive)
REMARK    1  A    between atoms: C13_13  and  S1_14 
REMARK    2  A    between atoms: C25_30  and  O5_31 
REMARK    3  A    between atoms: C31_37  and  C32_38 
REMARK    4  A    between atoms: C32_38  and  O6_39 
REMARK    5  A    between atoms: C40_47  and  C41_48 
REMARK    6  A    between atoms: C40_47  and  N1_52 
REMARK    7  A    between atoms: C41_48  and  C42_49 
REMARK    8  A    between atoms: C42_49  and  C43_50 
REMARK    9  A    between atoms: C43_50  and  O7_51 
REMARK       I    between atoms: C44_54  and  N2_55 
REMARK       I    between atoms: C44_54  and  N3_56 
ROOT
HETATM    1  C1  UNL     1      -5.574  15.584  15.339  1.00  0.00     0.010 C 
HETATM    2  C2  UNL     1      -6.800  16.284  14.764  1.00  0.00    -0.010 C 
HETATM    3  C3  UNL     1      -6.806  17.807  15.144  1.00  0.00     0.009 C 
HETATM    4  C4  UNL     1      -8.214  18.449  15.307  1.00  0.00     0.039 C 
HETATM    5  C5  UNL     1      -9.209  17.840  14.354  1.00  0.00    -0.049 C 
HETATM    6  C6  UNL     1     -10.300  18.524  13.831  1.00  0.00     0.044 C 
HETATM    7  C7  UNL     1     -11.107  17.860  12.916  1.00  0.00     0.072 C 
HETATM    8  C8  UNL     1     -10.691  16.669  12.322  1.00  0.00     0.037 C 
HETATM    9  C9  UNL     1      -9.685  15.940  12.938  1.00  0.00     0.011 C 
HETATM   10  C10 UNL     1      -9.066  16.470  14.069  1.00  0.00    -0.047 C 
HETATM   11  C11 UNL     1      -8.197  15.690  15.060  1.00  0.00     0.024 C 
HETATM   12  C12 UNL     1      -8.442  14.163  15.047  1.00  0.00     0.033 C 
HETATM   13  C13 UNL     1      -8.605  13.387  16.384  1.00  0.00     0.139 C 
HETATM   14  C14 UNL     1      -9.853  12.448  16.487  1.00  0.00     0.038 C 
HETATM   15  C15 UNL     1      -9.678  11.105  15.773  1.00  0.00    -0.014 C 
HETATM   16  C16 UNL     1     -10.501  10.095  16.135  1.00  0.00    -0.050 C 
HETATM   17  C17 UNL     1     -11.617  10.454  17.100  1.00  0.00     0.042 C 
HETATM   18  C18 UNL     1     -12.372  11.613  16.416  1.00  0.00     0.001 C 
HETATM   19  C19 UNL     1     -12.916  11.174  15.000  1.00  0.00     0.038 C 
HETATM   20  C20 UNL     1     -12.951   9.660  14.660  1.00  0.00     0.130 C 
HETATM   21  O4  UNL     1     -11.613   9.313  14.292  1.00  0.00    -0.371 OA
HETATM   22  C21 UNL     1     -10.785   8.841  15.362  1.00  0.00     0.185 C 
HETATM   23  C22 UNL     1      -9.696   7.969  14.751  1.00  0.00    -0.006 A 
HETATM   24  C23 UNL     1      -8.359   8.044  15.167  1.00  0.00     0.014 A 
HETATM   25  C24 UNL     1      -7.398   7.184  14.625  1.00  0.00     0.037 A 
HETATM   26  C25 UNL     1      -7.766   6.233  13.678  1.00  0.00     0.067 A 
HETATM   27  C26 UNL     1      -9.089   6.110  13.262  1.00  0.00     0.057 A 
HETATM   28  C27 UNL     1     -10.054   6.963  13.801  1.00  0.00     0.029 A 
HETATM   29  C28 UNL     1     -11.428   6.829  13.381  1.00  0.00    -0.066 C 
HETATM   30  C29 UNL     1     -12.595   7.062  13.205  1.00  0.00    -0.101 C 
HETATM   31  C30 UNL     1     -13.919   7.721  13.228  1.00  0.00     0.103 C 
HETATM   32  C31 UNL     1     -13.840   9.276  13.438  1.00  0.00     0.049 C 
HETATM   33  C33 UNL     1     -11.400  12.912  16.463  1.00  0.00     0.030 C 
HETATM   34  C34 UNL     1     -11.914  14.163  15.730  1.00  0.00    -0.050 A 
HETATM   35  C35 UNL     1     -11.932  15.390  16.411  1.00  0.00     0.006 A 
HETATM   36  C36 UNL     1     -12.391  16.584  15.823  1.00  0.00     0.010 A 
HETATM   37  C37 UNL     1     -12.957  16.609  14.539  1.00  0.00    -0.000 A 
HETATM   38  C38 UNL     1     -13.000  15.376  13.875  1.00  0.00     0.138 A 
HETATM   39  C39 UNL     1     -12.438  14.206  14.434  1.00  0.00     0.133 A 
HETATM   40  C40 UNL     1     -13.321  17.958  13.810  1.00  0.00     0.169 C 
HETATM   41  O8  UNL     1     -12.399  18.244  12.680  1.00  0.00    -0.316 OA
HETATM   42 NA1  UNL     1     -11.129  13.871  14.647  1.00  0.00    -0.401 Na
ATOM     43  HA1 UNL     1     -10.242  13.432  14.888  1.00  0.00     0.154 HD
ENDROOT
BRANCH  40  44
HETATM   44  C41 UNL     1     -14.707  17.820  13.077  1.00  0.00     0.069 C 
BRANCH  44  45
HETATM   45  C42 UNL     1     -14.729  18.115  11.567  1.00  0.00     0.031 C 
BRANCH  45  46
HETATM   46  C43 UNL     1     -14.863  16.903  10.660  1.00  0.00     0.164 C 
BRANCH  46  47
HETATM   47  O7  UNL     1     -13.571  16.331  10.467  1.00  0.00    -0.401 OA
HETATM   48  H46 UNL     1     -13.678  15.639   9.792  1.00  0.00     0.209 HD
ENDBRANCH  46  47
ENDBRANCH  45  46
ENDBRANCH  44  45
ENDBRANCH  40  44
BRANCH  40  49
HETATM   49  N1  UNL     1     -13.426  19.111  14.737  1.00  0.00    -0.336 N 
HETATM   50  C44 UNL     1     -14.390  19.319  15.543  1.00  0.00     0.124 C 
HETATM   51  N2  UNL     1     -14.369  20.427  16.319  1.00  0.00    -0.279 NA
HETATM   52  N3  UNL     1     -15.517  18.621  15.805  1.00  0.00    -0.279 NA
HETATM   53  H47 UNL     1     -15.251  20.921  16.324  1.00  0.00     0.126 HD
HETATM   54  H48 UNL     1     -13.601  21.032  16.049  1.00  0.00     0.126 HD
HETATM   55  H49 UNL     1     -15.734  18.639  16.796  1.00  0.00     0.126 HD
HETATM   56  H50 UNL     1     -15.477  17.652  15.502  1.00  0.00     0.126 HD
ATOM     57  H1  UNL     1     -12.667  19.791  14.728  1.00  0.00     0.165 HD
ENDBRANCH  40  49
BRANCH  13  58
HETATM   58  S1  UNL     1      -8.296  14.211  17.968  1.00  0.00     0.106 S 
HETATM   59  O1  UNL     1      -8.962  13.375  18.958  1.00  0.00    -0.595 OA
HETATM   60  O2  UNL     1      -6.846  14.267  18.096  1.00  0.00    -0.595 OA
HETATM   61  O3  UNL     1      -8.925  15.523  17.812  1.00  0.00    -0.595 OA
ENDBRANCH  13  58
BRANCH  32  62
HETATM   62  C32 UNL     1     -13.388   9.959  12.138  1.00  0.00     0.172 C 
BRANCH  62  63
HETATM   63  O6  UNL     1     -12.042   9.589  11.837  1.00  0.00    -0.400 OA
HETATM   64  H34 UNL     1     -12.063   8.673  11.508  1.00  0.00     0.209 HD
ENDBRANCH  62  63
ENDBRANCH  32  62
BRANCH  26  65
HETATM   65  O5  UNL     1      -6.789   5.421  13.182  1.00  0.00    -0.361 OA
HETATM   66  H27 UNL     1      -7.189   4.831  12.522  1.00  0.00     0.217 HD
ENDBRANCH  26  65
TORSDOF 9
ENDMDL
MODEL 6
REMARK minimizedAffinity -9.58744907
REMARK CNNscore 0.0927314311
REMARK CNNaffinity 5.72124529
REMARK  9 active torsions:
REMARK  status: ('A' for Active; 'I' for Inactive)
REMARK    1  A    between atoms: C13_13  and  S1_14 
REMARK    2  A    between atoms: C25_30  and  O5_31 
REMARK    3  A    between atoms: C31_37  and  C32_38 
REMARK    4  A    between atoms: C32_38  and  O6_39 
REMARK    5  A    between atoms: C40_47  and  C41_48 
REMARK    6  A    between atoms: C40_47  and  N1_52 
REMARK    7  A    between atoms: C41_48  and  C42_49 
REMARK    8  A    between atoms: C42_49  and  C43_50 
REMARK    9  A    between atoms: C43_50  and  O7_51 
REMARK       I    between atoms: C44_54  and  N2_55 
REMARK       I    between atoms: C44_54  and  N3_56 
ROOT
HETATM    1  C1  UNL     1      -0.873  11.222  16.881  1.00  0.00     0.010 C 
HETATM    2  C2  UNL     1      -0.057  11.323  18.165  1.00  0.00    -0.010 C 
HETATM    3  C3  UNL     1      -0.754  12.274  19.199  1.00  0.00     0.009 C 
HETATM    4  C4  UNL     1       0.207  13.044  20.151  1.00  0.00     0.039 C 
HETATM    5  C5  UNL     1       1.423  12.222  20.487  1.00  0.00    -0.049 C 
HETATM    6  C6  UNL     1       2.123  12.326  21.683  1.00  0.00     0.044 C 
HETATM    7  C7  UNL     1       3.194  11.466  21.888  1.00  0.00     0.072 C 
HETATM    8  C8  UNL     1       3.390  10.353  21.069  1.00  0.00     0.037 C 
HETATM    9  C9  UNL     1       2.780  10.336  19.824  1.00  0.00     0.011 C 
HETATM   10  C10 UNL     1       1.924  11.380  19.478  1.00  0.00    -0.047 C 
HETATM   11  C11 UNL     1       1.439  11.706  18.062  1.00  0.00     0.024 C 
HETATM   12  C12 UNL     1       2.339  11.139  16.941  1.00  0.00     0.033 C 
HETATM   13  C13 UNL     1       2.752  12.038  15.742  1.00  0.00     0.139 C 
HETATM   14  C14 UNL     1       4.280  12.073  15.401  1.00  0.00     0.038 C 
HETATM   15  C15 UNL     1       4.765  10.857  14.608  1.00  0.00    -0.014 C 
HETATM   16  C16 UNL     1       5.930  10.980  13.932  1.00  0.00    -0.050 C 
HETATM   17  C17 UNL     1       6.709  12.262  14.165  1.00  0.00     0.042 C 
HETATM   18  C18 UNL     1       6.906  12.330  15.695  1.00  0.00     0.001 C 
HETATM   19  C19 UNL     1       7.671  11.053  16.222  1.00  0.00     0.038 C 
HETATM   20  C20 UNL     1       8.399  10.150  15.190  1.00  0.00     0.130 C 
HETATM   21  O4  UNL     1       7.380   9.338  14.598  1.00  0.00    -0.371 OA
HETATM   22  C21 UNL     1       6.790   9.868  13.405  1.00  0.00     0.185 C 
HETATM   23  C22 UNL     1       6.243   8.695  12.602  1.00  0.00    -0.006 A 
HETATM   24  C23 UNL     1       4.991   8.741  11.971  1.00  0.00     0.014 A 
HETATM   25  C24 UNL     1       4.549   7.667  11.192  1.00  0.00     0.037 A 
HETATM   26  C25 UNL     1       5.358   6.548  11.022  1.00  0.00     0.067 A 
HETATM   27  C26 UNL     1       6.618   6.479  11.609  1.00  0.00     0.057 A 
HETATM   28  C27 UNL     1       7.067   7.549  12.385  1.00  0.00     0.029 A 
HETATM   29  C28 UNL     1       8.379   7.485  12.984  1.00  0.00    -0.066 C 
HETATM   30  C29 UNL     1       9.327   7.730  13.683  1.00  0.00    -0.101 C 
HETATM   31  C30 UNL     1      10.214   8.361  14.684  1.00  0.00     0.103 C 
HETATM   32  C31 UNL     1       9.436   9.155  15.795  1.00  0.00     0.049 C 
HETATM   33  C33 UNL     1       5.456  12.643  16.352  1.00  0.00     0.030 C 
HETATM   34  C34 UNL     1       5.399  12.643  17.889  1.00  0.00    -0.050 A 
HETATM   35  C35 UNL     1       4.827  13.742  18.548  1.00  0.00     0.006 A 
HETATM   36  C36 UNL     1       4.738  13.830  19.951  1.00  0.00     0.010 A 
HETATM   37  C37 UNL     1       5.308  12.863  20.793  1.00  0.00    -0.000 A 
HETATM   38  C38 UNL     1       5.936  11.792  20.143  1.00  0.00     0.138 A 
HETATM   39  C39 UNL     1       5.924  11.661  18.736  1.00  0.00     0.133 A 
HETATM   40  C40 UNL     1       5.074  12.866  22.351  1.00  0.00     0.169 C 
HETATM   41  O8  UNL     1       4.191  11.751  22.781  1.00  0.00    -0.316 OA
HETATM   42 NA1  UNL     1       4.893  11.371  17.886  1.00  0.00    -0.401 Na
ATOM     43  HA1 UNL     1       4.282  11.172  17.094  1.00  0.00     0.154 HD
ENDROOT
BRANCH  40  44
HETATM   44  C41 UNL     1       6.417  12.529  23.101  1.00  0.00     0.069 C 
BRANCH  44  45
HETATM   45  C42 UNL     1       7.677  12.368  22.232  1.00  0.00     0.031 C 
BRANCH  45  46
HETATM   46  C43 UNL     1       9.002  12.439  22.974  1.00  0.00     0.164 C 
BRANCH  46  47
HETATM   47  O7  UNL     1       9.028  13.637  23.749  1.00  0.00    -0.401 OA
HETATM   48  H46 UNL     1       9.929  13.707  24.110  1.00  0.00     0.209 HD
ENDBRANCH  46  47
ENDBRANCH  45  46
ENDBRANCH  44  45
ENDBRANCH  40  44
BRANCH  40  49
HETATM   49  N1  UNL     1       4.599  14.173  22.866  1.00  0.00    -0.336 N 
HETATM   50  C44 UNL     1       5.328  15.200  23.047  1.00  0.00     0.124 C 
HETATM   51  N2  UNL     1       4.767  16.326  23.545  1.00  0.00    -0.279 NA
HETATM   52  N3  UNL     1       6.645  15.423  22.838  1.00  0.00    -0.279 NA
HETATM   53  H47 UNL     1       5.310  16.740  24.291  1.00  0.00     0.126 HD
HETATM   54  H48 UNL     1       3.810  16.145  23.832  1.00  0.00     0.126 HD
HETATM   55  H49 UNL     1       6.803  16.358  22.478  1.00  0.00     0.126 HD
HETATM   56  H50 UNL     1       7.076  14.757  22.202  1.00  0.00     0.126 HD
ATOM     57  H1  UNL     1       3.608  14.255  23.093  1.00  0.00     0.165 HD
ENDBRANCH  40  49
BRANCH  13  58
HETATM   58  S1  UNL     1       2.014  13.679  15.528  1.00  0.00     0.106 S 
HETATM   59  O1  UNL     1       0.698  13.424  14.959  1.00  0.00    -0.595 OA
HETATM   60  O2  UNL     1       1.997  14.270  16.860  1.00  0.00    -0.595 OA
HETATM   61  O3  UNL     1       2.919  14.353  14.595  1.00  0.00    -0.595 OA
ENDBRANCH  13  58
BRANCH  32  62
HETATM   62  C32 UNL     1       8.804   8.175  16.796  1.00  0.00     0.172 C 
BRANCH  62  63
HETATM   63  O6  UNL     1       7.400   8.075  16.556  1.00  0.00    -0.400 OA
HETATM   64  H34 UNL     1       7.284   7.540  15.752  1.00  0.00     0.209 HD
ENDBRANCH  62  63
ENDBRANCH  32  62
BRANCH  26  65
HETATM   65  O5  UNL     1       4.878   5.529  10.252  1.00  0.00    -0.361 OA
HETATM   66  H27 UNL     1       5.537   4.816  10.245  1.00  0.00     0.217 HD
ENDBRANCH  26  65
TORSDOF 9
ENDMDL
MODEL 7
REMARK minimizedAffinity -6.63500357
REMARK CNNscore 0.0878791735
REMARK CNNaffinity 5.75867796
REMARK  9 active torsions:
REMARK  status: ('A' for Active; 'I' for Inactive)
REMARK    1  A    between atoms: C13_13  and  S1_14 
REMARK    2  A    between atoms: C25_30  and  O5_31 
REMARK    3  A    between atoms: C31_37  and  C32_38 
REMARK    4  A    between atoms: C32_38  and  O6_39 
REMARK    5  A    between atoms: C40_47  and  C41_48 
REMARK    6  A    between atoms: C40_47  and  N1_52 
REMARK    7  A    between atoms: C41_48  and  C42_49 
REMARK    8  A    between atoms: C42_49  and  C43_50 
REMARK    9  A    between atoms: C43_50  and  O7_51 
REMARK       I    between atoms: C44_54  and  N2_55 
REMARK       I    between atoms: C44_54  and  N3_56 
ROOT
HETATM    1  C1  UNL     1      -2.502  20.577  -3.570  1.00  0.00     0.010 C 
HETATM    2  C2  UNL     1      -1.226  19.861  -3.999  1.00  0.00    -0.010 C 
HETATM    3  C3  UNL     1      -1.182  19.680  -5.557  1.00  0.00     0.009 C 
HETATM    4  C4  UNL     1      -0.429  18.415  -6.061  1.00  0.00     0.039 C 
HETATM    5  C5  UNL     1       0.732  18.072  -5.165  1.00  0.00    -0.049 C 
HETATM    6  C6  UNL     1       1.890  17.441  -5.603  1.00  0.00     0.044 C 
HETATM    7  C7  UNL     1       2.909  17.235  -4.681  1.00  0.00     0.072 C 
HETATM    8  C8  UNL     1       2.901  17.883  -3.445  1.00  0.00     0.037 C 
HETATM    9  C9  UNL     1       1.700  18.391  -2.974  1.00  0.00     0.011 C 
HETATM   10  C10 UNL     1       0.573  18.319  -3.790  1.00  0.00    -0.047 C 
HETATM   11  C11 UNL     1      -0.877  18.510  -3.329  1.00  0.00     0.024 C 
HETATM   12  C12 UNL     1      -1.092  18.283  -1.816  1.00  0.00     0.033 C 
HETATM   13  C13 UNL     1      -2.283  17.417  -1.318  1.00  0.00     0.139 C 
HETATM   14  C14 UNL     1      -1.934  16.290  -0.290  1.00  0.00     0.038 C 
HETATM   15  C15 UNL     1      -1.751  16.795   1.144  1.00  0.00    -0.014 C 
HETATM   16  C16 UNL     1      -1.852  15.887   2.141  1.00  0.00    -0.050 C 
HETATM   17  C17 UNL     1      -1.977  14.435   1.716  1.00  0.00     0.042 C 
HETATM   18  C18 UNL     1      -0.752  14.183   0.811  1.00  0.00     0.001 C 
HETATM   19  C19 UNL     1       0.592  14.472   1.589  1.00  0.00     0.038 C 
HETATM   20  C20 UNL     1       0.538  14.596   3.135  1.00  0.00     0.130 C 
HETATM   21  O4  UNL     1       0.059  15.918   3.403  1.00  0.00    -0.371 OA
HETATM   22  C21 UNL     1      -1.361  16.037   3.552  1.00  0.00     0.185 C 
HETATM   23  C22 UNL     1      -1.632  17.268   4.406  1.00  0.00    -0.006 A 
HETATM   24  C23 UNL     1      -2.655  18.178   4.102  1.00  0.00     0.014 A 
HETATM   25  C24 UNL     1      -2.913  19.263   4.945  1.00  0.00     0.037 A 
HETATM   26  C25 UNL     1      -2.165  19.441   6.104  1.00  0.00     0.067 A 
HETATM   27  C26 UNL     1      -1.161  18.543   6.454  1.00  0.00     0.057 A 
HETATM   28  C27 UNL     1      -0.900  17.454   5.619  1.00  0.00     0.029 A 
HETATM   29  C28 UNL     1       0.132  16.515   5.986  1.00  0.00    -0.066 C 
HETATM   30  C29 UNL     1       0.941  15.627   5.922  1.00  0.00    -0.101 C 
HETATM   31  C30 UNL     1       1.768  14.508   5.422  1.00  0.00     0.103 C 
HETATM   32  C31 UNL     1       1.916  14.491   3.857  1.00  0.00     0.049 C 
HETATM   33  C33 UNL     1      -0.996  15.003  -0.567  1.00  0.00     0.030 C 
HETATM   34  C34 UNL     1       0.164  14.983  -1.577  1.00  0.00    -0.050 A 
HETATM   35  C35 UNL     1      -0.100  14.626  -2.908  1.00  0.00     0.006 A 
HETATM   36  C36 UNL     1       0.900  14.574  -3.899  1.00  0.00     0.010 A 
HETATM   37  C37 UNL     1       2.254  14.782  -3.597  1.00  0.00    -0.000 A 
HETATM   38  C38 UNL     1       2.535  15.078  -2.256  1.00  0.00     0.138 A 
HETATM   39  C39 UNL     1       1.511  15.233  -1.295  1.00  0.00     0.133 A 
HETATM   40  C40 UNL     1       3.356  14.888  -4.719  1.00  0.00     0.169 C 
HETATM   41  O8  UNL     1       3.867  16.276  -4.864  1.00  0.00    -0.316 OA
HETATM   42 NA1  UNL     1       0.574  16.220  -1.156  1.00  0.00    -0.401 Na
ATOM     43  HA1 UNL     1      -0.190  16.833  -0.875  1.00  0.00     0.154 HD
ENDROOT
BRANCH  40  44
HETATM   44  C41 UNL     1       4.650  14.106  -4.282  1.00  0.00     0.069 C 
BRANCH  44  45
HETATM   45  C42 UNL     1       4.542  12.572  -4.201  1.00  0.00     0.031 C 
BRANCH  45  46
HETATM   46  C43 UNL     1       4.490  11.989  -2.799  1.00  0.00     0.164 C 
BRANCH  46  47
HETATM   47  O7  UNL     1       5.799  11.555  -2.436  1.00  0.00    -0.401 OA
HETATM   48  H46 UNL     1       5.704  11.082  -1.591  1.00  0.00     0.209 HD
ENDBRANCH  46  47
ENDBRANCH  45  46
ENDBRANCH  44  45
ENDBRANCH  40  44
BRANCH  40  49
HETATM   49  N1  UNL     1       2.919  14.325  -6.019  1.00  0.00    -0.336 N 
HETATM   50  C44 UNL     1       3.451  14.583  -7.146  1.00  0.00     0.124 C 
HETATM   51  N2  UNL     1       2.937  14.015  -8.261  1.00  0.00    -0.279 NA
HETATM   52  N3  UNL     1       4.496  15.366  -7.496  1.00  0.00    -0.279 NA
HETATM   53  H47 UNL     1       2.813  14.675  -9.018  1.00  0.00     0.126 HD
HETATM   54  H48 UNL     1       2.074  13.528  -8.042  1.00  0.00     0.126 HD
HETATM   55  H49 UNL     1       5.044  14.934  -8.233  1.00  0.00     0.126 HD
HETATM   56  H50 UNL     1       5.117  15.587  -6.722  1.00  0.00     0.126 HD
ATOM     57  H1  UNL     1       2.129  13.681  -6.009  1.00  0.00     0.165 HD
ENDBRANCH  40  49
BRANCH  13  58
HETATM   58  S1  UNL     1      -3.553  16.848  -2.479  1.00  0.00     0.106 S 
HETATM   59  O1  UNL     1      -4.088  15.633  -1.879  1.00  0.00    -0.595 OA
HETATM   60  O2  UNL     1      -4.504  17.946  -2.579  1.00  0.00    -0.595 OA
HETATM   61  O3  UNL     1      -2.811  16.595  -3.716  1.00  0.00    -0.595 OA
ENDBRANCH  13  58
BRANCH  32  62
HETATM   62  C32 UNL     1       2.904  15.579   3.412  1.00  0.00     0.172 C 
BRANCH  62  63
HETATM   63  O6  UNL     1       3.999  15.645   4.326  1.00  0.00    -0.400 OA
HETATM   64  H34 UNL     1       4.563  14.871   4.153  1.00  0.00     0.209 HD
ENDBRANCH  62  63
ENDBRANCH  32  62
BRANCH  26  65
HETATM   65  O5  UNL     1      -2.458  20.517   6.890  1.00  0.00    -0.361 OA
HETATM   66  H27 UNL     1      -1.845  20.521   7.643  1.00  0.00     0.217 HD
ENDBRANCH  26  65
TORSDOF 9
ENDMDL
MODEL 8
REMARK minimizedAffinity -7.10611773
REMARK CNNscore 0.0789775401
REMARK CNNaffinity 6.76390696
REMARK  9 active torsions:
REMARK  status: ('A' for Active; 'I' for Inactive)
REMARK    1  A    between atoms: C13_13  and  S1_14 
REMARK    2  A    between atoms: C25_30  and  O5_31 
REMARK    3  A    between atoms: C31_37  and  C32_38 
REMARK    4  A    between atoms: C32_38  and  O6_39 
REMARK    5  A    between atoms: C40_47  and  C41_48 
REMARK    6  A    between atoms: C40_47  and  N1_52 
REMARK    7  A    between atoms: C41_48  and  C42_49 
REMARK    8  A    between atoms: C42_49  and  C43_50 
REMARK    9  A    between atoms: C43_50  and  O7_51 
REMARK       I    between atoms: C44_54  and  N2_55 
REMARK       I    between atoms: C44_54  and  N3_56 
ROOT
HETATM    1  C1  UNL     1      -2.291  18.384  -1.396  1.00  0.00     0.010 C 
HETATM    2  C2  UNL     1      -0.797  18.091  -1.330  1.00  0.00    -0.010 C 
HETATM    3  C3  UNL     1      -0.292  17.451  -2.671  1.00  0.00     0.009 C 
HETATM    4  C4  UNL     1       0.902  16.462  -2.530  1.00  0.00     0.039 C 
HETATM    5  C5  UNL     1       1.832  16.877  -1.421  1.00  0.00    -0.049 C 
HETATM    6  C6  UNL     1       3.197  16.612  -1.413  1.00  0.00     0.044 C 
HETATM    7  C7  UNL     1       3.950  17.104  -0.354  1.00  0.00     0.072 C 
HETATM    8  C8  UNL     1       3.428  18.062   0.515  1.00  0.00     0.037 C 
HETATM    9  C9  UNL     1       2.052  18.214   0.580  1.00  0.00     0.011 C 
HETATM   10  C10 UNL     1       1.251  17.476  -0.289  1.00  0.00    -0.047 C 
HETATM   11  C11 UNL     1      -0.259  17.256  -0.143  1.00  0.00     0.024 C 
HETATM   12  C12 UNL     1      -0.791  17.464   1.293  1.00  0.00     0.033 C 
HETATM   13  C13 UNL     1      -1.766  16.429   1.921  1.00  0.00     0.139 C 
HETATM   14  C14 UNL     1      -1.388  15.904   3.347  1.00  0.00     0.038 C 
HETATM   15  C15 UNL     1      -1.745  16.872   4.478  1.00  0.00    -0.014 C 
HETATM   16  C16 UNL     1      -1.837  16.362   5.727  1.00  0.00    -0.050 C 
HETATM   17  C17 UNL     1      -1.417  14.912   5.892  1.00  0.00     0.042 C 
HETATM   18  C18 UNL     1       0.021  14.853   5.336  1.00  0.00     0.001 C 
HETATM   19  C19 UNL     1       0.968  15.850   6.115  1.00  0.00     0.038 C 
HETATM   20  C20 UNL     1       0.473  16.434   7.466  1.00  0.00     0.130 C 
HETATM   21  O4  UNL     1      -0.422  17.496   7.125  1.00  0.00    -0.371 OA
HETATM   22  C21 UNL     1      -1.802  17.126   7.019  1.00  0.00     0.185 C 
HETATM   23  C22 UNL     1      -2.635  18.374   7.276  1.00  0.00    -0.006 A 
HETATM   24  C23 UNL     1      -3.760  18.694   6.503  1.00  0.00     0.014 A 
HETATM   25  C24 UNL     1      -4.536  19.817   6.809  1.00  0.00     0.037 A 
HETATM   26  C25 UNL     1      -4.206  20.618   7.896  1.00  0.00     0.067 A 
HETATM   27  C26 UNL     1      -3.113  20.317   8.704  1.00  0.00     0.057 A 
HETATM   28  C27 UNL     1      -2.336  19.195   8.407  1.00  0.00     0.029 A 
HETATM   29  C28 UNL     1      -1.210  18.873   9.250  1.00  0.00    -0.066 C 
HETATM   30  C29 UNL     1      -0.192  18.375   9.652  1.00  0.00    -0.101 C 
HETATM   31  C30 UNL     1       1.027  17.543   9.749  1.00  0.00     0.103 C 
HETATM   32  C31 UNL     1       1.580  17.081   8.353  1.00  0.00     0.049 C 
HETATM   33  C33 UNL     1      -0.078  15.037   3.728  1.00  0.00     0.030 C 
HETATM   34  C34 UNL     1       1.262  15.123   2.976  1.00  0.00    -0.050 A 
HETATM   35  C35 UNL     1       1.474  14.287   1.869  1.00  0.00     0.006 A 
HETATM   36  C36 UNL     1       2.670  14.293   1.125  1.00  0.00     0.010 A 
HETATM   37  C37 UNL     1       3.775  15.070   1.504  1.00  0.00    -0.000 A 
HETATM   38  C38 UNL     1       3.593  15.861   2.646  1.00  0.00     0.138 A 
HETATM   39  C39 UNL     1       2.352  15.927   3.319  1.00  0.00     0.133 A 
HETATM   40  C40 UNL     1       5.054  15.208   0.593  1.00  0.00     0.169 C 
HETATM   41  O8  UNL     1       5.158  16.561  -0.013  1.00  0.00    -0.316 OA
HETATM   42 NA1  UNL     1       1.167  16.488   2.931  1.00  0.00    -0.401 Na
ATOM     43  HA1 UNL     1       0.212  16.832   2.841  1.00  0.00     0.154 HD
ENDROOT
BRANCH  40  44
HETATM   44  C41 UNL     1       6.356  15.141   1.475  1.00  0.00     0.069 C 
BRANCH  44  45
HETATM   45  C42 UNL     1       6.899  16.476   2.016  1.00  0.00     0.031 C 
BRANCH  45  46
HETATM   46  C43 UNL     1       7.059  16.558   3.525  1.00  0.00     0.164 C 
BRANCH  46  47
HETATM   47  O7  UNL     1       7.621  15.333   3.992  1.00  0.00    -0.401 OA
HETATM   48  H46 UNL     1       7.596  15.377   4.964  1.00  0.00     0.209 HD
ENDBRANCH  46  47
ENDBRANCH  45  46
ENDBRANCH  44  45
ENDBRANCH  40  44
BRANCH  40  49
HETATM   49  N1  UNL     1       5.159  14.139  -0.429  1.00  0.00    -0.336 N 
HETATM   50  C44 UNL     1       5.929  13.128  -0.357  1.00  0.00     0.124 C 
HETATM   51  N2  UNL     1       5.941  12.237  -1.375  1.00  0.00    -0.279 NA
HETATM   52  N3  UNL     1       6.809  12.726   0.587  1.00  0.00    -0.279 NA
HETATM   53  H47 UNL     1       6.876  11.982  -1.665  1.00  0.00     0.126 HD
HETATM   54  H48 UNL     1       5.387  12.582  -2.152  1.00  0.00     0.126 HD
HETATM   55  H49 UNL     1       6.788  11.717   0.699  1.00  0.00     0.126 HD
HETATM   56  H50 UNL     1       6.655  13.153   1.496  1.00  0.00     0.126 HD
ATOM     57  H1  UNL     1       4.567  14.220  -1.256  1.00  0.00     0.165 HD
ENDBRANCH  40  49
BRANCH  13  58
HETATM   58  S1  UNL     1      -2.461  15.092   0.914  1.00  0.00     0.106 S 
HETATM   59  O1  UNL     1      -1.354  14.641   0.081  1.00  0.00    -0.595 OA
HETATM   60  O2  UNL     1      -2.946  14.104   1.869  1.00  0.00    -0.595 OA
HETATM   61  O3  UNL     1      -3.524  15.744   0.148  1.00  0.00    -0.595 OA
ENDBRANCH  13  58
BRANCH  32  62
HETATM   62  C32 UNL     1       2.291  18.252   7.656  1.00  0.00     0.172 C 
BRANCH  62  63
HETATM   63  O6  UNL     1       3.296  17.753   6.772  1.00  0.00    -0.400 OA
HETATM   64  H34 UNL     1       2.838  17.390   5.994  1.00  0.00     0.209 HD
ENDBRANCH  62  63
ENDBRANCH  32  62
BRANCH  26  65
HETATM   65  O5  UNL     1      -4.996  21.701   8.149  1.00  0.00    -0.361 OA
HETATM   66  H27 UNL     1      -4.631  22.172   8.916  1.00  0.00     0.217 HD
ENDBRANCH  26  65
TORSDOF 9
ENDMDL
MODEL 9
REMARK minimizedAffinity -6.71080303
REMARK CNNscore 0.0785099566
REMARK CNNaffinity 6.13871002
REMARK  9 active torsions:
REMARK  status: ('A' for Active; 'I' for Inactive)
REMARK    1  A    between atoms: C13_13  and  S1_14 
REMARK    2  A    between atoms: C25_30  and  O5_31 
REMARK    3  A    between atoms: C31_37  and  C32_38 
REMARK    4  A    between atoms: C32_38  and  O6_39 
REMARK    5  A    between atoms: C40_47  and  C41_48 
REMARK    6  A    between atoms: C40_47  and  N1_52 
REMARK    7  A    between atoms: C41_48  and  C42_49 
REMARK    8  A    between atoms: C42_49  and  C43_50 
REMARK    9  A    between atoms: C43_50  and  O7_51 
REMARK       I    between atoms: C44_54  and  N2_55 
REMARK       I    between atoms: C44_54  and  N3_56 
ROOT
HETATM    1  C1  UNL     1      -5.091  17.441   4.656  1.00  0.00     0.010 C 
HETATM    2  C2  UNL     1      -6.231  16.687   3.980  1.00  0.00    -0.010 C 
HETATM    3  C3  UNL     1      -6.131  16.802   2.418  1.00  0.00     0.009 C 
HETATM    4  C4  UNL     1      -7.488  16.773   1.658  1.00  0.00     0.039 C 
HETATM    5  C5  UNL     1      -8.487  15.883   2.350  1.00  0.00    -0.049 C 
HETATM    6  C6  UNL     1      -9.496  15.191   1.690  1.00  0.00     0.044 C 
HETATM    7  C7  UNL     1     -10.314  14.358   2.444  1.00  0.00     0.072 C 
HETATM    8  C8  UNL     1      -9.970  14.000   3.747  1.00  0.00     0.037 C 
HETATM    9  C9  UNL     1      -9.053  14.787   4.428  1.00  0.00     0.011 C 
HETATM   10  C10 UNL     1      -8.443  15.844   3.755  1.00  0.00    -0.047 C 
HETATM   11  C11 UNL     1      -7.683  17.001   4.412  1.00  0.00     0.024 C 
HETATM   12  C12 UNL     1      -8.049  17.233   5.895  1.00  0.00     0.033 C 
HETATM   13  C13 UNL     1      -8.331  18.672   6.414  1.00  0.00     0.139 C 
HETATM   14  C14 UNL     1      -9.654  18.863   7.229  1.00  0.00     0.038 C 
HETATM   15  C15 UNL     1      -9.557  18.398   8.684  1.00  0.00    -0.014 C 
HETATM   16  C16 UNL     1     -10.474  18.880   9.554  1.00  0.00    -0.050 C 
HETATM   17  C17 UNL     1     -11.598  19.706   8.953  1.00  0.00     0.042 C 
HETATM   18  C18 UNL     1     -12.227  18.794   7.879  1.00  0.00     0.001 C 
HETATM   19  C19 UNL     1     -12.743  17.444   8.518  1.00  0.00     0.038 C 
HETATM   20  C20 UNL     1     -12.885  17.365  10.061  1.00  0.00     0.130 C 
HETATM   21  O4  UNL     1     -11.564  17.138  10.562  1.00  0.00    -0.371 OA
HETATM   22  C21 UNL     1     -10.825  18.317  10.900  1.00  0.00     0.185 C 
HETATM   23  C22 UNL     1      -9.784  17.926  11.941  1.00  0.00    -0.006 A 
HETATM   24  C23 UNL     1      -8.464  18.397  11.891  1.00  0.00     0.014 A 
HETATM   25  C24 UNL     1      -7.554  18.065  12.899  1.00  0.00     0.037 A 
HETATM   26  C25 UNL     1      -7.956  17.274  13.970  1.00  0.00     0.067 A 
HETATM   27  C26 UNL     1      -9.264  16.811  14.069  1.00  0.00     0.057 A 
HETATM   28  C27 UNL     1     -10.180  17.143  13.068  1.00  0.00     0.029 A 
HETATM   29  C28 UNL     1     -11.541  16.675  13.174  1.00  0.00    -0.066 C 
HETATM   30  C29 UNL     1     -12.677  16.396  12.892  1.00  0.00    -0.101 C 
HETATM   31  C30 UNL     1     -13.943  16.231  12.146  1.00  0.00     0.103 C 
HETATM   32  C31 UNL     1     -13.748  16.178  10.587  1.00  0.00     0.049 C 
HETATM   33  C33 UNL     1     -11.157  18.673   6.666  1.00  0.00     0.030 C 
HETATM   34  C34 UNL     1     -11.537  17.710   5.527  1.00  0.00    -0.050 A 
HETATM   35  C35 UNL     1     -11.485  18.171   4.203  1.00  0.00     0.006 A 
HETATM   36  C36 UNL     1     -11.821  17.363   3.099  1.00  0.00     0.010 A 
HETATM   37  C37 UNL     1     -12.326  16.064   3.257  1.00  0.00    -0.000 A 
HETATM   38  C38 UNL     1     -12.440  15.617   4.581  1.00  0.00     0.138 A 
HETATM   39  C39 UNL     1     -11.999  16.399   5.673  1.00  0.00     0.133 A 
HETATM   40  C40 UNL     1     -12.549  15.096   2.033  1.00  0.00     0.169 C 
HETATM   41  O8  UNL     1     -11.560  13.988   2.016  1.00  0.00    -0.316 OA
HETATM   42 NA1  UNL     1     -10.732  16.738   6.059  1.00  0.00    -0.401 Na
ATOM     43  HA1 UNL     1      -9.893  17.100   6.513  1.00  0.00     0.154 HD
ENDROOT
BRANCH  40  44
HETATM   44  C41 UNL     1     -13.909  14.321   2.197  1.00  0.00     0.069 C 
BRANCH  44  45
HETATM   45  C42 UNL     1     -15.199  15.158   2.142  1.00  0.00     0.031 C 
BRANCH  45  46
HETATM   46  C43 UNL     1     -16.486  14.405   2.435  1.00  0.00     0.164 C 
BRANCH  46  47
HETATM   47  O7  UNL     1     -16.154  13.106   2.923  1.00  0.00    -0.401 OA
HETATM   48  H46 UNL     1     -16.993  12.616   2.984  1.00  0.00     0.209 HD
ENDBRANCH  46  47
ENDBRANCH  45  46
ENDBRANCH  44  45
ENDBRANCH  40  44
BRANCH  40  49
HETATM   49  N1  UNL     1     -12.601  15.806   0.732  1.00  0.00    -0.336 N 
HETATM   50  C44 UNL     1     -12.403  15.269  -0.405  1.00  0.00     0.124 C 
HETATM   51  N2  UNL     1     -12.459  16.041  -1.515  1.00  0.00    -0.279 NA
HETATM   52  N3  UNL     1     -12.122  13.999  -0.769  1.00  0.00    -0.279 NA
HETATM   53  H47 UNL     1     -11.685  15.881  -2.145  1.00  0.00     0.126 HD
HETATM   54  H48 UNL     1     -12.540  17.020  -1.259  1.00  0.00     0.126 HD
HETATM   55  H49 UNL     1     -12.606  13.749  -1.625  1.00  0.00     0.126 HD
HETATM   56  H50 UNL     1     -12.351  13.310  -0.058  1.00  0.00     0.126 HD
ATOM     57  H1  UNL     1     -12.812  16.804   0.750  1.00  0.00     0.165 HD
ENDBRANCH  40  49
BRANCH  13  58
HETATM   58  S1  UNL     1      -8.025  20.107   5.351  1.00  0.00     0.106 S 
HETATM   59  O1  UNL     1      -6.583  20.306   5.400  1.00  0.00    -0.595 OA
HETATM   60  O2  UNL     1      -8.543  19.734   4.041  1.00  0.00    -0.595 OA
HETATM   61  O3  UNL     1      -8.774  21.188   5.995  1.00  0.00    -0.595 OA
ENDBRANCH  13  58
BRANCH  32  62
HETATM   62  C32 UNL     1     -13.188  14.808  10.175  1.00  0.00     0.172 C 
BRANCH  62  63
HETATM   63  O6  UNL     1     -12.504  14.211  11.278  1.00  0.00    -0.400 OA
HETATM   64  H34 UNL     1     -13.183  13.898  11.900  1.00  0.00     0.209 HD
ENDBRANCH  62  63
ENDBRANCH  32  62
BRANCH  26  65
HETATM   65  O5  UNL     1      -7.027  16.979  14.925  1.00  0.00    -0.361 OA
HETATM   66  H27 UNL     1      -7.443  16.407  15.590  1.00  0.00     0.217 HD
ENDBRANCH  26  65
TORSDOF 9
ENDMDL
