MODEL 1
REMARK minimizedAffinity -6.76424837
REMARK CNNscore 0.630156457
REMARK CNNaffinity 6.62170935
REMARK  11 active torsions:
REMARK  status: ('A' for Active; 'I' for Inactive)
REMARK    1  A    between atoms: C2_2  and  C3_3 
REMARK    2  A    between atoms: C2_2  and  C4_5 
REMARK    3  A    between atoms: C3_3  and  O1_4 
REMARK    4  A    between atoms: C13_14  and  C14_15 
REMARK    5  A    between atoms: C14_15  and  C16_17 
REMARK    6  A    between atoms: C16_17  and  C17_18 
REMARK    7  A    between atoms: C17_18  and  C18_19 
REMARK    8  A    between atoms: C27_28  and  C28_29 
REMARK    9  A    between atoms: C28_29  and  C29_30 
REMARK   10  A    between atoms: C29_30  and  C30_31 
REMARK   11  A    between atoms: C30_31  and  O3_33 
ROOT
HETATM    1  C4  UNL     1       4.897  12.014  21.019  1.00  0.00     0.025 C 
HETATM    2  C5  UNL     1       5.088  12.411  19.545  1.00  0.00     0.010 C 
HETATM    3  C6  UNL     1       4.152  11.630  18.638  1.00  0.00     0.007 C 
HETATM    4  C7  UNL     1       2.712  12.101  18.871  1.00  0.00     0.004 C 
HETATM    5  C8  UNL     1       2.287  11.893  20.349  1.00  0.00    -0.027 A 
HETATM    6  C9  UNL     1       0.994  11.086  20.589  1.00  0.00     0.011 C 
HETATM    7  C10 UNL     1      -0.138  11.182  19.551  1.00  0.00     0.011 C 
HETATM    8  C11 UNL     1       0.238  11.935  18.273  1.00  0.00    -0.032 C 
HETATM    9  C12 UNL     1       0.089  13.451  18.561  1.00  0.00     0.016 C 
HETATM   10  C13 UNL     1      -0.577  11.533  17.003  1.00  0.00    -0.002 C 
HETATM   11  C22 UNL     1       0.384  11.825  15.825  1.00  0.00     0.006 C 
HETATM   12  C23 UNL     1       1.773  12.083  16.439  1.00  0.00     0.011 C 
HETATM   13  C24 UNL     1       1.693  11.503  17.865  1.00  0.00    -0.032 C 
HETATM   14  C25 UNL     1       1.912   9.961  17.735  1.00  0.00     0.016 C 
HETATM   15  C26 UNL     1       2.492  13.072  21.281  1.00  0.00     0.022 A 
HETATM   16  C27 UNL     1       3.410  11.890  21.458  1.00  0.00    -0.024 A 
ENDROOT
BRANCH  10  17
HETATM   17  C14 UNL     1      -2.074  11.918  16.826  1.00  0.00    -0.014 C 
HETATM   18  C15 UNL     1      -2.896  11.292  17.973  1.00  0.00     0.010 C 
BRANCH  17  19
HETATM   19  C16 UNL     1      -2.827  11.693  15.493  1.00  0.00     0.008 C 
BRANCH  19  20
HETATM   20  C17 UNL     1      -2.914  10.265  14.952  1.00  0.00     0.028 C 
BRANCH  20  21
HETATM   21  C18 UNL     1      -4.290   9.693  15.169  1.00  0.00    -0.025 C 
HETATM   22  C19 UNL     1      -4.969   8.844  14.370  1.00  0.00    -0.091 C 
HETATM   23  C20 UNL     1      -6.359   8.394  14.738  1.00  0.00     0.042 C 
HETATM   24  C21 UNL     1      -4.450   8.256  13.088  1.00  0.00     0.042 C 
ENDBRANCH  20  21
ENDBRANCH  19  20
ENDBRANCH  17  19
ENDBRANCH  10  17
BRANCH  16  25
HETATM   25  C28 UNL     1       3.202  10.928  22.647  1.00  0.00     0.021 C 
BRANCH  25  26
HETATM   26  C29 UNL     1       3.574   9.468  22.419  1.00  0.00     0.111 C 
BRANCH  26  27
HETATM   27  C30 UNL     1       2.504   8.522  22.879  1.00  0.00     0.139 C 
HETATM   28  O2  UNL     1       1.901   7.708  22.200  1.00  0.00    -0.650 OA
BRANCH  27  29
HETATM   29  O3  UNL     1       2.268   8.620  24.205  1.00  0.00    -0.776 OA
HETATM   30  H48 UNL     1       1.540   7.977  24.352  1.00  0.00     0.167 HD
ENDBRANCH  27  29
ENDBRANCH  26  27
ENDBRANCH  25  26
ENDBRANCH  16  25
BRANCH   1  31
HETATM   31  C2  UNL     1       5.829  12.859  21.898  1.00  0.00    -0.061 C 
HETATM   32  C1  UNL     1       6.399  12.319  22.995  1.00  0.00     0.017 C 
BRANCH  31  33
HETATM   33  C3  UNL     1       6.205  14.259  21.476  1.00  0.00     0.198 C 
BRANCH  33  34
HETATM   34  O1  UNL     1       7.590  14.358  21.206  1.00  0.00    -0.397 OA
HETATM   35  H5  UNL     1       7.828  13.609  20.629  1.00  0.00     0.209 HD
ENDBRANCH  33  34
ENDBRANCH  31  33
ENDBRANCH   1  31
TORSDOF 11
ENDMDL
MODEL 2
REMARK minimizedAffinity -6.77047729
REMARK CNNscore 0.560004354
REMARK CNNaffinity 6.85094213
REMARK  11 active torsions:
REMARK  status: ('A' for Active; 'I' for Inactive)
REMARK    1  A    between atoms: C2_2  and  C3_3 
REMARK    2  A    between atoms: C2_2  and  C4_5 
REMARK    3  A    between atoms: C3_3  and  O1_4 
REMARK    4  A    between atoms: C13_14  and  C14_15 
REMARK    5  A    between atoms: C14_15  and  C16_17 
REMARK    6  A    between atoms: C16_17  and  C17_18 
REMARK    7  A    between atoms: C17_18  and  C18_19 
REMARK    8  A    between atoms: C27_28  and  C28_29 
REMARK    9  A    between atoms: C28_29  and  C29_30 
REMARK   10  A    between atoms: C29_30  and  C30_31 
REMARK   11  A    between atoms: C30_31  and  O3_33 
ROOT
HETATM    1  C4  UNL     1      -2.889  11.288  17.002  1.00  0.00     0.025 C 
HETATM    2  C5  UNL     1      -3.601   9.940  17.207  1.00  0.00     0.010 C 
HETATM    3  C6  UNL     1      -3.883   9.258  15.879  1.00  0.00     0.007 C 
HETATM    4  C7  UNL     1      -2.562   8.787  15.262  1.00  0.00     0.004 C 
HETATM    5  C8  UNL     1      -1.596   9.979  15.031  1.00  0.00    -0.027 A 
HETATM    6  C9  UNL     1      -1.039  10.151  13.602  1.00  0.00     0.011 C 
HETATM    7  C10 UNL     1      -0.803   8.893  12.747  1.00  0.00     0.011 C 
HETATM    8  C11 UNL     1      -1.343   7.600  13.362  1.00  0.00    -0.032 C 
HETATM    9  C12 UNL     1      -0.292   7.091  14.383  1.00  0.00     0.016 C 
HETATM   10  C13 UNL     1      -1.702   6.478  12.336  1.00  0.00    -0.002 C 
HETATM   11  C22 UNL     1      -2.815   5.663  13.037  1.00  0.00     0.006 C 
HETATM   12  C23 UNL     1      -3.264   6.484  14.261  1.00  0.00     0.011 C 
HETATM   13  C24 UNL     1      -2.747   7.912  13.993  1.00  0.00    -0.032 C 
HETATM   14  C25 UNL     1      -3.772   8.585  13.024  1.00  0.00     0.016 C 
HETATM   15  C26 UNL     1      -0.609  10.271  16.145  1.00  0.00     0.022 A 
HETATM   16  C27 UNL     1      -1.739  11.250  15.956  1.00  0.00    -0.024 A 
ENDROOT
BRANCH  10  17
HETATM   17  C14 UNL     1      -0.608   5.688  11.559  1.00  0.00    -0.014 C 
HETATM   18  C15 UNL     1      -0.139   4.496  12.419  1.00  0.00     0.010 C 
BRANCH  17  19
HETATM   19  C16 UNL     1       0.634   6.386  10.955  1.00  0.00     0.008 C 
BRANCH  19  20
HETATM   20  C17 UNL     1       0.410   7.633  10.099  1.00  0.00     0.028 C 
BRANCH  20  21
HETATM   21  C18 UNL     1       0.677   7.341   8.646  1.00  0.00    -0.025 C 
HETATM   22  C19 UNL     1       1.819   7.542   7.957  1.00  0.00    -0.091 C 
HETATM   23  C20 UNL     1       1.895   7.212   6.489  1.00  0.00     0.042 C 
HETATM   24  C21 UNL     1       3.099   8.078   8.535  1.00  0.00     0.042 C 
ENDBRANCH  20  21
ENDBRANCH  19  20
ENDBRANCH  17  19
ENDBRANCH  10  17
BRANCH  16  25
HETATM   25  C28 UNL     1      -1.467  12.618  15.295  1.00  0.00     0.021 C 
BRANCH  25  26
HETATM   26  C29 UNL     1      -2.673  13.521  15.069  1.00  0.00     0.111 C 
BRANCH  26  27
HETATM   27  C30 UNL     1      -2.547  14.354  13.828  1.00  0.00     0.139 C 
HETATM   28  O2  UNL     1      -1.558  14.481  13.126  1.00  0.00    -0.650 OA
BRANCH  27  29
HETATM   29  O3  UNL     1      -3.705  14.966  13.500  1.00  0.00    -0.776 OA
HETATM   30  H48 UNL     1      -3.467  15.486  12.703  1.00  0.00     0.167 HD
ENDBRANCH  27  29
ENDBRANCH  26  27
ENDBRANCH  25  26
ENDBRANCH  16  25
BRANCH   1  31
HETATM   31  C2  UNL     1      -2.585  11.917  18.368  1.00  0.00    -0.061 C 
HETATM   32  C1  UNL     1      -1.375  11.747  18.939  1.00  0.00     0.017 C 
BRANCH  31  33
HETATM   33  C3  UNL     1      -3.597  12.824  19.026  1.00  0.00     0.198 C 
BRANCH  33  34
HETATM   34  O1  UNL     1      -3.492  14.148  18.538  1.00  0.00    -0.397 OA
HETATM   35  H5  UNL     1      -3.463  14.098  17.564  1.00  0.00     0.209 HD
ENDBRANCH  33  34
ENDBRANCH  31  33
ENDBRANCH   1  31
TORSDOF 11
ENDMDL
MODEL 3
REMARK minimizedAffinity -6.41704464
REMARK CNNscore 0.297808081
REMARK CNNaffinity 6.07684183
REMARK  11 active torsions:
REMARK  status: ('A' for Active; 'I' for Inactive)
REMARK    1  A    between atoms: C2_2  and  C3_3 
REMARK    2  A    between atoms: C2_2  and  C4_5 
REMARK    3  A    between atoms: C3_3  and  O1_4 
REMARK    4  A    between atoms: C13_14  and  C14_15 
REMARK    5  A    between atoms: C14_15  and  C16_17 
REMARK    6  A    between atoms: C16_17  and  C17_18 
REMARK    7  A    between atoms: C17_18  and  C18_19 
REMARK    8  A    between atoms: C27_28  and  C28_29 
REMARK    9  A    between atoms: C28_29  and  C29_30 
REMARK   10  A    between atoms: C29_30  and  C30_31 
REMARK   11  A    between atoms: C30_31  and  O3_33 
ROOT
HETATM    1  C4  UNL     1       3.970  10.702  22.584  1.00  0.00     0.025 C 
HETATM    2  C5  UNL     1       5.280  10.771  23.387  1.00  0.00     0.010 C 
HETATM    3  C6  UNL     1       6.260  11.749  22.760  1.00  0.00     0.007 C 
HETATM    4  C7  UNL     1       5.738  13.178  22.950  1.00  0.00     0.004 C 
HETATM    5  C8  UNL     1       4.344  13.356  22.294  1.00  0.00    -0.027 A 
HETATM    6  C9  UNL     1       4.198  14.514  21.284  1.00  0.00     0.011 C 
HETATM    7  C10 UNL     1       5.029  15.791  21.502  1.00  0.00     0.011 C 
HETATM    8  C11 UNL     1       6.072  15.684  22.617  1.00  0.00    -0.032 C 
HETATM    9  C12 UNL     1       5.347  15.938  23.963  1.00  0.00     0.016 C 
HETATM   10  C13 UNL     1       7.302  16.635  22.466  1.00  0.00    -0.002 C 
HETATM   11  C22 UNL     1       8.449  15.892  23.194  1.00  0.00     0.006 C 
HETATM   12  C23 UNL     1       7.950  14.460  23.463  1.00  0.00     0.011 C 
HETATM   13  C24 UNL     1       6.750  14.271  22.514  1.00  0.00    -0.032 C 
HETATM   14  C25 UNL     1       7.340  13.922  21.109  1.00  0.00     0.016 C 
HETATM   15  C26 UNL     1       3.143  13.133  23.193  1.00  0.00     0.022 A 
HETATM   16  C27 UNL     1       3.417  12.087  22.144  1.00  0.00    -0.024 A 
ENDROOT
BRANCH  10  17
HETATM   17  C14 UNL     1       7.189  18.173  22.677  1.00  0.00    -0.014 C 
HETATM   18  C15 UNL     1       8.521  18.838  22.270  1.00  0.00     0.010 C 
BRANCH  17  19
HETATM   19  C16 UNL     1       6.716  18.783  24.018  1.00  0.00     0.008 C 
BRANCH  19  20
HETATM   20  C17 UNL     1       7.767  19.040  25.098  1.00  0.00     0.028 C 
BRANCH  20  21
HETATM   21  C18 UNL     1       7.313  18.497  26.428  1.00  0.00    -0.025 C 
HETATM   22  C19 UNL     1       7.753  17.394  27.065  1.00  0.00    -0.091 C 
HETATM   23  C20 UNL     1       7.158  16.986  28.389  1.00  0.00     0.042 C 
HETATM   24  C21 UNL     1       8.845  16.484  26.574  1.00  0.00     0.042 C 
ENDBRANCH  20  21
ENDBRANCH  19  20
ENDBRANCH  17  19
ENDBRANCH  10  17
BRANCH  16  25
HETATM   25  C28 UNL     1       2.539  12.021  20.877  1.00  0.00     0.021 C 
BRANCH  25  26
HETATM   26  C29 UNL     1       3.118  11.278  19.680  1.00  0.00     0.111 C 
BRANCH  26  27
HETATM   27  C30 UNL     1       2.113  10.384  19.014  1.00  0.00     0.139 C 
HETATM   28  O2  UNL     1       2.304   9.641  18.067  1.00  0.00    -0.650 OA
BRANCH  27  29
HETATM   29  O3  UNL     1       0.903  10.440  19.610  1.00  0.00    -0.776 OA
HETATM   30  H48 UNL     1       0.354   9.840  19.060  1.00  0.00     0.167 HD
ENDBRANCH  27  29
ENDBRANCH  26  27
ENDBRANCH  25  26
ENDBRANCH  16  25
BRANCH   1  31
HETATM   31  C2  UNL     1       2.998   9.738  23.278  1.00  0.00    -0.061 C 
HETATM   32  C1  UNL     1       2.563   8.635  22.636  1.00  0.00     0.017 C 
BRANCH  31  33
HETATM   33  C3  UNL     1       2.617   9.957  24.723  1.00  0.00     0.198 C 
BRANCH  33  34
HETATM   34  O1  UNL     1       1.757   8.933  25.186  1.00  0.00    -0.397 OA
HETATM   35  H5  UNL     1       2.151   8.081  24.924  1.00  0.00     0.209 HD
ENDBRANCH  33  34
ENDBRANCH  31  33
ENDBRANCH   1  31
TORSDOF 11
ENDMDL
MODEL 4
REMARK minimizedAffinity -8.24520588
REMARK CNNscore 0.269669294
REMARK CNNaffinity 6.77824593
REMARK  11 active torsions:
REMARK  status: ('A' for Active; 'I' for Inactive)
REMARK    1  A    between atoms: C2_2  and  C3_3 
REMARK    2  A    between atoms: C2_2  and  C4_5 
REMARK    3  A    between atoms: C3_3  and  O1_4 
REMARK    4  A    between atoms: C13_14  and  C14_15 
REMARK    5  A    between atoms: C14_15  and  C16_17 
REMARK    6  A    between atoms: C16_17  and  C17_18 
REMARK    7  A    between atoms: C17_18  and  C18_19 
REMARK    8  A    between atoms: C27_28  and  C28_29 
REMARK    9  A    between atoms: C28_29  and  C29_30 
REMARK   10  A    between atoms: C29_30  and  C30_31 
REMARK   11  A    between atoms: C30_31  and  O3_33 
ROOT
HETATM    1  C4  UNL     1       1.450   6.206  11.562  1.00  0.00     0.025 C 
HETATM    2  C5  UNL     1       0.292   5.341  11.033  1.00  0.00     0.010 C 
HETATM    3  C6  UNL     1      -0.730   5.063  12.122  1.00  0.00     0.007 C 
HETATM    4  C7  UNL     1      -1.477   6.358  12.457  1.00  0.00     0.004 C 
HETATM    5  C8  UNL     1      -0.499   7.460  12.941  1.00  0.00    -0.027 A 
HETATM    6  C9  UNL     1      -0.813   8.114  14.303  1.00  0.00     0.011 C 
HETATM    7  C10 UNL     1      -2.285   8.261  14.728  1.00  0.00     0.011 C 
HETATM    8  C11 UNL     1      -3.282   7.549  13.810  1.00  0.00    -0.032 C 
HETATM    9  C12 UNL     1      -3.549   8.477  12.598  1.00  0.00     0.016 C 
HETATM   10  C13 UNL     1      -4.624   7.130  14.490  1.00  0.00    -0.002 C 
HETATM   11  C22 UNL     1      -5.092   5.896  13.681  1.00  0.00     0.006 C 
HETATM   12  C23 UNL     1      -3.905   5.469  12.796  1.00  0.00     0.011 C 
HETATM   13  C24 UNL     1      -2.674   6.153  13.424  1.00  0.00    -0.032 C 
HETATM   14  C25 UNL     1      -2.236   5.265  14.634  1.00  0.00     0.016 C 
HETATM   15  C26 UNL     1       0.028   8.407  11.880  1.00  0.00     0.022 A 
HETATM   16  C27 UNL     1       0.999   7.403  12.445  1.00  0.00    -0.024 A 
ENDROOT
BRANCH  10  17
HETATM   17  C14 UNL     1      -5.702   8.174  14.902  1.00  0.00    -0.014 C 
HETATM   18  C15 UNL     1      -5.001   9.440  15.439  1.00  0.00     0.010 C 
BRANCH  17  19
HETATM   19  C16 UNL     1      -6.872   7.814  15.849  1.00  0.00     0.008 C 
BRANCH  19  20
HETATM   20  C17 UNL     1      -7.694   6.565  15.529  1.00  0.00     0.028 C 
BRANCH  20  21
HETATM   21  C18 UNL     1      -9.025   6.938  14.930  1.00  0.00    -0.025 C 
HETATM   22  C19 UNL     1      -9.501   6.620  13.709  1.00  0.00    -0.091 C 
HETATM   23  C20 UNL     1     -10.857   7.108  13.266  1.00  0.00     0.042 C 
HETATM   24  C21 UNL     1      -8.790   5.771  12.693  1.00  0.00     0.042 C 
ENDBRANCH  20  21
ENDBRANCH  19  20
ENDBRANCH  17  19
ENDBRANCH  10  17
BRANCH  16  25
HETATM   25  C28 UNL     1       2.076   7.860  13.452  1.00  0.00     0.021 C 
BRANCH  25  26
HETATM   26  C29 UNL     1       1.581   8.498  14.743  1.00  0.00     0.111 C 
BRANCH  26  27
HETATM   27  C30 UNL     1       2.323   8.009  15.952  1.00  0.00     0.139 C 
HETATM   28  O2  UNL     1       2.351   8.524  17.056  1.00  0.00    -0.650 OA
BRANCH  27  29
HETATM   29  O3  UNL     1       2.976   6.850  15.718  1.00  0.00    -0.776 OA
HETATM   30  H48 UNL     1       3.430   6.672  16.570  1.00  0.00     0.167 HD
ENDBRANCH  27  29
ENDBRANCH  26  27
ENDBRANCH  25  26
ENDBRANCH  16  25
BRANCH   1  31
HETATM   31  C2  UNL     1       2.431   6.497  10.418  1.00  0.00    -0.061 C 
HETATM   32  C1  UNL     1       1.973   6.921   9.223  1.00  0.00     0.017 C 
BRANCH  31  33
HETATM   33  C3  UNL     1       3.920   6.422  10.661  1.00  0.00     0.198 C 
BRANCH  33  34
HETATM   34  O1  UNL     1       4.468   5.236  10.118  1.00  0.00    -0.397 OA
HETATM   35  H5  UNL     1       4.131   5.149   9.207  1.00  0.00     0.209 HD
ENDBRANCH  33  34
ENDBRANCH  31  33
ENDBRANCH   1  31
TORSDOF 11
ENDMDL
MODEL 5
REMARK minimizedAffinity -8.35497379
REMARK CNNscore 0.263052821
REMARK CNNaffinity 6.53590631
REMARK  11 active torsions:
REMARK  status: ('A' for Active; 'I' for Inactive)
REMARK    1  A    between atoms: C2_2  and  C3_3 
REMARK    2  A    between atoms: C2_2  and  C4_5 
REMARK    3  A    between atoms: C3_3  and  O1_4 
REMARK    4  A    between atoms: C13_14  and  C14_15 
REMARK    5  A    between atoms: C14_15  and  C16_17 
REMARK    6  A    between atoms: C16_17  and  C17_18 
REMARK    7  A    between atoms: C17_18  and  C18_19 
REMARK    8  A    between atoms: C27_28  and  C28_29 
REMARK    9  A    between atoms: C28_29  and  C29_30 
REMARK   10  A    between atoms: C29_30  and  C30_31 
REMARK   11  A    between atoms: C30_31  and  O3_33 
ROOT
HETATM    1  C4  UNL     1       0.310   7.244  11.949  1.00  0.00     0.025 C 
HETATM    2  C5  UNL     1      -0.583   6.161  11.318  1.00  0.00     0.010 C 
HETATM    3  C6  UNL     1      -1.513   5.544  12.348  1.00  0.00     0.007 C 
HETATM    4  C7  UNL     1      -2.570   6.576  12.759  1.00  0.00     0.004 C 
HETATM    5  C8  UNL     1      -1.909   7.845  13.358  1.00  0.00    -0.027 A 
HETATM    6  C9  UNL     1      -2.395   8.283  14.756  1.00  0.00     0.011 C 
HETATM    7  C10 UNL     1      -3.861   8.016  15.143  1.00  0.00     0.011 C 
HETATM    8  C11 UNL     1      -4.633   7.154  14.142  1.00  0.00    -0.032 C 
HETATM    9  C12 UNL     1      -5.114   8.082  12.997  1.00  0.00     0.016 C 
HETATM   10  C13 UNL     1      -5.832   6.354  14.743  1.00  0.00    -0.002 C 
HETATM   11  C22 UNL     1      -5.961   5.114  13.827  1.00  0.00     0.006 C 
HETATM   12  C23 UNL     1      -4.695   5.077  12.949  1.00  0.00     0.011 C 
HETATM   13  C24 UNL     1      -3.685   5.994  13.668  1.00  0.00    -0.032 C 
HETATM   14  C25 UNL     1      -3.050   5.148  14.818  1.00  0.00     0.016 C 
HETATM   15  C26 UNL     1      -1.629   8.979  12.391  1.00  0.00     0.022 A 
HETATM   16  C27 UNL     1      -0.441   8.210  12.908  1.00  0.00    -0.024 A 
ENDROOT
BRANCH  10  17
HETATM   17  C14 UNL     1      -7.145   7.053  15.201  1.00  0.00    -0.014 C 
HETATM   18  C15 UNL     1      -7.252   6.972  16.738  1.00  0.00     0.010 C 
BRANCH  17  19
HETATM   19  C16 UNL     1      -8.520   6.697  14.587  1.00  0.00     0.008 C 
BRANCH  19  20
HETATM   20  C17 UNL     1      -9.608   7.772  14.594  1.00  0.00     0.028 C 
BRANCH  20  21
HETATM   21  C18 UNL     1     -10.937   7.193  14.186  1.00  0.00    -0.025 C 
HETATM   22  C19 UNL     1     -11.859   7.733  13.364  1.00  0.00    -0.091 C 
HETATM   23  C20 UNL     1     -13.155   7.015  13.090  1.00  0.00     0.042 C 
HETATM   24  C21 UNL     1     -11.716   9.044  12.642  1.00  0.00     0.042 C 
ENDBRANCH  20  21
ENDBRANCH  19  20
ENDBRANCH  17  19
ENDBRANCH  10  17
BRANCH  16  25
HETATM   25  C28 UNL     1       0.473   8.839  13.981  1.00  0.00     0.021 C 
BRANCH  25  26
HETATM   26  C29 UNL     1       1.587   7.958  14.533  1.00  0.00     0.111 C 
BRANCH  26  27
HETATM   27  C30 UNL     1       1.477   7.750  16.015  1.00  0.00     0.139 C 
HETATM   28  O2  UNL     1       2.152   8.277  16.883  1.00  0.00    -0.650 OA
BRANCH  27  29
HETATM   29  O3  UNL     1       0.479   6.902  16.341  1.00  0.00    -0.776 OA
HETATM   30  H48 UNL     1       0.546   6.841  17.319  1.00  0.00     0.167 HD
ENDBRANCH  27  29
ENDBRANCH  26  27
ENDBRANCH  25  26
ENDBRANCH  16  25
BRANCH   1  31
HETATM   31  C2  UNL     1       1.197   7.868  10.864  1.00  0.00    -0.061 C 
HETATM   32  C1  UNL     1       2.451   8.265  11.160  1.00  0.00     0.017 C 
BRANCH  31  33
HETATM   33  C3  UNL     1       0.714   7.932   9.435  1.00  0.00     0.198 C 
BRANCH  33  34
HETATM   34  O1  UNL     1      -0.143   9.040   9.233  1.00  0.00    -0.397 OA
HETATM   35  H5  UNL     1       0.294   9.820   9.621  1.00  0.00     0.209 HD
ENDBRANCH  33  34
ENDBRANCH  31  33
ENDBRANCH   1  31
TORSDOF 11
ENDMDL
MODEL 6
REMARK minimizedAffinity -8.41261292
REMARK CNNscore 0.26064387
REMARK CNNaffinity 6.58577204
REMARK  11 active torsions:
REMARK  status: ('A' for Active; 'I' for Inactive)
REMARK    1  A    between atoms: C2_2  and  C3_3 
REMARK    2  A    between atoms: C2_2  and  C4_5 
REMARK    3  A    between atoms: C3_3  and  O1_4 
REMARK    4  A    between atoms: C13_14  and  C14_15 
REMARK    5  A    between atoms: C14_15  and  C16_17 
REMARK    6  A    between atoms: C16_17  and  C17_18 
REMARK    7  A    between atoms: C17_18  and  C18_19 
REMARK    8  A    between atoms: C27_28  and  C28_29 
REMARK    9  A    between atoms: C28_29  and  C29_30 
REMARK   10  A    between atoms: C29_30  and  C30_31 
REMARK   11  A    between atoms: C30_31  and  O3_33 
ROOT
HETATM    1  C4  UNL     1      -0.453   6.642  11.783  1.00  0.00     0.025 C 
HETATM    2  C5  UNL     1      -0.610   7.960  12.561  1.00  0.00     0.010 C 
HETATM    3  C6  UNL     1      -2.069   8.372  12.659  1.00  0.00     0.007 C 
HETATM    4  C7  UNL     1      -2.806   7.405  13.592  1.00  0.00     0.004 C 
HETATM    5  C8  UNL     1      -2.718   5.947  13.070  1.00  0.00    -0.027 A 
HETATM    6  C9  UNL     1      -4.054   5.197  12.886  1.00  0.00     0.011 C 
HETATM    7  C10 UNL     1      -5.219   5.522  13.837  1.00  0.00     0.011 C 
HETATM    8  C11 UNL     1      -4.969   6.719  14.757  1.00  0.00    -0.032 C 
HETATM    9  C12 UNL     1      -4.135   6.218  15.964  1.00  0.00     0.016 C 
HETATM   10  C13 UNL     1      -6.255   7.459  15.245  1.00  0.00    -0.002 C 
HETATM   11  C22 UNL     1      -5.787   8.914  15.493  1.00  0.00     0.006 C 
HETATM   12  C23 UNL     1      -4.382   9.040  14.874  1.00  0.00     0.011 C 
HETATM   13  C24 UNL     1      -4.261   7.840  13.913  1.00  0.00    -0.032 C 
HETATM   14  C25 UNL     1      -5.001   8.242  12.597  1.00  0.00     0.016 C 
HETATM   15  C26 UNL     1      -1.578   5.105  13.610  1.00  0.00     0.022 A 
HETATM   16  C27 UNL     1      -1.484   5.545  12.172  1.00  0.00    -0.024 A 
ENDROOT
BRANCH  10  17
HETATM   17  C14 UNL     1      -7.228   6.827  16.282  1.00  0.00    -0.014 C 
HETATM   18  C15 UNL     1      -7.469   5.348  15.913  1.00  0.00     0.010 C 
BRANCH  17  19
HETATM   19  C16 UNL     1      -8.586   7.479  16.636  1.00  0.00     0.008 C 
BRANCH  19  20
HETATM   20  C17 UNL     1      -9.285   8.308  15.558  1.00  0.00     0.028 C 
BRANCH  20  21
HETATM   21  C18 UNL     1     -10.370   7.509  14.886  1.00  0.00    -0.025 C 
HETATM   22  C19 UNL     1     -11.325   7.953  14.044  1.00  0.00    -0.091 C 
HETATM   23  C20 UNL     1     -12.353   7.004  13.484  1.00  0.00     0.042 C 
HETATM   24  C21 UNL     1     -11.471   9.371  13.567  1.00  0.00     0.042 C 
ENDBRANCH  20  21
ENDBRANCH  19  20
ENDBRANCH  17  19
ENDBRANCH  10  17
BRANCH  16  25
HETATM   25  C28 UNL     1      -1.755   4.532  11.040  1.00  0.00     0.021 C 
BRANCH  25  26
HETATM   26  C29 UNL     1      -2.137   3.119  11.461  1.00  0.00     0.111 C 
BRANCH  26  27
HETATM   27  C30 UNL     1      -1.102   2.102  11.079  1.00  0.00     0.139 C 
HETATM   28  O2  UNL     1       0.109   2.217  11.167  1.00  0.00    -0.650 OA
BRANCH  27  29
HETATM   29  O3  UNL     1      -1.652   0.954  10.631  1.00  0.00    -0.776 OA
HETATM   30  H48 UNL     1      -0.871   0.407  10.396  1.00  0.00     0.167 HD
ENDBRANCH  27  29
ENDBRANCH  26  27
ENDBRANCH  25  26
ENDBRANCH  16  25
BRANCH   1  31
HETATM   31  C2  UNL     1       1.029   6.245  11.749  1.00  0.00    -0.061 C 
HETATM   32  C1  UNL     1       1.794   6.384  12.851  1.00  0.00     0.017 C 
BRANCH  31  33
HETATM   33  C3  UNL     1       1.609   5.588  10.519  1.00  0.00     0.198 C 
BRANCH  33  34
HETATM   34  O1  UNL     1       2.022   4.263  10.793  1.00  0.00    -0.397 OA
HETATM   35  H5  UNL     1       1.292   3.822  11.266  1.00  0.00     0.209 HD
ENDBRANCH  33  34
ENDBRANCH  31  33
ENDBRANCH   1  31
TORSDOF 11
ENDMDL
MODEL 7
REMARK minimizedAffinity -7.57069588
REMARK CNNscore 0.256363302
REMARK CNNaffinity 6.84145164
REMARK  11 active torsions:
REMARK  status: ('A' for Active; 'I' for Inactive)
REMARK    1  A    between atoms: C2_2  and  C3_3 
REMARK    2  A    between atoms: C2_2  and  C4_5 
REMARK    3  A    between atoms: C3_3  and  O1_4 
REMARK    4  A    between atoms: C13_14  and  C14_15 
REMARK    5  A    between atoms: C14_15  and  C16_17 
REMARK    6  A    between atoms: C16_17  and  C17_18 
REMARK    7  A    between atoms: C17_18  and  C18_19 
REMARK    8  A    between atoms: C27_28  and  C28_29 
REMARK    9  A    between atoms: C28_29  and  C29_30 
REMARK   10  A    between atoms: C29_30  and  C30_31 
REMARK   11  A    between atoms: C30_31  and  O3_33 
ROOT
HETATM    1  C4  UNL     1      -3.044   3.957  12.518  1.00  0.00     0.025 C 
HETATM    2  C5  UNL     1      -4.339   3.733  11.718  1.00  0.00     0.010 C 
HETATM    3  C6  UNL     1      -5.558   3.760  12.625  1.00  0.00     0.007 C 
HETATM    4  C7  UNL     1      -5.781   5.191  13.129  1.00  0.00     0.004 C 
HETATM    5  C8  UNL     1      -4.547   5.708  13.913  1.00  0.00    -0.027 A 
HETATM    6  C9  UNL     1      -4.806   6.241  15.337  1.00  0.00     0.011 C 
HETATM    7  C10 UNL     1      -6.151   6.928  15.633  1.00  0.00     0.011 C 
HETATM    8  C11 UNL     1      -7.175   6.828  14.500  1.00  0.00    -0.032 C 
HETATM    9  C12 UNL     1      -6.846   7.939  13.470  1.00  0.00     0.016 C 
HETATM   10  C13 UNL     1      -8.669   6.918  14.948  1.00  0.00    -0.002 C 
HETATM   11  C22 UNL     1      -9.438   6.113  13.873  1.00  0.00     0.006 C 
HETATM   12  C23 UNL     1      -8.383   5.356  13.045  1.00  0.00     0.011 C 
HETATM   13  C24 UNL     1      -7.108   5.372  13.913  1.00  0.00    -0.032 C 
HETATM   14  C25 UNL     1      -7.268   4.228  14.965  1.00  0.00     0.016 C 
HETATM   15  C26 UNL     1      -3.518   6.484  13.113  1.00  0.00     0.022 A 
HETATM   16  C27 UNL     1      -3.131   5.101  13.567  1.00  0.00    -0.024 A 
ENDROOT
BRANCH  10  17
HETATM   17  C14 UNL     1      -9.304   8.249  15.446  1.00  0.00    -0.014 C 
HETATM   18  C15 UNL     1      -8.303   9.402  15.218  1.00  0.00     0.010 C 
BRANCH  17  19
HETATM   19  C16 UNL     1      -9.911   8.389  16.862  1.00  0.00     0.008 C 
BRANCH  19  20
HETATM   20  C17 UNL     1     -10.653   9.683  17.199  1.00  0.00     0.028 C 
BRANCH  20  21
HETATM   21  C18 UNL     1     -11.278   9.602  18.566  1.00  0.00    -0.025 C 
HETATM   22  C19 UNL     1     -11.292  10.547  19.528  1.00  0.00    -0.091 C 
HETATM   23  C20 UNL     1     -11.949  10.277  20.857  1.00  0.00     0.042 C 
HETATM   24  C21 UNL     1     -10.702  11.924  19.401  1.00  0.00     0.042 C 
ENDBRANCH  20  21
ENDBRANCH  19  20
ENDBRANCH  17  19
ENDBRANCH  10  17
BRANCH  16  25
HETATM   25  C28 UNL     1      -2.150   4.925  14.746  1.00  0.00     0.021 C 
BRANCH  25  26
HETATM   26  C29 UNL     1      -0.829   5.679  14.655  1.00  0.00     0.111 C 
BRANCH  26  27
HETATM   27  C30 UNL     1      -0.757   6.834  15.610  1.00  0.00     0.139 C 
HETATM   28  O2  UNL     1      -1.604   7.692  15.791  1.00  0.00    -0.650 OA
BRANCH  27  29
HETATM   29  O3  UNL     1       0.383   6.832  16.333  1.00  0.00    -0.776 OA
HETATM   30  H48 UNL     1       0.304   7.644  16.880  1.00  0.00     0.167 HD
ENDBRANCH  27  29
ENDBRANCH  26  27
ENDBRANCH  25  26
ENDBRANCH  16  25
BRANCH   1  31
HETATM   31  C2  UNL     1      -1.848   3.965  11.556  1.00  0.00    -0.061 C 
HETATM   32  C1  UNL     1      -1.265   5.131  11.209  1.00  0.00     0.017 C 
BRANCH  31  33
HETATM   33  C3  UNL     1      -1.244   2.663  11.087  1.00  0.00     0.198 C 
BRANCH  33  34
HETATM   34  O1  UNL     1       0.131   2.589  11.411  1.00  0.00    -0.397 OA
HETATM   35  H5  UNL     1       0.224   2.844  12.347  1.00  0.00     0.209 HD
ENDBRANCH  33  34
ENDBRANCH  31  33
ENDBRANCH   1  31
TORSDOF 11
ENDMDL
MODEL 8
REMARK minimizedAffinity -7.16309929
REMARK CNNscore 0.242992014
REMARK CNNaffinity 6.58820105
REMARK  11 active torsions:
REMARK  status: ('A' for Active; 'I' for Inactive)
REMARK    1  A    between atoms: C2_2  and  C3_3 
REMARK    2  A    between atoms: C2_2  and  C4_5 
REMARK    3  A    between atoms: C3_3  and  O1_4 
REMARK    4  A    between atoms: C13_14  and  C14_15 
REMARK    5  A    between atoms: C14_15  and  C16_17 
REMARK    6  A    between atoms: C16_17  and  C17_18 
REMARK    7  A    between atoms: C17_18  and  C18_19 
REMARK    8  A    between atoms: C27_28  and  C28_29 
REMARK    9  A    between atoms: C28_29  and  C29_30 
REMARK   10  A    between atoms: C29_30  and  C30_31 
REMARK   11  A    between atoms: C30_31  and  O3_33 
ROOT
HETATM    1  C4  UNL     1       2.294   7.236  11.724  1.00  0.00     0.025 C 
HETATM    2  C5  UNL     1       2.266   7.086  13.255  1.00  0.00     0.010 C 
HETATM    3  C6  UNL     1       1.342   8.111  13.892  1.00  0.00     0.007 C 
HETATM    4  C7  UNL     1      -0.111   7.765  13.549  1.00  0.00     0.004 C 
HETATM    5  C8  UNL     1      -0.336   7.755  12.014  1.00  0.00    -0.027 A 
HETATM    6  C9  UNL     1      -1.479   8.641  11.477  1.00  0.00     0.011 C 
HETATM    7  C10 UNL     1      -2.724   8.853  12.357  1.00  0.00     0.011 C 
HETATM    8  C11 UNL     1      -2.594   8.299  13.778  1.00  0.00    -0.032 C 
HETATM    9  C12 UNL     1      -2.904   6.781  13.721  1.00  0.00     0.016 C 
HETATM   10  C13 UNL     1      -3.488   9.004  14.847  1.00  0.00    -0.002 C 
HETATM   11  C22 UNL     1      -2.712   8.821  16.174  1.00  0.00     0.006 C 
HETATM   12  C23 UNL     1      -1.308   8.310  15.800  1.00  0.00     0.011 C 
HETATM   13  C24 UNL     1      -1.151   8.636  14.301  1.00  0.00    -0.032 C 
HETATM   14  C25 UNL     1      -0.751  10.144  14.209  1.00  0.00     0.016 C 
HETATM   15  C26 UNL     1      -0.181   6.415  11.319  1.00  0.00     0.022 A 
HETATM   16  C27 UNL     1       0.896   7.441  11.077  1.00  0.00    -0.024 A 
ENDROOT
BRANCH  10  17
HETATM   17  C14 UNL     1      -5.034   8.819  14.883  1.00  0.00    -0.014 C 
HETATM   18  C15 UNL     1      -5.435   8.183  16.231  1.00  0.00     0.010 C 
BRANCH  17  19
HETATM   19  C16 UNL     1      -5.800   8.103  13.746  1.00  0.00     0.008 C 
BRANCH  19  20
HETATM   20  C17 UNL     1      -6.880   7.093  14.136  1.00  0.00     0.028 C 
BRANCH  20  21
HETATM   21  C18 UNL     1      -6.477   5.697  13.740  1.00  0.00    -0.025 C 
HETATM   22  C19 UNL     1      -7.125   4.851  12.913  1.00  0.00    -0.091 C 
HETATM   23  C20 UNL     1      -6.581   3.470  12.652  1.00  0.00     0.042 C 
HETATM   24  C21 UNL     1      -8.395   5.163  12.172  1.00  0.00     0.042 C 
ENDBRANCH  20  21
ENDBRANCH  19  20
ENDBRANCH  17  19
ENDBRANCH  10  17
BRANCH  16  25
HETATM   25  C28 UNL     1       0.949   8.196   9.732  1.00  0.00     0.021 C 
BRANCH  25  26
HETATM   26  C29 UNL     1       2.283   8.192   8.996  1.00  0.00     0.111 C 
BRANCH  26  27
HETATM   27  C30 UNL     1       2.258   7.336   7.763  1.00  0.00     0.139 C 
HETATM   28  O2  UNL     1       2.231   6.119   7.714  1.00  0.00    -0.650 OA
BRANCH  27  29
HETATM   29  O3  UNL     1       2.228   8.071   6.631  1.00  0.00    -0.776 OA
HETATM   30  H48 UNL     1       2.245   7.391   5.922  1.00  0.00     0.167 HD
ENDBRANCH  27  29
ENDBRANCH  26  27
ENDBRANCH  25  26
ENDBRANCH  16  25
BRANCH   1  31
HETATM   31  C2  UNL     1       3.203   6.155  11.124  1.00  0.00    -0.061 C 
HETATM   32  C1  UNL     1       2.677   4.991  10.691  1.00  0.00     0.017 C 
BRANCH  31  33
HETATM   33  C3  UNL     1       4.671   6.434  10.909  1.00  0.00     0.198 C 
BRANCH  33  34
HETATM   34  O1  UNL     1       5.406   6.265  12.106  1.00  0.00    -0.397 OA
HETATM   35  H5  UNL     1       5.138   5.412  12.494  1.00  0.00     0.209 HD
ENDBRANCH  33  34
ENDBRANCH  31  33
ENDBRANCH   1  31
TORSDOF 11
ENDMDL
MODEL 9
REMARK minimizedAffinity -6.6248951
REMARK CNNscore 0.237478763
REMARK CNNaffinity 6.53293371
REMARK  11 active torsions:
REMARK  status: ('A' for Active; 'I' for Inactive)
REMARK    1  A    between atoms: C2_2  and  C3_3 
REMARK    2  A    between atoms: C2_2  and  C4_5 
REMARK    3  A    between atoms: C3_3  and  O1_4 
REMARK    4  A    between atoms: C13_14  and  C14_15 
REMARK    5  A    between atoms: C14_15  and  C16_17 
REMARK    6  A    between atoms: C16_17  and  C17_18 
REMARK    7  A    between atoms: C17_18  and  C18_19 
REMARK    8  A    between atoms: C27_28  and  C28_29 
REMARK    9  A    between atoms: C28_29  and  C29_30 
REMARK   10  A    between atoms: C29_30  and  C30_31 
REMARK   11  A    between atoms: C30_31  and  O3_33 
ROOT
HETATM    1  C4  UNL     1       0.607   6.646  13.042  1.00  0.00     0.025 C 
HETATM    2  C5  UNL     1      -0.055   5.943  11.845  1.00  0.00     0.010 C 
HETATM    3  C6  UNL     1      -1.157   5.001  12.299  1.00  0.00     0.007 C 
HETATM    4  C7  UNL     1      -2.337   5.822  12.832  1.00  0.00     0.004 C 
HETATM    5  C8  UNL     1      -1.904   6.717  14.022  1.00  0.00    -0.027 A 
HETATM    6  C9  UNL     1      -2.718   6.576  15.325  1.00  0.00     0.011 C 
HETATM    7  C10 UNL     1      -4.215   6.234  15.226  1.00  0.00     0.011 C 
HETATM    8  C11 UNL     1      -4.690   5.876  13.815  1.00  0.00    -0.032 C 
HETATM    9  C12 UNL     1      -4.952   7.203  13.058  1.00  0.00     0.016 C 
HETATM   10  C13 UNL     1      -5.945   4.949  13.754  1.00  0.00    -0.002 C 
HETATM   11  C22 UNL     1      -5.791   4.186  12.416  1.00  0.00     0.006 C 
HETATM   12  C23 UNL     1      -4.359   4.455  11.914  1.00  0.00     0.011 C 
HETATM   13  C24 UNL     1      -3.593   4.968  13.150  1.00  0.00    -0.032 C 
HETATM   14  C25 UNL     1      -3.187   3.708  13.981  1.00  0.00     0.016 C 
HETATM   15  C26 UNL     1      -1.478   8.132  13.680  1.00  0.00     0.022 A 
HETATM   16  C27 UNL     1      -0.396   7.175  14.106  1.00  0.00    -0.024 A 
ENDROOT
BRANCH  10  17
HETATM   17  C14 UNL     1      -7.366   5.456  14.137  1.00  0.00    -0.014 C 
HETATM   18  C15 UNL     1      -8.088   5.944  12.863  1.00  0.00     0.010 C 
BRANCH  17  19
HETATM   19  C16 UNL     1      -7.591   6.492  15.264  1.00  0.00     0.008 C 
BRANCH  19  20
HETATM   20  C17 UNL     1      -7.870   7.940  14.861  1.00  0.00     0.028 C 
BRANCH  20  21
HETATM   21  C18 UNL     1      -9.347   8.168  14.669  1.00  0.00    -0.025 C 
HETATM   22  C19 UNL     1     -10.270   8.458  15.608  1.00  0.00    -0.091 C 
HETATM   23  C20 UNL     1     -11.719   8.627  15.230  1.00  0.00     0.042 C 
HETATM   24  C21 UNL     1      -9.987   8.657  17.071  1.00  0.00     0.042 C 
ENDBRANCH  20  21
ENDBRANCH  19  20
ENDBRANCH  17  19
ENDBRANCH  10  17
BRANCH  16  25
HETATM   25  C28 UNL     1       0.214   7.285  15.520  1.00  0.00     0.021 C 
BRANCH  25  26
HETATM   26  C29 UNL     1       0.581   8.683  16.001  1.00  0.00     0.111 C 
BRANCH  26  27
HETATM   27  C30 UNL     1       2.040   8.818  16.323  1.00  0.00     0.139 C 
HETATM   28  O2  UNL     1       2.977   8.696  15.553  1.00  0.00    -0.650 OA
BRANCH  27  29
HETATM   29  O3  UNL     1       2.252   9.146  17.616  1.00  0.00    -0.776 OA
HETATM   30  H48 UNL     1       3.231   9.170  17.684  1.00  0.00     0.167 HD
ENDBRANCH  27  29
ENDBRANCH  26  27
ENDBRANCH  25  26
ENDBRANCH  16  25
BRANCH   1  31
HETATM   31  C2  UNL     1       1.680   7.618  12.532  1.00  0.00    -0.061 C 
HETATM   32  C1  UNL     1       2.944   7.191  12.337  1.00  0.00     0.017 C 
BRANCH  31  33
HETATM   33  C3  UNL     1       1.300   9.024  12.135  1.00  0.00     0.198 C 
BRANCH  33  34
HETATM   34  O1  UNL     1       1.964   9.981  12.938  1.00  0.00    -0.397 OA
HETATM   35  H5  UNL     1       2.907   9.734  12.965  1.00  0.00     0.209 HD
ENDBRANCH  33  34
ENDBRANCH  31  33
ENDBRANCH   1  31
TORSDOF 11
ENDMDL
