MODEL 1
REMARK minimizedAffinity -8.75311947
REMARK CNNscore 0.699211419
REMARK CNNaffinity 7.10033083
REMARK  18 active torsions:
REMARK  status: ('A' for Active; 'I' for Inactive)
REMARK    1  A    between atoms: C19_20  and  O2_21 
REMARK    2  A    between atoms: C19_20  and  C20_22 
REMARK    3  A    between atoms: C20_22  and  C21_24 
REMARK    4  A    between atoms: C21_24  and  O4_25 
REMARK    5  A    between atoms: O4_25  and  C22_26 
REMARK    6  A    between atoms: C22_26  and  C23_28 
REMARK    7  A    between atoms: C23_28  and  C24_29 
REMARK    8  A    between atoms: C24_29  and  C25_30 
REMARK       I    between atoms: C25_30  and  N1_32 
REMARK    9  A    between atoms: N1_32  and  C26_33 
REMARK   10  A    between atoms: C26_33  and  C27_34 
REMARK   11  A    between atoms: C27_34  and  C28_35 
REMARK   12  A    between atoms: C28_35  and  C29_36 
REMARK   13  A    between atoms: C29_36  and  C30_37 
REMARK   14  A    between atoms: C30_37  and  C31_38 
REMARK       I    between atoms: C31_38  and  N2_40 
REMARK   15  A    between atoms: N2_40  and  C32_41 
REMARK   16  A    between atoms: C32_41  and  C33_42 
REMARK   17  A    between atoms: C36_45  and  C37_46 
REMARK   18  A    between atoms: C37_46  and  O9_48 
ROOT
HETATM    1  C22 UNL     1      -2.495  50.424 -14.561  1.00  0.00     0.259 C 
HETATM    2  O5  UNL     1      -1.839  49.461 -14.190  1.00  0.00    -0.265 OA
ENDROOT
BRANCH   1   3
HETATM    3  O4  UNL     1      -2.793  50.706 -15.858  1.00  0.00    -0.314 OA
BRANCH   3   4
HETATM    4  C21 UNL     1      -2.858  49.576 -16.724  1.00  0.00     0.260 C 
BRANCH   4   5
HETATM    5  C20 UNL     1      -1.669  49.446 -17.678  1.00  0.00     0.185 C 
HETATM    6  O3  UNL     1      -0.520  49.547 -17.237  1.00  0.00    -0.292 OA
BRANCH   5   7
HETATM    7  C19 UNL     1      -1.974  49.064 -19.149  1.00  0.00     0.128 C 
HETATM    8  C14 UNL     1      -1.809  50.203 -20.210  1.00  0.00    -0.002 C 
HETATM    9  C13 UNL     1      -0.367  50.568 -20.606  1.00  0.00     0.013 C 
HETATM   10  C15 UNL     1      -2.559  51.499 -19.777  1.00  0.00     0.019 C 
HETATM   11  C16 UNL     1      -2.480  49.506 -21.431  1.00  0.00     0.002 C 
HETATM   12  C12 UNL     1      -0.317  51.435 -21.880  1.00  0.00     0.007 C 
HETATM   13  C11 UNL     1      -1.052  50.764 -23.065  1.00  0.00     0.002 C 
HETATM   14  C2  UNL     1      -1.006  51.540 -24.424  1.00  0.00    -0.016 C 
HETATM   15  C10 UNL     1      -2.520  50.394 -22.682  1.00  0.00    -0.004 C 
HETATM   16  C1  UNL     1      -1.884  52.815 -24.388  1.00  0.00     0.020 C 
HETATM   17  C3  UNL     1       0.448  51.942 -24.782  1.00  0.00     0.022 C 
HETATM   18  C7  UNL     1      -1.525  50.592 -25.510  1.00  0.00    -0.068 C 
HETATM   19  C4  UNL     1       0.593  52.496 -26.198  1.00  0.00     0.084 C 
HETATM   20  C5  UNL     1      -0.062  51.608 -27.227  1.00  0.00     0.149 C 
HETATM   21  O1  UNL     1       0.233  51.668 -28.419  1.00  0.00    -0.293 OA
HETATM   22  C6  UNL     1      -1.099  50.646 -26.784  1.00  0.00     0.053 C 
HETATM   23  C8  UNL     1      -2.455  49.474 -25.092  1.00  0.00     0.035 C 
HETATM   24  C9  UNL     1      -3.304  49.783 -23.861  1.00  0.00     0.010 C 
HETATM   25  C17 UNL     1      -3.789  48.983 -20.847  1.00  0.00     0.009 C 
HETATM   26  C18 UNL     1      -3.440  48.614 -19.388  1.00  0.00     0.047 C 
BRANCH   7  27
HETATM   27  O2  UNL     1      -1.098  47.975 -19.491  1.00  0.00    -0.381 OA
HETATM   28  H27 UNL     1      -1.471  47.144 -19.150  1.00  0.00     0.211 HD
ENDBRANCH   7  27
ENDBRANCH   5   7
ENDBRANCH   4   5
ENDBRANCH   3   4
ENDBRANCH   1   3
BRANCH   1  29
HETATM   29  C23 UNL     1      -2.976  51.505 -13.628  1.00  0.00     0.120 C 
BRANCH  29  30
HETATM   30  C24 UNL     1      -3.289  51.006 -12.222  1.00  0.00     0.112 C 
BRANCH  30  31
HETATM   31  C25 UNL     1      -3.562  52.161 -11.282  1.00  0.00     0.217 C 
HETATM   32  O6  UNL     1      -4.519  52.194 -10.517  1.00  0.00    -0.274 OA
HETATM   33  N1  UNL     1      -2.618  53.162 -11.366  1.00  0.00    -0.361 N 
HETATM   34  H34 UNL     1      -1.860  53.090 -12.031  1.00  0.00     0.162 HD
BRANCH  33  35
HETATM   35  C26 UNL     1      -2.708  54.359 -10.554  1.00  0.00     0.122 C 
BRANCH  35  36
HETATM   36  C27 UNL     1      -1.386  55.122 -10.460  1.00  0.00     0.020 C 
BRANCH  36  37
HETATM   37  C28 UNL     1      -0.661  54.985  -9.118  1.00  0.00     0.002 C 
BRANCH  37  38
HETATM   38  C29 UNL     1       0.522  54.012  -9.132  1.00  0.00     0.009 C 
BRANCH  38  39
HETATM   39  C30 UNL     1       0.898  53.591 -10.554  1.00  0.00     0.103 C 
BRANCH  39  40
HETATM   40  C31 UNL     1       2.365  53.824 -10.878  1.00  0.00     0.217 C 
HETATM   41  O7  UNL     1       3.107  52.954 -11.324  1.00  0.00    -0.274 OA
HETATM   42  N2  UNL     1       2.767  55.119 -10.635  1.00  0.00    -0.357 N 
HETATM   43  H45 UNL     1       2.065  55.817 -10.431  1.00  0.00     0.162 HD
BRANCH  42  44
HETATM   44  C32 UNL     1       4.102  55.578 -10.944  1.00  0.00     0.161 C 
BRANCH  44  45
HETATM   45  C33 UNL     1       4.967  55.584  -9.709  1.00  0.00    -0.040 A 
HETATM   46  C34 UNL     1       4.621  56.360  -8.595  1.00  0.00     0.010 A 
HETATM   47  C35 UNL     1       5.440  56.375  -7.463  1.00  0.00     0.019 A 
HETATM   48  C36 UNL     1       6.619  55.618  -7.432  1.00  0.00     0.037 A 
HETATM   49  C38 UNL     1       6.976  54.851  -8.547  1.00  0.00     0.019 A 
HETATM   50  C39 UNL     1       6.156  54.839  -9.679  1.00  0.00     0.010 A 
BRANCH  48  51
HETATM   51  C37 UNL     1       7.456  55.670  -6.210  1.00  0.00     0.176 C 
HETATM   52  O8  UNL     1       8.116  56.624  -5.838  1.00  0.00    -0.646 OA
BRANCH  51  53
HETATM   53  O9  UNL     1       7.429  54.523  -5.508  1.00  0.00    -0.773 OA
HETATM   54  H50 UNL     1       8.014  54.701  -4.743  1.00  0.00     0.167 HD
ENDBRANCH  51  53
ENDBRANCH  48  51
ENDBRANCH  44  45
ENDBRANCH  42  44
ENDBRANCH  39  40
ENDBRANCH  38  39
ENDBRANCH  37  38
ENDBRANCH  36  37
ENDBRANCH  35  36
ENDBRANCH  33  35
ENDBRANCH  30  31
ENDBRANCH  29  30
ENDBRANCH   1  29
TORSDOF 18
ENDMDL
MODEL 2
REMARK minimizedAffinity -9.44046593
REMARK CNNscore 0.496415704
REMARK CNNaffinity 7.37102127
REMARK  18 active torsions:
REMARK  status: ('A' for Active; 'I' for Inactive)
REMARK    1  A    between atoms: C19_20  and  O2_21 
REMARK    2  A    between atoms: C19_20  and  C20_22 
REMARK    3  A    between atoms: C20_22  and  C21_24 
REMARK    4  A    between atoms: C21_24  and  O4_25 
REMARK    5  A    between atoms: O4_25  and  C22_26 
REMARK    6  A    between atoms: C22_26  and  C23_28 
REMARK    7  A    between atoms: C23_28  and  C24_29 
REMARK    8  A    between atoms: C24_29  and  C25_30 
REMARK       I    between atoms: C25_30  and  N1_32 
REMARK    9  A    between atoms: N1_32  and  C26_33 
REMARK   10  A    between atoms: C26_33  and  C27_34 
REMARK   11  A    between atoms: C27_34  and  C28_35 
REMARK   12  A    between atoms: C28_35  and  C29_36 
REMARK   13  A    between atoms: C29_36  and  C30_37 
REMARK   14  A    between atoms: C30_37  and  C31_38 
REMARK       I    between atoms: C31_38  and  N2_40 
REMARK   15  A    between atoms: N2_40  and  C32_41 
REMARK   16  A    between atoms: C32_41  and  C33_42 
REMARK   17  A    between atoms: C36_45  and  C37_46 
REMARK   18  A    between atoms: C37_46  and  O9_48 
ROOT
HETATM    1  C22 UNL     1       1.343  53.922 -21.663  1.00  0.00     0.259 C 
HETATM    2  O5  UNL     1       1.771  54.650 -20.778  1.00  0.00    -0.265 OA
ENDROOT
BRANCH   1   3
HETATM    3  O4  UNL     1       1.260  54.267 -22.977  1.00  0.00    -0.314 OA
BRANCH   3   4
HETATM    4  C21 UNL     1       0.849  53.220 -23.853  1.00  0.00     0.260 C 
BRANCH   4   5
HETATM    5  C20 UNL     1      -0.039  53.682 -25.011  1.00  0.00     0.185 C 
HETATM    6  O3  UNL     1       0.007  54.858 -25.382  1.00  0.00    -0.292 OA
BRANCH   5   7
HETATM    7  C19 UNL     1      -0.871  52.599 -25.745  1.00  0.00     0.128 C 
HETATM    8  C14 UNL     1      -1.766  51.682 -24.845  1.00  0.00    -0.002 C 
HETATM    9  C13 UNL     1      -3.062  52.309 -24.303  1.00  0.00     0.013 C 
HETATM   10  C15 UNL     1      -0.954  51.085 -23.655  1.00  0.00     0.019 C 
HETATM   11  C16 UNL     1      -2.157  50.604 -25.900  1.00  0.00     0.002 C 
HETATM   12  C12 UNL     1      -4.024  51.247 -23.732  1.00  0.00     0.007 C 
HETATM   13  C11 UNL     1      -4.346  50.141 -24.765  1.00  0.00     0.002 C 
HETATM   14  C2  UNL     1      -5.364  49.047 -24.299  1.00  0.00    -0.016 C 
HETATM   15  C10 UNL     1      -3.039  49.490 -25.321  1.00  0.00    -0.004 C 
HETATM   16  C1  UNL     1      -4.747  48.104 -23.237  1.00  0.00     0.020 C 
HETATM   17  C3  UNL     1      -6.643  49.696 -23.711  1.00  0.00     0.022 C 
HETATM   18  C7  UNL     1      -5.761  48.235 -25.537  1.00  0.00    -0.068 C 
HETATM   19  C4  UNL     1      -7.767  48.695 -23.451  1.00  0.00     0.084 C 
HETATM   20  C5  UNL     1      -8.029  47.810 -24.645  1.00  0.00     0.149 C 
HETATM   21  O1  UNL     1      -9.089  47.202 -24.782  1.00  0.00    -0.293 OA
HETATM   22  C6  UNL     1      -6.971  47.664 -25.673  1.00  0.00     0.053 C 
HETATM   23  C8  UNL     1      -4.792  48.191 -26.698  1.00  0.00     0.035 C 
HETATM   24  C9  UNL     1      -3.324  48.338 -26.305  1.00  0.00     0.010 C 
HETATM   25  C17 UNL     1      -0.816  50.240 -26.528  1.00  0.00     0.009 C 
HETATM   26  C18 UNL     1      -0.010  51.558 -26.508  1.00  0.00     0.047 C 
BRANCH   7  27
HETATM   27  O2  UNL     1      -1.709  53.285 -26.693  1.00  0.00    -0.381 OA
HETATM   28  H27 UNL     1      -1.189  53.491 -27.490  1.00  0.00     0.211 HD
ENDBRANCH   7  27
ENDBRANCH   5   7
ENDBRANCH   4   5
ENDBRANCH   3   4
ENDBRANCH   1   3
BRANCH   1  29
HETATM   29  C23 UNL     1       0.740  52.567 -21.400  1.00  0.00     0.120 C 
BRANCH  29  30
HETATM   30  C24 UNL     1      -0.348  52.576 -20.332  1.00  0.00     0.112 C 
BRANCH  30  31
HETATM   31  C25 UNL     1       0.149  51.963 -19.041  1.00  0.00     0.217 C 
HETATM   32  O6  UNL     1      -0.083  50.805 -18.713  1.00  0.00    -0.274 OA
HETATM   33  N1  UNL     1       0.900  52.834 -18.281  1.00  0.00    -0.361 N 
HETATM   34  H34 UNL     1       1.042  53.786 -18.592  1.00  0.00     0.162 HD
BRANCH  33  35
HETATM   35  C26 UNL     1       1.458  52.438 -17.003  1.00  0.00     0.122 C 
BRANCH  35  36
HETATM   36  C27 UNL     1       2.864  52.991 -16.765  1.00  0.00     0.020 C 
BRANCH  36  37
HETATM   37  C28 UNL     1       3.796  52.057 -15.987  1.00  0.00     0.002 C 
BRANCH  37  38
HETATM   38  C29 UNL     1       3.579  52.062 -14.471  1.00  0.00     0.009 C 
BRANCH  38  39
HETATM   39  C30 UNL     1       2.320  51.290 -14.071  1.00  0.00     0.103 C 
BRANCH  39  40
HETATM   40  C31 UNL     1       2.175  51.117 -12.568  1.00  0.00     0.217 C 
HETATM   41  O7  UNL     1       1.258  50.495 -12.043  1.00  0.00    -0.274 OA
HETATM   42  N2  UNL     1       3.193  51.719 -11.862  1.00  0.00    -0.357 N 
HETATM   43  H45 UNL     1       3.999  52.065 -12.366  1.00  0.00     0.162 HD
BRANCH  42  44
HETATM   44  C32 UNL     1       3.293  51.616 -10.424  1.00  0.00     0.161 C 
BRANCH  44  45
HETATM   45  C33 UNL     1       3.147  52.969  -9.776  1.00  0.00    -0.040 A 
HETATM   46  C34 UNL     1       3.364  54.143 -10.511  1.00  0.00     0.010 A 
HETATM   47  C35 UNL     1       3.247  55.392  -9.896  1.00  0.00     0.019 A 
HETATM   48  C36 UNL     1       2.917  55.484  -8.537  1.00  0.00     0.037 A 
HETATM   49  C38 UNL     1       2.712  54.316  -7.796  1.00  0.00     0.019 A 
HETATM   50  C39 UNL     1       2.832  53.067  -8.412  1.00  0.00     0.010 A 
BRANCH  48  51
HETATM   51  C37 UNL     1       2.808  56.833  -7.930  1.00  0.00     0.176 C 
HETATM   52  O8  UNL     1       1.887  57.233  -7.242  1.00  0.00    -0.646 OA
BRANCH  51  53
HETATM   53  O9  UNL     1       3.862  57.620  -8.214  1.00  0.00    -0.773 OA
HETATM   54  H50 UNL     1       3.657  58.461  -7.755  1.00  0.00     0.167 HD
ENDBRANCH  51  53
ENDBRANCH  48  51
ENDBRANCH  44  45
ENDBRANCH  42  44
ENDBRANCH  39  40
ENDBRANCH  38  39
ENDBRANCH  37  38
ENDBRANCH  36  37
ENDBRANCH  35  36
ENDBRANCH  33  35
ENDBRANCH  30  31
ENDBRANCH  29  30
ENDBRANCH   1  29
TORSDOF 18
ENDMDL
MODEL 3
REMARK minimizedAffinity -8.47546768
REMARK CNNscore 0.447769552
REMARK CNNaffinity 6.57969522
REMARK  18 active torsions:
REMARK  status: ('A' for Active; 'I' for Inactive)
REMARK    1  A    between atoms: C19_20  and  O2_21 
REMARK    2  A    between atoms: C19_20  and  C20_22 
REMARK    3  A    between atoms: C20_22  and  C21_24 
REMARK    4  A    between atoms: C21_24  and  O4_25 
REMARK    5  A    between atoms: O4_25  and  C22_26 
REMARK    6  A    between atoms: C22_26  and  C23_28 
REMARK    7  A    between atoms: C23_28  and  C24_29 
REMARK    8  A    between atoms: C24_29  and  C25_30 
REMARK       I    between atoms: C25_30  and  N1_32 
REMARK    9  A    between atoms: N1_32  and  C26_33 
REMARK   10  A    between atoms: C26_33  and  C27_34 
REMARK   11  A    between atoms: C27_34  and  C28_35 
REMARK   12  A    between atoms: C28_35  and  C29_36 
REMARK   13  A    between atoms: C29_36  and  C30_37 
REMARK   14  A    between atoms: C30_37  and  C31_38 
REMARK       I    between atoms: C31_38  and  N2_40 
REMARK   15  A    between atoms: N2_40  and  C32_41 
REMARK   16  A    between atoms: C32_41  and  C33_42 
REMARK   17  A    between atoms: C36_45  and  C37_46 
REMARK   18  A    between atoms: C37_46  and  O9_48 
ROOT
HETATM    1  C22 UNL     1      -9.139  49.140 -25.394  1.00  0.00     0.259 C 
HETATM    2  O5  UNL     1     -10.018  49.877 -25.819  1.00  0.00    -0.265 OA
ENDROOT
BRANCH   1   3
HETATM    3  O4  UNL     1      -8.355  49.411 -24.315  1.00  0.00    -0.314 OA
BRANCH   3   4
HETATM    4  C21 UNL     1      -7.308  48.474 -24.076  1.00  0.00     0.260 C 
BRANCH   4   5
HETATM    5  C20 UNL     1      -7.246  47.953 -22.639  1.00  0.00     0.185 C 
HETATM    6  O3  UNL     1      -7.678  46.826 -22.380  1.00  0.00    -0.292 OA
BRANCH   5   7
HETATM    7  C19 UNL     1      -6.520  48.836 -21.592  1.00  0.00     0.128 C 
HETATM    8  C14 UNL     1      -4.963  48.934 -21.726  1.00  0.00    -0.002 C 
HETATM    9  C13 UNL     1      -4.427  49.833 -22.854  1.00  0.00     0.013 C 
HETATM   10  C15 UNL     1      -4.312  47.522 -21.850  1.00  0.00     0.019 C 
HETATM   11  C16 UNL     1      -4.638  49.623 -20.367  1.00  0.00     0.002 C 
HETATM   12  C12 UNL     1      -2.924  50.134 -22.691  1.00  0.00     0.007 C 
HETATM   13  C11 UNL     1      -2.604  50.749 -21.307  1.00  0.00     0.002 C 
HETATM   14  C2  UNL     1      -1.109  51.147 -21.066  1.00  0.00    -0.016 C 
HETATM   15  C10 UNL     1      -3.136  49.845 -20.151  1.00  0.00    -0.004 C 
HETATM   16  C1  UNL     1      -0.202  49.903 -20.905  1.00  0.00     0.020 C 
HETATM   17  C3  UNL     1      -0.571  52.012 -22.236  1.00  0.00     0.022 C 
HETATM   18  C7  UNL     1      -1.060  51.987 -19.785  1.00  0.00    -0.068 C 
HETATM   19  C4  UNL     1       0.800  52.623 -21.958  1.00  0.00     0.084 C 
HETATM   20  C5  UNL     1       0.855  53.314 -20.617  1.00  0.00     0.149 C 
HETATM   21  O1  UNL     1       1.713  54.155 -20.355  1.00  0.00    -0.293 OA
HETATM   22  C6  UNL     1      -0.150  52.957 -19.588  1.00  0.00     0.053 C 
HETATM   23  C8  UNL     1      -2.162  51.793 -18.766  1.00  0.00     0.035 C 
HETATM   24  C9  UNL     1      -2.776  50.396 -18.756  1.00  0.00     0.010 C 
HETATM   25  C17 UNL     1      -5.418  48.781 -19.364  1.00  0.00     0.009 C 
HETATM   26  C18 UNL     1      -6.685  48.340 -20.131  1.00  0.00     0.047 C 
BRANCH   7  27
HETATM   27  O2  UNL     1      -7.082  50.157 -21.694  1.00  0.00    -0.381 OA
HETATM   28  H27 UNL     1      -7.922  50.187 -21.204  1.00  0.00     0.211 HD
ENDBRANCH   7  27
ENDBRANCH   5   7
ENDBRANCH   4   5
ENDBRANCH   3   4
ENDBRANCH   1   3
BRANCH   1  29
HETATM   29  C23 UNL     1      -8.726  47.864 -26.080  1.00  0.00     0.120 C 
BRANCH  29  30
HETATM   30  C24 UNL     1      -9.900  47.027 -26.577  1.00  0.00     0.112 C 
BRANCH  30  31
HETATM   31  C25 UNL     1     -10.839  46.678 -25.443  1.00  0.00     0.217 C 
HETATM   32  O6  UNL     1     -10.488  46.064 -24.443  1.00  0.00    -0.274 OA
HETATM   33  N1  UNL     1     -12.125  47.134 -25.645  1.00  0.00    -0.361 N 
HETATM   34  H34 UNL     1     -12.363  47.618 -26.500  1.00  0.00     0.162 HD
BRANCH  33  35
HETATM   35  C26 UNL     1     -13.176  46.891 -24.677  1.00  0.00     0.122 C 
BRANCH  35  36
HETATM   36  C27 UNL     1     -14.548  46.681 -25.321  1.00  0.00     0.020 C 
BRANCH  36  37
HETATM   37  C28 UNL     1     -14.829  45.245 -25.773  1.00  0.00     0.002 C 
BRANCH  37  38
HETATM   38  C29 UNL     1     -16.287  44.802 -25.610  1.00  0.00     0.009 C 
BRANCH  38  39
HETATM   39  C30 UNL     1     -17.267  45.926 -25.953  1.00  0.00     0.103 C 
BRANCH  39  40
HETATM   40  C31 UNL     1     -18.186  46.292 -24.799  1.00  0.00     0.217 C 
HETATM   41  O7  UNL     1     -19.201  46.969 -24.929  1.00  0.00    -0.274 OA
HETATM   42  N2  UNL     1     -17.768  45.767 -23.596  1.00  0.00    -0.357 N 
HETATM   43  H45 UNL     1     -17.022  45.084 -23.595  1.00  0.00     0.162 HD
BRANCH  42  44
HETATM   44  C32 UNL     1     -18.534  45.928 -22.381  1.00  0.00     0.161 C 
BRANCH  44  45
HETATM   45  C33 UNL     1     -17.674  46.480 -21.273  1.00  0.00    -0.040 A 
HETATM   46  C34 UNL     1     -18.248  46.916 -20.070  1.00  0.00     0.010 A 
HETATM   47  C35 UNL     1     -17.444  47.445 -19.057  1.00  0.00     0.019 A 
HETATM   48  C36 UNL     1     -16.058  47.551 -19.235  1.00  0.00     0.037 A 
HETATM   49  C38 UNL     1     -15.482  47.130 -20.438  1.00  0.00     0.019 A 
HETATM   50  C39 UNL     1     -16.288  46.602 -21.452  1.00  0.00     0.010 A 
BRANCH  48  51
HETATM   51  C37 UNL     1     -15.250  48.123 -18.132  1.00  0.00     0.176 C 
HETATM   52  O8  UNL     1     -14.843  47.517 -17.157  1.00  0.00    -0.646 OA
BRANCH  51  53
HETATM   53  O9  UNL     1     -14.987  49.432 -18.300  1.00  0.00    -0.773 OA
HETATM   54  H50 UNL     1     -14.455  49.669 -17.513  1.00  0.00     0.167 HD
ENDBRANCH  51  53
ENDBRANCH  48  51
ENDBRANCH  44  45
ENDBRANCH  42  44
ENDBRANCH  39  40
ENDBRANCH  38  39
ENDBRANCH  37  38
ENDBRANCH  36  37
ENDBRANCH  35  36
ENDBRANCH  33  35
ENDBRANCH  30  31
ENDBRANCH  29  30
ENDBRANCH   1  29
TORSDOF 18
ENDMDL
MODEL 4
REMARK minimizedAffinity -9.62183475
REMARK CNNscore 0.398241788
REMARK CNNaffinity 7.29223442
REMARK  18 active torsions:
REMARK  status: ('A' for Active; 'I' for Inactive)
REMARK    1  A    between atoms: C19_20  and  O2_21 
REMARK    2  A    between atoms: C19_20  and  C20_22 
REMARK    3  A    between atoms: C20_22  and  C21_24 
REMARK    4  A    between atoms: C21_24  and  O4_25 
REMARK    5  A    between atoms: O4_25  and  C22_26 
REMARK    6  A    between atoms: C22_26  and  C23_28 
REMARK    7  A    between atoms: C23_28  and  C24_29 
REMARK    8  A    between atoms: C24_29  and  C25_30 
REMARK       I    between atoms: C25_30  and  N1_32 
REMARK    9  A    between atoms: N1_32  and  C26_33 
REMARK   10  A    between atoms: C26_33  and  C27_34 
REMARK   11  A    between atoms: C27_34  and  C28_35 
REMARK   12  A    between atoms: C28_35  and  C29_36 
REMARK   13  A    between atoms: C29_36  and  C30_37 
REMARK   14  A    between atoms: C30_37  and  C31_38 
REMARK       I    between atoms: C31_38  and  N2_40 
REMARK   15  A    between atoms: N2_40  and  C32_41 
REMARK   16  A    between atoms: C32_41  and  C33_42 
REMARK   17  A    between atoms: C36_45  and  C37_46 
REMARK   18  A    between atoms: C37_46  and  O9_48 
ROOT
HETATM    1  C22 UNL     1       1.313  53.898 -21.606  1.00  0.00     0.259 C 
HETATM    2  O5  UNL     1       1.870  54.508 -20.705  1.00  0.00    -0.265 OA
ENDROOT
BRANCH   1   3
HETATM    3  O4  UNL     1       1.194  54.343 -22.886  1.00  0.00    -0.314 OA
BRANCH   3   4
HETATM    4  C21 UNL     1       0.953  53.331 -23.860  1.00  0.00     0.260 C 
BRANCH   4   5
HETATM    5  C20 UNL     1       0.096  53.787 -25.042  1.00  0.00     0.185 C 
HETATM    6  O3  UNL     1       0.160  54.959 -25.425  1.00  0.00    -0.292 OA
BRANCH   5   7
HETATM    7  C19 UNL     1      -0.728  52.704 -25.784  1.00  0.00     0.128 C 
HETATM    8  C14 UNL     1      -1.608  51.768 -24.890  1.00  0.00    -0.002 C 
HETATM    9  C13 UNL     1      -2.909  52.374 -24.335  1.00  0.00     0.013 C 
HETATM   10  C15 UNL     1      -0.785  51.167 -23.711  1.00  0.00     0.019 C 
HETATM   11  C16 UNL     1      -1.993  50.697 -25.954  1.00  0.00     0.002 C 
HETATM   12  C12 UNL     1      -3.856  51.296 -23.770  1.00  0.00     0.007 C 
HETATM   13  C11 UNL     1      -4.171  50.198 -24.814  1.00  0.00     0.002 C 
HETATM   14  C2  UNL     1      -5.175  49.088 -24.355  1.00  0.00    -0.016 C 
HETATM   15  C10 UNL     1      -2.860  49.567 -25.383  1.00  0.00    -0.004 C 
HETATM   16  C1  UNL     1      -4.543  48.140 -23.306  1.00  0.00     0.020 C 
HETATM   17  C3  UNL     1      -6.458  49.717 -23.754  1.00  0.00     0.022 C 
HETATM   18  C7  UNL     1      -5.570  48.285 -25.599  1.00  0.00    -0.068 C 
HETATM   19  C4  UNL     1      -7.570  48.701 -23.498  1.00  0.00     0.084 C 
HETATM   20  C5  UNL     1      -7.828  47.826 -24.701  1.00  0.00     0.149 C 
HETATM   21  O1  UNL     1      -8.882  47.208 -24.839  1.00  0.00    -0.293 OA
HETATM   22  C6  UNL     1      -6.774  47.703 -25.735  1.00  0.00     0.053 C 
HETATM   23  C8  UNL     1      -4.606  48.264 -26.766  1.00  0.00     0.035 C 
HETATM   24  C9  UNL     1      -3.138  48.423 -26.378  1.00  0.00     0.010 C 
HETATM   25  C17 UNL     1      -0.652  50.354 -26.593  1.00  0.00     0.009 C 
HETATM   26  C18 UNL     1       0.140  51.680 -26.563  1.00  0.00     0.047 C 
BRANCH   7  27
HETATM   27  O2  UNL     1      -1.578  53.390 -26.721  1.00  0.00    -0.381 OA
HETATM   28  H27 UNL     1      -1.064  53.611 -27.518  1.00  0.00     0.211 HD
ENDBRANCH   7  27
ENDBRANCH   5   7
ENDBRANCH   4   5
ENDBRANCH   3   4
ENDBRANCH   1   3
BRANCH   1  29
HETATM   29  C23 UNL     1       0.578  52.600 -21.393  1.00  0.00     0.120 C 
BRANCH  29  30
HETATM   30  C24 UNL     1      -0.458  52.658 -20.276  1.00  0.00     0.112 C 
BRANCH  30  31
HETATM   31  C25 UNL     1      -0.002  51.867 -19.069  1.00  0.00     0.217 C 
HETATM   32  O6  UNL     1      -0.313  50.697 -18.875  1.00  0.00    -0.274 OA
HETATM   33  N1  UNL     1       0.807  52.592 -18.220  1.00  0.00    -0.361 N 
HETATM   34  H34 UNL     1       1.014  53.561 -18.421  1.00  0.00     0.162 HD
BRANCH  33  35
HETATM   35  C26 UNL     1       1.338  52.014 -17.002  1.00  0.00     0.122 C 
BRANCH  35  36
HETATM   36  C27 UNL     1       2.363  52.912 -16.308  1.00  0.00     0.020 C 
BRANCH  36  37
HETATM   37  C28 UNL     1       3.821  52.482 -16.493  1.00  0.00     0.002 C 
BRANCH  37  38
HETATM   38  C29 UNL     1       4.401  51.684 -15.321  1.00  0.00     0.009 C 
BRANCH  38  39
HETATM   39  C30 UNL     1       3.313  51.225 -14.348  1.00  0.00     0.103 C 
BRANCH  39  40
HETATM   40  C31 UNL     1       3.675  49.950 -13.603  1.00  0.00     0.217 C 
HETATM   41  O7  UNL     1       4.821  49.523 -13.510  1.00  0.00    -0.274 OA
HETATM   42  N2  UNL     1       2.582  49.338 -13.032  1.00  0.00    -0.357 N 
HETATM   43  H45 UNL     1       1.701  49.835 -13.007  1.00  0.00     0.162 HD
BRANCH  42  44
HETATM   44  C32 UNL     1       2.708  48.153 -12.214  1.00  0.00     0.161 C 
BRANCH  44  45
HETATM   45  C33 UNL     1       2.297  46.923 -12.983  1.00  0.00    -0.040 A 
HETATM   46  C34 UNL     1       3.131  45.797 -13.034  1.00  0.00     0.010 A 
HETATM   47  C35 UNL     1       2.750  44.670 -13.767  1.00  0.00     0.019 A 
HETATM   48  C36 UNL     1       1.534  44.656 -14.463  1.00  0.00     0.037 A 
HETATM   49  C38 UNL     1       0.704  45.782 -14.428  1.00  0.00     0.019 A 
HETATM   50  C39 UNL     1       1.088  46.909 -13.695  1.00  0.00     0.010 A 
BRANCH  48  51
HETATM   51  C37 UNL     1       1.177  43.438 -15.230  1.00  0.00     0.176 C 
HETATM   52  O8  UNL     1       0.374  42.589 -14.887  1.00  0.00    -0.646 OA
BRANCH  51  53
HETATM   53  O9  UNL     1       1.844  43.339 -16.394  1.00  0.00    -0.773 OA
HETATM   54  H50 UNL     1       1.513  42.504 -16.785  1.00  0.00     0.167 HD
ENDBRANCH  51  53
ENDBRANCH  48  51
ENDBRANCH  44  45
ENDBRANCH  42  44
ENDBRANCH  39  40
ENDBRANCH  38  39
ENDBRANCH  37  38
ENDBRANCH  36  37
ENDBRANCH  35  36
ENDBRANCH  33  35
ENDBRANCH  30  31
ENDBRANCH  29  30
ENDBRANCH   1  29
TORSDOF 18
ENDMDL
MODEL 5
REMARK minimizedAffinity -8.76643753
REMARK CNNscore 0.375091791
REMARK CNNaffinity 7.35003614
REMARK  18 active torsions:
REMARK  status: ('A' for Active; 'I' for Inactive)
REMARK    1  A    between atoms: C19_20  and  O2_21 
REMARK    2  A    between atoms: C19_20  and  C20_22 
REMARK    3  A    between atoms: C20_22  and  C21_24 
REMARK    4  A    between atoms: C21_24  and  O4_25 
REMARK    5  A    between atoms: O4_25  and  C22_26 
REMARK    6  A    between atoms: C22_26  and  C23_28 
REMARK    7  A    between atoms: C23_28  and  C24_29 
REMARK    8  A    between atoms: C24_29  and  C25_30 
REMARK       I    between atoms: C25_30  and  N1_32 
REMARK    9  A    between atoms: N1_32  and  C26_33 
REMARK   10  A    between atoms: C26_33  and  C27_34 
REMARK   11  A    between atoms: C27_34  and  C28_35 
REMARK   12  A    between atoms: C28_35  and  C29_36 
REMARK   13  A    between atoms: C29_36  and  C30_37 
REMARK   14  A    between atoms: C30_37  and  C31_38 
REMARK       I    between atoms: C31_38  and  N2_40 
REMARK   15  A    between atoms: N2_40  and  C32_41 
REMARK   16  A    between atoms: C32_41  and  C33_42 
REMARK   17  A    between atoms: C36_45  and  C37_46 
REMARK   18  A    between atoms: C37_46  and  O9_48 
ROOT
HETATM    1  C22 UNL     1       1.130  53.832 -22.327  1.00  0.00     0.259 C 
HETATM    2  O5  UNL     1       1.728  54.888 -22.173  1.00  0.00    -0.265 OA
ENDROOT
BRANCH   1   3
HETATM    3  O4  UNL     1       0.952  53.210 -23.525  1.00  0.00    -0.314 OA
BRANCH   3   4
HETATM    4  C21 UNL     1       0.032  53.846 -24.407  1.00  0.00     0.260 C 
BRANCH   4   5
HETATM    5  C20 UNL     1      -0.125  53.150 -25.761  1.00  0.00     0.185 C 
HETATM    6  O3  UNL     1       0.766  53.260 -26.609  1.00  0.00    -0.292 OA
BRANCH   5   7
HETATM    7  C19 UNL     1      -1.357  52.229 -25.951  1.00  0.00     0.128 C 
HETATM    8  C14 UNL     1      -1.845  51.453 -24.682  1.00  0.00    -0.002 C 
HETATM    9  C13 UNL     1      -2.620  52.271 -23.634  1.00  0.00     0.013 C 
HETATM   10  C15 UNL     1      -0.667  50.713 -23.978  1.00  0.00     0.019 C 
HETATM   11  C16 UNL     1      -2.846  50.471 -25.360  1.00  0.00     0.002 C 
HETATM   12  C12 UNL     1      -3.343  51.369 -22.613  1.00  0.00     0.007 C 
HETATM   13  C11 UNL     1      -4.278  50.348 -23.304  1.00  0.00     0.002 C 
HETATM   14  C2  UNL     1      -5.106  49.424 -22.349  1.00  0.00    -0.016 C 
HETATM   15  C10 UNL     1      -3.505  49.504 -24.367  1.00  0.00    -0.004 C 
HETATM   16  C1  UNL     1      -4.209  48.376 -21.645  1.00  0.00     0.020 C 
HETATM   17  C3  UNL     1      -5.840  50.261 -21.269  1.00  0.00     0.022 C 
HETATM   18  C7  UNL     1      -6.158  48.709 -23.202  1.00  0.00    -0.068 C 
HETATM   19  C4  UNL     1      -6.842  49.450 -20.451  1.00  0.00     0.084 C 
HETATM   20  C5  UNL     1      -7.768  48.640 -21.325  1.00  0.00     0.149 C 
HETATM   21  O1  UNL     1      -8.844  48.214 -20.910  1.00  0.00    -0.293 OA
HETATM   22  C6  UNL     1      -7.358  48.343 -22.718  1.00  0.00     0.053 C 
HETATM   23  C8  UNL     1      -5.874  48.528 -24.677  1.00  0.00     0.035 C 
HETATM   24  C9  UNL     1      -4.392  48.430 -25.029  1.00  0.00     0.010 C 
HETATM   25  C17 UNL     1      -2.035  49.906 -26.521  1.00  0.00     0.009 C 
HETATM   26  C18 UNL     1      -1.127  51.075 -26.963  1.00  0.00     0.047 C 
BRANCH   7  27
HETATM   27  O2  UNL     1      -2.430  53.057 -26.434  1.00  0.00    -0.381 OA
HETATM   28  H27 UNL     1      -2.325  53.191 -27.393  1.00  0.00     0.211 HD
ENDBRANCH   7  27
ENDBRANCH   5   7
ENDBRANCH   4   5
ENDBRANCH   3   4
ENDBRANCH   1   3
BRANCH   1  29
HETATM   29  C23 UNL     1       0.405  53.122 -21.214  1.00  0.00     0.120 C 
BRANCH  29  30
HETATM   30  C24 UNL     1       0.879  53.521 -19.821  1.00  0.00     0.112 C 
BRANCH  30  31
HETATM   31  C25 UNL     1       0.214  52.676 -18.756  1.00  0.00     0.217 C 
HETATM   32  O6  UNL     1      -0.856  52.103 -18.924  1.00  0.00    -0.274 OA
HETATM   33  N1  UNL     1       0.941  52.608 -17.586  1.00  0.00    -0.361 N 
HETATM   34  H34 UNL     1       1.809  53.120 -17.498  1.00  0.00     0.162 HD
BRANCH  33  35
HETATM   35  C26 UNL     1       0.466  51.855 -16.442  1.00  0.00     0.122 C 
BRANCH  35  36
HETATM   36  C27 UNL     1       1.599  51.321 -15.564  1.00  0.00     0.020 C 
BRANCH  36  37
HETATM   37  C28 UNL     1       1.250  51.187 -14.079  1.00  0.00     0.002 C 
BRANCH  37  38
HETATM   38  C29 UNL     1       0.261  52.238 -13.563  1.00  0.00     0.009 C 
BRANCH  38  39
HETATM   39  C30 UNL     1       0.850  53.059 -12.413  1.00  0.00     0.103 C 
BRANCH  39  40
HETATM   40  C31 UNL     1      -0.090  53.184 -11.225  1.00  0.00     0.217 C 
HETATM   41  O7  UNL     1       0.289  53.177 -10.058  1.00  0.00    -0.274 OA
HETATM   42  N2  UNL     1      -1.408  53.322 -11.599  1.00  0.00    -0.357 N 
HETATM   43  H45 UNL     1      -1.624  53.488 -12.573  1.00  0.00     0.162 HD
BRANCH  42  44
HETATM   44  C32 UNL     1      -2.462  53.531 -10.632  1.00  0.00     0.161 C 
BRANCH  44  45
HETATM   45  C33 UNL     1      -3.122  52.226 -10.266  1.00  0.00    -0.040 A 
HETATM   46  C34 UNL     1      -2.594  51.415  -9.252  1.00  0.00     0.010 A 
HETATM   47  C35 UNL     1      -3.202  50.197  -8.934  1.00  0.00     0.019 A 
HETATM   48  C36 UNL     1      -4.340  49.771  -9.631  1.00  0.00     0.037 A 
HETATM   49  C38 UNL     1      -4.863  50.570 -10.654  1.00  0.00     0.019 A 
HETATM   50  C39 UNL     1      -4.253  51.787 -10.971  1.00  0.00     0.010 A 
BRANCH  48  51
HETATM   51  C37 UNL     1      -4.945  48.469  -9.260  1.00  0.00     0.176 C 
HETATM   52  O8  UNL     1      -5.473  47.684 -10.027  1.00  0.00    -0.646 OA
BRANCH  51  53
HETATM   53  O9  UNL     1      -4.861  48.210  -7.943  1.00  0.00    -0.773 OA
HETATM   54  H50 UNL     1      -5.291  47.335  -7.847  1.00  0.00     0.167 HD
ENDBRANCH  51  53
ENDBRANCH  48  51
ENDBRANCH  44  45
ENDBRANCH  42  44
ENDBRANCH  39  40
ENDBRANCH  38  39
ENDBRANCH  37  38
ENDBRANCH  36  37
ENDBRANCH  35  36
ENDBRANCH  33  35
ENDBRANCH  30  31
ENDBRANCH  29  30
ENDBRANCH   1  29
TORSDOF 18
ENDMDL
MODEL 6
REMARK minimizedAffinity -10.1436291
REMARK CNNscore 0.371754974
REMARK CNNaffinity 7.39486074
REMARK  18 active torsions:
REMARK  status: ('A' for Active; 'I' for Inactive)
REMARK    1  A    between atoms: C19_20  and  O2_21 
REMARK    2  A    between atoms: C19_20  and  C20_22 
REMARK    3  A    between atoms: C20_22  and  C21_24 
REMARK    4  A    between atoms: C21_24  and  O4_25 
REMARK    5  A    between atoms: O4_25  and  C22_26 
REMARK    6  A    between atoms: C22_26  and  C23_28 
REMARK    7  A    between atoms: C23_28  and  C24_29 
REMARK    8  A    between atoms: C24_29  and  C25_30 
REMARK       I    between atoms: C25_30  and  N1_32 
REMARK    9  A    between atoms: N1_32  and  C26_33 
REMARK   10  A    between atoms: C26_33  and  C27_34 
REMARK   11  A    between atoms: C27_34  and  C28_35 
REMARK   12  A    between atoms: C28_35  and  C29_36 
REMARK   13  A    between atoms: C29_36  and  C30_37 
REMARK   14  A    between atoms: C30_37  and  C31_38 
REMARK       I    between atoms: C31_38  and  N2_40 
REMARK   15  A    between atoms: N2_40  and  C32_41 
REMARK   16  A    between atoms: C32_41  and  C33_42 
REMARK   17  A    between atoms: C36_45  and  C37_46 
REMARK   18  A    between atoms: C37_46  and  O9_48 
ROOT
HETATM    1  C22 UNL     1       1.042  53.535 -21.403  1.00  0.00     0.259 C 
HETATM    2  O5  UNL     1       1.865  54.418 -21.209  1.00  0.00    -0.265 OA
ENDROOT
BRANCH   1   3
HETATM    3  O4  UNL     1       0.294  53.408 -22.533  1.00  0.00    -0.314 OA
BRANCH   3   4
HETATM    4  C21 UNL     1       1.018  53.523 -23.756  1.00  0.00     0.260 C 
BRANCH   4   5
HETATM    5  C20 UNL     1       0.166  53.944 -24.954  1.00  0.00     0.185 C 
HETATM    6  O3  UNL     1       0.193  55.117 -25.339  1.00  0.00    -0.292 OA
BRANCH   5   7
HETATM    7  C19 UNL     1      -0.604  52.829 -25.707  1.00  0.00     0.128 C 
HETATM    8  C14 UNL     1      -1.513  51.901 -24.834  1.00  0.00    -0.002 C 
HETATM    9  C13 UNL     1      -2.849  52.500 -24.359  1.00  0.00     0.013 C 
HETATM   10  C15 UNL     1      -0.740  51.344 -23.600  1.00  0.00     0.019 C 
HETATM   11  C16 UNL     1      -1.829  50.798 -25.888  1.00  0.00     0.002 C 
HETATM   12  C12 UNL     1      -3.806  51.421 -23.814  1.00  0.00     0.007 C 
HETATM   13  C11 UNL     1      -4.052  50.292 -24.843  1.00  0.00     0.002 C 
HETATM   14  C2  UNL     1      -5.061  49.177 -24.406  1.00  0.00    -0.016 C 
HETATM   15  C10 UNL     1      -2.706  49.669 -25.331  1.00  0.00    -0.004 C 
HETATM   16  C1  UNL     1      -4.467  48.267 -23.303  1.00  0.00     0.020 C 
HETATM   17  C3  UNL     1      -6.382  49.800 -23.884  1.00  0.00     0.022 C 
HETATM   18  C7  UNL     1      -5.382  48.338 -25.647  1.00  0.00    -0.068 C 
HETATM   19  C4  UNL     1      -7.489  48.773 -23.658  1.00  0.00     0.084 C 
HETATM   20  C5  UNL     1      -7.674  47.864 -24.849  1.00  0.00     0.149 C 
HETATM   21  O1  UNL     1      -8.711  47.226 -25.023  1.00  0.00    -0.293 OA
HETATM   22  C6  UNL     1      -6.568  47.732 -25.826  1.00  0.00     0.053 C 
HETATM   23  C8  UNL     1      -4.361  48.303 -26.763  1.00  0.00     0.035 C 
HETATM   24  C9  UNL     1      -2.917  48.495 -26.309  1.00  0.00     0.010 C 
HETATM   25  C17 UNL     1      -0.452  50.461 -26.451  1.00  0.00     0.009 C 
HETATM   26  C18 UNL     1       0.317  51.800 -26.416  1.00  0.00     0.047 C 
BRANCH   7  27
HETATM   27  O2  UNL     1      -1.417  53.478 -26.702  1.00  0.00    -0.381 OA
HETATM   28  H27 UNL     1      -0.868  53.687 -27.478  1.00  0.00     0.211 HD
ENDBRANCH   7  27
ENDBRANCH   5   7
ENDBRANCH   4   5
ENDBRANCH   3   4
ENDBRANCH   1   3
BRANCH   1  29
HETATM   29  C23 UNL     1       0.661  52.517 -20.361  1.00  0.00     0.120 C 
BRANCH  29  30
HETATM   30  C24 UNL     1       0.613  53.077 -18.944  1.00  0.00     0.112 C 
BRANCH  30  31
HETATM   31  C25 UNL     1       0.280  51.995 -17.941  1.00  0.00     0.217 C 
HETATM   32  O6  UNL     1       1.000  51.715 -16.990  1.00  0.00    -0.274 OA
HETATM   33  N1  UNL     1      -0.920  51.366 -18.199  1.00  0.00    -0.361 N 
HETATM   34  H34 UNL     1      -1.463  51.625 -19.012  1.00  0.00     0.162 HD
BRANCH  33  35
HETATM   35  C26 UNL     1      -1.410  50.293 -17.357  1.00  0.00     0.122 C 
BRANCH  35  36
HETATM   36  C27 UNL     1      -2.601  50.707 -16.491  1.00  0.00     0.020 C 
BRANCH  36  37
HETATM   37  C28 UNL     1      -2.317  50.741 -14.986  1.00  0.00     0.002 C 
BRANCH  37  38
HETATM   38  C29 UNL     1      -3.239  51.667 -14.187  1.00  0.00     0.009 C 
BRANCH  38  39
HETATM   39  C30 UNL     1      -2.967  51.587 -12.684  1.00  0.00     0.103 C 
BRANCH  39  40
HETATM   40  C31 UNL     1      -3.203  52.903 -11.962  1.00  0.00     0.217 C 
HETATM   41  O7  UNL     1      -4.273  53.502 -11.978  1.00  0.00    -0.274 OA
HETATM   42  N2  UNL     1      -2.093  53.341 -11.273  1.00  0.00    -0.357 N 
HETATM   43  H45 UNL     1      -1.306  52.715 -11.167  1.00  0.00     0.162 HD
BRANCH  42  44
HETATM   44  C32 UNL     1      -2.119  54.533 -10.456  1.00  0.00     0.161 C 
BRANCH  44  45
HETATM   45  C33 UNL     1      -0.725  54.933 -10.045  1.00  0.00    -0.040 A 
HETATM   46  C34 UNL     1       0.367  54.702 -10.893  1.00  0.00     0.010 A 
HETATM   47  C35 UNL     1       1.658  55.058 -10.494  1.00  0.00     0.019 A 
HETATM   48  C36 UNL     1       1.875  55.643  -9.239  1.00  0.00     0.037 A 
HETATM   49  C38 UNL     1       0.790  55.864  -8.383  1.00  0.00     0.019 A 
HETATM   50  C39 UNL     1      -0.500  55.506  -8.784  1.00  0.00     0.010 A 
BRANCH  48  51
HETATM   51  C37 UNL     1       3.263  55.998  -8.860  1.00  0.00     0.176 C 
HETATM   52  O8  UNL     1       3.694  57.127  -8.705  1.00  0.00    -0.646 OA
BRANCH  51  53
HETATM   53  O9  UNL     1       4.051  54.921  -8.692  1.00  0.00    -0.773 OA
HETATM   54  H50 UNL     1       4.920  55.300  -8.447  1.00  0.00     0.167 HD
ENDBRANCH  51  53
ENDBRANCH  48  51
ENDBRANCH  44  45
ENDBRANCH  42  44
ENDBRANCH  39  40
ENDBRANCH  38  39
ENDBRANCH  37  38
ENDBRANCH  36  37
ENDBRANCH  35  36
ENDBRANCH  33  35
ENDBRANCH  30  31
ENDBRANCH  29  30
ENDBRANCH   1  29
TORSDOF 18
ENDMDL
MODEL 7
REMARK minimizedAffinity -8.61396885
REMARK CNNscore 0.321446866
REMARK CNNaffinity 7.03859377
REMARK  18 active torsions:
REMARK  status: ('A' for Active; 'I' for Inactive)
REMARK    1  A    between atoms: C19_20  and  O2_21 
REMARK    2  A    between atoms: C19_20  and  C20_22 
REMARK    3  A    between atoms: C20_22  and  C21_24 
REMARK    4  A    between atoms: C21_24  and  O4_25 
REMARK    5  A    between atoms: O4_25  and  C22_26 
REMARK    6  A    between atoms: C22_26  and  C23_28 
REMARK    7  A    between atoms: C23_28  and  C24_29 
REMARK    8  A    between atoms: C24_29  and  C25_30 
REMARK       I    between atoms: C25_30  and  N1_32 
REMARK    9  A    between atoms: N1_32  and  C26_33 
REMARK   10  A    between atoms: C26_33  and  C27_34 
REMARK   11  A    between atoms: C27_34  and  C28_35 
REMARK   12  A    between atoms: C28_35  and  C29_36 
REMARK   13  A    between atoms: C29_36  and  C30_37 
REMARK   14  A    between atoms: C30_37  and  C31_38 
REMARK       I    between atoms: C31_38  and  N2_40 
REMARK   15  A    between atoms: N2_40  and  C32_41 
REMARK   16  A    between atoms: C32_41  and  C33_42 
REMARK   17  A    between atoms: C36_45  and  C37_46 
REMARK   18  A    between atoms: C37_46  and  O9_48 
ROOT
HETATM    1  C22 UNL     1      -4.386  48.720 -27.701  1.00  0.00     0.259 C 
HETATM    2  O5  UNL     1      -3.893  49.167 -28.727  1.00  0.00    -0.265 OA
ENDROOT
BRANCH   1   3
HETATM    3  O4  UNL     1      -5.613  48.137 -27.620  1.00  0.00    -0.314 OA
BRANCH   3   4
HETATM    4  C21 UNL     1      -5.984  47.346 -28.746  1.00  0.00     0.260 C 
BRANCH   4   5
HETATM    5  C20 UNL     1      -6.878  48.068 -29.756  1.00  0.00     0.185 C 
HETATM    6  O3  UNL     1      -6.400  48.447 -30.830  1.00  0.00    -0.292 OA
BRANCH   5   7
HETATM    7  C19 UNL     1      -8.387  48.176 -29.421  1.00  0.00     0.128 C 
HETATM    8  C14 UNL     1      -9.093  46.857 -28.961  1.00  0.00    -0.002 C 
HETATM    9  C13 UNL     1      -8.809  46.393 -27.522  1.00  0.00     0.013 C 
HETATM   10  C15 UNL     1      -8.797  45.680 -29.941  1.00  0.00     0.019 C 
HETATM   11  C16 UNL     1     -10.576  47.330 -29.030  1.00  0.00     0.002 C 
HETATM   12  C12 UNL     1      -9.797  45.304 -27.058  1.00  0.00     0.007 C 
HETATM   13  C11 UNL     1     -11.269  45.759 -27.202  1.00  0.00     0.002 C 
HETATM   14  C2  UNL     1     -12.350  44.744 -26.699  1.00  0.00    -0.016 C 
HETATM   15  C10 UNL     1     -11.576  46.227 -28.660  1.00  0.00    -0.004 C 
HETATM   16  C1  UNL     1     -12.466  43.517 -27.637  1.00  0.00     0.020 C 
HETATM   17  C3  UNL     1     -12.022  44.250 -25.267  1.00  0.00     0.022 C 
HETATM   18  C7  UNL     1     -13.690  45.485 -26.657  1.00  0.00    -0.068 C 
HETATM   19  C4  UNL     1     -13.149  43.440 -24.631  1.00  0.00     0.084 C 
HETATM   20  C5  UNL     1     -14.484  44.136 -24.742  1.00  0.00     0.149 C 
HETATM   21  O1  UNL     1     -15.428  43.849 -24.009  1.00  0.00    -0.293 OA
HETATM   22  C6  UNL     1     -14.658  45.187 -25.773  1.00  0.00     0.053 C 
HETATM   23  C8  UNL     1     -13.869  46.682 -27.567  1.00  0.00     0.035 C 
HETATM   24  C9  UNL     1     -13.053  46.626 -28.856  1.00  0.00     0.010 C 
HETATM   25  C17 UNL     1     -10.662  47.981 -30.407  1.00  0.00     0.009 C 
HETATM   26  C18 UNL     1      -9.267  48.607 -30.626  1.00  0.00     0.047 C 
BRANCH   7  27
HETATM   27  O2  UNL     1      -8.518  49.163 -28.382  1.00  0.00    -0.381 OA
HETATM   28  H27 UNL     1      -8.495  50.052 -28.779  1.00  0.00     0.211 HD
ENDBRANCH   7  27
ENDBRANCH   5   7
ENDBRANCH   4   5
ENDBRANCH   3   4
ENDBRANCH   1   3
BRANCH   1  29
HETATM   29  C23 UNL     1      -3.738  48.852 -26.348  1.00  0.00     0.120 C 
BRANCH  29  30
HETATM   30  C24 UNL     1      -3.234  50.258 -26.044  1.00  0.00     0.112 C 
BRANCH  30  31
HETATM   31  C25 UNL     1      -1.802  50.435 -26.500  1.00  0.00     0.217 C 
HETATM   32  O6  UNL     1      -0.857  49.839 -25.996  1.00  0.00    -0.274 OA
HETATM   33  N1  UNL     1      -1.672  51.323 -27.547  1.00  0.00    -0.361 N 
HETATM   34  H34 UNL     1      -2.486  51.801 -27.910  1.00  0.00     0.162 HD
BRANCH  33  35
HETATM   35  C26 UNL     1      -0.378  51.635 -28.119  1.00  0.00     0.122 C 
BRANCH  35  36
HETATM   36  C27 UNL     1       0.538  52.390 -27.155  1.00  0.00     0.020 C 
BRANCH  36  37
HETATM   37  C28 UNL     1       0.041  53.784 -26.759  1.00  0.00     0.002 C 
BRANCH  37  38
HETATM   38  C29 UNL     1      -0.003  54.036 -25.248  1.00  0.00     0.009 C 
BRANCH  38  39
HETATM   39  C30 UNL     1       0.437  52.806 -24.451  1.00  0.00     0.103 C 
BRANCH  39  40
HETATM   40  C31 UNL     1      -0.608  52.335 -23.453  1.00  0.00     0.217 C 
HETATM   41  O7  UNL     1      -1.793  52.648 -23.514  1.00  0.00    -0.274 OA
HETATM   42  N2  UNL     1      -0.086  51.507 -22.484  1.00  0.00    -0.357 N 
HETATM   43  H45 UNL     1       0.857  51.160 -22.595  1.00  0.00     0.162 HD
BRANCH  42  44
HETATM   44  C32 UNL     1      -0.917  50.885 -21.478  1.00  0.00     0.161 C 
BRANCH  44  45
HETATM   45  C33 UNL     1      -0.394  51.176 -20.094  1.00  0.00    -0.040 A 
HETATM   46  C34 UNL     1      -0.584  50.262 -19.049  1.00  0.00     0.010 A 
HETATM   47  C35 UNL     1      -0.113  50.550 -17.765  1.00  0.00     0.019 A 
HETATM   48  C36 UNL     1       0.548  51.758 -17.508  1.00  0.00     0.037 A 
HETATM   49  C38 UNL     1       0.728  52.681 -18.544  1.00  0.00     0.019 A 
HETATM   50  C39 UNL     1       0.255  52.392 -19.828  1.00  0.00     0.010 A 
BRANCH  48  51
HETATM   51  C37 UNL     1       1.024  52.019 -16.129  1.00  0.00     0.176 C 
HETATM   52  O8  UNL     1       1.029  51.217 -15.212  1.00  0.00    -0.646 OA
BRANCH  51  53
HETATM   53  O9  UNL     1       1.474  53.276 -15.960  1.00  0.00    -0.773 OA
HETATM   54  H50 UNL     1       1.752  53.303 -15.021  1.00  0.00     0.167 HD
ENDBRANCH  51  53
ENDBRANCH  48  51
ENDBRANCH  44  45
ENDBRANCH  42  44
ENDBRANCH  39  40
ENDBRANCH  38  39
ENDBRANCH  37  38
ENDBRANCH  36  37
ENDBRANCH  35  36
ENDBRANCH  33  35
ENDBRANCH  30  31
ENDBRANCH  29  30
ENDBRANCH   1  29
TORSDOF 18
ENDMDL
MODEL 8
REMARK minimizedAffinity -8.46921539
REMARK CNNscore 0.30720067
REMARK CNNaffinity 6.14242792
REMARK  18 active torsions:
REMARK  status: ('A' for Active; 'I' for Inactive)
REMARK    1  A    between atoms: C19_20  and  O2_21 
REMARK    2  A    between atoms: C19_20  and  C20_22 
REMARK    3  A    between atoms: C20_22  and  C21_24 
REMARK    4  A    between atoms: C21_24  and  O4_25 
REMARK    5  A    between atoms: O4_25  and  C22_26 
REMARK    6  A    between atoms: C22_26  and  C23_28 
REMARK    7  A    between atoms: C23_28  and  C24_29 
REMARK    8  A    between atoms: C24_29  and  C25_30 
REMARK       I    between atoms: C25_30  and  N1_32 
REMARK    9  A    between atoms: N1_32  and  C26_33 
REMARK   10  A    between atoms: C26_33  and  C27_34 
REMARK   11  A    between atoms: C27_34  and  C28_35 
REMARK   12  A    between atoms: C28_35  and  C29_36 
REMARK   13  A    between atoms: C29_36  and  C30_37 
REMARK   14  A    between atoms: C30_37  and  C31_38 
REMARK       I    between atoms: C31_38  and  N2_40 
REMARK   15  A    between atoms: N2_40  and  C32_41 
REMARK   16  A    between atoms: C32_41  and  C33_42 
REMARK   17  A    between atoms: C36_45  and  C37_46 
REMARK   18  A    between atoms: C37_46  and  O9_48 
ROOT
HETATM    1  C22 UNL     1      -9.322  46.979 -25.198  1.00  0.00     0.259 C 
HETATM    2  O5  UNL     1      -9.890  46.137 -24.517  1.00  0.00    -0.265 OA
ENDROOT
BRANCH   1   3
HETATM    3  O4  UNL     1      -9.423  47.077 -26.552  1.00  0.00    -0.314 OA
BRANCH   3   4
HETATM    4  C21 UNL     1     -10.665  47.585 -27.032  1.00  0.00     0.260 C 
BRANCH   4   5
HETATM    5  C20 UNL     1     -11.620  46.514 -27.562  1.00  0.00     0.185 C 
HETATM    6  O3  UNL     1     -11.165  45.531 -28.156  1.00  0.00    -0.292 OA
BRANCH   5   7
HETATM    7  C19 UNL     1     -13.122  46.662 -27.211  1.00  0.00     0.128 C 
HETATM    8  C14 UNL     1     -13.579  46.051 -25.844  1.00  0.00    -0.002 C 
HETATM    9  C13 UNL     1     -13.206  46.845 -24.579  1.00  0.00     0.013 C 
HETATM   10  C15 UNL     1     -13.086  44.581 -25.684  1.00  0.00     0.019 C 
HETATM   11  C16 UNL     1     -15.123  46.145 -26.032  1.00  0.00     0.002 C 
HETATM   12  C12 UNL     1     -13.982  46.357 -23.339  1.00  0.00     0.007 C 
HETATM   13  C11 UNL     1     -15.512  46.384 -23.566  1.00  0.00     0.002 C 
HETATM   14  C2  UNL     1     -16.392  45.963 -22.341  1.00  0.00    -0.016 C 
HETATM   15  C10 UNL     1     -15.908  45.577 -24.843  1.00  0.00    -0.004 C 
HETATM   16  C1  UNL     1     -16.295  44.443 -22.060  1.00  0.00     0.020 C 
HETATM   17  C3  UNL     1     -15.970  46.737 -21.065  1.00  0.00     0.022 C 
HETATM   18  C7  UNL     1     -17.842  46.333 -22.670  1.00  0.00    -0.068 C 
HETATM   19  C4  UNL     1     -16.931  46.545 -19.894  1.00  0.00     0.084 C 
HETATM   20  C5  UNL     1     -18.369  46.772 -20.294  1.00  0.00     0.149 C 
HETATM   21  O1  UNL     1     -19.242  47.018 -19.464  1.00  0.00    -0.293 OA
HETATM   22  C6  UNL     1     -18.734  46.682 -21.727  1.00  0.00     0.053 C 
HETATM   23  C8  UNL     1     -18.237  46.429 -24.128  1.00  0.00     0.035 C 
HETATM   24  C9  UNL     1     -17.434  45.528 -25.063  1.00  0.00     0.010 C 
HETATM   25  C17 UNL     1     -15.334  45.544 -27.418  1.00  0.00     0.009 C 
HETATM   26  C18 UNL     1     -14.073  45.954 -28.212  1.00  0.00     0.047 C 
BRANCH   7  27
HETATM   27  O2  UNL     1     -13.417  48.070 -27.216  1.00  0.00    -0.381 OA
HETATM   28  H27 UNL     1     -13.556  48.366 -28.133  1.00  0.00     0.211 HD
ENDBRANCH   7  27
ENDBRANCH   5   7
ENDBRANCH   4   5
ENDBRANCH   3   4
ENDBRANCH   1   3
BRANCH   1  29
HETATM   29  C23 UNL     1      -8.335  47.968 -24.637  1.00  0.00     0.120 C 
BRANCH  29  30
HETATM   30  C24 UNL     1      -6.980  47.946 -25.335  1.00  0.00     0.112 C 
BRANCH  30  31
HETATM   31  C25 UNL     1      -5.945  48.714 -24.543  1.00  0.00     0.217 C 
HETATM   32  O6  UNL     1      -4.815  48.294 -24.327  1.00  0.00    -0.274 OA
HETATM   33  N1  UNL     1      -6.401  49.938 -24.100  1.00  0.00    -0.361 N 
HETATM   34  H34 UNL     1      -7.352  50.225 -24.292  1.00  0.00     0.162 HD
BRANCH  33  35
HETATM   35  C26 UNL     1      -5.562  50.820 -23.314  1.00  0.00     0.122 C 
BRANCH  35  36
HETATM   36  C27 UNL     1      -5.706  50.600 -21.807  1.00  0.00     0.020 C 
BRANCH  36  37
HETATM   37  C28 UNL     1      -4.390  50.648 -21.025  1.00  0.00     0.002 C 
BRANCH  37  38
HETATM   38  C29 UNL     1      -3.978  49.314 -20.394  1.00  0.00     0.009 C 
BRANCH  38  39
HETATM   39  C30 UNL     1      -3.572  49.477 -18.928  1.00  0.00     0.103 C 
BRANCH  39  40
HETATM   40  C31 UNL     1      -2.598  50.622 -18.700  1.00  0.00     0.217 C 
HETATM   41  O7  UNL     1      -2.900  51.663 -18.125  1.00  0.00    -0.274 OA
HETATM   42  N2  UNL     1      -1.339  50.357 -19.191  1.00  0.00    -0.357 N 
HETATM   43  H45 UNL     1      -1.122  49.418 -19.498  1.00  0.00     0.162 HD
BRANCH  42  44
HETATM   44  C32 UNL     1      -0.239  51.278 -19.016  1.00  0.00     0.161 C 
BRANCH  44  45
HETATM   45  C33 UNL     1       0.105  51.957 -20.318  1.00  0.00    -0.040 A 
HETATM   46  C34 UNL     1       0.937  53.085 -20.339  1.00  0.00     0.010 A 
HETATM   47  C35 UNL     1       1.234  53.720 -21.549  1.00  0.00     0.019 A 
HETATM   48  C36 UNL     1       0.697  53.239 -22.751  1.00  0.00     0.037 A 
HETATM   49  C38 UNL     1      -0.145  52.121 -22.733  1.00  0.00     0.019 A 
HETATM   50  C39 UNL     1      -0.441  51.489 -21.522  1.00  0.00     0.010 A 
BRANCH  48  51
HETATM   51  C37 UNL     1       1.038  53.949 -24.007  1.00  0.00     0.176 C 
HETATM   52  O8  UNL     1       0.937  53.496 -25.132  1.00  0.00    -0.646 OA
BRANCH  51  53
HETATM   53  O9  UNL     1       1.490  55.198 -23.794  1.00  0.00    -0.773 OA
HETATM   54  H50 UNL     1       1.670  55.540 -24.695  1.00  0.00     0.167 HD
ENDBRANCH  51  53
ENDBRANCH  48  51
ENDBRANCH  44  45
ENDBRANCH  42  44
ENDBRANCH  39  40
ENDBRANCH  38  39
ENDBRANCH  37  38
ENDBRANCH  36  37
ENDBRANCH  35  36
ENDBRANCH  33  35
ENDBRANCH  30  31
ENDBRANCH  29  30
ENDBRANCH   1  29
TORSDOF 18
ENDMDL
MODEL 9
REMARK minimizedAffinity -8.72121429
REMARK CNNscore 0.291229963
REMARK CNNaffinity 7.09141779
REMARK  18 active torsions:
REMARK  status: ('A' for Active; 'I' for Inactive)
REMARK    1  A    between atoms: C19_20  and  O2_21 
REMARK    2  A    between atoms: C19_20  and  C20_22 
REMARK    3  A    between atoms: C20_22  and  C21_24 
REMARK    4  A    between atoms: C21_24  and  O4_25 
REMARK    5  A    between atoms: O4_25  and  C22_26 
REMARK    6  A    between atoms: C22_26  and  C23_28 
REMARK    7  A    between atoms: C23_28  and  C24_29 
REMARK    8  A    between atoms: C24_29  and  C25_30 
REMARK       I    between atoms: C25_30  and  N1_32 
REMARK    9  A    between atoms: N1_32  and  C26_33 
REMARK   10  A    between atoms: C26_33  and  C27_34 
REMARK   11  A    between atoms: C27_34  and  C28_35 
REMARK   12  A    between atoms: C28_35  and  C29_36 
REMARK   13  A    between atoms: C29_36  and  C30_37 
REMARK   14  A    between atoms: C30_37  and  C31_38 
REMARK       I    between atoms: C31_38  and  N2_40 
REMARK   15  A    between atoms: N2_40  and  C32_41 
REMARK   16  A    between atoms: C32_41  and  C33_42 
REMARK   17  A    between atoms: C36_45  and  C37_46 
REMARK   18  A    between atoms: C37_46  and  O9_48 
ROOT
HETATM    1  C22 UNL     1       0.455  53.191 -24.957  1.00  0.00     0.259 C 
HETATM    2  O5  UNL     1       1.452  52.484 -24.974  1.00  0.00    -0.265 OA
ENDROOT
BRANCH   1   3
HETATM    3  O4  UNL     1      -0.579  53.053 -24.082  1.00  0.00    -0.314 OA
BRANCH   3   4
HETATM    4  C21 UNL     1      -0.786  51.731 -23.594  1.00  0.00     0.260 C 
BRANCH   4   5
HETATM    5  C20 UNL     1      -1.224  51.662 -22.129  1.00  0.00     0.185 C 
HETATM    6  O3  UNL     1      -2.379  51.323 -21.853  1.00  0.00    -0.292 OA
BRANCH   5   7
HETATM    7  C19 UNL     1      -0.139  51.909 -21.050  1.00  0.00     0.128 C 
HETATM    8  C14 UNL     1      -0.517  51.514 -19.583  1.00  0.00    -0.002 C 
HETATM    9  C13 UNL     1      -0.503  50.012 -19.252  1.00  0.00     0.013 C 
HETATM   10  C15 UNL     1      -1.897  52.113 -19.170  1.00  0.00     0.019 C 
HETATM   11  C16 UNL     1       0.672  52.184 -18.831  1.00  0.00     0.002 C 
HETATM   12  C12 UNL     1      -0.547  49.753 -17.732  1.00  0.00     0.007 C 
HETATM   13  C11 UNL     1       0.596  50.484 -16.987  1.00  0.00     0.002 C 
HETATM   14  C2  UNL     1       0.674  50.235 -15.444  1.00  0.00    -0.016 C 
HETATM   15  C10 UNL     1       0.591  52.013 -17.308  1.00  0.00    -0.004 C 
HETATM   16  C1  UNL     1      -0.485  50.932 -14.690  1.00  0.00     0.020 C 
HETATM   17  C3  UNL     1       0.637  48.718 -15.126  1.00  0.00     0.022 C 
HETATM   18  C7  UNL     1       2.013  50.797 -14.956  1.00  0.00    -0.068 C 
HETATM   19  C4  UNL     1       0.939  48.397 -13.664  1.00  0.00     0.084 C 
HETATM   20  C5  UNL     1       2.188  49.090 -13.175  1.00  0.00     0.149 C 
HETATM   21  O1  UNL     1       2.797  48.703 -12.179  1.00  0.00    -0.293 OA
HETATM   22  C6  UNL     1       2.682  50.277 -13.913  1.00  0.00     0.053 C 
HETATM   23  C8  UNL     1       2.660  51.897 -15.769  1.00  0.00     0.035 C 
HETATM   24  C9  UNL     1       1.677  52.784 -16.530  1.00  0.00     0.010 C 
HETATM   25  C17 UNL     1       0.700  53.589 -19.421  1.00  0.00     0.009 C 
HETATM   26  C18 UNL     1       0.257  53.401 -20.889  1.00  0.00     0.047 C 
BRANCH   7  27
HETATM   27  O2  UNL     1       1.027  51.166 -21.448  1.00  0.00    -0.381 OA
HETATM   28  H27 UNL     1       1.516  51.672 -22.121  1.00  0.00     0.211 HD
ENDBRANCH   7  27
ENDBRANCH   5   7
ENDBRANCH   4   5
ENDBRANCH   3   4
ENDBRANCH   1   3
BRANCH   1  29
HETATM   29  C23 UNL     1       0.181  54.258 -25.984  1.00  0.00     0.120 C 
BRANCH  29  30
HETATM   30  C24 UNL     1      -0.059  53.712 -27.387  1.00  0.00     0.112 C 
BRANCH  30  31
HETATM   31  C25 UNL     1      -1.482  53.225 -27.547  1.00  0.00     0.217 C 
HETATM   32  O6  UNL     1      -2.302  53.769 -28.278  1.00  0.00    -0.274 OA
HETATM   33  N1  UNL     1      -1.758  52.101 -26.796  1.00  0.00    -0.361 N 
HETATM   34  H34 UNL     1      -1.047  51.707 -26.194  1.00  0.00     0.162 HD
BRANCH  33  35
HETATM   35  C26 UNL     1      -3.071  51.487 -26.805  1.00  0.00     0.122 C 
BRANCH  35  36
HETATM   36  C27 UNL     1      -3.162  50.280 -27.739  1.00  0.00     0.020 C 
BRANCH  36  37
HETATM   37  C28 UNL     1      -3.406  48.942 -27.034  1.00  0.00     0.002 C 
BRANCH  37  38
HETATM   38  C29 UNL     1      -4.465  48.058 -27.699  1.00  0.00     0.009 C 
BRANCH  38  39
HETATM   39  C30 UNL     1      -4.900  48.612 -29.058  1.00  0.00     0.103 C 
BRANCH  39  40
HETATM   40  C31 UNL     1      -6.370  48.367 -29.361  1.00  0.00     0.217 C 
HETATM   41  O7  UNL     1      -7.152  47.865 -28.561  1.00  0.00    -0.274 OA
HETATM   42  N2  UNL     1      -6.730  48.783 -30.624  1.00  0.00    -0.357 N 
HETATM   43  H45 UNL     1      -6.077  49.338 -31.160  1.00  0.00     0.162 HD
BRANCH  42  44
HETATM   44  C32 UNL     1      -8.096  48.713 -31.092  1.00  0.00     0.161 C 
BRANCH  44  45
HETATM   45  C33 UNL     1      -8.272  47.576 -32.066  1.00  0.00    -0.040 A 
HETATM   46  C34 UNL     1      -8.486  47.825 -33.428  1.00  0.00     0.010 A 
HETATM   47  C35 UNL     1      -8.669  46.764 -34.319  1.00  0.00     0.019 A 
HETATM   48  C36 UNL     1      -8.646  45.441 -33.859  1.00  0.00     0.037 A 
HETATM   49  C38 UNL     1      -8.446  45.187 -32.497  1.00  0.00     0.019 A 
HETATM   50  C39 UNL     1      -8.264  46.249 -31.607  1.00  0.00     0.010 A 
BRANCH  48  51
HETATM   51  C37 UNL     1      -8.849  44.350 -34.842  1.00  0.00     0.176 C 
HETATM   52  O8  UNL     1      -9.782  44.255 -35.619  1.00  0.00    -0.646 OA
BRANCH  51  53
HETATM   53  O9  UNL     1      -7.872  43.426 -34.808  1.00  0.00    -0.773 OA
HETATM   54  H50 UNL     1      -8.133  42.782 -35.498  1.00  0.00     0.167 HD
ENDBRANCH  51  53
ENDBRANCH  48  51
ENDBRANCH  44  45
ENDBRANCH  42  44
ENDBRANCH  39  40
ENDBRANCH  38  39
ENDBRANCH  37  38
ENDBRANCH  36  37
ENDBRANCH  35  36
ENDBRANCH  33  35
ENDBRANCH  30  31
ENDBRANCH  29  30
ENDBRANCH   1  29
TORSDOF 18
ENDMDL
