MODEL 1
REMARK minimizedAffinity -10.0996647
REMARK  7 active torsions:
REMARK  status: ('A' for Active; 'I' for Inactive)
REMARK    1  A    between atoms: C19_20  and  O2_21 
REMARK    2  A    between atoms: O2_21  and  C20_22 
REMARK    3  A    between atoms: C20_22  and  C21_24 
REMARK    4  A    between atoms: C21_24  and  C22_25 
REMARK    5  A    between atoms: C22_25  and  C23_26 
REMARK       I    between atoms: C23_26  and  N1_28 
REMARK    6  A    between atoms: N1_28  and  C24_29 
REMARK    7  A    between atoms: C24_29  and  C25_30 
ROOT
HETATM    1  C1  UNL     1      -2.209  52.098 -23.581  1.00  0.00     0.018 C 
HETATM    2  C2  UNL     1      -0.826  51.401 -23.514  1.00  0.00    -0.013 C 
HETATM    3  C3  UNL     1      -0.973  50.042 -22.816  1.00  0.00     0.012 C 
HETATM    4  C4  UNL     1      -1.294  50.200 -21.318  1.00  0.00     0.007 C 
HETATM    5  C5  UNL     1      -0.305  51.128 -20.564  1.00  0.00     0.002 C 
HETATM    6  C6  UNL     1      -0.111  52.488 -21.306  1.00  0.00    -0.004 C 
HETATM    7  C7  UNL     1       0.970  53.322 -20.607  1.00  0.00     0.010 C 
HETATM    8  C8  UNL     1       0.615  53.571 -19.147  1.00  0.00     0.035 C 
HETATM    9  C9  UNL     1       0.361  52.284 -18.400  1.00  0.00    -0.068 C 
HETATM   10  C10 UNL     1       0.987  52.061 -17.230  1.00  0.00     0.053 C 
HETATM   11  C11 UNL     1       0.690  50.874 -16.398  1.00  0.00     0.149 C 
HETATM   12  O1  UNL     1       1.317  50.694 -15.357  1.00  0.00    -0.293 OA
HETATM   13  C12 UNL     1      -0.438  49.974 -16.827  1.00  0.00     0.084 C 
HETATM   14  C13 UNL     1      -0.522  49.909 -18.344  1.00  0.00     0.022 C 
HETATM   15  C14 UNL     1      -0.636  51.303 -19.032  1.00  0.00    -0.016 C 
HETATM   16  C15 UNL     1      -2.062  51.857 -18.807  1.00  0.00     0.020 C 
HETATM   17  C16 UNL     1       0.259  52.201 -22.764  1.00  0.00     0.001 C 
HETATM   18  C17 UNL     1       0.547  53.374 -23.696  1.00  0.00     0.008 C 
HETATM   19  C18 UNL     1       0.390  52.777 -25.105  1.00  0.00     0.034 C 
HETATM   20  C19 UNL     1      -0.180  51.353 -24.918  1.00  0.00     0.140 C 
ENDROOT
BRANCH  20  21
HETATM   21  O2  UNL     1      -1.110  51.085 -25.971  1.00  0.00    -0.315 OA
BRANCH  21  22
HETATM   22  C20 UNL     1      -1.629  52.168 -26.607  1.00  0.00     0.259 C 
HETATM   23  O3  UNL     1      -1.043  53.228 -26.789  1.00  0.00    -0.265 OA
BRANCH  22  24
HETATM   24  C21 UNL     1      -3.002  51.877 -27.167  1.00  0.00     0.120 C 
BRANCH  24  25
HETATM   25  C22 UNL     1      -3.055  50.688 -28.121  1.00  0.00     0.112 C 
BRANCH  25  26
HETATM   26  C23 UNL     1      -3.654  49.458 -27.469  1.00  0.00     0.218 C 
HETATM   27  O4  UNL     1      -3.862  48.410 -28.067  1.00  0.00    -0.274 OA
HETATM   28  N1  UNL     1      -3.936  49.642 -26.133  1.00  0.00    -0.357 N 
HETATM   29  H32 UNL     1      -3.595  50.475 -25.673  1.00  0.00     0.162 HD
BRANCH  28  30
HETATM   30  C24 UNL     1      -4.403  48.555 -25.300  1.00  0.00     0.162 C 
BRANCH  30  31
HETATM   31  C25 UNL     1      -5.453  49.027 -24.339  1.00  0.00    -0.025 A 
HETATM   32  C26 UNL     1      -6.416  48.153 -23.825  1.00  0.00     0.011 A 
HETATM   33  C27 UNL     1      -7.362  48.620 -22.917  1.00  0.00     0.018 A 
HETATM   34  C28 UNL     1      -7.310  49.953 -22.546  1.00  0.00     0.087 A 
HETATM   35  N2  UNL     1      -6.395  50.829 -23.017  1.00  0.00    -0.375 N 
HETATM   36  C29 UNL     1      -5.491  50.346 -23.899  1.00  0.00     0.096 A 
ATOM     37  H2  UNL     1      -6.386  51.804 -22.721  1.00  0.00     0.164 HD
ENDBRANCH  30  31
ENDBRANCH  28  30
ENDBRANCH  25  26
ENDBRANCH  24  25
ENDBRANCH  22  24
ENDBRANCH  21  22
ENDBRANCH  20  21
TORSDOF 7
ENDMDL
MODEL 2
REMARK minimizedAffinity -10.0549393
REMARK  7 active torsions:
REMARK  status: ('A' for Active; 'I' for Inactive)
REMARK    1  A    between atoms: C19_20  and  O2_21 
REMARK    2  A    between atoms: O2_21  and  C20_22 
REMARK    3  A    between atoms: C20_22  and  C21_24 
REMARK    4  A    between atoms: C21_24  and  C22_25 
REMARK    5  A    between atoms: C22_25  and  C23_26 
REMARK       I    between atoms: C23_26  and  N1_28 
REMARK    6  A    between atoms: N1_28  and  C24_29 
REMARK    7  A    between atoms: C24_29  and  C25_30 
ROOT
HETATM    1  C1  UNL     1      -3.477  49.881 -20.843  1.00  0.00     0.018 C 
HETATM    2  C2  UNL     1      -2.051  49.385 -21.193  1.00  0.00    -0.013 C 
HETATM    3  C3  UNL     1      -1.637  48.285 -20.205  1.00  0.00     0.012 C 
HETATM    4  C4  UNL     1      -1.412  48.844 -18.788  1.00  0.00     0.007 C 
HETATM    5  C5  UNL     1      -0.440  50.052 -18.742  1.00  0.00     0.002 C 
HETATM    6  C6  UNL     1      -0.827  51.144 -19.788  1.00  0.00    -0.004 C 
HETATM    7  C7  UNL     1       0.229  52.257 -19.807  1.00  0.00     0.010 C 
HETATM    8  C8  UNL     1       0.388  52.887 -18.430  1.00  0.00     0.035 C 
HETATM    9  C9  UNL     1       0.709  51.859 -17.372  1.00  0.00    -0.068 C 
HETATM   10  C10 UNL     1       1.752  52.059 -16.547  1.00  0.00     0.053 C 
HETATM   11  C11 UNL     1       2.043  51.147 -15.418  1.00  0.00     0.149 C 
HETATM   12  O1  UNL     1       3.031  51.350 -14.717  1.00  0.00    -0.293 OA
HETATM   13  C12 UNL     1       1.058  50.047 -15.126  1.00  0.00     0.084 C 
HETATM   14  C13 UNL     1       0.439  49.528 -16.415  1.00  0.00     0.022 C 
HETATM   15  C14 UNL     1      -0.215  50.636 -17.294  1.00  0.00    -0.016 C 
HETATM   16  C15 UNL     1      -1.543  51.078 -16.636  1.00  0.00     0.020 C 
HETATM   17  C16 UNL     1      -0.966  50.479 -21.161  1.00  0.00     0.001 C 
HETATM   18  C17 UNL     1      -1.298  51.348 -22.370  1.00  0.00     0.008 C 
HETATM   19  C18 UNL     1      -1.828  50.349 -23.412  1.00  0.00     0.034 C 
HETATM   20  C19 UNL     1      -1.970  48.991 -22.686  1.00  0.00     0.140 C 
ENDROOT
BRANCH  20  21
HETATM   21  O2  UNL     1      -3.141  48.328 -23.171  1.00  0.00    -0.315 OA
BRANCH  21  22
HETATM   22  C20 UNL     1      -3.749  48.889 -24.250  1.00  0.00     0.259 C 
HETATM   23  O3  UNL     1      -4.653  49.714 -24.201  1.00  0.00    -0.265 OA
BRANCH  22  24
HETATM   24  C21 UNL     1      -3.099  48.449 -25.542  1.00  0.00     0.120 C 
BRANCH  24  25
HETATM   25  C22 UNL     1      -3.905  48.775 -26.796  1.00  0.00     0.112 C 
BRANCH  25  26
HETATM   26  C23 UNL     1      -3.244  49.850 -27.636  1.00  0.00     0.218 C 
HETATM   27  O4  UNL     1      -3.530  50.062 -28.808  1.00  0.00    -0.274 OA
HETATM   28  N1  UNL     1      -2.293  50.564 -26.942  1.00  0.00    -0.357 N 
HETATM   29  H32 UNL     1      -2.222  50.439 -25.941  1.00  0.00     0.162 HD
BRANCH  28  30
HETATM   30  C24 UNL     1      -1.630  51.710 -27.526  1.00  0.00     0.162 C 
BRANCH  30  31
HETATM   31  C25 UNL     1      -0.151  51.659 -27.282  1.00  0.00    -0.025 A 
HETATM   32  C26 UNL     1       0.765  51.786 -28.331  1.00  0.00     0.011 A 
HETATM   33  C27 UNL     1       2.131  51.757 -28.064  1.00  0.00     0.018 A 
HETATM   34  C28 UNL     1       2.538  51.606 -26.749  1.00  0.00     0.087 A 
HETATM   35  N2  UNL     1       1.686  51.484 -25.708  1.00  0.00    -0.375 N 
HETATM   36  C29 UNL     1       0.365  51.513 -25.999  1.00  0.00     0.096 A 
ATOM     37  H2  UNL     1       2.021  51.375 -24.752  1.00  0.00     0.164 HD
ENDBRANCH  30  31
ENDBRANCH  28  30
ENDBRANCH  25  26
ENDBRANCH  24  25
ENDBRANCH  22  24
ENDBRANCH  21  22
ENDBRANCH  20  21
TORSDOF 7
ENDMDL
MODEL 3
REMARK minimizedAffinity -9.88397217
REMARK  7 active torsions:
REMARK  status: ('A' for Active; 'I' for Inactive)
REMARK    1  A    between atoms: C19_20  and  O2_21 
REMARK    2  A    between atoms: O2_21  and  C20_22 
REMARK    3  A    between atoms: C20_22  and  C21_24 
REMARK    4  A    between atoms: C21_24  and  C22_25 
REMARK    5  A    between atoms: C22_25  and  C23_26 
REMARK       I    between atoms: C23_26  and  N1_28 
REMARK    6  A    between atoms: N1_28  and  C24_29 
REMARK    7  A    between atoms: C24_29  and  C25_30 
ROOT
HETATM    1  C1  UNL     1      -2.183  52.587 -23.250  1.00  0.00     0.018 C 
HETATM    2  C2  UNL     1      -0.902  51.717 -23.296  1.00  0.00    -0.013 C 
HETATM    3  C3  UNL     1      -1.252  50.272 -22.916  1.00  0.00     0.012 C 
HETATM    4  C4  UNL     1      -1.636  50.148 -21.430  1.00  0.00     0.007 C 
HETATM    5  C5  UNL     1      -0.586  50.757 -20.463  1.00  0.00     0.002 C 
HETATM    6  C6  UNL     1      -0.186  52.205 -20.885  1.00  0.00    -0.004 C 
HETATM    7  C7  UNL     1       0.948  52.724 -19.990  1.00  0.00     0.010 C 
HETATM    8  C8  UNL     1       0.543  52.701 -18.522  1.00  0.00     0.035 C 
HETATM    9  C9  UNL     1       0.093  51.329 -18.081  1.00  0.00    -0.068 C 
HETATM   10  C10 UNL     1       0.620  50.783 -16.970  1.00  0.00     0.053 C 
HETATM   11  C11 UNL     1       0.134  49.496 -16.425  1.00  0.00     0.149 C 
HETATM   12  O1  UNL     1       0.675  49.018 -15.431  1.00  0.00    -0.293 OA
HETATM   13  C12 UNL     1      -1.069  48.863 -17.073  1.00  0.00     0.084 C 
HETATM   14  C13 UNL     1      -1.075  49.134 -18.570  1.00  0.00     0.022 C 
HETATM   15  C14 UNL     1      -0.979  50.644 -18.940  1.00  0.00    -0.016 C 
HETATM   16  C15 UNL     1      -2.338  51.320 -18.641  1.00  0.00     0.020 C 
HETATM   17  C16 UNL     1       0.228  52.189 -22.360  1.00  0.00     0.001 C 
HETATM   18  C17 UNL     1       0.709  53.485 -23.005  1.00  0.00     0.008 C 
HETATM   19  C18 UNL     1       0.561  53.227 -24.513  1.00  0.00     0.034 C 
HETATM   20  C19 UNL     1      -0.188  51.883 -24.658  1.00  0.00     0.140 C 
ENDROOT
BRANCH  20  21
HETATM   21  O2  UNL     1      -1.082  51.969 -25.770  1.00  0.00    -0.315 OA
BRANCH  21  22
HETATM   22  C20 UNL     1      -0.879  51.080 -26.779  1.00  0.00     0.259 C 
HETATM   23  O3  UNL     1       0.022  51.145 -27.606  1.00  0.00    -0.265 OA
BRANCH  22  24
HETATM   24  C21 UNL     1      -1.847  49.922 -26.700  1.00  0.00     0.120 C 
BRANCH  24  25
HETATM   25  C22 UNL     1      -3.163  50.149 -27.436  1.00  0.00     0.112 C 
BRANCH  25  26
HETATM   26  C23 UNL     1      -4.065  48.931 -27.383  1.00  0.00     0.218 C 
HETATM   27  O4  UNL     1      -4.035  48.108 -26.476  1.00  0.00    -0.274 OA
HETATM   28  N1  UNL     1      -4.922  48.851 -28.457  1.00  0.00    -0.357 N 
HETATM   29  H32 UNL     1      -4.998  49.643 -29.081  1.00  0.00     0.162 HD
BRANCH  28  30
HETATM   30  C24 UNL     1      -5.943  47.829 -28.537  1.00  0.00     0.162 C 
BRANCH  30  31
HETATM   31  C25 UNL     1      -6.753  47.975 -29.792  1.00  0.00    -0.025 A 
HETATM   32  C26 UNL     1      -8.023  48.560 -29.775  1.00  0.00     0.011 A 
HETATM   33  C27 UNL     1      -8.736  48.701 -30.962  1.00  0.00     0.018 A 
HETATM   34  C28 UNL     1      -8.151  48.254 -32.134  1.00  0.00     0.087 A 
HETATM   35  N2  UNL     1      -6.926  47.686 -32.193  1.00  0.00    -0.375 N 
HETATM   36  C29 UNL     1      -6.258  47.561 -31.024  1.00  0.00     0.096 A 
ATOM     37  H2  UNL     1      -6.525  47.369 -33.075  1.00  0.00     0.164 HD
ENDBRANCH  30  31
ENDBRANCH  28  30
ENDBRANCH  25  26
ENDBRANCH  24  25
ENDBRANCH  22  24
ENDBRANCH  21  22
ENDBRANCH  20  21
TORSDOF 7
ENDMDL
MODEL 4
REMARK minimizedAffinity -9.77871227
REMARK  7 active torsions:
REMARK  status: ('A' for Active; 'I' for Inactive)
REMARK    1  A    between atoms: C19_20  and  O2_21 
REMARK    2  A    between atoms: O2_21  and  C20_22 
REMARK    3  A    between atoms: C20_22  and  C21_24 
REMARK    4  A    between atoms: C21_24  and  C22_25 
REMARK    5  A    between atoms: C22_25  and  C23_26 
REMARK       I    between atoms: C23_26  and  N1_28 
REMARK    6  A    between atoms: N1_28  and  C24_29 
REMARK    7  A    between atoms: C24_29  and  C25_30 
ROOT
HETATM    1  C1  UNL     1      -2.432  51.544 -18.808  1.00  0.00     0.018 C 
HETATM    2  C2  UNL     1      -1.125  50.928 -19.369  1.00  0.00    -0.013 C 
HETATM    3  C3  UNL     1      -1.080  49.431 -19.031  1.00  0.00     0.012 C 
HETATM    4  C4  UNL     1      -0.892  49.191 -17.522  1.00  0.00     0.007 C 
HETATM    5  C5  UNL     1       0.317  49.952 -16.917  1.00  0.00     0.002 C 
HETATM    6  C6  UNL     1       0.303  51.462 -17.310  1.00  0.00    -0.004 C 
HETATM    7  C7  UNL     1       1.579  52.152 -16.809  1.00  0.00     0.010 C 
HETATM    8  C8  UNL     1       1.725  52.008 -15.300  1.00  0.00     0.035 C 
HETATM    9  C9  UNL     1       1.687  50.563 -14.864  1.00  0.00    -0.068 C 
HETATM   10  C10 UNL     1       2.652  50.088 -14.056  1.00  0.00     0.053 C 
HETATM   11  C11 UNL     1       2.604  48.716 -13.503  1.00  0.00     0.149 C 
HETATM   12  O1  UNL     1       3.530  48.315 -12.801  1.00  0.00    -0.293 OA
HETATM   13  C12 UNL     1       1.370  47.893 -13.759  1.00  0.00     0.084 C 
HETATM   14  C13 UNL     1       0.795  48.206 -15.133  1.00  0.00     0.022 C 
HETATM   15  C14 UNL     1       0.508  49.719 -15.368  1.00  0.00    -0.016 C 
HETATM   16  C15 UNL     1      -0.749  50.122 -14.563  1.00  0.00     0.020 C 
HETATM   17  C16 UNL     1       0.170  51.571 -18.832  1.00  0.00     0.001 C 
HETATM   18  C17 UNL     1       0.177  52.953 -19.476  1.00  0.00     0.008 C 
HETATM   19  C18 UNL     1      -0.448  52.721 -20.862  1.00  0.00     0.034 C 
HETATM   20  C19 UNL     1      -0.972  51.267 -20.871  1.00  0.00     0.140 C 
ENDROOT
BRANCH  20  21
HETATM   21  O2  UNL     1      -2.202  51.222 -21.599  1.00  0.00    -0.315 OA
BRANCH  21  22
HETATM   22  C20 UNL     1      -2.102  51.269 -22.954  1.00  0.00     0.259 C 
HETATM   23  O3  UNL     1      -1.464  50.482 -23.642  1.00  0.00    -0.265 OA
BRANCH  22  24
HETATM   24  C21 UNL     1      -2.970  52.361 -23.536  1.00  0.00     0.120 C 
BRANCH  24  25
HETATM   25  C22 UNL     1      -3.889  51.903 -24.664  1.00  0.00     0.112 C 
BRANCH  25  26
HETATM   26  C23 UNL     1      -3.156  51.791 -25.987  1.00  0.00     0.218 C 
HETATM   27  O4  UNL     1      -3.365  50.899 -26.800  1.00  0.00    -0.274 OA
HETATM   28  N1  UNL     1      -2.237  52.798 -26.179  1.00  0.00    -0.357 N 
HETATM   29  H32 UNL     1      -2.231  53.581 -25.540  1.00  0.00     0.162 HD
BRANCH  28  30
HETATM   30  C24 UNL     1      -1.518  52.940 -27.426  1.00  0.00     0.162 C 
BRANCH  30  31
HETATM   31  C25 UNL     1      -0.095  52.490 -27.280  1.00  0.00    -0.025 A 
HETATM   32  C26 UNL     1       0.621  51.974 -28.366  1.00  0.00     0.011 A 
HETATM   33  C27 UNL     1       1.948  51.588 -28.200  1.00  0.00     0.018 A 
HETATM   34  C28 UNL     1       2.521  51.737 -26.948  1.00  0.00     0.087 A 
HETATM   35  N2  UNL     1       1.866  52.234 -25.876  1.00  0.00    -0.375 N 
HETATM   36  C29 UNL     1       0.578  52.597 -26.067  1.00  0.00     0.096 A 
ATOM     37  H2  UNL     1       2.320  52.330 -24.969  1.00  0.00     0.164 HD
ENDBRANCH  30  31
ENDBRANCH  28  30
ENDBRANCH  25  26
ENDBRANCH  24  25
ENDBRANCH  22  24
ENDBRANCH  21  22
ENDBRANCH  20  21
TORSDOF 7
ENDMDL
MODEL 5
REMARK minimizedAffinity -9.69468689
REMARK  7 active torsions:
REMARK  status: ('A' for Active; 'I' for Inactive)
REMARK    1  A    between atoms: C19_20  and  O2_21 
REMARK    2  A    between atoms: O2_21  and  C20_22 
REMARK    3  A    between atoms: C20_22  and  C21_24 
REMARK    4  A    between atoms: C21_24  and  C22_25 
REMARK    5  A    between atoms: C22_25  and  C23_26 
REMARK       I    between atoms: C23_26  and  N1_28 
REMARK    6  A    between atoms: N1_28  and  C24_29 
REMARK    7  A    between atoms: C24_29  and  C25_30 
ROOT
HETATM    1  C1  UNL     1      -3.091  52.047 -23.685  1.00  0.00     0.018 C 
HETATM    2  C2  UNL     1      -1.787  51.212 -23.757  1.00  0.00    -0.013 C 
HETATM    3  C3  UNL     1      -1.981  49.896 -22.990  1.00  0.00     0.012 C 
HETATM    4  C4  UNL     1      -2.096  50.130 -21.472  1.00  0.00     0.007 C 
HETATM    5  C5  UNL     1      -0.932  50.971 -20.883  1.00  0.00     0.002 C 
HETATM    6  C6  UNL     1      -0.696  52.280 -21.699  1.00  0.00    -0.004 C 
HETATM    7  C7  UNL     1       0.542  53.017 -21.172  1.00  0.00     0.010 C 
HETATM    8  C8  UNL     1       0.398  53.344 -19.692  1.00  0.00     0.035 C 
HETATM    9  C9  UNL     1       0.112  52.113 -18.866  1.00  0.00    -0.068 C 
HETATM   10  C10 UNL     1       0.854  51.860 -17.773  1.00  0.00     0.053 C 
HETATM   11  C11 UNL     1       0.545  50.735 -16.862  1.00  0.00     0.149 C 
HETATM   12  O1  UNL     1       1.276  50.521 -15.898  1.00  0.00    -0.293 OA
HETATM   13  C12 UNL     1      -0.712  49.946 -17.112  1.00  0.00     0.084 C 
HETATM   14  C13 UNL     1      -0.992  49.847 -18.605  1.00  0.00     0.022 C 
HETATM   15  C14 UNL     1      -1.050  51.224 -19.331  1.00  0.00    -0.016 C 
HETATM   16  C15 UNL     1      -2.374  51.930 -18.958  1.00  0.00     0.020 C 
HETATM   17  C16 UNL     1      -0.542  51.914 -23.179  1.00  0.00     0.001 C 
HETATM   18  C17 UNL     1      -0.257  53.023 -24.186  1.00  0.00     0.008 C 
HETATM   19  C18 UNL     1      -0.647  52.405 -25.540  1.00  0.00     0.034 C 
HETATM   20  C19 UNL     1      -1.329  51.055 -25.226  1.00  0.00     0.140 C 
ENDROOT
BRANCH  20  21
HETATM   21  O2  UNL     1      -2.406  50.855 -26.146  1.00  0.00    -0.315 OA
BRANCH  21  22
HETATM   22  C20 UNL     1      -2.613  49.579 -26.565  1.00  0.00     0.259 C 
HETATM   23  O3  UNL     1      -2.133  48.579 -26.045  1.00  0.00    -0.265 OA
BRANCH  22  24
HETATM   24  C21 UNL     1      -3.604  49.523 -27.705  1.00  0.00     0.120 C 
BRANCH  24  25
HETATM   25  C22 UNL     1      -4.541  48.320 -27.668  1.00  0.00     0.112 C 
BRANCH  25  26
HETATM   26  C23 UNL     1      -5.257  48.114 -28.988  1.00  0.00     0.218 C 
HETATM   27  O4  UNL     1      -4.708  47.683 -29.994  1.00  0.00    -0.274 OA
HETATM   28  N1  UNL     1      -6.590  48.457 -28.934  1.00  0.00    -0.357 N 
HETATM   29  H32 UNL     1      -7.007  48.655 -28.035  1.00  0.00     0.162 HD
BRANCH  28  30
HETATM   30  C24 UNL     1      -7.478  48.224 -30.053  1.00  0.00     0.162 C 
BRANCH  30  31
HETATM   31  C25 UNL     1      -8.899  48.087 -29.592  1.00  0.00    -0.025 A 
HETATM   32  C26 UNL     1      -9.926  47.766 -30.485  1.00  0.00     0.011 A 
HETATM   33  C27 UNL     1     -11.230  47.622 -30.019  1.00  0.00     0.018 A 
HETATM   34  C28 UNL     1     -11.463  47.801 -28.666  1.00  0.00     0.087 A 
HETATM   35  N2  UNL     1     -10.499  48.109 -27.771  1.00  0.00    -0.375 N 
HETATM   36  C29 UNL     1      -9.244  48.244 -28.254  1.00  0.00     0.096 A 
ATOM     37  H2  UNL     1     -10.708  48.233 -26.781  1.00  0.00     0.164 HD
ENDBRANCH  30  31
ENDBRANCH  28  30
ENDBRANCH  25  26
ENDBRANCH  24  25
ENDBRANCH  22  24
ENDBRANCH  21  22
ENDBRANCH  20  21
TORSDOF 7
ENDMDL
MODEL 6
REMARK minimizedAffinity -9.67409134
REMARK  7 active torsions:
REMARK  status: ('A' for Active; 'I' for Inactive)
REMARK    1  A    between atoms: C19_20  and  O2_21 
REMARK    2  A    between atoms: O2_21  and  C20_22 
REMARK    3  A    between atoms: C20_22  and  C21_24 
REMARK    4  A    between atoms: C21_24  and  C22_25 
REMARK    5  A    between atoms: C22_25  and  C23_26 
REMARK       I    between atoms: C23_26  and  N1_28 
REMARK    6  A    between atoms: N1_28  and  C24_29 
REMARK    7  A    between atoms: C24_29  and  C25_30 
ROOT
HETATM    1  C1  UNL     1      -1.864  52.655 -23.240  1.00  0.00     0.018 C 
HETATM    2  C2  UNL     1      -0.521  51.882 -23.205  1.00  0.00    -0.013 C 
HETATM    3  C3  UNL     1      -0.794  50.398 -22.924  1.00  0.00     0.012 C 
HETATM    4  C4  UNL     1      -1.299  50.171 -21.487  1.00  0.00     0.007 C 
HETATM    5  C5  UNL     1      -0.389  50.803 -20.401  1.00  0.00     0.002 C 
HETATM    6  C6  UNL     1      -0.064  52.296 -20.718  1.00  0.00    -0.004 C 
HETATM    7  C7  UNL     1       0.942  52.847 -19.699  1.00  0.00     0.010 C 
HETATM    8  C8  UNL     1       0.411  52.720 -18.278  1.00  0.00     0.035 C 
HETATM    9  C9  UNL     1       0.028  51.299 -17.942  1.00  0.00    -0.068 C 
HETATM   10  C10 UNL     1       0.493  50.735 -16.813  1.00  0.00     0.053 C 
HETATM   11  C11 UNL     1       0.059  49.390 -16.374  1.00  0.00     0.149 C 
HETATM   12  O1  UNL     1       0.543  48.901 -15.356  1.00  0.00    -0.293 OA
HETATM   13  C12 UNL     1      -1.030  48.707 -17.158  1.00  0.00     0.084 C 
HETATM   14  C13 UNL     1      -0.922  49.054 -18.636  1.00  0.00     0.022 C 
HETATM   15  C14 UNL     1      -0.908  50.584 -18.927  1.00  0.00    -0.016 C 
HETATM   16  C15 UNL     1      -2.335  51.144 -18.727  1.00  0.00     0.020 C 
HETATM   17  C16 UNL     1       0.481  52.386 -22.147  1.00  0.00     0.001 C 
HETATM   18  C17 UNL     1       0.918  53.744 -22.686  1.00  0.00     0.008 C 
HETATM   19  C18 UNL     1       0.926  53.554 -24.212  1.00  0.00     0.034 C 
HETATM   20  C19 UNL     1       0.298  52.169 -24.486  1.00  0.00     0.140 C 
ENDROOT
BRANCH  20  21
HETATM   21  O2  UNL     1      -0.498  52.249 -25.672  1.00  0.00    -0.315 OA
BRANCH  21  22
HETATM   22  C20 UNL     1       0.172  52.176 -26.853  1.00  0.00     0.259 C 
HETATM   23  O3  UNL     1       1.367  51.938 -26.973  1.00  0.00    -0.265 OA
BRANCH  22  24
HETATM   24  C21 UNL     1      -0.765  52.322 -28.030  1.00  0.00     0.120 C 
BRANCH  24  25
HETATM   25  C22 UNL     1      -2.245  52.227 -27.675  1.00  0.00     0.112 C 
BRANCH  25  26
HETATM   26  C23 UNL     1      -2.743  50.795 -27.683  1.00  0.00     0.218 C 
HETATM   27  O4  UNL     1      -3.382  50.309 -28.608  1.00  0.00    -0.274 OA
HETATM   28  N1  UNL     1      -2.398  50.100 -26.546  1.00  0.00    -0.357 N 
HETATM   29  H32 UNL     1      -1.741  50.516 -25.900  1.00  0.00     0.162 HD
BRANCH  28  30
HETATM   30  C24 UNL     1      -2.676  48.687 -26.408  1.00  0.00     0.162 C 
BRANCH  30  31
HETATM   31  C25 UNL     1      -3.900  48.459 -25.571  1.00  0.00    -0.025 A 
HETATM   32  C26 UNL     1      -3.837  48.458 -24.174  1.00  0.00     0.011 A 
HETATM   33  C27 UNL     1      -4.998  48.267 -23.429  1.00  0.00     0.018 A 
HETATM   34  C28 UNL     1      -6.189  48.087 -24.109  1.00  0.00     0.087 A 
HETATM   35  N2  UNL     1      -6.293  48.084 -25.456  1.00  0.00    -0.375 N 
HETATM   36  C29 UNL     1      -5.149  48.269 -26.152  1.00  0.00     0.096 A 
ATOM     37  H2  UNL     1      -7.189  47.949 -25.924  1.00  0.00     0.164 HD
ENDBRANCH  30  31
ENDBRANCH  28  30
ENDBRANCH  25  26
ENDBRANCH  24  25
ENDBRANCH  22  24
ENDBRANCH  21  22
ENDBRANCH  20  21
TORSDOF 7
ENDMDL
MODEL 7
REMARK minimizedAffinity -9.66885948
REMARK  7 active torsions:
REMARK  status: ('A' for Active; 'I' for Inactive)
REMARK    1  A    between atoms: C19_20  and  O2_21 
REMARK    2  A    between atoms: O2_21  and  C20_22 
REMARK    3  A    between atoms: C20_22  and  C21_24 
REMARK    4  A    between atoms: C21_24  and  C22_25 
REMARK    5  A    between atoms: C22_25  and  C23_26 
REMARK       I    between atoms: C23_26  and  N1_28 
REMARK    6  A    between atoms: N1_28  and  C24_29 
REMARK    7  A    between atoms: C24_29  and  C25_30 
ROOT
HETATM    1  C1  UNL     1      -2.536  51.840 -23.622  1.00  0.00     0.018 C 
HETATM    2  C2  UNL     1      -1.123  51.203 -23.626  1.00  0.00    -0.013 C 
HETATM    3  C3  UNL     1      -1.149  49.900 -22.816  1.00  0.00     0.012 C 
HETATM    4  C4  UNL     1      -1.346  50.165 -21.312  1.00  0.00     0.007 C 
HETATM    5  C5  UNL     1      -0.338  51.186 -20.722  1.00  0.00     0.002 C 
HETATM    6  C6  UNL     1      -0.269  52.489 -21.580  1.00  0.00    -0.004 C 
HETATM    7  C7  UNL     1       0.831  53.416 -21.047  1.00  0.00     0.010 C 
HETATM    8  C8  UNL     1       0.592  53.768 -19.585  1.00  0.00     0.035 C 
HETATM    9  C9  UNL     1       0.460  52.536 -18.721  1.00  0.00    -0.068 C 
HETATM   10  C10 UNL     1       1.194  52.431 -17.599  1.00  0.00     0.053 C 
HETATM   11  C11 UNL     1       1.023  51.304 -16.655  1.00  0.00     0.149 C 
HETATM   12  O1  UNL     1       1.745  51.232 -15.663  1.00  0.00    -0.293 OA
HETATM   13  C12 UNL     1      -0.097  50.331 -16.911  1.00  0.00     0.084 C 
HETATM   14  C13 UNL     1      -0.309  50.142 -18.406  1.00  0.00     0.022 C 
HETATM   15  C14 UNL     1      -0.543  51.471 -19.184  1.00  0.00    -0.016 C 
HETATM   16  C15 UNL     1      -1.968  51.987 -18.876  1.00  0.00     0.020 C 
HETATM   17  C16 UNL     1      -0.014  52.100 -23.040  1.00  0.00     0.001 C 
HETATM   18  C17 UNL     1       0.141  53.204 -24.080  1.00  0.00     0.008 C 
HETATM   19  C18 UNL     1      -0.110  52.492 -25.420  1.00  0.00     0.034 C 
HETATM   20  C19 UNL     1      -0.598  51.067 -25.075  1.00  0.00     0.140 C 
ENDROOT
BRANCH  20  21
HETATM   21  O2  UNL     1      -1.603  50.681 -26.016  1.00  0.00    -0.315 OA
BRANCH  21  22
HETATM   22  C20 UNL     1      -2.711  51.467 -26.071  1.00  0.00     0.259 C 
HETATM   23  O3  UNL     1      -2.724  52.646 -26.400  1.00  0.00    -0.265 OA
BRANCH  22  24
HETATM   24  C21 UNL     1      -3.966  50.677 -25.776  1.00  0.00     0.120 C 
BRANCH  24  25
HETATM   25  C22 UNL     1      -3.779  49.163 -25.803  1.00  0.00     0.112 C 
BRANCH  25  26
HETATM   26  C23 UNL     1      -4.156  48.565 -27.145  1.00  0.00     0.218 C 
HETATM   27  O4  UNL     1      -3.334  48.224 -27.986  1.00  0.00    -0.274 OA
HETATM   28  N1  UNL     1      -5.517  48.442 -27.314  1.00  0.00    -0.357 N 
HETATM   29  H32 UNL     1      -6.124  48.598 -26.521  1.00  0.00     0.162 HD
BRANCH  28  30
HETATM   30  C24 UNL     1      -6.080  47.787 -28.475  1.00  0.00     0.162 C 
BRANCH  30  31
HETATM   31  C25 UNL     1      -6.916  46.608 -28.074  1.00  0.00    -0.025 A 
HETATM   32  C26 UNL     1      -7.588  46.576 -26.848  1.00  0.00     0.011 A 
HETATM   33  C27 UNL     1      -8.375  45.475 -26.519  1.00  0.00     0.018 A 
HETATM   34  C28 UNL     1      -8.469  44.441 -27.434  1.00  0.00     0.087 A 
HETATM   35  N2  UNL     1      -7.839  44.436 -28.629  1.00  0.00    -0.375 N 
HETATM   36  C29 UNL     1      -7.080  45.516 -28.920  1.00  0.00     0.096 A 
ATOM     37  H2  UNL     1      -7.931  43.656 -29.279  1.00  0.00     0.164 HD
ENDBRANCH  30  31
ENDBRANCH  28  30
ENDBRANCH  25  26
ENDBRANCH  24  25
ENDBRANCH  22  24
ENDBRANCH  21  22
ENDBRANCH  20  21
TORSDOF 7
ENDMDL
MODEL 8
REMARK minimizedAffinity -9.6306715
REMARK  7 active torsions:
REMARK  status: ('A' for Active; 'I' for Inactive)
REMARK    1  A    between atoms: C19_20  and  O2_21 
REMARK    2  A    between atoms: O2_21  and  C20_22 
REMARK    3  A    between atoms: C20_22  and  C21_24 
REMARK    4  A    between atoms: C21_24  and  C22_25 
REMARK    5  A    between atoms: C22_25  and  C23_26 
REMARK       I    between atoms: C23_26  and  N1_28 
REMARK    6  A    between atoms: N1_28  and  C24_29 
REMARK    7  A    between atoms: C24_29  and  C25_30 
ROOT
HETATM    1  C1  UNL     1      -3.360  51.043 -23.010  1.00  0.00     0.018 C 
HETATM    2  C2  UNL     1      -1.917  50.504 -23.183  1.00  0.00    -0.013 C 
HETATM    3  C3  UNL     1      -1.717  49.281 -22.276  1.00  0.00     0.012 C 
HETATM    4  C4  UNL     1      -1.708  49.669 -20.786  1.00  0.00     0.007 C 
HETATM    5  C5  UNL     1      -0.707  50.805 -20.445  1.00  0.00     0.002 C 
HETATM    6  C6  UNL     1      -0.871  52.025 -21.406  1.00  0.00    -0.004 C 
HETATM    7  C7  UNL     1       0.219  53.069 -21.127  1.00  0.00     0.010 C 
HETATM    8  C8  UNL     1       0.174  53.536 -19.678  1.00  0.00     0.035 C 
HETATM    9  C9  UNL     1       0.272  52.383 -18.709  1.00  0.00    -0.068 C 
HETATM   10  C10 UNL     1       1.172  52.430 -17.710  1.00  0.00     0.053 C 
HETATM   11  C11 UNL     1       1.235  51.386 -16.663  1.00  0.00     0.149 C 
HETATM   12  O1  UNL     1       2.100  51.453 -15.794  1.00  0.00    -0.293 OA
HETATM   13  C12 UNL     1       0.170  50.321 -16.662  1.00  0.00     0.084 C 
HETATM   14  C13 UNL     1      -0.248  49.982 -18.085  1.00  0.00     0.022 C 
HETATM   15  C14 UNL     1      -0.701  51.216 -18.922  1.00  0.00    -0.016 C 
HETATM   16  C15 UNL     1      -2.100  51.663 -18.438  1.00  0.00     0.020 C 
HETATM   17  C16 UNL     1      -0.807  51.522 -22.851  1.00  0.00     0.001 C 
HETATM   18  C17 UNL     1      -0.899  52.534 -23.988  1.00  0.00     0.008 C 
HETATM   19  C18 UNL     1      -1.290  51.686 -25.210  1.00  0.00     0.034 C 
HETATM   20  C19 UNL     1      -1.606  50.270 -24.680  1.00  0.00     0.140 C 
ENDROOT
BRANCH  20  21
HETATM   21  O2  UNL     1      -2.707  49.733 -25.419  1.00  0.00    -0.315 OA
BRANCH  21  22
HETATM   22  C20 UNL     1      -2.550  49.664 -26.768  1.00  0.00     0.259 C 
HETATM   23  O3  UNL     1      -1.869  50.428 -27.439  1.00  0.00    -0.265 OA
BRANCH  22  24
HETATM   24  C21 UNL     1      -3.243  48.450 -27.344  1.00  0.00     0.120 C 
BRANCH  24  25
HETATM   25  C22 UNL     1      -4.681  48.261 -26.871  1.00  0.00     0.112 C 
BRANCH  25  26
HETATM   26  C23 UNL     1      -5.624  47.958 -28.019  1.00  0.00     0.218 C 
HETATM   27  O4  UNL     1      -6.651  47.303 -27.894  1.00  0.00    -0.274 OA
HETATM   28  N1  UNL     1      -5.205  48.499 -29.214  1.00  0.00    -0.357 N 
HETATM   29  H32 UNL     1      -4.435  49.154 -29.211  1.00  0.00     0.162 HD
BRANCH  28  30
HETATM   30  C24 UNL     1      -6.022  48.425 -30.407  1.00  0.00     0.162 C 
BRANCH  30  31
HETATM   31  C25 UNL     1      -5.865  47.096 -31.084  1.00  0.00    -0.025 A 
HETATM   32  C26 UNL     1      -4.633  46.683 -31.600  1.00  0.00     0.011 A 
HETATM   33  C27 UNL     1      -4.519  45.432 -32.202  1.00  0.00     0.018 A 
HETATM   34  C28 UNL     1      -5.645  44.630 -32.263  1.00  0.00     0.087 A 
HETATM   35  N2  UNL     1      -6.852  44.991 -31.774  1.00  0.00    -0.375 N 
HETATM   36  C29 UNL     1      -6.933  46.212 -31.199  1.00  0.00     0.096 A 
ATOM     37  H2  UNL     1      -7.661  44.374 -31.837  1.00  0.00     0.164 HD
ENDBRANCH  30  31
ENDBRANCH  28  30
ENDBRANCH  25  26
ENDBRANCH  24  25
ENDBRANCH  22  24
ENDBRANCH  21  22
ENDBRANCH  20  21
TORSDOF 7
ENDMDL
MODEL 9
REMARK minimizedAffinity -9.34549427
REMARK  7 active torsions:
REMARK  status: ('A' for Active; 'I' for Inactive)
REMARK    1  A    between atoms: C19_20  and  O2_21 
REMARK    2  A    between atoms: O2_21  and  C20_22 
REMARK    3  A    between atoms: C20_22  and  C21_24 
REMARK    4  A    between atoms: C21_24  and  C22_25 
REMARK    5  A    between atoms: C22_25  and  C23_26 
REMARK       I    between atoms: C23_26  and  N1_28 
REMARK    6  A    between atoms: N1_28  and  C24_29 
REMARK    7  A    between atoms: C24_29  and  C25_30 
ROOT
HETATM    1  C1  UNL     1      -4.103  47.617 -22.067  1.00  0.00     0.018 C 
HETATM    2  C2  UNL     1      -4.409  49.008 -22.678  1.00  0.00    -0.013 C 
HETATM    3  C3  UNL     1      -3.286  49.397 -23.649  1.00  0.00     0.012 C 
HETATM    4  C4  UNL     1      -1.966  49.686 -22.911  1.00  0.00     0.007 C 
HETATM    5  C5  UNL     1      -2.110  50.715 -21.758  1.00  0.00     0.002 C 
HETATM    6  C6  UNL     1      -3.290  50.351 -20.804  1.00  0.00    -0.004 C 
HETATM    7  C7  UNL     1      -3.487  51.457 -19.759  1.00  0.00     0.010 C 
HETATM    8  C8  UNL     1      -2.216  51.684 -18.952  1.00  0.00     0.035 C 
HETATM    9  C9  UNL     1      -1.030  51.984 -19.838  1.00  0.00    -0.068 C 
HETATM   10  C10 UNL     1      -0.263  53.058 -19.577  1.00  0.00     0.053 C 
HETATM   11  C11 UNL     1       0.976  53.336 -20.337  1.00  0.00     0.149 C 
HETATM   12  O1  UNL     1       1.622  54.351 -20.088  1.00  0.00    -0.293 OA
HETATM   13  C12 UNL     1       1.440  52.308 -21.335  1.00  0.00     0.084 C 
HETATM   14  C13 UNL     1       0.249  51.631 -21.997  1.00  0.00     0.022 C 
HETATM   15  C14 UNL     1      -0.763  51.006 -20.990  1.00  0.00    -0.016 C 
HETATM   16  C15 UNL     1      -0.147  49.719 -20.395  1.00  0.00     0.020 C 
HETATM   17  C16 UNL     1      -4.554  50.144 -21.646  1.00  0.00     0.001 C 
HETATM   18  C17 UNL     1      -5.865  49.820 -20.938  1.00  0.00     0.008 C 
HETATM   19  C18 UNL     1      -6.746  49.216 -22.045  1.00  0.00     0.034 C 
HETATM   20  C19 UNL     1      -5.834  49.030 -23.279  1.00  0.00     0.140 C 
ENDROOT
BRANCH  20  21
HETATM   21  O2  UNL     1      -6.197  47.817 -23.944  1.00  0.00    -0.315 OA
BRANCH  21  22
HETATM   22  C20 UNL     1      -6.222  47.858 -25.303  1.00  0.00     0.259 C 
HETATM   23  O3  UNL     1      -7.062  47.316 -26.010  1.00  0.00    -0.265 OA
BRANCH  22  24
HETATM   24  C21 UNL     1      -5.133  48.752 -25.850  1.00  0.00     0.120 C 
BRANCH  24  25
HETATM   25  C22 UNL     1      -4.499  48.254 -27.144  1.00  0.00     0.112 C 
BRANCH  25  26
HETATM   26  C23 UNL     1      -3.842  49.374 -27.927  1.00  0.00     0.218 C 
HETATM   27  O4  UNL     1      -3.985  49.529 -29.133  1.00  0.00    -0.274 OA
HETATM   28  N1  UNL     1      -3.073  50.200 -27.138  1.00  0.00    -0.357 N 
HETATM   29  H32 UNL     1      -3.127  50.105 -26.133  1.00  0.00     0.162 HD
BRANCH  28  30
HETATM   30  C24 UNL     1      -2.456  51.397 -27.669  1.00  0.00     0.162 C 
BRANCH  30  31
HETATM   31  C25 UNL     1      -1.017  51.489 -27.255  1.00  0.00    -0.025 A 
HETATM   32  C26 UNL     1      -0.632  51.332 -25.919  1.00  0.00     0.011 A 
HETATM   33  C27 UNL     1       0.715  51.401 -25.574  1.00  0.00     0.018 A 
HETATM   34  C28 UNL     1       1.638  51.620 -26.582  1.00  0.00     0.087 A 
HETATM   35  N2  UNL     1       1.307  51.774 -27.884  1.00  0.00    -0.375 N 
HETATM   36  C29 UNL     1      -0.008  51.705 -28.187  1.00  0.00     0.096 A 
ATOM     37  H2  UNL     1       2.014  51.933 -28.600  1.00  0.00     0.164 HD
ENDBRANCH  30  31
ENDBRANCH  28  30
ENDBRANCH  25  26
ENDBRANCH  24  25
ENDBRANCH  22  24
ENDBRANCH  21  22
ENDBRANCH  20  21
TORSDOF 7
ENDMDL
