MODEL 1
REMARK minimizedAffinity -6.73232365
REMARK CNNscore 0.814281583
REMARK CNNaffinity 6.95304728
REMARK  6 active torsions:
REMARK  status: ('A' for Active; 'I' for Inactive)
REMARK    1  A    between atoms: C2_2  and  O2_4 
REMARK    2  A    between atoms: O2_4  and  C3_5 
REMARK    3  A    between atoms: C19_23  and  C20_24 
REMARK    4  A    between atoms: C26_32  and  O7_33 
REMARK    5  A    between atoms: C27_34  and  C28_35 
REMARK    6  A    between atoms: C31_40  and  O10_41 
ROOT
HETATM    1  C3  UNL     1     -14.021  10.838  -2.452  1.00  0.00     0.201 C 
HETATM    2  C4  UNL     1     -14.798  10.360  -3.689  1.00  0.00     0.070 C 
HETATM    3  C5  UNL     1     -14.890  11.432  -4.781  1.00  0.00     0.123 C 
HETATM    4  C6  UNL     1     -16.063  11.165  -5.717  1.00  0.00     0.040 C 
HETATM    5  O3  UNL     1     -15.077  12.714  -4.192  1.00  0.00    -0.351 OA
HETATM    6  C7  UNL     1     -13.934  13.180  -3.459  1.00  0.00     0.325 C 
HETATM    7  O4  UNL     1     -14.405  14.202  -2.575  1.00  0.00    -0.347 OA
HETATM    8  C8  UNL     1     -13.680  14.345  -1.354  1.00  0.00     0.158 C 
HETATM    9  C9  UNL     1     -13.665  15.829  -0.985  1.00  0.00     0.069 C 
HETATM   10  C10 UNL     1     -12.860  16.098   0.267  1.00  0.00    -0.065 C 
HETATM   11  C11 UNL     1     -13.393  16.791   1.290  1.00  0.00    -0.022 C 
HETATM   12  C12 UNL     1     -12.667  17.135   2.556  1.00  0.00     0.035 C 
HETATM   13  C13 UNL     1     -11.140  16.948   2.449  1.00  0.00     0.030 C 
HETATM   14  C14 UNL     1     -10.827  15.601   1.750  1.00  0.00     0.012 C 
HETATM   15  C15 UNL     1      -9.333  15.227   1.819  1.00  0.00     0.007 C 
HETATM   16  C16 UNL     1      -8.434  16.361   2.293  1.00  0.00     0.013 C 
HETATM   17  C17 UNL     1      -8.843  17.062   3.627  1.00  0.00    -0.005 C 
HETATM   18  C18 UNL     1      -8.199  18.469   3.555  1.00  0.00     0.019 C 
HETATM   19  C19 UNL     1      -8.332  16.246   4.865  1.00  0.00     0.028 C 
HETATM   20  C24 UNL     1      -9.476  15.281   5.190  1.00  0.00     0.013 C 
HETATM   21  C25 UNL     1     -10.761  16.018   4.850  1.00  0.00     0.040 C 
HETATM   22  C26 UNL     1     -10.404  17.104   3.806  1.00  0.00     0.070 C 
HETATM   23  C27 UNL     1     -11.441  15.530   0.304  1.00  0.00     0.043 C 
HETATM   24  C29 UNL     1     -11.462  14.050  -0.162  1.00  0.00     0.056 C 
HETATM   25  C30 UNL     1     -12.255  13.796  -1.449  1.00  0.00     0.156 C 
HETATM   26  O9  UNL     1     -12.329  12.379  -1.637  1.00  0.00    -0.341 OA
HETATM   27  C31 UNL     1     -13.086  12.018  -2.797  1.00  0.00     0.241 C 
ENDROOT
BRANCH  19  28
HETATM   28  C20 UNL     1      -7.908  17.039   6.078  1.00  0.00    -0.045 A 
HETATM   29  C21 UNL     1      -8.636  17.488   7.102  1.00  0.00     0.087 A 
HETATM   30  C22 UNL     1      -7.724  18.189   8.004  1.00  0.00     0.283 A 
HETATM   31  O5  UNL     1      -8.056  18.728   9.044  1.00  0.00    -0.260 OA
HETATM   32  O6  UNL     1      -6.462  18.129   7.501  1.00  0.00    -0.314 OA
HETATM   33  C23 UNL     1      -6.486  17.418   6.265  1.00  0.00     0.213 A 
ENDBRANCH  19  28
BRANCH  22  34
HETATM   34  O7  UNL     1     -10.770  18.372   4.368  1.00  0.00    -0.389 OA
HETATM   35  H35 UNL     1     -11.680  18.324   4.704  1.00  0.00     0.210 HD
ENDBRANCH  22  34
BRANCH  23  36
HETATM   36  C28 UNL     1     -10.611  16.398  -0.655  1.00  0.00     0.245 C 
HETATM   37  O8  UNL     1      -9.427  16.678  -0.485  1.00  0.00    -0.306 OA
ENDBRANCH  23  36
BRANCH  27  38
HETATM   38  O10 UNL     1     -12.118  11.527  -3.740  1.00  0.00    -0.360 OA
HETATM   39  H40 UNL     1     -11.455  12.232  -3.822  1.00  0.00     0.213 HD
ENDBRANCH  27  38
BRANCH   1  40
HETATM   40  O2  UNL     1     -14.945  11.253  -1.416  1.00  0.00    -0.310 OA
BRANCH  40  41
HETATM   41  C2  UNL     1     -14.762  10.693  -0.192  1.00  0.00     0.255 C 
HETATM   42  C1  UNL     1     -13.821   9.532  -0.297  1.00  0.00     0.126 C 
HETATM   43  O1  UNL     1     -15.265  11.078   0.852  1.00  0.00    -0.266 OA
ENDBRANCH  40  41
ENDBRANCH   1  40
TORSDOF 6
ENDMDL
MODEL 2
REMARK minimizedAffinity -9.57085037
REMARK CNNscore 0.781975985
REMARK CNNaffinity 6.91684675
REMARK  6 active torsions:
REMARK  status: ('A' for Active; 'I' for Inactive)
REMARK    1  A    between atoms: C2_2  and  O2_4 
REMARK    2  A    between atoms: O2_4  and  C3_5 
REMARK    3  A    between atoms: C19_23  and  C20_24 
REMARK    4  A    between atoms: C26_32  and  O7_33 
REMARK    5  A    between atoms: C27_34  and  C28_35 
REMARK    6  A    between atoms: C31_40  and  O10_41 
ROOT
HETATM    1  C3  UNL     1       2.119  10.984  21.516  1.00  0.00     0.201 C 
HETATM    2  C4  UNL     1       3.305  11.711  22.170  1.00  0.00     0.070 C 
HETATM    3  C5  UNL     1       4.085  12.583  21.180  1.00  0.00     0.123 C 
HETATM    4  C6  UNL     1       5.501  12.847  21.677  1.00  0.00     0.040 C 
HETATM    5  O3  UNL     1       4.173  11.930  19.918  1.00  0.00    -0.351 OA
HETATM    6  C7  UNL     1       2.912  11.821  19.240  1.00  0.00     0.325 C 
HETATM    7  O4  UNL     1       3.060  10.783  18.267  1.00  0.00    -0.347 OA
HETATM    8  C8  UNL     1       1.872  10.058  17.952  1.00  0.00     0.158 C 
HETATM    9  C9  UNL     1       1.925   9.687  16.469  1.00  0.00     0.069 C 
HETATM   10  C10 UNL     1       0.673   8.969  16.014  1.00  0.00    -0.065 C 
HETATM   11  C11 UNL     1       0.754   7.791  15.370  1.00  0.00    -0.022 C 
HETATM   12  C12 UNL     1      -0.423   7.019  14.854  1.00  0.00     0.035 C 
HETATM   13  C13 UNL     1      -1.718   7.855  14.797  1.00  0.00     0.030 C 
HETATM   14  C14 UNL     1      -1.872   8.668  16.106  1.00  0.00     0.012 C 
HETATM   15  C15 UNL     1      -3.253   9.341  16.231  1.00  0.00     0.007 C 
HETATM   16  C16 UNL     1      -4.070   9.318  14.946  1.00  0.00     0.013 C 
HETATM   17  C17 UNL     1      -4.244   7.927  14.258  1.00  0.00    -0.005 C 
HETATM   18  C18 UNL     1      -4.534   8.248  12.770  1.00  0.00     0.019 C 
HETATM   19  C19 UNL     1      -5.414   7.119  14.922  1.00  0.00     0.028 C 
HETATM   20  C24 UNL     1      -4.743   6.319  16.043  1.00  0.00     0.013 C 
HETATM   21  C25 UNL     1      -3.351   5.970  15.539  1.00  0.00     0.040 C 
HETATM   22  C26 UNL     1      -2.979   7.017  14.460  1.00  0.00     0.070 C 
HETATM   23  C27 UNL     1      -0.659   9.641  16.344  1.00  0.00     0.043 C 
HETATM   24  C29 UNL     1      -0.660  10.094  17.828  1.00  0.00     0.056 C 
HETATM   25  C30 UNL     1       0.600  10.847  18.268  1.00  0.00     0.156 C 
HETATM   26  O9  UNL     1       0.522  11.030  19.685  1.00  0.00    -0.341 OA
HETATM   27  C31 UNL     1       1.673  11.693  20.217  1.00  0.00     0.241 C 
ENDROOT
BRANCH  19  28
HETATM   28  C20 UNL     1      -6.232   6.232  14.015  1.00  0.00    -0.045 A 
HETATM   29  C21 UNL     1      -5.925   5.056  13.466  1.00  0.00     0.087 A 
HETATM   30  C22 UNL     1      -7.083   4.631  12.682  1.00  0.00     0.283 A 
HETATM   31  O5  UNL     1      -7.145   3.595  12.043  1.00  0.00    -0.260 OA
HETATM   32  O6  UNL     1      -8.065   5.563  12.793  1.00  0.00    -0.314 OA
HETATM   33  C23 UNL     1      -7.607   6.629  13.620  1.00  0.00     0.213 A 
ENDBRANCH  19  28
BRANCH  22  34
HETATM   34  O7  UNL     1      -2.726   6.301  13.242  1.00  0.00    -0.389 OA
HETATM   35  H35 UNL     1      -2.112   5.570  13.421  1.00  0.00     0.210 HD
ENDBRANCH  22  34
BRANCH  23  36
HETATM   36  C28 UNL     1      -0.771  10.848  15.400  1.00  0.00     0.245 C 
HETATM   37  O8  UNL     1      -0.914  10.764  14.183  1.00  0.00    -0.306 OA
ENDBRANCH  23  36
BRANCH  27  38
HETATM   38  O10 UNL     1       1.212  13.003  20.590  1.00  0.00    -0.360 OA
HETATM   39  H40 UNL     1       0.795  13.369  19.792  1.00  0.00     0.213 HD
ENDBRANCH  27  38
BRANCH   1  40
HETATM   40  O2  UNL     1       2.484   9.617  21.207  1.00  0.00    -0.310 OA
BRANCH  40  41
HETATM   41  C2  UNL     1       2.336   8.717  22.213  1.00  0.00     0.255 C 
HETATM   42  C1  UNL     1       3.250   9.063  23.348  1.00  0.00     0.126 C 
HETATM   43  O1  UNL     1       1.564   7.771  22.217  1.00  0.00    -0.266 OA
ENDBRANCH  40  41
ENDBRANCH   1  40
TORSDOF 6
ENDMDL
MODEL 3
REMARK minimizedAffinity -9.01495743
REMARK CNNscore 0.505141258
REMARK CNNaffinity 6.71273804
REMARK  6 active torsions:
REMARK  status: ('A' for Active; 'I' for Inactive)
REMARK    1  A    between atoms: C2_2  and  O2_4 
REMARK    2  A    between atoms: O2_4  and  C3_5 
REMARK    3  A    between atoms: C19_23  and  C20_24 
REMARK    4  A    between atoms: C26_32  and  O7_33 
REMARK    5  A    between atoms: C27_34  and  C28_35 
REMARK    6  A    between atoms: C31_40  and  O10_41 
ROOT
HETATM    1  C3  UNL     1       1.552  11.335  20.909  1.00  0.00     0.201 C 
HETATM    2  C4  UNL     1       2.724  12.170  21.450  1.00  0.00     0.070 C 
HETATM    3  C5  UNL     1       3.322  13.106  20.395  1.00  0.00     0.123 C 
HETATM    4  C6  UNL     1       4.749  13.500  20.754  1.00  0.00     0.040 C 
HETATM    5  O3  UNL     1       3.348  12.458  19.127  1.00  0.00    -0.351 OA
HETATM    6  C7  UNL     1       2.044  12.232  18.572  1.00  0.00     0.325 C 
HETATM    7  O4  UNL     1       2.192  11.208  17.583  1.00  0.00    -0.347 OA
HETATM    8  C8  UNL     1       1.050  10.376  17.380  1.00  0.00     0.158 C 
HETATM    9  C9  UNL     1       0.995  10.006  15.898  1.00  0.00     0.069 C 
HETATM   10  C10 UNL     1      -0.223   9.175  15.561  1.00  0.00    -0.065 C 
HETATM   11  C11 UNL     1      -0.097   8.006  14.906  1.00  0.00    -0.022 C 
HETATM   12  C12 UNL     1      -1.243   7.128  14.501  1.00  0.00     0.035 C 
HETATM   13  C13 UNL     1      -2.608   7.842  14.573  1.00  0.00     0.030 C 
HETATM   14  C14 UNL     1      -2.710   8.643  15.895  1.00  0.00     0.012 C 
HETATM   15  C15 UNL     1      -4.129   9.187  16.155  1.00  0.00     0.007 C 
HETATM   16  C16 UNL     1      -5.059   9.084  14.953  1.00  0.00     0.013 C 
HETATM   17  C17 UNL     1      -5.170   7.680  14.279  1.00  0.00    -0.005 C 
HETATM   18  C18 UNL     1      -5.629   7.968  12.826  1.00  0.00     0.019 C 
HETATM   19  C19 UNL     1      -6.192   6.772  15.047  1.00  0.00     0.028 C 
HETATM   20  C24 UNL     1      -5.346   6.040  16.095  1.00  0.00     0.013 C 
HETATM   21  C25 UNL     1      -3.984   5.818  15.458  1.00  0.00     0.040 C 
HETATM   22  C26 UNL     1      -3.814   6.890  14.354  1.00  0.00     0.070 C 
HETATM   23  C27 UNL     1      -1.574   9.723  16.020  1.00  0.00     0.043 C 
HETATM   24  C29 UNL     1      -1.474  10.180  17.500  1.00  0.00     0.056 C 
HETATM   25  C30 UNL     1      -0.252  11.047  17.820  1.00  0.00     0.156 C 
HETATM   26  O9  UNL     1      -0.211  11.227  19.240  1.00  0.00    -0.341 OA
HETATM   27  C31 UNL     1       0.921  11.995  19.662  1.00  0.00     0.241 C 
ENDROOT
BRANCH  19  28
HETATM   28  C20 UNL     1      -7.009   5.810  14.218  1.00  0.00    -0.045 A 
HETATM   29  C21 UNL     1      -6.831   4.506  14.000  1.00  0.00     0.087 A 
HETATM   30  C22 UNL     1      -7.917   4.063  13.128  1.00  0.00     0.283 A 
HETATM   31  O5  UNL     1      -8.062   2.923  12.726  1.00  0.00    -0.260 OA
HETATM   32  O6  UNL     1      -8.731   5.117  12.856  1.00  0.00    -0.314 OA
HETATM   33  C23 UNL     1      -8.222   6.280  13.505  1.00  0.00     0.213 A 
ENDBRANCH  19  28
BRANCH  22  34
HETATM   34  O7  UNL     1      -3.614   6.196  13.114  1.00  0.00    -0.389 OA
HETATM   35  H35 UNL     1      -2.921   5.525  13.230  1.00  0.00     0.210 HD
ENDBRANCH  22  34
BRANCH  23  36
HETATM   36  C28 UNL     1      -1.885  10.912  15.097  1.00  0.00     0.245 C 
HETATM   37  O8  UNL     1      -1.484  11.013  13.940  1.00  0.00    -0.306 OA
ENDBRANCH  23  36
BRANCH  27  38
HETATM   38  O10 UNL     1       0.380  13.259  20.084  1.00  0.00    -0.360 OA
HETATM   39  H40 UNL     1      -0.143  13.582  19.331  1.00  0.00     0.213 HD
ENDBRANCH  27  38
BRANCH   1  40
HETATM   40  O2  UNL     1       2.010  10.006  20.560  1.00  0.00    -0.310 OA
BRANCH  40  41
HETATM   41  C2  UNL     1       2.344   9.197  21.598  1.00  0.00     0.255 C 
HETATM   42  C1  UNL     1       3.776   9.417  21.977  1.00  0.00     0.126 C 
HETATM   43  O1  UNL     1       1.596   8.415  22.163  1.00  0.00    -0.266 OA
ENDBRANCH  40  41
ENDBRANCH   1  40
TORSDOF 6
ENDMDL
MODEL 4
REMARK minimizedAffinity -8.0451498
REMARK CNNscore 0.45124656
REMARK CNNaffinity 7.23320246
REMARK  6 active torsions:
REMARK  status: ('A' for Active; 'I' for Inactive)
REMARK    1  A    between atoms: C2_2  and  O2_4 
REMARK    2  A    between atoms: O2_4  and  C3_5 
REMARK    3  A    between atoms: C19_23  and  C20_24 
REMARK    4  A    between atoms: C26_32  and  O7_33 
REMARK    5  A    between atoms: C27_34  and  C28_35 
REMARK    6  A    between atoms: C31_40  and  O10_41 
ROOT
HETATM    1  C3  UNL     1       2.562   6.746   9.658  1.00  0.00     0.201 C 
HETATM    2  C4  UNL     1       4.084   6.764   9.434  1.00  0.00     0.070 C 
HETATM    3  C5  UNL     1       4.875   6.520  10.724  1.00  0.00     0.123 C 
HETATM    4  C6  UNL     1       6.296   7.058  10.607  1.00  0.00     0.040 C 
HETATM    5  O3  UNL     1       4.242   7.177  11.817  1.00  0.00    -0.351 OA
HETATM    6  C7  UNL     1       2.974   6.605  12.172  1.00  0.00     0.325 C 
HETATM    7  O4  UNL     1       2.273   7.600  12.925  1.00  0.00    -0.347 OA
HETATM    8  C8  UNL     1       0.850   7.562  12.824  1.00  0.00     0.158 C 
HETATM    9  C9  UNL     1       0.271   7.976  14.178  1.00  0.00     0.069 C 
HETATM   10  C10 UNL     1      -1.240   7.904  14.198  1.00  0.00    -0.065 C 
HETATM   11  C11 UNL     1      -1.971   8.962  14.594  1.00  0.00    -0.022 C 
HETATM   12  C12 UNL     1      -3.468   8.979  14.679  1.00  0.00     0.035 C 
HETATM   13  C13 UNL     1      -4.095   7.571  14.624  1.00  0.00     0.030 C 
HETATM   14  C14 UNL     1      -3.418   6.743  13.503  1.00  0.00     0.012 C 
HETATM   15  C15 UNL     1      -4.146   5.413  13.222  1.00  0.00     0.007 C 
HETATM   16  C16 UNL     1      -5.188   5.047  14.270  1.00  0.00     0.013 C 
HETATM   17  C17 UNL     1      -6.248   6.142  14.610  1.00  0.00    -0.005 C 
HETATM   18  C18 UNL     1      -6.746   5.791  16.035  1.00  0.00     0.019 C 
HETATM   19  C19 UNL     1      -7.415   6.134  13.562  1.00  0.00     0.028 C 
HETATM   20  C24 UNL     1      -6.963   7.113  12.473  1.00  0.00     0.013 C 
HETATM   21  C25 UNL     1      -6.170   8.198  13.184  1.00  0.00     0.040 C 
HETATM   22  C26 UNL     1      -5.642   7.589  14.506  1.00  0.00     0.070 C 
HETATM   23  C27 UNL     1      -1.870   6.592  13.732  1.00  0.00     0.043 C 
HETATM   24  C29 UNL     1      -1.206   6.139  12.405  1.00  0.00     0.056 C 
HETATM   25  C30 UNL     1       0.327   6.187  12.408  1.00  0.00     0.156 C 
HETATM   26  O9  UNL     1       0.769   5.919  11.073  1.00  0.00    -0.341 OA
HETATM   27  C31 UNL     1       2.194   5.977  10.946  1.00  0.00     0.241 C 
ENDROOT
BRANCH  19  28
HETATM   28  C20 UNL     1      -8.796   6.466  14.074  1.00  0.00    -0.045 A 
HETATM   29  C21 UNL     1      -9.973   6.414  13.450  1.00  0.00     0.087 A 
HETATM   30  C22 UNL     1     -10.989   6.835  14.413  1.00  0.00     0.283 A 
HETATM   31  O5  UNL     1     -12.182   6.906  14.175  1.00  0.00    -0.260 OA
HETATM   32  O6  UNL     1     -10.391   7.118  15.600  1.00  0.00    -0.314 OA
HETATM   33  C23 UNL     1      -8.986   6.918  15.475  1.00  0.00     0.213 A 
ENDBRANCH  19  28
BRANCH  22  34
HETATM   34  O7  UNL     1      -6.161   8.386  15.579  1.00  0.00    -0.389 OA
HETATM   35  H35 UNL     1      -5.993   9.325  15.393  1.00  0.00     0.210 HD
ENDBRANCH  22  34
BRANCH  23  36
HETATM   36  C28 UNL     1      -1.609   5.574  14.854  1.00  0.00     0.245 C 
HETATM   37  O8  UNL     1      -2.466   5.174  15.638  1.00  0.00    -0.306 OA
ENDBRANCH  23  36
BRANCH  27  38
HETATM   38  O10 UNL     1       2.609   4.613  10.755  1.00  0.00    -0.360 OA
HETATM   39  H40 UNL     1       2.230   4.119  11.502  1.00  0.00     0.213 HD
ENDBRANCH  27  38
BRANCH   1  40
HETATM   40  O2  UNL     1       2.060   8.101   9.757  1.00  0.00    -0.310 OA
BRANCH  40  41
HETATM   41  C2  UNL     1       1.006   8.407   8.957  1.00  0.00     0.255 C 
HETATM   42  C1  UNL     1       1.283   7.963   7.553  1.00  0.00     0.126 C 
HETATM   43  O1  UNL     1      -0.030   8.946   9.315  1.00  0.00    -0.266 OA
ENDBRANCH  40  41
ENDBRANCH   1  40
TORSDOF 6
ENDMDL
MODEL 5
REMARK minimizedAffinity -6.67736959
REMARK CNNscore 0.438932449
REMARK CNNaffinity 5.90123224
REMARK  6 active torsions:
REMARK  status: ('A' for Active; 'I' for Inactive)
REMARK    1  A    between atoms: C2_2  and  O2_4 
REMARK    2  A    between atoms: O2_4  and  C3_5 
REMARK    3  A    between atoms: C19_23  and  C20_24 
REMARK    4  A    between atoms: C26_32  and  O7_33 
REMARK    5  A    between atoms: C27_34  and  C28_35 
REMARK    6  A    between atoms: C31_40  and  O10_41 
ROOT
HETATM    1  C3  UNL     1     -18.626  -2.990  18.203  1.00  0.00     0.201 C 
HETATM    2  C4  UNL     1     -18.479  -4.489  18.513  1.00  0.00     0.070 C 
HETATM    3  C5  UNL     1     -17.208  -5.096  17.911  1.00  0.00     0.123 C 
HETATM    4  C6  UNL     1     -17.339  -6.607  17.757  1.00  0.00     0.040 C 
HETATM    5  O3  UNL     1     -16.962  -4.540  16.624  1.00  0.00    -0.351 OA
HETATM    6  C7  UNL     1     -16.600  -3.150  16.660  1.00  0.00     0.325 C 
HETATM    7  O4  UNL     1     -16.837  -2.632  15.347  1.00  0.00    -0.347 OA
HETATM    8  C8  UNL     1     -17.188  -1.251  15.283  1.00  0.00     0.158 C 
HETATM    9  C9  UNL     1     -16.583  -0.670  14.004  1.00  0.00     0.069 C 
HETATM   10  C10 UNL     1     -16.841   0.814  13.872  1.00  0.00    -0.065 C 
HETATM   11  C11 UNL     1     -17.387   1.319  12.750  1.00  0.00    -0.022 C 
HETATM   12  C12 UNL     1     -17.653   2.775  12.512  1.00  0.00     0.035 C 
HETATM   13  C13 UNL     1     -16.919   3.696  13.508  1.00  0.00     0.030 C 
HETATM   14  C14 UNL     1     -17.065   3.133  14.944  1.00  0.00     0.012 C 
HETATM   15  C15 UNL     1     -16.568   4.116  16.023  1.00  0.00     0.007 C 
HETATM   16  C16 UNL     1     -15.783   5.297  15.468  1.00  0.00     0.013 C 
HETATM   17  C17 UNL     1     -16.464   6.106  14.319  1.00  0.00    -0.005 C 
HETATM   18  C18 UNL     1     -15.296   6.787  13.560  1.00  0.00     0.019 C 
HETATM   19  C19 UNL     1     -17.475   7.155  14.900  1.00  0.00     0.028 C 
HETATM   20  C24 UNL     1     -18.811   6.407  14.968  1.00  0.00     0.013 C 
HETATM   21  C25 UNL     1     -18.820   5.450  13.786  1.00  0.00     0.040 C 
HETATM   22  C26 UNL     1     -17.344   5.184  13.400  1.00  0.00     0.070 C 
HETATM   23  C27 UNL     1     -16.471   1.683  15.074  1.00  0.00     0.043 C 
HETATM   24  C29 UNL     1     -17.013   1.031  16.373  1.00  0.00     0.056 C 
HETATM   25  C30 UNL     1     -16.718  -0.467  16.509  1.00  0.00     0.156 C 
HETATM   26  O9  UNL     1     -17.432  -0.946  17.653  1.00  0.00    -0.341 OA
HETATM   27  C31 UNL     1     -17.261  -2.352  17.857  1.00  0.00     0.241 C 
ENDROOT
BRANCH  19  28
HETATM   28  C20 UNL     1     -17.606   8.463  14.157  1.00  0.00    -0.045 A 
HETATM   29  C21 UNL     1     -18.253   8.742  13.025  1.00  0.00     0.087 A 
HETATM   30  C22 UNL     1     -18.060  10.166  12.757  1.00  0.00     0.283 A 
HETATM   31  O5  UNL     1     -18.517  10.759  11.796  1.00  0.00    -0.260 OA
HETATM   32  O6  UNL     1     -17.308  10.710  13.750  1.00  0.00    -0.314 OA
HETATM   33  C23 UNL     1     -16.964   9.692  14.687  1.00  0.00     0.213 A 
ENDBRANCH  19  28
BRANCH  22  34
HETATM   34  O7  UNL     1     -17.179   5.597  12.036  1.00  0.00    -0.389 OA
HETATM   35  H35 UNL     1     -17.885   5.207  11.495  1.00  0.00     0.210 HD
ENDBRANCH  22  34
BRANCH  23  36
HETATM   36  C28 UNL     1     -14.936   1.751  15.091  1.00  0.00     0.245 C 
HETATM   37  O8  UNL     1     -14.222   1.071  15.824  1.00  0.00    -0.306 OA
ENDBRANCH  23  36
BRANCH  27  38
HETATM   38  O10 UNL     1     -16.435  -2.464  19.029  1.00  0.00    -0.360 OA
HETATM   39  H40 UNL     1     -15.649  -1.924  18.844  1.00  0.00     0.213 HD
ENDBRANCH  27  38
BRANCH   1  40
HETATM   40  O2  UNL     1     -19.533  -2.799  17.091  1.00  0.00    -0.310 OA
BRANCH  40  41
HETATM   41  C2  UNL     1     -20.817  -2.494  17.412  1.00  0.00     0.255 C 
HETATM   42  C1  UNL     1     -20.848  -1.306  18.323  1.00  0.00     0.126 C 
HETATM   43  O1  UNL     1     -21.811  -3.079  17.011  1.00  0.00    -0.266 OA
ENDBRANCH  40  41
ENDBRANCH   1  40
TORSDOF 6
ENDMDL
MODEL 6
REMARK minimizedAffinity -7.77872658
REMARK CNNscore 0.438068271
REMARK CNNaffinity 6.85301924
REMARK  6 active torsions:
REMARK  status: ('A' for Active; 'I' for Inactive)
REMARK    1  A    between atoms: C2_2  and  O2_4 
REMARK    2  A    between atoms: O2_4  and  C3_5 
REMARK    3  A    between atoms: C19_23  and  C20_24 
REMARK    4  A    between atoms: C26_32  and  O7_33 
REMARK    5  A    between atoms: C27_34  and  C28_35 
REMARK    6  A    between atoms: C31_40  and  O10_41 
ROOT
HETATM    1  C3  UNL     1     -17.066   5.738  14.666  1.00  0.00     0.201 C 
HETATM    2  C4  UNL     1     -18.562   6.077  14.553  1.00  0.00     0.070 C 
HETATM    3  C5  UNL     1     -18.816   7.399  13.821  1.00  0.00     0.123 C 
HETATM    4  C6  UNL     1     -20.182   7.972  14.177  1.00  0.00     0.040 C 
HETATM    5  O3  UNL     1     -17.827   8.356  14.185  1.00  0.00    -0.351 OA
HETATM    6  C7  UNL     1     -16.513   8.035  13.702  1.00  0.00     0.325 C 
HETATM    7  O4  UNL     1     -15.590   8.784  14.499  1.00  0.00    -0.347 OA
HETATM    8  C8  UNL     1     -14.307   8.188  14.682  1.00  0.00     0.158 C 
HETATM    9  C9  UNL     1     -13.269   9.311  14.729  1.00  0.00     0.069 C 
HETATM   10  C10 UNL     1     -11.858   8.780  14.853  1.00  0.00    -0.065 C 
HETATM   11  C11 UNL     1     -11.040   9.227  15.823  1.00  0.00    -0.022 C 
HETATM   12  C12 UNL     1      -9.619   8.786  16.009  1.00  0.00     0.035 C 
HETATM   13  C13 UNL     1      -9.047   8.048  14.782  1.00  0.00     0.030 C 
HETATM   14  C14 UNL     1     -10.086   7.024  14.260  1.00  0.00     0.012 C 
HETATM   15  C15 UNL     1      -9.504   6.079  13.189  1.00  0.00     0.007 C 
HETATM   16  C16 UNL     1      -8.145   6.511  12.657  1.00  0.00     0.013 C 
HETATM   17  C17 UNL     1      -7.043   6.807  13.723  1.00  0.00    -0.005 C 
HETATM   18  C18 UNL     1      -6.048   7.764  13.018  1.00  0.00     0.019 C 
HETATM   19  C19 UNL     1      -6.349   5.481  14.192  1.00  0.00     0.028 C 
HETATM   20  C24 UNL     1      -7.180   5.014  15.392  1.00  0.00     0.013 C 
HETATM   21  C25 UNL     1      -7.661   6.276  16.090  1.00  0.00     0.040 C 
HETATM   22  C26 UNL     1      -7.655   7.412  15.039  1.00  0.00     0.070 C 
HETATM   23  C27 UNL     1     -11.437   7.712  13.844  1.00  0.00     0.043 C 
HETATM   24  C29 UNL     1     -12.543   6.629  13.740  1.00  0.00     0.056 C 
HETATM   25  C30 UNL     1     -13.965   7.181  13.583  1.00  0.00     0.156 C 
HETATM   26  O9  UNL     1     -14.870   6.076  13.685  1.00  0.00    -0.341 OA
HETATM   27  C31 UNL     1     -16.240   6.479  13.592  1.00  0.00     0.241 C 
ENDROOT
BRANCH  19  28
HETATM   28  C20 UNL     1      -4.879   5.561  14.528  1.00  0.00    -0.045 A 
HETATM   29  C21 UNL     1      -3.816   5.231  13.793  1.00  0.00     0.087 A 
HETATM   30  C22 UNL     1      -2.630   5.516  14.600  1.00  0.00     0.283 A 
HETATM   31  O5  UNL     1      -1.483   5.330  14.235  1.00  0.00    -0.260 OA
HETATM   32  O6  UNL     1      -3.016   6.025  15.800  1.00  0.00    -0.314 OA
HETATM   33  C23 UNL     1      -4.440   6.082  15.846  1.00  0.00     0.213 A 
ENDBRANCH  19  28
BRANCH  22  34
HETATM   34  O7  UNL     1      -6.780   8.440  15.526  1.00  0.00    -0.389 OA
HETATM   35  H35 UNL     1      -7.012   8.650  16.445  1.00  0.00     0.210 HD
ENDBRANCH  22  34
BRANCH  23  36
HETATM   36  C28 UNL     1     -11.255   8.444  12.504  1.00  0.00     0.245 C 
HETATM   37  O8  UNL     1     -12.005   9.323  12.089  1.00  0.00    -0.306 OA
ENDBRANCH  23  36
BRANCH  27  38
HETATM   38  O10 UNL     1     -16.686   5.999  12.312  1.00  0.00    -0.360 OA
HETATM   39  H40 UNL     1     -16.054   6.355  11.666  1.00  0.00     0.213 HD
ENDBRANCH  27  38
BRANCH   1  40
HETATM   40  O2  UNL     1     -16.574   6.104  15.978  1.00  0.00    -0.310 OA
BRANCH  40  41
HETATM   41  C2  UNL     1     -16.940   5.292  17.003  1.00  0.00     0.255 C 
HETATM   42  C1  UNL     1     -17.049   6.084  18.269  1.00  0.00     0.126 C 
HETATM   43  O1  UNL     1     -17.169   4.095  16.919  1.00  0.00    -0.266 OA
ENDBRANCH  40  41
ENDBRANCH   1  40
TORSDOF 6
ENDMDL
MODEL 7
REMARK minimizedAffinity -8.12251854
REMARK CNNscore 0.429301858
REMARK CNNaffinity 6.38378191
REMARK  6 active torsions:
REMARK  status: ('A' for Active; 'I' for Inactive)
REMARK    1  A    between atoms: C2_2  and  O2_4 
REMARK    2  A    between atoms: O2_4  and  C3_5 
REMARK    3  A    between atoms: C19_23  and  C20_24 
REMARK    4  A    between atoms: C26_32  and  O7_33 
REMARK    5  A    between atoms: C27_34  and  C28_35 
REMARK    6  A    between atoms: C31_40  and  O10_41 
ROOT
HETATM    1  C3  UNL     1       3.290   7.598  10.638  1.00  0.00     0.201 C 
HETATM    2  C4  UNL     1       3.873   6.687   9.544  1.00  0.00     0.070 C 
HETATM    3  C5  UNL     1       2.800   5.861   8.828  1.00  0.00     0.123 C 
HETATM    4  C6  UNL     1       3.405   4.628   8.167  1.00  0.00     0.040 C 
HETATM    5  O3  UNL     1       1.816   5.425   9.759  1.00  0.00    -0.351 OA
HETATM    6  C7  UNL     1       1.017   6.494  10.290  1.00  0.00     0.325 C 
HETATM    7  O4  UNL     1       0.427   6.002  11.498  1.00  0.00    -0.347 OA
HETATM    8  C8  UNL     1       0.164   6.983  12.501  1.00  0.00     0.158 C 
HETATM    9  C9  UNL     1      -1.117   6.578  13.231  1.00  0.00     0.069 C 
HETATM   10  C10 UNL     1      -1.524   7.593  14.276  1.00  0.00    -0.065 C 
HETATM   11  C11 UNL     1      -1.772   7.211  15.542  1.00  0.00    -0.022 C 
HETATM   12  C12 UNL     1      -2.210   8.134  16.640  1.00  0.00     0.035 C 
HETATM   13  C13 UNL     1      -2.707   9.499  16.122  1.00  0.00     0.030 C 
HETATM   14  C14 UNL     1      -1.734  10.032  15.040  1.00  0.00     0.012 C 
HETATM   15  C15 UNL     1      -2.024  11.494  14.645  1.00  0.00     0.007 C 
HETATM   16  C16 UNL     1      -3.354  12.022  15.167  1.00  0.00     0.013 C 
HETATM   17  C17 UNL     1      -3.619  11.848  16.696  1.00  0.00    -0.005 C 
HETATM   18  C18 UNL     1      -5.161  11.876  16.842  1.00  0.00     0.019 C 
HETATM   19  C19 UNL     1      -2.932  12.995  17.516  1.00  0.00     0.028 C 
HETATM   20  C24 UNL     1      -1.536  12.454  17.843  1.00  0.00     0.013 C 
HETATM   21  C25 UNL     1      -1.698  10.954  18.030  1.00  0.00     0.040 C 
HETATM   22  C26 UNL     1      -2.968  10.529  17.252  1.00  0.00     0.070 C 
HETATM   23  C27 UNL     1      -1.613   9.048  13.819  1.00  0.00     0.043 C 
HETATM   24  C29 UNL     1      -0.347   9.415  13.000  1.00  0.00     0.056 C 
HETATM   25  C30 UNL     1       0.036   8.393  11.924  1.00  0.00     0.156 C 
HETATM   26  O9  UNL     1       1.308   8.782  11.394  1.00  0.00    -0.341 OA
HETATM   27  C31 UNL     1       1.789   7.872  10.399  1.00  0.00     0.241 C 
ENDROOT
BRANCH  19  28
HETATM   28  C20 UNL     1      -3.650  13.475  18.755  1.00  0.00    -0.045 A 
HETATM   29  C21 UNL     1      -4.498  12.827  19.554  1.00  0.00     0.087 A 
HETATM   30  C22 UNL     1      -4.890  13.758  20.611  1.00  0.00     0.283 A 
HETATM   31  O5  UNL     1      -5.661  13.495  21.516  1.00  0.00    -0.260 OA
HETATM   32  O6  UNL     1      -4.250  14.943  20.423  1.00  0.00    -0.314 OA
HETATM   33  C23 UNL     1      -3.441  14.857  19.253  1.00  0.00     0.213 A 
ENDBRANCH  19  28
BRANCH  22  34
HETATM   34  O7  UNL     1      -3.867   9.934  18.198  1.00  0.00    -0.389 OA
HETATM   35  H35 UNL     1      -3.390   9.268  18.720  1.00  0.00     0.210 HD
ENDBRANCH  22  34
BRANCH  23  36
HETATM   36  C28 UNL     1      -2.877   9.143  12.949  1.00  0.00     0.245 C 
HETATM   37  O8  UNL     1      -3.823   8.363  13.017  1.00  0.00    -0.306 OA
ENDBRANCH  23  36
BRANCH  27  38
HETATM   38  O10 UNL     1       1.684   8.586   9.155  1.00  0.00    -0.360 OA
HETATM   39  H40 UNL     1       0.760   8.882   9.103  1.00  0.00     0.213 HD
ENDBRANCH  27  38
BRANCH   1  40
HETATM   40  O2  UNL     1       3.457   6.980  11.938  1.00  0.00    -0.310 OA
BRANCH  40  41
HETATM   41  C2  UNL     1       4.248   7.646  12.819  1.00  0.00     0.255 C 
HETATM   42  C1  UNL     1       3.453   8.036  14.027  1.00  0.00     0.126 C 
HETATM   43  O1  UNL     1       5.437   7.884  12.673  1.00  0.00    -0.266 OA
ENDBRANCH  40  41
ENDBRANCH   1  40
TORSDOF 6
ENDMDL
MODEL 8
REMARK minimizedAffinity -6.86989021
REMARK CNNscore 0.421017021
REMARK CNNaffinity 5.79235697
REMARK  6 active torsions:
REMARK  status: ('A' for Active; 'I' for Inactive)
REMARK    1  A    between atoms: C2_2  and  O2_4 
REMARK    2  A    between atoms: O2_4  and  C3_5 
REMARK    3  A    between atoms: C19_23  and  C20_24 
REMARK    4  A    between atoms: C26_32  and  O7_33 
REMARK    5  A    between atoms: C27_34  and  C28_35 
REMARK    6  A    between atoms: C31_40  and  O10_41 
ROOT
HETATM    1  C3  UNL     1     -10.577  10.113  16.814  1.00  0.00     0.201 C 
HETATM    2  C4  UNL     1     -10.441  11.203  15.739  1.00  0.00     0.070 C 
HETATM    3  C5  UNL     1     -11.561  12.246  15.808  1.00  0.00     0.123 C 
HETATM    4  C6  UNL     1     -11.725  12.968  14.476  1.00  0.00     0.040 C 
HETATM    5  O3  UNL     1     -12.798  11.615  16.124  1.00  0.00    -0.351 OA
HETATM    6  C7  UNL     1     -12.846  11.085  17.457  1.00  0.00     0.325 C 
HETATM    7  O4  UNL     1     -13.901  10.118  17.474  1.00  0.00    -0.347 OA
HETATM    8  C8  UNL     1     -13.735   9.039  18.394  1.00  0.00     0.158 C 
HETATM    9  C9  UNL     1     -15.117   8.657  18.926  1.00  0.00     0.069 C 
HETATM   10  C10 UNL     1     -15.046   7.560  19.966  1.00  0.00    -0.065 C 
HETATM   11  C11 UNL     1     -15.796   6.450  19.844  1.00  0.00    -0.022 C 
HETATM   12  C12 UNL     1     -15.818   5.325  20.835  1.00  0.00     0.035 C 
HETATM   13  C13 UNL     1     -15.187   5.698  22.191  1.00  0.00     0.030 C 
HETATM   14  C14 UNL     1     -13.860   6.461  21.956  1.00  0.00     0.012 C 
HETATM   15  C15 UNL     1     -13.048   6.659  23.252  1.00  0.00     0.007 C 
HETATM   16  C16 UNL     1     -13.823   6.332  24.522  1.00  0.00     0.013 C 
HETATM   17  C17 UNL     1     -14.523   4.937  24.569  1.00  0.00    -0.005 C 
HETATM   18  C18 UNL     1     -15.672   5.099  25.596  1.00  0.00     0.019 C 
HETATM   19  C19 UNL     1     -13.509   3.819  24.996  1.00  0.00     0.028 C 
HETATM   20  C24 UNL     1     -12.914   3.314  23.678  1.00  0.00     0.013 C 
HETATM   21  C25 UNL     1     -14.027   3.414  22.646  1.00  0.00     0.040 C 
HETATM   22  C26 UNL     1     -15.022   4.488  23.148  1.00  0.00     0.070 C 
HETATM   23  C27 UNL     1     -14.075   7.779  21.126  1.00  0.00     0.043 C 
HETATM   24  C29 UNL     1     -12.705   8.256  20.575  1.00  0.00     0.056 C 
HETATM   25  C30 UNL     1     -12.790   9.389  19.545  1.00  0.00     0.156 C 
HETATM   26  O9  UNL     1     -11.477   9.583  19.008  1.00  0.00    -0.341 OA
HETATM   27  C31 UNL     1     -11.441  10.598  18.000  1.00  0.00     0.241 C 
ENDROOT
BRANCH  19  28
HETATM   28  C20 UNL     1     -14.053   2.686  25.833  1.00  0.00    -0.045 A 
HETATM   29  C21 UNL     1     -14.027   2.512  27.155  1.00  0.00     0.087 A 
HETATM   30  C22 UNL     1     -14.704   1.248  27.437  1.00  0.00     0.283 A 
HETATM   31  O5  UNL     1     -14.860   0.777  28.549  1.00  0.00    -0.260 OA
HETATM   32  O6  UNL     1     -15.133   0.700  26.269  1.00  0.00    -0.314 OA
HETATM   33  C23 UNL     1     -14.753   1.548  25.188  1.00  0.00     0.213 A 
ENDBRANCH  19  28
BRANCH  22  34
HETATM   34  O7  UNL     1     -16.301   3.853  23.287  1.00  0.00    -0.389 OA
HETATM   35  H35 UNL     1     -16.506   3.363  22.473  1.00  0.00     0.210 HD
ENDBRANCH  22  34
BRANCH  23  36
HETATM   36  C28 UNL     1     -14.715   8.855  22.017  1.00  0.00     0.245 C 
HETATM   37  O8  UNL     1     -15.355   9.814  21.593  1.00  0.00    -0.306 OA
ENDBRANCH  23  36
BRANCH  27  38
HETATM   38  O10 UNL     1     -10.746  11.702  18.603  1.00  0.00    -0.360 OA
HETATM   39  H40 UNL     1     -11.221  11.888  19.430  1.00  0.00     0.213 HD
ENDBRANCH  27  38
BRANCH   1  40
HETATM   40  O2  UNL     1     -11.180   8.926  16.244  1.00  0.00    -0.310 OA
BRANCH  40  41
HETATM   41  C2  UNL     1     -10.372   8.158  15.469  1.00  0.00     0.255 C 
HETATM   42  C1  UNL     1      -9.193   7.690  16.266  1.00  0.00     0.126 C 
HETATM   43  O1  UNL     1     -10.570   7.866  14.300  1.00  0.00    -0.266 OA
ENDBRANCH  40  41
ENDBRANCH   1  40
TORSDOF 6
ENDMDL
MODEL 9
REMARK minimizedAffinity -7.18727827
REMARK CNNscore 0.388066709
REMARK CNNaffinity 5.90281439
REMARK  6 active torsions:
REMARK  status: ('A' for Active; 'I' for Inactive)
REMARK    1  A    between atoms: C2_2  and  O2_4 
REMARK    2  A    between atoms: O2_4  and  C3_5 
REMARK    3  A    between atoms: C19_23  and  C20_24 
REMARK    4  A    between atoms: C26_32  and  O7_33 
REMARK    5  A    between atoms: C27_34  and  C28_35 
REMARK    6  A    between atoms: C31_40  and  O10_41 
ROOT
HETATM    1  C3  UNL     1      -2.593   8.565  15.638  1.00  0.00     0.201 C 
HETATM    2  C4  UNL     1      -1.751   8.088  14.443  1.00  0.00     0.070 C 
HETATM    3  C5  UNL     1      -1.033   9.237  13.727  1.00  0.00     0.123 C 
HETATM    4  C6  UNL     1      -0.669   8.854  12.298  1.00  0.00     0.040 C 
HETATM    5  O3  UNL     1      -1.877  10.383  13.676  1.00  0.00    -0.351 OA
HETATM    6  C7  UNL     1      -2.113  10.978  14.962  1.00  0.00     0.325 C 
HETATM    7  O4  UNL     1      -3.290  11.781  14.830  1.00  0.00    -0.347 OA
HETATM    8  C8  UNL     1      -4.077  11.923  16.012  1.00  0.00     0.158 C 
HETATM    9  C9  UNL     1      -4.677  13.330  16.013  1.00  0.00     0.069 C 
HETATM   10  C10 UNL     1      -5.479  13.609  17.264  1.00  0.00    -0.065 C 
HETATM   11  C11 UNL     1      -6.743  14.062  17.182  1.00  0.00    -0.022 C 
HETATM   12  C12 UNL     1      -7.607  14.396  18.361  1.00  0.00     0.035 C 
HETATM   13  C13 UNL     1      -6.813  14.525  19.677  1.00  0.00     0.030 C 
HETATM   14  C14 UNL     1      -5.806  13.355  19.795  1.00  0.00     0.012 C 
HETATM   15  C15 UNL     1      -5.146  13.275  21.186  1.00  0.00     0.007 C 
HETATM   16  C16 UNL     1      -5.386  14.501  22.055  1.00  0.00     0.013 C 
HETATM   17  C17 UNL     1      -6.872  14.953  22.224  1.00  0.00    -0.005 C 
HETATM   18  C18 UNL     1      -6.796  16.458  22.584  1.00  0.00     0.019 C 
HETATM   19  C19 UNL     1      -7.584  14.118  23.345  1.00  0.00     0.028 C 
HETATM   20  C24 UNL     1      -8.185  12.917  22.608  1.00  0.00     0.013 C 
HETATM   21  C25 UNL     1      -8.585  13.422  21.231  1.00  0.00     0.040 C 
HETATM   22  C26 UNL     1      -7.717  14.668  20.930  1.00  0.00     0.070 C 
HETATM   23  C27 UNL     1      -4.787  13.328  18.598  1.00  0.00     0.043 C 
HETATM   24  C29 UNL     1      -4.104  11.936  18.547  1.00  0.00     0.056 C 
HETATM   25  C30 UNL     1      -3.269  11.678  17.288  1.00  0.00     0.156 C 
HETATM   26  O9  UNL     1      -2.866  10.305  17.311  1.00  0.00    -0.341 OA
HETATM   27  C31 UNL     1      -2.106   9.937  16.155  1.00  0.00     0.241 C 
ENDROOT
BRANCH  19  28
HETATM   28  C20 UNL     1      -8.618  14.836  24.179  1.00  0.00    -0.045 A 
HETATM   29  C21 UNL     1      -8.460  15.765  25.122  1.00  0.00     0.087 A 
HETATM   30  C22 UNL     1      -9.794  16.124  25.601  1.00  0.00     0.283 A 
HETATM   31  O5  UNL     1     -10.020  16.947  26.470  1.00  0.00    -0.260 OA
HETATM   32  O6  UNL     1     -10.723  15.405  24.918  1.00  0.00    -0.314 OA
HETATM   33  C23 UNL     1     -10.062  14.546  23.992  1.00  0.00     0.213 A 
ENDBRANCH  19  28
BRANCH  22  34
HETATM   34  O7  UNL     1      -8.611  15.768  20.711  1.00  0.00    -0.389 OA
HETATM   35  H35 UNL     1      -9.294  15.505  20.072  1.00  0.00     0.210 HD
ENDBRANCH  22  34
BRANCH  23  36
HETATM   36  C28 UNL     1      -3.746  14.445  18.778  1.00  0.00     0.245 C 
HETATM   37  O8  UNL     1      -2.600  14.264  19.181  1.00  0.00    -0.306 OA
ENDBRANCH  23  36
BRANCH  27  38
HETATM   38  O10 UNL     1      -0.762   9.755  16.631  1.00  0.00    -0.360 OA
HETATM   39  H40 UNL     1      -0.535  10.581  17.090  1.00  0.00     0.213 HD
ENDBRANCH  27  38
BRANCH   1  40
HETATM   40  O2  UNL     1      -3.985   8.671  15.252  1.00  0.00    -0.310 OA
BRANCH  40  41
HETATM   41  C2  UNL     1      -4.589   7.517  14.868  1.00  0.00     0.255 C 
HETATM   42  C1  UNL     1      -5.218   7.693  13.521  1.00  0.00     0.126 C 
HETATM   43  O1  UNL     1      -4.608   6.475  15.505  1.00  0.00    -0.266 OA
ENDBRANCH  40  41
ENDBRANCH   1  40
TORSDOF 6
ENDMDL
