MODEL 1
REMARK minimizedAffinity -8.98057365
REMARK CNNscore 0.249736473
REMARK CNNaffinity 6.53398657
REMARK  12 active torsions:
REMARK  status: ('A' for Active; 'I' for Inactive)
REMARK    1  A    between atoms: C3_3  and  O1_4 
REMARK    2  A    between atoms: N1_14  and  O2_16 
REMARK    3  A    between atoms: O2_16  and  C13_17 
REMARK    4  A    between atoms: C13_17  and  C14_18 
REMARK       I    between atoms: C14_18  and  N2_20 
REMARK    5  A    between atoms: N2_20  and  C15_21 
REMARK    6  A    between atoms: C15_21  and  C16_22 
REMARK    7  A    between atoms: C15_21  and  C26_36 
REMARK       I    between atoms: C16_22  and  N3_24 
REMARK    8  A    between atoms: N3_24  and  C17_25 
REMARK    9  A    between atoms: C17_25  and  C18_26 
REMARK   10  A    between atoms: C17_25  and  C25_33 
REMARK   11  A    between atoms: C18_26  and  C19_27 
REMARK   12  A    between atoms: C25_33  and  O6_35 
ROOT
HETATM    1  C1  UNL     1       2.701   5.344   7.057  1.00  0.00     0.015 C 
HETATM    2  C2  UNL     1       2.933   5.852   8.121  1.00  0.00    -0.078 C 
HETATM    3  C3  UNL     1       3.244   6.484   9.426  1.00  0.00     0.128 C 
HETATM    4  C4  UNL     1       3.180   8.018   9.261  1.00  0.00     0.052 C 
HETATM    5  C5  UNL     1       1.848   8.456   9.879  1.00  0.00     0.010 C 
HETATM    6  C6  UNL     1       1.053   7.164  10.172  1.00  0.00     0.002 C 
HETATM    7  C7  UNL     1      -0.114   7.274  11.195  1.00  0.00    -0.004 C 
HETATM    8  C8  UNL     1      -0.723   8.698  11.195  1.00  0.00     0.010 C 
HETATM    9  C9  UNL     1      -1.825   8.907  12.224  1.00  0.00     0.035 C 
HETATM   10  C10 UNL     1      -1.281   8.520  13.574  1.00  0.00    -0.069 C 
HETATM   11  C11 UNL     1      -1.139   9.451  14.530  1.00  0.00     0.030 C 
HETATM   12  C12 UNL     1      -0.435   9.170  15.803  1.00  0.00     0.032 C 
HETATM   13  N1  UNL     1      -0.386  10.126  16.688  1.00  0.00    -0.271 N 
ATOM     14  H1  UNL     1      -0.825  11.038  16.566  1.00  0.00     0.194 HD
HETATM   15  C29 UNL     1       0.277   7.840  15.931  1.00  0.00     0.060 C 
HETATM   16  C30 UNL     1      -0.437   6.729  15.170  1.00  0.00     0.020 C 
HETATM   17  C31 UNL     1      -0.861   7.067  13.710  1.00  0.00    -0.016 C 
HETATM   18  C32 UNL     1      -2.101   6.156  13.445  1.00  0.00     0.020 C 
HETATM   19  C33 UNL     1       0.228   6.721  12.620  1.00  0.00     0.002 C 
HETATM   20  C34 UNL     1       1.679   7.063  12.970  1.00  0.00     0.007 C 
HETATM   21  C35 UNL     1       2.711   6.492  11.972  1.00  0.00     0.014 C 
HETATM   22  C36 UNL     1       2.179   6.170  10.540  1.00  0.00     0.003 C 
HETATM   23  C37 UNL     1       1.743   4.688  10.479  1.00  0.00     0.020 C 
ENDROOT
BRANCH   3  24
HETATM   24  O1  UNL     1       4.552   6.060   9.785  1.00  0.00    -0.377 OA
HETATM   25  H2  UNL     1       4.875   6.614  10.507  1.00  0.00     0.211 HD
ENDBRANCH   3  24
BRANCH  13  26
HETATM   26  O2  UNL     1       0.339   9.752  17.826  1.00  0.00    -0.271 OA
BRANCH  26  27
HETATM   27  C13 UNL     1       0.650  10.921  18.577  1.00  0.00     0.303 C 
BRANCH  27  28
HETATM   28  C14 UNL     1       1.792  10.639  19.539  1.00  0.00     0.244 C 
HETATM   29  O3  UNL     1       2.787   9.999  19.209  1.00  0.00    -0.271 OA
HETATM   30  N2  UNL     1       1.654  11.214  20.781  1.00  0.00    -0.346 N 
HETATM   31  H16 UNL     1       0.754  11.612  21.044  1.00  0.00     0.163 HD
BRANCH  30  32
HETATM   32  C15 UNL     1       2.637  11.016  21.849  1.00  0.00     0.180 C 
BRANCH  32  33
HETATM   33  C16 UNL     1       3.801  11.998  21.585  1.00  0.00     0.241 C 
HETATM   34  O4  UNL     1       4.755  11.707  20.861  1.00  0.00    -0.271 OA
HETATM   35  N3  UNL     1       3.695  13.220  22.202  1.00  0.00    -0.345 N 
HETATM   36  H18 UNL     1       2.808  13.487  22.621  1.00  0.00     0.163 HD
BRANCH  35  37
HETATM   37  C17 UNL     1       4.608  14.329  21.910  1.00  0.00     0.186 C 
BRANCH  37  38
HETATM   38  C18 UNL     1       5.672  14.533  23.001  1.00  0.00     0.074 C 
BRANCH  38  39
HETATM   39  C19 UNL     1       6.992  13.836  22.746  1.00  0.00    -0.056 A 
HETATM   40  C20 UNL     1       7.984  14.455  21.976  1.00  0.00     0.007 A 
HETATM   41  C21 UNL     1       9.195  13.808  21.717  1.00  0.00     0.001 A 
HETATM   42  C22 UNL     1       9.429  12.535  22.231  1.00  0.00     0.000 A 
HETATM   43  C23 UNL     1       8.457  11.915  23.013  1.00  0.00     0.001 A 
HETATM   44  C24 UNL     1       7.247  12.562  23.275  1.00  0.00     0.007 A 
ENDBRANCH  38  39
ENDBRANCH  37  38
BRANCH  37  45
HETATM   45  C25 UNL     1       3.819  15.615  21.650  1.00  0.00     0.163 C 
HETATM   46  O5  UNL     1       3.402  16.391  22.495  1.00  0.00    -0.648 OA
BRANCH  45  47
HETATM   47  O6  UNL     1       3.591  15.859  20.339  1.00  0.00    -0.775 OA
HETATM   48  H27 UNL     1       3.095  16.707  20.345  1.00  0.00     0.167 HD
ENDBRANCH  45  47
ENDBRANCH  37  45
ENDBRANCH  35  37
ENDBRANCH  32  33
BRANCH  32  49
HETATM   49  C26 UNL     1       3.054   9.530  21.950  1.00  0.00     0.009 C 
HETATM   50  C27 UNL     1       4.245   9.308  22.881  1.00  0.00     0.012 C 
HETATM   51  C28 UNL     1       1.890   8.620  22.340  1.00  0.00     0.012 C 
ENDBRANCH  32  49
ENDBRANCH  30  32
ENDBRANCH  27  28
ENDBRANCH  26  27
ENDBRANCH  13  26
TORSDOF 12
ENDMDL
MODEL 2
REMARK minimizedAffinity -7.5593133
REMARK CNNscore 0.239434391
REMARK CNNaffinity 6.02318335
REMARK  12 active torsions:
REMARK  status: ('A' for Active; 'I' for Inactive)
REMARK    1  A    between atoms: C3_3  and  O1_4 
REMARK    2  A    between atoms: N1_14  and  O2_16 
REMARK    3  A    between atoms: O2_16  and  C13_17 
REMARK    4  A    between atoms: C13_17  and  C14_18 
REMARK       I    between atoms: C14_18  and  N2_20 
REMARK    5  A    between atoms: N2_20  and  C15_21 
REMARK    6  A    between atoms: C15_21  and  C16_22 
REMARK    7  A    between atoms: C15_21  and  C26_36 
REMARK       I    between atoms: C16_22  and  N3_24 
REMARK    8  A    between atoms: N3_24  and  C17_25 
REMARK    9  A    between atoms: C17_25  and  C18_26 
REMARK   10  A    between atoms: C17_25  and  C25_33 
REMARK   11  A    between atoms: C18_26  and  C19_27 
REMARK   12  A    between atoms: C25_33  and  O6_35 
ROOT
HETATM    1  C1  UNL     1      -2.021   4.930  11.649  1.00  0.00     0.015 C 
HETATM    2  C2  UNL     1      -1.371   5.445  12.519  1.00  0.00    -0.078 C 
HETATM    3  C3  UNL     1      -0.549   6.064  13.587  1.00  0.00     0.128 C 
HETATM    4  C4  UNL     1       0.421   7.077  12.941  1.00  0.00     0.052 C 
HETATM    5  C5  UNL     1      -0.169   8.464  13.217  1.00  0.00     0.010 C 
HETATM    6  C6  UNL     1      -1.582   8.233  13.801  1.00  0.00     0.002 C 
HETATM    7  C7  UNL     1      -2.220   9.417  14.582  1.00  0.00    -0.004 C 
HETATM    8  C8  UNL     1      -1.700  10.778  14.057  1.00  0.00     0.010 C 
HETATM    9  C9  UNL     1      -2.224  11.985  14.822  1.00  0.00     0.035 C 
HETATM   10  C10 UNL     1      -1.916  11.782  16.282  1.00  0.00    -0.069 C 
HETATM   11  C11 UNL     1      -1.059  12.605  16.906  1.00  0.00     0.030 C 
HETATM   12  C12 UNL     1      -0.574  12.339  18.280  1.00  0.00     0.032 C 
HETATM   13  N1  UNL     1       0.222  13.220  18.818  1.00  0.00    -0.271 N 
ATOM     14  H1  UNL     1       0.506  14.087  18.361  1.00  0.00     0.194 HD
HETATM   15  C29 UNL     1      -0.940  11.012  18.908  1.00  0.00     0.060 C 
HETATM   16  C30 UNL     1      -2.308  10.517  18.453  1.00  0.00     0.020 C 
HETATM   17  C31 UNL     1      -2.576  10.572  16.919  1.00  0.00    -0.016 C 
HETATM   18  C32 UNL     1      -4.126  10.722  16.802  1.00  0.00     0.020 C 
HETATM   19  C33 UNL     1      -2.162   9.263  16.140  1.00  0.00     0.002 C 
HETATM   20  C34 UNL     1      -0.833   8.618  16.543  1.00  0.00     0.007 C 
HETATM   21  C35 UNL     1      -0.599   7.227  15.913  1.00  0.00     0.014 C 
HETATM   22  C36 UNL     1      -1.389   6.924  14.601  1.00  0.00     0.003 C 
HETATM   23  C37 UNL     1      -2.716   6.213  14.955  1.00  0.00     0.020 C 
ENDROOT
BRANCH   3  24
HETATM   24  O1  UNL     1       0.159   5.009  14.222  1.00  0.00    -0.377 OA
HETATM   25  H2  UNL     1       0.862   5.384  14.768  1.00  0.00     0.211 HD
ENDBRANCH   3  24
BRANCH  13  26
HETATM   26  O2  UNL     1       0.643  12.836  20.097  1.00  0.00    -0.271 OA
BRANCH  26  27
HETATM   27  C13 UNL     1       1.560  13.809  20.590  1.00  0.00     0.303 C 
BRANCH  27  28
HETATM   28  C14 UNL     1       2.305  13.264  21.797  1.00  0.00     0.244 C 
HETATM   29  O3  UNL     1       2.189  13.755  22.918  1.00  0.00    -0.271 OA
HETATM   30  N2  UNL     1       3.062  12.143  21.550  1.00  0.00    -0.346 N 
HETATM   31  H16 UNL     1       3.232  11.865  20.585  1.00  0.00     0.163 HD
BRANCH  30  32
HETATM   32  C15 UNL     1       3.879  11.505  22.585  1.00  0.00     0.180 C 
BRANCH  32  33
HETATM   33  C16 UNL     1       5.356  11.824  22.261  1.00  0.00     0.241 C 
HETATM   34  O4  UNL     1       6.261  11.648  23.080  1.00  0.00    -0.271 OA
HETATM   35  N3  UNL     1       5.593  12.306  20.997  1.00  0.00    -0.345 N 
HETATM   36  H18 UNL     1       4.857  12.246  20.299  1.00  0.00     0.163 HD
BRANCH  35  37
HETATM   37  C17 UNL     1       6.949  12.479  20.465  1.00  0.00     0.186 C 
BRANCH  37  38
HETATM   38  C18 UNL     1       7.330  13.954  20.265  1.00  0.00     0.074 C 
BRANCH  38  39
HETATM   39  C19 UNL     1       7.460  14.760  21.540  1.00  0.00    -0.056 A 
HETATM   40  C20 UNL     1       6.323  15.091  22.289  1.00  0.00     0.007 A 
HETATM   41  C21 UNL     1       6.432  15.854  23.454  1.00  0.00     0.001 A 
HETATM   42  C22 UNL     1       7.682  16.291  23.887  1.00  0.00     0.000 A 
HETATM   43  C23 UNL     1       8.822  15.955  23.161  1.00  0.00     0.001 A 
HETATM   44  C24 UNL     1       8.715  15.189  21.997  1.00  0.00     0.007 A 
ENDBRANCH  38  39
ENDBRANCH  37  38
BRANCH  37  45
HETATM   45  C25 UNL     1       7.120  11.676  19.173  1.00  0.00     0.163 C 
HETATM   46  O5  UNL     1       7.090  10.460  19.067  1.00  0.00    -0.648 OA
BRANCH  45  47
HETATM   47  O6  UNL     1       7.323  12.443  18.078  1.00  0.00    -0.775 OA
HETATM   48  H27 UNL     1       7.400  11.789  17.349  1.00  0.00     0.167 HD
ENDBRANCH  45  47
ENDBRANCH  37  45
ENDBRANCH  35  37
ENDBRANCH  32  33
BRANCH  32  49
HETATM   49  C26 UNL     1       3.552   9.998  22.698  1.00  0.00     0.009 C 
HETATM   50  C27 UNL     1       2.964   9.615  24.055  1.00  0.00     0.012 C 
HETATM   51  C28 UNL     1       2.652   9.506  21.565  1.00  0.00     0.012 C 
ENDBRANCH  32  49
ENDBRANCH  30  32
ENDBRANCH  27  28
ENDBRANCH  26  27
ENDBRANCH  13  26
TORSDOF 12
ENDMDL
MODEL 3
REMARK minimizedAffinity -8.54057598
REMARK CNNscore 0.226286456
REMARK CNNaffinity 4.98078585
REMARK  12 active torsions:
REMARK  status: ('A' for Active; 'I' for Inactive)
REMARK    1  A    between atoms: C3_3  and  O1_4 
REMARK    2  A    between atoms: N1_14  and  O2_16 
REMARK    3  A    between atoms: O2_16  and  C13_17 
REMARK    4  A    between atoms: C13_17  and  C14_18 
REMARK       I    between atoms: C14_18  and  N2_20 
REMARK    5  A    between atoms: N2_20  and  C15_21 
REMARK    6  A    between atoms: C15_21  and  C16_22 
REMARK    7  A    between atoms: C15_21  and  C26_36 
REMARK       I    between atoms: C16_22  and  N3_24 
REMARK    8  A    between atoms: N3_24  and  C17_25 
REMARK    9  A    between atoms: C17_25  and  C18_26 
REMARK   10  A    between atoms: C17_25  and  C25_33 
REMARK   11  A    between atoms: C18_26  and  C19_27 
REMARK   12  A    between atoms: C25_33  and  O6_35 
ROOT
HETATM    1  C1  UNL     1       1.402   7.519   9.438  1.00  0.00     0.015 C 
HETATM    2  C2  UNL     1       2.125   7.301  10.374  1.00  0.00    -0.078 C 
HETATM    3  C3  UNL     1       3.009   7.007  11.527  1.00  0.00     0.128 C 
HETATM    4  C4  UNL     1       4.307   6.355  11.003  1.00  0.00     0.052 C 
HETATM    5  C5  UNL     1       5.378   7.450  11.041  1.00  0.00     0.010 C 
HETATM    6  C6  UNL     1       4.642   8.774  11.352  1.00  0.00     0.002 C 
HETATM    7  C7  UNL     1       5.508   9.949  11.890  1.00  0.00    -0.004 C 
HETATM    8  C8  UNL     1       6.963   9.855  11.367  1.00  0.00     0.010 C 
HETATM    9  C9  UNL     1       7.893  10.931  11.910  1.00  0.00     0.035 C 
HETATM   10  C10 UNL     1       7.825  10.891  13.413  1.00  0.00    -0.069 C 
HETATM   11  C11 UNL     1       8.910  10.544  14.124  1.00  0.00     0.030 C 
HETATM   12  C12 UNL     1       8.848  10.302  15.584  1.00  0.00     0.032 C 
HETATM   13  N1  UNL     1       9.964  10.013  16.193  1.00  0.00    -0.271 N 
ATOM     14  H1  UNL     1      10.872   9.971  15.730  1.00  0.00     0.194 HD
HETATM   15  C29 UNL     1       7.482  10.289  16.236  1.00  0.00     0.060 C 
HETATM   16  C30 UNL     1       6.514  11.255  15.562  1.00  0.00     0.020 C 
HETATM   17  C31 UNL     1       6.459  11.190  14.006  1.00  0.00    -0.016 C 
HETATM   18  C32 UNL     1       6.023  12.625  13.574  1.00  0.00     0.020 C 
HETATM   19  C33 UNL     1       5.394  10.174  13.436  1.00  0.00     0.002 C 
HETATM   20  C34 UNL     1       5.289   8.821  14.146  1.00  0.00     0.007 C 
HETATM   21  C35 UNL     1       4.081   7.972  13.693  1.00  0.00     0.014 C 
HETATM   22  C36 UNL     1       3.501   8.297  12.280  1.00  0.00     0.003 C 
HETATM   23  C37 UNL     1       2.350   9.321  12.423  1.00  0.00     0.020 C 
ENDROOT
BRANCH   3  24
HETATM   24  O1  UNL     1       2.294   6.119  12.376  1.00  0.00    -0.377 OA
HETATM   25  H2  UNL     1       2.906   5.734  13.016  1.00  0.00     0.211 HD
ENDBRANCH   3  24
BRANCH  13  26
HETATM   26  O2  UNL     1       9.769   9.767  17.557  1.00  0.00    -0.271 OA
BRANCH  26  27
HETATM   27  C13 UNL     1      10.153  10.924  18.292  1.00  0.00     0.303 C 
BRANCH  27  28
HETATM   28  C14 UNL     1      11.642  10.890  18.588  1.00  0.00     0.244 C 
HETATM   29  O3  UNL     1      12.096  10.415  19.627  1.00  0.00    -0.271 OA
HETATM   30  N2  UNL     1      12.443  11.367  17.576  1.00  0.00    -0.346 N 
HETATM   31  H16 UNL     1      12.012  11.872  16.803  1.00  0.00     0.163 HD
BRANCH  30  32
HETATM   32  C15 UNL     1      13.900  11.447  17.701  1.00  0.00     0.180 C 
BRANCH  32  33
HETATM   33  C16 UNL     1      14.224  12.774  18.422  1.00  0.00     0.241 C 
HETATM   34  O4  UNL     1      13.414  13.702  18.488  1.00  0.00    -0.271 OA
HETATM   35  N3  UNL     1      15.470  12.847  18.995  1.00  0.00    -0.345 N 
HETATM   36  H18 UNL     1      16.021  11.999  19.089  1.00  0.00     0.163 HD
BRANCH  35  37
HETATM   37  C17 UNL     1      15.866  13.952  19.873  1.00  0.00     0.186 C 
BRANCH  37  38
HETATM   38  C18 UNL     1      17.145  14.664  19.401  1.00  0.00     0.074 C 
BRANCH  38  39
HETATM   39  C19 UNL     1      18.425  13.880  19.605  1.00  0.00    -0.056 A 
HETATM   40  C20 UNL     1      19.428  14.368  20.452  1.00  0.00     0.007 A 
HETATM   41  C21 UNL     1      20.621  13.662  20.627  1.00  0.00     0.001 A 
HETATM   42  C22 UNL     1      20.822  12.456  19.959  1.00  0.00     0.000 A 
HETATM   43  C23 UNL     1      19.826  11.952  19.127  1.00  0.00     0.001 A 
HETATM   44  C24 UNL     1      18.631  12.655  18.954  1.00  0.00     0.007 A 
ENDBRANCH  38  39
ENDBRANCH  37  38
BRANCH  37  45
HETATM   45  C25 UNL     1      15.999  13.463  21.317  1.00  0.00     0.163 C 
HETATM   46  O5  UNL     1      16.022  12.300  21.689  1.00  0.00    -0.648 OA
BRANCH  45  47
HETATM   47  O6  UNL     1      16.092  14.462  22.225  1.00  0.00    -0.775 OA
HETATM   48  H27 UNL     1      16.181  13.989  23.081  1.00  0.00     0.167 HD
ENDBRANCH  45  47
ENDBRANCH  37  45
ENDBRANCH  35  37
ENDBRANCH  32  33
BRANCH  32  49
HETATM   49  C26 UNL     1      14.584  11.275  16.324  1.00  0.00     0.009 C 
HETATM   50  C27 UNL     1      13.587  11.132  15.177  1.00  0.00     0.012 C 
HETATM   51  C28 UNL     1      15.590  12.386  16.026  1.00  0.00     0.012 C 
ENDBRANCH  32  49
ENDBRANCH  30  32
ENDBRANCH  27  28
ENDBRANCH  26  27
ENDBRANCH  13  26
TORSDOF 12
ENDMDL
MODEL 4
REMARK minimizedAffinity -8.18463326
REMARK CNNscore 0.204613313
REMARK CNNaffinity 6.18364143
REMARK  12 active torsions:
REMARK  status: ('A' for Active; 'I' for Inactive)
REMARK    1  A    between atoms: C3_3  and  O1_4 
REMARK    2  A    between atoms: N1_14  and  O2_16 
REMARK    3  A    between atoms: O2_16  and  C13_17 
REMARK    4  A    between atoms: C13_17  and  C14_18 
REMARK       I    between atoms: C14_18  and  N2_20 
REMARK    5  A    between atoms: N2_20  and  C15_21 
REMARK    6  A    between atoms: C15_21  and  C16_22 
REMARK    7  A    between atoms: C15_21  and  C26_36 
REMARK       I    between atoms: C16_22  and  N3_24 
REMARK    8  A    between atoms: N3_24  and  C17_25 
REMARK    9  A    between atoms: C17_25  and  C18_26 
REMARK   10  A    between atoms: C17_25  and  C25_33 
REMARK   11  A    between atoms: C18_26  and  C19_27 
REMARK   12  A    between atoms: C25_33  and  O6_35 
ROOT
HETATM    1  C1  UNL     1       9.613  16.907  24.269  1.00  0.00     0.015 C 
HETATM    2  C2  UNL     1       9.039  16.536  23.280  1.00  0.00    -0.078 C 
HETATM    3  C3  UNL     1       8.350  16.089  22.046  1.00  0.00     0.128 C 
HETATM    4  C4  UNL     1       9.061  14.827  21.510  1.00  0.00     0.052 C 
HETATM    5  C5  UNL     1       8.168  13.642  21.896  1.00  0.00     0.010 C 
HETATM    6  C6  UNL     1       7.087  14.198  22.851  1.00  0.00     0.002 C 
HETATM    7  C7  UNL     1       5.804  13.338  23.035  1.00  0.00    -0.004 C 
HETATM    8  C8  UNL     1       6.108  11.832  22.835  1.00  0.00     0.010 C 
HETATM    9  C9  UNL     1       4.885  10.930  22.927  1.00  0.00     0.035 C 
HETATM   10  C10 UNL     1       3.856  11.438  21.952  1.00  0.00    -0.069 C 
HETATM   11  C11 UNL     1       3.499  10.683  20.901  1.00  0.00     0.030 C 
HETATM   12  C12 UNL     1       2.642  11.206  19.812  1.00  0.00     0.032 C 
HETATM   13  N1  UNL     1       2.314  10.382  18.857  1.00  0.00    -0.271 N 
ATOM     14  H1  UNL     1       2.588   9.400  18.831  1.00  0.00     0.194 HD
HETATM   15  C29 UNL     1       2.314  12.684  19.827  1.00  0.00     0.060 C 
HETATM   16  C30 UNL     1       2.201  13.234  21.244  1.00  0.00     0.020 C 
HETATM   17  C31 UNL     1       3.351  12.845  22.219  1.00  0.00    -0.016 C 
HETATM   18  C32 UNL     1       2.690  12.884  23.633  1.00  0.00     0.020 C 
HETATM   19  C33 UNL     1       4.563  13.856  22.231  1.00  0.00     0.002 C 
HETATM   20  C34 UNL     1       5.019  14.393  20.871  1.00  0.00     0.007 C 
HETATM   21  C35 UNL     1       6.045  15.544  20.968  1.00  0.00     0.014 C 
HETATM   22  C36 UNL     1       6.868  15.623  22.293  1.00  0.00     0.003 C 
HETATM   23  C37 UNL     1       6.153  16.573  23.282  1.00  0.00     0.020 C 
ENDROOT
BRANCH   3  24
HETATM   24  O1  UNL     1       8.438  17.160  21.117  1.00  0.00    -0.377 OA
HETATM   25  H2  UNL     1       8.200  16.836  20.239  1.00  0.00     0.211 HD
ENDBRANCH   3  24
BRANCH  13  26
HETATM   26  O2  UNL     1       1.539  11.005  17.870  1.00  0.00    -0.271 OA
BRANCH  26  27
HETATM   27  C13 UNL     1       1.949  10.524  16.593  1.00  0.00     0.303 C 
BRANCH  27  28
HETATM   28  C14 UNL     1       1.177   9.267  16.231  1.00  0.00     0.244 C 
HETATM   29  O3  UNL     1       1.050   8.325  17.011  1.00  0.00    -0.271 OA
HETATM   30  N2  UNL     1       0.576   9.295  14.994  1.00  0.00    -0.346 N 
HETATM   31  H16 UNL     1       0.828  10.035  14.340  1.00  0.00     0.163 HD
BRANCH  30  32
HETATM   32  C15 UNL     1      -0.176   8.157  14.462  1.00  0.00     0.180 C 
BRANCH  32  33
HETATM   33  C16 UNL     1       0.850   7.183  13.841  1.00  0.00     0.241 C 
HETATM   34  O4  UNL     1       1.995   7.063  14.283  1.00  0.00    -0.271 OA
HETATM   35  N3  UNL     1       0.397   6.451  12.771  1.00  0.00    -0.345 N 
HETATM   36  H18 UNL     1      -0.599   6.434  12.570  1.00  0.00     0.163 HD
BRANCH  35  37
HETATM   37  C17 UNL     1       1.173   5.352  12.187  1.00  0.00     0.186 C 
BRANCH  37  38
HETATM   38  C18 UNL     1       2.356   5.840  11.334  1.00  0.00     0.074 C 
BRANCH  38  39
HETATM   39  C19 UNL     1       1.972   6.513  10.033  1.00  0.00    -0.056 A 
HETATM   40  C20 UNL     1       0.942   7.461  10.002  1.00  0.00     0.007 A 
HETATM   41  C21 UNL     1       0.566   8.069   8.801  1.00  0.00     0.001 A 
HETATM   42  C22 UNL     1       1.222   7.738   7.618  1.00  0.00     0.000 A 
HETATM   43  C23 UNL     1       2.259   6.809   7.637  1.00  0.00     0.001 A 
HETATM   44  C24 UNL     1       2.638   6.203   8.838  1.00  0.00     0.007 A 
ENDBRANCH  38  39
ENDBRANCH  37  38
BRANCH  37  45
HETATM   45  C25 UNL     1       0.258   4.418  11.391  1.00  0.00     0.163 C 
HETATM   46  O5  UNL     1       0.534   3.295  11.000  1.00  0.00    -0.648 OA
BRANCH  45  47
HETATM   47  O6  UNL     1      -0.959   4.944  11.125  1.00  0.00    -0.775 OA
HETATM   48  H27 UNL     1      -1.417   4.230  10.630  1.00  0.00     0.167 HD
ENDBRANCH  45  47
ENDBRANCH  37  45
ENDBRANCH  35  37
ENDBRANCH  32  33
BRANCH  32  49
HETATM   49  C26 UNL     1      -1.287   8.630  13.495  1.00  0.00     0.009 C 
HETATM   50  C27 UNL     1      -0.738   9.213  12.195  1.00  0.00     0.012 C 
HETATM   51  C28 UNL     1      -2.314   7.536  13.202  1.00  0.00     0.012 C 
ENDBRANCH  32  49
ENDBRANCH  30  32
ENDBRANCH  27  28
ENDBRANCH  26  27
ENDBRANCH  13  26
TORSDOF 12
ENDMDL
MODEL 5
REMARK minimizedAffinity -8.46068001
REMARK CNNscore 0.202560648
REMARK CNNaffinity 6.82905626
REMARK  12 active torsions:
REMARK  status: ('A' for Active; 'I' for Inactive)
REMARK    1  A    between atoms: C3_3  and  O1_4 
REMARK    2  A    between atoms: N1_14  and  O2_16 
REMARK    3  A    between atoms: O2_16  and  C13_17 
REMARK    4  A    between atoms: C13_17  and  C14_18 
REMARK       I    between atoms: C14_18  and  N2_20 
REMARK    5  A    between atoms: N2_20  and  C15_21 
REMARK    6  A    between atoms: C15_21  and  C16_22 
REMARK    7  A    between atoms: C15_21  and  C26_36 
REMARK       I    between atoms: C16_22  and  N3_24 
REMARK    8  A    between atoms: N3_24  and  C17_25 
REMARK    9  A    between atoms: C17_25  and  C18_26 
REMARK   10  A    between atoms: C17_25  and  C25_33 
REMARK   11  A    between atoms: C18_26  and  C19_27 
REMARK   12  A    between atoms: C25_33  and  O6_35 
ROOT
HETATM    1  C1  UNL     1      -6.168   6.982  14.446  1.00  0.00     0.015 C 
HETATM    2  C2  UNL     1      -5.008   7.078  14.744  1.00  0.00    -0.078 C 
HETATM    3  C3  UNL     1      -3.582   7.193  15.137  1.00  0.00     0.128 C 
HETATM    4  C4  UNL     1      -3.030   5.779  15.416  1.00  0.00     0.052 C 
HETATM    5  C5  UNL     1      -2.192   5.401  14.190  1.00  0.00     0.010 C 
HETATM    6  C6  UNL     1      -2.463   6.485  13.121  1.00  0.00     0.002 C 
HETATM    7  C7  UNL     1      -1.424   6.611  11.970  1.00  0.00    -0.004 C 
HETATM    8  C8  UNL     1      -0.738   5.251  11.686  1.00  0.00     0.010 C 
HETATM    9  C9  UNL     1       0.346   5.309  10.619  1.00  0.00     0.035 C 
HETATM   10  C10 UNL     1       1.334   6.374  11.015  1.00  0.00    -0.069 C 
HETATM   11  C11 UNL     1       2.596   6.036  11.322  1.00  0.00     0.030 C 
HETATM   12  C12 UNL     1       3.552   7.009  11.900  1.00  0.00     0.032 C 
HETATM   13  N1  UNL     1       4.768   6.597  12.123  1.00  0.00    -0.271 N 
ATOM     14  H1  UNL     1       5.103   5.660  11.900  1.00  0.00     0.194 HD
HETATM   15  C29 UNL     1       3.015   8.367  12.299  1.00  0.00     0.060 C 
HETATM   16  C30 UNL     1       1.883   8.829  11.388  1.00  0.00     0.020 C 
HETATM   17  C31 UNL     1       0.767   7.780  11.103  1.00  0.00    -0.016 C 
HETATM   18  C32 UNL     1       0.204   8.186   9.705  1.00  0.00     0.020 C 
HETATM   19  C33 UNL     1      -0.432   7.812  12.129  1.00  0.00     0.002 C 
HETATM   20  C34 UNL     1      -0.064   7.982  13.606  1.00  0.00     0.007 C 
HETATM   21  C35 UNL     1      -1.279   8.237  14.525  1.00  0.00     0.014 C 
HETATM   22  C36 UNL     1      -2.662   7.749  13.989  1.00  0.00     0.003 C 
HETATM   23  C37 UNL     1      -3.359   8.910  13.242  1.00  0.00     0.020 C 
ENDROOT
BRANCH   3  24
HETATM   24  O1  UNL     1      -3.544   7.999  16.306  1.00  0.00    -0.377 OA
HETATM   25  H2  UNL     1      -2.673   7.919  16.716  1.00  0.00     0.211 HD
ENDBRANCH   3  24
BRANCH  13  26
HETATM   26  O2  UNL     1       5.561   7.593  12.707  1.00  0.00    -0.271 OA
BRANCH  26  27
HETATM   27  C13 UNL     1       6.440   6.988  13.650  1.00  0.00     0.303 C 
BRANCH  27  28
HETATM   28  C14 UNL     1       7.242   8.051  14.380  1.00  0.00     0.244 C 
HETATM   29  O3  UNL     1       7.002   9.251  14.265  1.00  0.00    -0.271 OA
HETATM   30  N2  UNL     1       8.208   7.564  15.229  1.00  0.00    -0.346 N 
HETATM   31  H16 UNL     1       8.455   6.577  15.180  1.00  0.00     0.163 HD
BRANCH  30  32
HETATM   32  C15 UNL     1       9.103   8.443  15.984  1.00  0.00     0.180 C 
BRANCH  32  33
HETATM   33  C16 UNL     1       8.217   9.468  16.727  1.00  0.00     0.241 C 
HETATM   34  O4  UNL     1       7.164   9.148  17.281  1.00  0.00    -0.271 OA
HETATM   35  N3  UNL     1       8.689  10.758  16.738  1.00  0.00    -0.345 N 
HETATM   36  H18 UNL     1       9.646  10.937  16.447  1.00  0.00     0.163 HD
BRANCH  35  37
HETATM   37  C17 UNL     1       8.074  11.811  17.552  1.00  0.00     0.186 C 
BRANCH  37  38
HETATM   38  C18 UNL     1       7.405  11.270  18.826  1.00  0.00     0.074 C 
BRANCH  38  39
HETATM   39  C19 UNL     1       7.944  11.838  20.123  1.00  0.00    -0.056 A 
HETATM   40  C20 UNL     1       9.323  11.989  20.311  1.00  0.00     0.007 A 
HETATM   41  C21 UNL     1       9.829  12.491  21.513  1.00  0.00     0.001 A 
HETATM   42  C22 UNL     1       8.959  12.852  22.539  1.00  0.00     0.000 A 
HETATM   43  C23 UNL     1       7.584  12.723  22.358  1.00  0.00     0.001 A 
HETATM   44  C24 UNL     1       7.077  12.224  21.155  1.00  0.00     0.007 A 
ENDBRANCH  38  39
ENDBRANCH  37  38
BRANCH  37  45
HETATM   45  C25 UNL     1       7.093  12.631  16.710  1.00  0.00     0.163 C 
HETATM   46  O5  UNL     1       6.406  12.216  15.790  1.00  0.00    -0.648 OA
BRANCH  45  47
HETATM   47  O6  UNL     1       7.026  13.934  17.067  1.00  0.00    -0.775 OA
HETATM   48  H27 UNL     1       6.359  14.308  16.451  1.00  0.00     0.167 HD
ENDBRANCH  45  47
ENDBRANCH  37  45
ENDBRANCH  35  37
ENDBRANCH  32  33
BRANCH  32  49
HETATM   49  C26 UNL     1      10.178   9.065  15.061  1.00  0.00     0.009 C 
HETATM   50  C27 UNL     1      10.702   8.086  14.013  1.00  0.00     0.012 C 
HETATM   51  C28 UNL     1       9.705  10.359  14.399  1.00  0.00     0.012 C 
ENDBRANCH  32  49
ENDBRANCH  30  32
ENDBRANCH  27  28
ENDBRANCH  26  27
ENDBRANCH  13  26
TORSDOF 12
ENDMDL
MODEL 6
REMARK minimizedAffinity -8.23292255
REMARK CNNscore 0.193169251
REMARK CNNaffinity 7.13999176
REMARK  12 active torsions:
REMARK  status: ('A' for Active; 'I' for Inactive)
REMARK    1  A    between atoms: C3_3  and  O1_4 
REMARK    2  A    between atoms: N1_14  and  O2_16 
REMARK    3  A    between atoms: O2_16  and  C13_17 
REMARK    4  A    between atoms: C13_17  and  C14_18 
REMARK       I    between atoms: C14_18  and  N2_20 
REMARK    5  A    between atoms: N2_20  and  C15_21 
REMARK    6  A    between atoms: C15_21  and  C16_22 
REMARK    7  A    between atoms: C15_21  and  C26_36 
REMARK       I    between atoms: C16_22  and  N3_24 
REMARK    8  A    between atoms: N3_24  and  C17_25 
REMARK    9  A    between atoms: C17_25  and  C18_26 
REMARK   10  A    between atoms: C17_25  and  C25_33 
REMARK   11  A    between atoms: C18_26  and  C19_27 
REMARK   12  A    between atoms: C25_33  and  O6_35 
ROOT
HETATM    1  C1  UNL     1       0.482   8.839  15.017  1.00  0.00     0.015 C 
HETATM    2  C2  UNL     1      -0.627   9.171  14.696  1.00  0.00    -0.078 C 
HETATM    3  C3  UNL     1      -1.986   9.601  14.287  1.00  0.00     0.128 C 
HETATM    4  C4  UNL     1      -2.184   9.268  12.793  1.00  0.00     0.052 C 
HETATM    5  C5  UNL     1      -3.061   8.013  12.751  1.00  0.00     0.010 C 
HETATM    6  C6  UNL     1      -3.161   7.496  14.205  1.00  0.00     0.002 C 
HETATM    7  C7  UNL     1      -4.332   6.525  14.527  1.00  0.00    -0.004 C 
HETATM    8  C8  UNL     1      -4.738   5.707  13.275  1.00  0.00     0.010 C 
HETATM    9  C9  UNL     1      -5.930   4.784  13.492  1.00  0.00     0.035 C 
HETATM   10  C10 UNL     1      -7.069   5.610  14.027  1.00  0.00    -0.069 C 
HETATM   11  C11 UNL     1      -8.182   5.769  13.294  1.00  0.00     0.030 C 
HETATM   12  C12 UNL     1      -9.248   6.721  13.682  1.00  0.00     0.032 C 
HETATM   13  N1  UNL     1     -10.312   6.772  12.930  1.00  0.00    -0.271 N 
ATOM     14  H1  UNL     1     -10.462   6.180  12.113  1.00  0.00     0.194 HD
HETATM   15  C29 UNL     1      -8.973   7.646  14.848  1.00  0.00     0.060 C 
HETATM   16  C30 UNL     1      -8.085   6.994  15.903  1.00  0.00     0.020 C 
HETATM   17  C31 UNL     1      -6.812   6.273  15.369  1.00  0.00    -0.016 C 
HETATM   18  C32 UNL     1      -6.521   5.166  16.431  1.00  0.00     0.020 C 
HETATM   19  C33 UNL     1      -5.533   7.194  15.276  1.00  0.00     0.002 C 
HETATM   20  C34 UNL     1      -5.749   8.611  14.737  1.00  0.00     0.007 C 
HETATM   21  C35 UNL     1      -4.516   9.530  14.888  1.00  0.00     0.014 C 
HETATM   22  C36 UNL     1      -3.135   8.813  15.015  1.00  0.00     0.003 C 
HETATM   23  C37 UNL     1      -2.799   8.613  16.512  1.00  0.00     0.020 C 
ENDROOT
BRANCH   3  24
HETATM   24  O1  UNL     1      -2.057  11.002  14.514  1.00  0.00    -0.377 OA
HETATM   25  H2  UNL     1      -2.834  11.356  14.064  1.00  0.00     0.211 HD
ENDBRANCH   3  24
BRANCH  13  26
HETATM   26  O2  UNL     1     -11.225   7.736  13.376  1.00  0.00    -0.271 OA
BRANCH  26  27
HETATM   27  C13 UNL     1     -11.544   7.471  14.739  1.00  0.00     0.303 C 
BRANCH  27  28
HETATM   28  C14 UNL     1     -13.043   7.575  14.958  1.00  0.00     0.244 C 
HETATM   29  O3  UNL     1     -13.530   8.234  15.875  1.00  0.00    -0.271 OA
HETATM   30  N2  UNL     1     -13.811   6.934  14.013  1.00  0.00    -0.346 N 
HETATM   31  H16 UNL     1     -13.359   6.294  13.363  1.00  0.00     0.163 HD
BRANCH  30  32
HETATM   32  C15 UNL     1     -15.273   6.894  14.087  1.00  0.00     0.180 C 
BRANCH  32  33
HETATM   33  C16 UNL     1     -15.654   5.668  14.944  1.00  0.00     0.241 C 
HETATM   34  O4  UNL     1     -16.096   5.778  16.090  1.00  0.00    -0.271 OA
HETATM   35  N3  UNL     1     -15.478   4.446  14.341  1.00  0.00    -0.345 N 
HETATM   36  H18 UNL     1     -15.304   4.410  13.340  1.00  0.00     0.163 HD
BRANCH  35  37
HETATM   37  C17 UNL     1     -15.964   3.199  14.938  1.00  0.00     0.186 C 
BRANCH  37  38
HETATM   38  C18 UNL     1     -14.910   2.079  14.927  1.00  0.00     0.074 C 
BRANCH  38  39
HETATM   39  C19 UNL     1     -15.382   0.752  15.483  1.00  0.00    -0.056 A 
HETATM   40  C20 UNL     1     -15.466  -0.375  14.656  1.00  0.00     0.007 A 
HETATM   41  C21 UNL     1     -15.922  -1.597  15.156  1.00  0.00     0.001 A 
HETATM   42  C22 UNL     1     -16.295  -1.707  16.494  1.00  0.00     0.000 A 
HETATM   43  C23 UNL     1     -16.200  -0.598  17.332  1.00  0.00     0.001 A 
HETATM   44  C24 UNL     1     -15.741   0.623  16.833  1.00  0.00     0.007 A 
ENDBRANCH  38  39
ENDBRANCH  37  38
BRANCH  37  45
HETATM   45  C25 UNL     1     -17.261   2.754  14.260  1.00  0.00     0.163 C 
HETATM   46  O5  UNL     1     -17.393   2.431  13.090  1.00  0.00    -0.648 OA
BRANCH  45  47
HETATM   47  O6  UNL     1     -18.331   2.738  15.087  1.00  0.00    -0.775 OA
HETATM   48  H27 UNL     1     -19.064   2.426  14.511  1.00  0.00     0.167 HD
ENDBRANCH  45  47
ENDBRANCH  37  45
ENDBRANCH  35  37
ENDBRANCH  32  33
BRANCH  32  49
HETATM   49  C26 UNL     1     -15.899   6.915  12.672  1.00  0.00     0.009 C 
HETATM   50  C27 UNL     1     -17.420   6.784  12.692  1.00  0.00     0.012 C 
HETATM   51  C28 UNL     1     -15.476   8.140  11.861  1.00  0.00     0.012 C 
ENDBRANCH  32  49
ENDBRANCH  30  32
ENDBRANCH  27  28
ENDBRANCH  26  27
ENDBRANCH  13  26
TORSDOF 12
ENDMDL
MODEL 7
REMARK minimizedAffinity -9.64943504
REMARK CNNscore 0.190196216
REMARK CNNaffinity 6.74977493
REMARK  12 active torsions:
REMARK  status: ('A' for Active; 'I' for Inactive)
REMARK    1  A    between atoms: C3_3  and  O1_4 
REMARK    2  A    between atoms: N1_14  and  O2_16 
REMARK    3  A    between atoms: O2_16  and  C13_17 
REMARK    4  A    between atoms: C13_17  and  C14_18 
REMARK       I    between atoms: C14_18  and  N2_20 
REMARK    5  A    between atoms: N2_20  and  C15_21 
REMARK    6  A    between atoms: C15_21  and  C16_22 
REMARK    7  A    between atoms: C15_21  and  C26_36 
REMARK       I    between atoms: C16_22  and  N3_24 
REMARK    8  A    between atoms: N3_24  and  C17_25 
REMARK    9  A    between atoms: C17_25  and  C18_26 
REMARK   10  A    between atoms: C17_25  and  C25_33 
REMARK   11  A    between atoms: C18_26  and  C19_27 
REMARK   12  A    between atoms: C25_33  and  O6_35 
ROOT
HETATM    1  C1  UNL     1      -6.556   6.637  14.170  1.00  0.00     0.015 C 
HETATM    2  C2  UNL     1      -5.436   6.874  14.535  1.00  0.00    -0.078 C 
HETATM    3  C3  UNL     1      -4.062   7.165  15.011  1.00  0.00     0.128 C 
HETATM    4  C4  UNL     1      -3.412   5.848  15.486  1.00  0.00     0.052 C 
HETATM    5  C5  UNL     1      -2.450   5.424  14.371  1.00  0.00     0.010 C 
HETATM    6  C6  UNL     1      -2.728   6.357  13.171  1.00  0.00     0.002 C 
HETATM    7  C7  UNL     1      -1.616   6.458  12.088  1.00  0.00    -0.004 C 
HETATM    8  C8  UNL     1      -0.794   5.148  12.008  1.00  0.00     0.010 C 
HETATM    9  C9  UNL     1       0.363   5.195  11.019  1.00  0.00     0.035 C 
HETATM   10  C10 UNL     1       1.220   6.386  11.360  1.00  0.00    -0.069 C 
HETATM   11  C11 UNL     1       2.478   6.203  11.791  1.00  0.00     0.030 C 
HETATM   12  C12 UNL     1       3.296   7.318  12.320  1.00  0.00     0.032 C 
HETATM   13  N1  UNL     1       4.523   7.050  12.673  1.00  0.00    -0.271 N 
ATOM     14  H1  UNL     1       4.954   6.131  12.580  1.00  0.00     0.194 HD
HETATM   15  C29 UNL     1       2.613   8.653  12.526  1.00  0.00     0.060 C 
HETATM   16  C30 UNL     1       1.522   8.907  11.491  1.00  0.00     0.020 C 
HETATM   17  C31 UNL     1       0.528   7.732  11.249  1.00  0.00    -0.016 C 
HETATM   18  C32 UNL     1       0.045   7.932   9.778  1.00  0.00     0.020 C 
HETATM   19  C33 UNL     1      -0.747   7.758  12.179  1.00  0.00     0.002 C 
HETATM   20  C34 UNL     1      -0.514   8.119  13.649  1.00  0.00     0.007 C 
HETATM   21  C35 UNL     1      -1.817   8.353  14.447  1.00  0.00     0.014 C 
HETATM   22  C36 UNL     1      -3.105   7.681  13.875  1.00  0.00     0.003 C 
HETATM   23  C37 UNL     1      -3.838   8.685  12.954  1.00  0.00     0.020 C 
ENDROOT
BRANCH   3  24
HETATM   24  O1  UNL     1      -4.187   8.091  16.082  1.00  0.00    -0.377 OA
HETATM   25  H2  UNL     1      -3.348   8.138  16.557  1.00  0.00     0.211 HD
ENDBRANCH   3  24
BRANCH  13  26
HETATM   26  O2  UNL     1       5.177   8.173  13.194  1.00  0.00    -0.271 OA
BRANCH  26  27
HETATM   27  C13 UNL     1       5.515   7.918  14.554  1.00  0.00     0.303 C 
BRANCH  27  28
HETATM   28  C14 UNL     1       7.001   8.143  14.777  1.00  0.00     0.244 C 
HETATM   29  O3  UNL     1       7.855   7.375  14.339  1.00  0.00    -0.271 OA
HETATM   30  N2  UNL     1       7.316   9.302  15.447  1.00  0.00    -0.346 N 
HETATM   31  H16 UNL     1       6.571   9.824  15.905  1.00  0.00     0.163 HD
BRANCH  30  32
HETATM   32  C15 UNL     1       8.694   9.662  15.786  1.00  0.00     0.180 C 
BRANCH  32  33
HETATM   33  C16 UNL     1       8.702  10.088  17.271  1.00  0.00     0.241 C 
HETATM   34  O4  UNL     1       7.754   9.860  18.026  1.00  0.00    -0.271 OA
HETATM   35  N3  UNL     1       9.840  10.728  17.696  1.00  0.00    -0.345 N 
HETATM   36  H18 UNL     1      10.665  10.716  17.102  1.00  0.00     0.163 HD
BRANCH  35  37
HETATM   37  C17 UNL     1      10.090  11.028  19.109  1.00  0.00     0.186 C 
BRANCH  37  38
HETATM   38  C18 UNL     1       9.527  12.392  19.541  1.00  0.00     0.074 C 
BRANCH  38  39
HETATM   39  C19 UNL     1       8.635  12.356  20.765  1.00  0.00    -0.056 A 
HETATM   40  C20 UNL     1       9.192  12.393  22.050  1.00  0.00     0.007 A 
HETATM   41  C21 UNL     1       8.377  12.337  23.183  1.00  0.00     0.001 A 
HETATM   42  C22 UNL     1       6.993  12.250  23.043  1.00  0.00     0.000 A 
HETATM   43  C23 UNL     1       6.426  12.231  21.772  1.00  0.00     0.001 A 
HETATM   44  C24 UNL     1       7.240  12.290  20.637  1.00  0.00     0.007 A 
ENDBRANCH  38  39
ENDBRANCH  37  38
BRANCH  37  45
HETATM   45  C25 UNL     1      11.585  10.916  19.421  1.00  0.00     0.163 C 
HETATM   46  O5  UNL     1      12.118  11.133  20.498  1.00  0.00    -0.648 OA
BRANCH  45  47
HETATM   47  O6  UNL     1      12.336  10.540  18.361  1.00  0.00    -0.775 OA
HETATM   48  H27 UNL     1      13.248  10.505  18.725  1.00  0.00     0.167 HD
ENDBRANCH  45  47
ENDBRANCH  37  45
ENDBRANCH  35  37
ENDBRANCH  32  33
BRANCH  32  49
HETATM   49  C26 UNL     1       9.247  10.723  14.805  1.00  0.00     0.009 C 
HETATM   50  C27 UNL     1       8.215  11.178  13.776  1.00  0.00     0.012 C 
HETATM   51  C28 UNL     1       9.855  11.927  15.525  1.00  0.00     0.012 C 
ENDBRANCH  32  49
ENDBRANCH  30  32
ENDBRANCH  27  28
ENDBRANCH  26  27
ENDBRANCH  13  26
TORSDOF 12
ENDMDL
MODEL 8
REMARK minimizedAffinity -7.66995621
REMARK CNNscore 0.182613432
REMARK CNNaffinity 5.80091906
REMARK  12 active torsions:
REMARK  status: ('A' for Active; 'I' for Inactive)
REMARK    1  A    between atoms: C3_3  and  O1_4 
REMARK    2  A    between atoms: N1_14  and  O2_16 
REMARK    3  A    between atoms: O2_16  and  C13_17 
REMARK    4  A    between atoms: C13_17  and  C14_18 
REMARK       I    between atoms: C14_18  and  N2_20 
REMARK    5  A    between atoms: N2_20  and  C15_21 
REMARK    6  A    between atoms: C15_21  and  C16_22 
REMARK    7  A    between atoms: C15_21  and  C26_36 
REMARK       I    between atoms: C16_22  and  N3_24 
REMARK    8  A    between atoms: N3_24  and  C17_25 
REMARK    9  A    between atoms: C17_25  and  C18_26 
REMARK   10  A    between atoms: C17_25  and  C25_33 
REMARK   11  A    between atoms: C18_26  and  C19_27 
REMARK   12  A    between atoms: C25_33  and  O6_35 
ROOT
HETATM    1  C1  UNL     1      -4.460   6.280  13.124  1.00  0.00     0.015 C 
HETATM    2  C2  UNL     1      -3.317   6.519  13.409  1.00  0.00    -0.078 C 
HETATM    3  C3  UNL     1      -1.899   6.797  13.742  1.00  0.00     0.128 C 
HETATM    4  C4  UNL     1      -1.298   7.699  12.642  1.00  0.00     0.052 C 
HETATM    5  C5  UNL     1      -1.242   9.111  13.236  1.00  0.00     0.010 C 
HETATM    6  C6  UNL     1      -2.026   9.059  14.568  1.00  0.00     0.002 C 
HETATM    7  C7  UNL     1      -1.754  10.203  15.587  1.00  0.00    -0.004 C 
HETATM    8  C8  UNL     1      -1.339  11.508  14.863  1.00  0.00     0.010 C 
HETATM    9  C9  UNL     1      -0.984  12.656  15.798  1.00  0.00     0.035 C 
HETATM   10  C10 UNL     1       0.076  12.170  16.752  1.00  0.00    -0.069 C 
HETATM   11  C11 UNL     1       1.304  12.709  16.717  1.00  0.00     0.030 C 
HETATM   12  C12 UNL     1       2.432  12.143  17.492  1.00  0.00     0.032 C 
HETATM   13  N1  UNL     1       3.577  12.763  17.428  1.00  0.00    -0.271 N 
ATOM     14  H1  UNL     1       3.732  13.622  16.901  1.00  0.00     0.194 HD
HETATM   15  C29 UNL     1       2.204  10.825  18.201  1.00  0.00     0.060 C 
HETATM   16  C30 UNL     1       0.767  10.674  18.688  1.00  0.00     0.020 C 
HETATM   17  C31 UNL     1      -0.342  11.020  17.651  1.00  0.00    -0.016 C 
HETATM   18  C32 UNL     1      -1.556  11.474  18.520  1.00  0.00     0.020 C 
HETATM   19  C33 UNL     1      -0.814   9.797  16.772  1.00  0.00     0.002 C 
HETATM   20  C34 UNL     1       0.282   8.858  16.260  1.00  0.00     0.007 C 
HETATM   21  C35 UNL     1      -0.258   7.566  15.609  1.00  0.00     0.014 C 
HETATM   22  C36 UNL     1      -1.720   7.628  15.065  1.00  0.00     0.003 C 
HETATM   23  C37 UNL     1      -2.694   7.131  16.160  1.00  0.00     0.020 C 
ENDROOT
BRANCH   3  24
HETATM   24  O1  UNL     1      -1.237   5.540  13.793  1.00  0.00    -0.377 OA
HETATM   25  H2  UNL     1      -0.282   5.687  13.789  1.00  0.00     0.211 HD
ENDBRANCH   3  24
BRANCH  13  26
HETATM   26  O2  UNL     1       4.571  12.109  18.169  1.00  0.00    -0.271 OA
BRANCH  26  27
HETATM   27  C13 UNL     1       5.717  11.933  17.343  1.00  0.00     0.303 C 
BRANCH  27  28
HETATM   28  C14 UNL     1       6.911  11.512  18.184  1.00  0.00     0.244 C 
HETATM   29  O3  UNL     1       6.949  10.440  18.783  1.00  0.00    -0.271 OA
HETATM   30  N2  UNL     1       7.968  12.392  18.166  1.00  0.00    -0.346 N 
HETATM   31  H16 UNL     1       7.830  13.321  17.771  1.00  0.00     0.163 HD
BRANCH  30  32
HETATM   32  C15 UNL     1       9.186  12.170  18.949  1.00  0.00     0.180 C 
BRANCH  32  33
HETATM   33  C16 UNL     1       8.774  12.157  20.438  1.00  0.00     0.241 C 
HETATM   34  O4  UNL     1       9.302  11.404  21.259  1.00  0.00    -0.271 OA
HETATM   35  N3  UNL     1       7.790  13.048  20.788  1.00  0.00    -0.345 N 
HETATM   36  H18 UNL     1       7.529  13.779  20.131  1.00  0.00     0.163 HD
BRANCH  35  37
HETATM   37  C17 UNL     1       7.417  13.298  22.183  1.00  0.00     0.186 C 
BRANCH  37  38
HETATM   38  C18 UNL     1       5.948  13.721  22.345  1.00  0.00     0.074 C 
BRANCH  38  39
HETATM   39  C19 UNL     1       4.999  12.603  22.724  1.00  0.00    -0.056 A 
HETATM   40  C20 UNL     1       3.674  12.888  23.080  1.00  0.00     0.007 A 
HETATM   41  C21 UNL     1       2.800  11.864  23.453  1.00  0.00     0.001 A 
HETATM   42  C22 UNL     1       3.239  10.542  23.468  1.00  0.00     0.000 A 
HETATM   43  C23 UNL     1       4.548  10.244  23.099  1.00  0.00     0.001 A 
HETATM   44  C24 UNL     1       5.423  11.267  22.723  1.00  0.00     0.007 A 
ENDBRANCH  38  39
ENDBRANCH  37  38
BRANCH  37  45
HETATM   45  C25 UNL     1       8.366  14.321  22.813  1.00  0.00     0.163 C 
HETATM   46  O5  UNL     1       8.933  14.216  23.889  1.00  0.00    -0.648 OA
BRANCH  45  47
HETATM   47  O6  UNL     1       8.554  15.427  22.058  1.00  0.00    -0.775 OA
HETATM   48  H27 UNL     1       9.183  15.964  22.588  1.00  0.00     0.167 HD
ENDBRANCH  45  47
ENDBRANCH  37  45
ENDBRANCH  35  37
ENDBRANCH  32  33
BRANCH  32  49
HETATM   49  C26 UNL     1      10.274  13.209  18.587  1.00  0.00     0.009 C 
HETATM   50  C27 UNL     1      10.908  13.860  19.814  1.00  0.00     0.012 C 
HETATM   51  C28 UNL     1      11.351  12.633  17.667  1.00  0.00     0.012 C 
ENDBRANCH  32  49
ENDBRANCH  30  32
ENDBRANCH  27  28
ENDBRANCH  26  27
ENDBRANCH  13  26
TORSDOF 12
ENDMDL
MODEL 9
REMARK minimizedAffinity -8.44427013
REMARK CNNscore 0.172411904
REMARK CNNaffinity 5.3889904
REMARK  12 active torsions:
REMARK  status: ('A' for Active; 'I' for Inactive)
REMARK    1  A    between atoms: C3_3  and  O1_4 
REMARK    2  A    between atoms: N1_14  and  O2_16 
REMARK    3  A    between atoms: O2_16  and  C13_17 
REMARK    4  A    between atoms: C13_17  and  C14_18 
REMARK       I    between atoms: C14_18  and  N2_20 
REMARK    5  A    between atoms: N2_20  and  C15_21 
REMARK    6  A    between atoms: C15_21  and  C16_22 
REMARK    7  A    between atoms: C15_21  and  C26_36 
REMARK       I    between atoms: C16_22  and  N3_24 
REMARK    8  A    between atoms: N3_24  and  C17_25 
REMARK    9  A    between atoms: C17_25  and  C18_26 
REMARK   10  A    between atoms: C17_25  and  C25_33 
REMARK   11  A    between atoms: C18_26  and  C19_27 
REMARK   12  A    between atoms: C25_33  and  O6_35 
ROOT
HETATM    1  C1  UNL     1     -12.535  13.539  24.876  1.00  0.00     0.015 C 
HETATM    2  C2  UNL     1     -11.491  13.067  24.516  1.00  0.00    -0.078 C 
HETATM    3  C3  UNL     1     -10.207  12.463  24.085  1.00  0.00     0.128 C 
HETATM    4  C4  UNL     1     -10.497  11.394  23.009  1.00  0.00     0.052 C 
HETATM    5  C5  UNL     1     -10.126  12.033  21.666  1.00  0.00     0.010 C 
HETATM    6  C6  UNL     1      -9.858  13.529  21.950  1.00  0.00     0.002 C 
HETATM    7  C7  UNL     1      -9.037  14.310  20.884  1.00  0.00    -0.004 C 
HETATM    8  C8  UNL     1      -9.240  13.707  19.471  1.00  0.00     0.010 C 
HETATM    9  C9  UNL     1      -8.410  14.372  18.382  1.00  0.00     0.035 C 
HETATM   10  C10 UNL     1      -6.967  14.343  18.812  1.00  0.00    -0.069 C 
HETATM   11  C11 UNL     1      -6.075  13.623  18.114  1.00  0.00     0.030 C 
HETATM   12  C12 UNL     1      -4.693  13.402  18.597  1.00  0.00     0.032 C 
HETATM   13  N1  UNL     1      -3.887  12.726  17.827  1.00  0.00    -0.271 N 
ATOM     14  H1  UNL     1      -4.145  12.367  16.908  1.00  0.00     0.194 HD
HETATM   15  C29 UNL     1      -4.355  13.873  19.996  1.00  0.00     0.060 C 
HETATM   16  C30 UNL     1      -5.128  15.129  20.383  1.00  0.00     0.020 C 
HETATM   17  C31 UNL     1      -6.658  15.104  20.089  1.00  0.00    -0.016 C 
HETATM   18  C32 UNL     1      -7.037  16.605  19.887  1.00  0.00     0.020 C 
HETATM   19  C33 UNL     1      -7.538  14.544  21.274  1.00  0.00     0.002 C 
HETATM   20  C34 UNL     1      -6.998  13.311  22.004  1.00  0.00     0.007 C 
HETATM   21  C35 UNL     1      -7.780  12.955  23.288  1.00  0.00     0.014 C 
HETATM   22  C36 UNL     1      -9.247  13.482  23.369  1.00  0.00     0.003 C 
HETATM   23  C37 UNL     1      -9.260  14.849  24.095  1.00  0.00     0.020 C 
ENDROOT
BRANCH   3  24
HETATM   24  O1  UNL     1      -9.620  11.881  25.241  1.00  0.00    -0.377 OA
HETATM   25  H2  UNL     1      -8.902  11.295  24.969  1.00  0.00     0.211 HD
ENDBRANCH   3  24
BRANCH  13  26
HETATM   26  O2  UNL     1      -2.626  12.551  18.410  1.00  0.00    -0.271 OA
BRANCH  26  27
HETATM   27  C13 UNL     1      -1.664  12.361  17.378  1.00  0.00     0.303 C 
BRANCH  27  28
HETATM   28  C14 UNL     1      -0.773  11.174  17.701  1.00  0.00     0.244 C 
HETATM   29  O3  UNL     1      -1.084  10.020  17.415  1.00  0.00    -0.271 OA
HETATM   30  N2  UNL     1       0.435  11.498  18.274  1.00  0.00    -0.346 N 
HETATM   31  H16 UNL     1       0.580  12.448  18.614  1.00  0.00     0.163 HD
BRANCH  30  32
HETATM   32  C15 UNL     1       1.403  10.482  18.690  1.00  0.00     0.180 C 
BRANCH  32  33
HETATM   33  C16 UNL     1       1.743  10.754  20.172  1.00  0.00     0.241 C 
HETATM   34  O4  UNL     1       1.226  11.676  20.807  1.00  0.00    -0.271 OA
HETATM   35  N3  UNL     1       2.650   9.892  20.739  1.00  0.00    -0.345 N 
HETATM   36  H18 UNL     1       2.894   9.038  20.246  1.00  0.00     0.163 HD
BRANCH  35  37
HETATM   37  C17 UNL     1       2.938   9.890  22.176  1.00  0.00     0.186 C 
BRANCH  37  38
HETATM   38  C18 UNL     1       4.443   9.958  22.486  1.00  0.00     0.074 C 
BRANCH  38  39
HETATM   39  C19 UNL     1       4.991  11.355  22.691  1.00  0.00    -0.056 A 
HETATM   40  C20 UNL     1       6.360  11.554  22.915  1.00  0.00     0.007 A 
HETATM   41  C21 UNL     1       6.869  12.837  23.128  1.00  0.00     0.001 A 
HETATM   42  C22 UNL     1       6.015  13.938  23.113  1.00  0.00     0.000 A 
HETATM   43  C23 UNL     1       4.656  13.756  22.874  1.00  0.00     0.001 A 
HETATM   44  C24 UNL     1       4.145  12.473  22.658  1.00  0.00     0.007 A 
ENDBRANCH  38  39
ENDBRANCH  37  38
BRANCH  37  45
HETATM   45  C25 UNL     1       2.283   8.682  22.850  1.00  0.00     0.163 C 
HETATM   46  O5  UNL     1       1.876   7.675  22.292  1.00  0.00    -0.648 OA
BRANCH  45  47
HETATM   47  O6  UNL     1       2.168   8.802  24.192  1.00  0.00    -0.775 OA
HETATM   48  H27 UNL     1       1.748   7.957  24.465  1.00  0.00     0.167 HD
ENDBRANCH  45  47
ENDBRANCH  37  45
ENDBRANCH  35  37
ENDBRANCH  32  33
BRANCH  32  49
HETATM   49  C26 UNL     1       2.624  10.459  17.740  1.00  0.00     0.009 C 
HETATM   50  C27 UNL     1       2.344   9.731  16.427  1.00  0.00     0.012 C 
HETATM   51  C28 UNL     1       3.185  11.856  17.471  1.00  0.00     0.012 C 
ENDBRANCH  32  49
ENDBRANCH  30  32
ENDBRANCH  27  28
ENDBRANCH  26  27
ENDBRANCH  13  26
TORSDOF 12
ENDMDL
