MODEL 1
REMARK minimizedAffinity -7.72462988
REMARK CNNscore 0.663911998
REMARK CNNaffinity 7.03507233
REMARK  6 active torsions:
REMARK  status: ('A' for Active; 'I' for Inactive)
REMARK    1  A    between atoms: C2_2  and  C30_31 
REMARK    2  A    between atoms: C3_3  and  C4_4 
REMARK    3  A    between atoms: C4_4  and  C5_5 
REMARK    4  A    between atoms: C5_5  and  C6_6 
REMARK    5  A    between atoms: C6_6  and  C8_8 
REMARK    6  A    between atoms: C30_31  and  O3_33 
ROOT
HETATM    1  C8  UNL     1      -1.874  53.339 -11.016  1.00  0.00    -0.002 C 
HETATM    2  C9  UNL     1      -2.213  54.666 -10.286  1.00  0.00     0.007 C 
HETATM    3  C10 UNL     1      -0.957  55.085  -9.520  1.00  0.00     0.015 C 
HETATM    4  C11 UNL     1      -0.261  53.756  -9.148  1.00  0.00    -0.013 C 
HETATM    5  C12 UNL     1      -1.058  53.149  -7.960  1.00  0.00     0.021 C 
HETATM    6  C13 UNL     1       1.240  53.921  -8.795  1.00  0.00    -0.070 C 
HETATM    7  C14 UNL     1       1.795  53.485  -7.648  1.00  0.00    -0.022 C 
HETATM    8  C15 UNL     1       3.256  53.497  -7.331  1.00  0.00     0.034 C 
HETATM    9  C16 UNL     1       4.202  53.774  -8.530  1.00  0.00     0.013 C 
HETATM   10  C17 UNL     1       5.680  54.061  -8.067  1.00  0.00     0.018 C 
HETATM   11  C18 UNL     1       6.689  53.483  -9.086  1.00  0.00     0.023 C 
HETATM   12  C19 UNL     1       6.043  53.420  -6.707  1.00  0.00     0.023 C 
HETATM   13  C20 UNL     1       5.922  55.571  -7.928  1.00  0.00     0.135 C 
HETATM   14  O1  UNL     1       7.063  56.042  -7.905  1.00  0.00    -0.297 OA
HETATM   15  C21 UNL     1       4.730  56.471  -7.688  1.00  0.00     0.080 C 
HETATM   16  C22 UNL     1       3.531  56.215  -8.601  1.00  0.00     0.017 C 
HETATM   17  C23 UNL     1       3.592  54.896  -9.429  1.00  0.00    -0.031 C 
HETATM   18  C24 UNL     1       4.438  55.194 -10.692  1.00  0.00     0.016 C 
HETATM   19  C25 UNL     1       2.127  54.504  -9.890  1.00  0.00     0.024 C 
HETATM   20  C26 UNL     1       2.044  53.511 -11.064  1.00  0.00     0.010 C 
HETATM   21  C27 UNL     1       0.599  53.390 -11.559  1.00  0.00     0.011 C 
HETATM   22  C28 UNL     1      -0.444  52.917 -10.476  1.00  0.00    -0.029 C 
HETATM   23  C29 UNL     1      -0.193  51.417 -10.273  1.00  0.00     0.016 C 
ENDROOT
BRANCH   1  24
HETATM   24  C6  UNL     1      -3.101  52.385 -11.198  1.00  0.00    -0.014 C 
HETATM   25  C7  UNL     1      -3.057  51.568 -12.494  1.00  0.00     0.010 C 
BRANCH  24  26
HETATM   26  C5  UNL     1      -3.659  51.568 -10.002  1.00  0.00     0.008 C 
BRANCH  26  27
HETATM   27  C4  UNL     1      -4.218  50.170 -10.273  1.00  0.00     0.028 C 
BRANCH  27  28
HETATM   28  C3  UNL     1      -5.725  50.184 -10.269  1.00  0.00    -0.013 C 
HETATM   29  C2  UNL     1      -6.557  49.251 -10.772  1.00  0.00     0.008 C 
HETATM   30  C1  UNL     1      -6.147  48.009 -11.503  1.00  0.00     0.055 C 
BRANCH  29  31
HETATM   31  C30 UNL     1      -8.012  49.497 -10.588  1.00  0.00     0.171 C 
HETATM   32  O2  UNL     1      -8.918  49.081 -11.288  1.00  0.00    -0.646 OA
BRANCH  31  33
HETATM   33  O3  UNL     1      -8.266  50.278  -9.523  1.00  0.00    -0.773 OA
HETATM   34  H46 UNL     1      -9.242  50.358  -9.531  1.00  0.00     0.167 HD
ENDBRANCH  31  33
ENDBRANCH  29  31
ENDBRANCH  27  28
ENDBRANCH  26  27
ENDBRANCH  24  26
ENDBRANCH   1  24
TORSDOF 6
ENDMDL
MODEL 2
REMARK minimizedAffinity -7.13863182
REMARK CNNscore 0.633625388
REMARK CNNaffinity 6.58109999
REMARK  6 active torsions:
REMARK  status: ('A' for Active; 'I' for Inactive)
REMARK    1  A    between atoms: C2_2  and  C30_31 
REMARK    2  A    between atoms: C3_3  and  C4_4 
REMARK    3  A    between atoms: C4_4  and  C5_5 
REMARK    4  A    between atoms: C5_5  and  C6_6 
REMARK    5  A    between atoms: C6_6  and  C8_8 
REMARK    6  A    between atoms: C30_31  and  O3_33 
ROOT
HETATM    1  C8  UNL     1     -10.970  45.792 -36.554  1.00  0.00    -0.002 C 
HETATM    2  C9  UNL     1     -12.373  46.157 -36.000  1.00  0.00     0.007 C 
HETATM    3  C10 UNL     1     -12.229  46.295 -34.483  1.00  0.00     0.015 C 
HETATM    4  C11 UNL     1     -11.104  45.304 -34.104  1.00  0.00    -0.013 C 
HETATM    5  C12 UNL     1     -11.728  43.881 -34.145  1.00  0.00     0.021 C 
HETATM    6  C13 UNL     1     -10.460  45.599 -32.725  1.00  0.00    -0.070 C 
HETATM    7  C14 UNL     1     -10.355  44.692 -31.735  1.00  0.00    -0.022 C 
HETATM    8  C15 UNL     1      -9.618  44.892 -30.449  1.00  0.00     0.034 C 
HETATM    9  C16 UNL     1      -8.684  46.129 -30.395  1.00  0.00     0.013 C 
HETATM   10  C17 UNL     1      -8.182  46.432 -28.933  1.00  0.00     0.018 C 
HETATM   11  C18 UNL     1      -6.731  46.967 -28.957  1.00  0.00     0.023 C 
HETATM   12  C19 UNL     1      -8.156  45.190 -28.013  1.00  0.00     0.023 C 
HETATM   13  C20 UNL     1      -9.085  47.472 -28.254  1.00  0.00     0.135 C 
HETATM   14  O1  UNL     1      -8.710  48.100 -27.258  1.00  0.00    -0.297 OA
HETATM   15  C21 UNL     1     -10.505  47.624 -28.750  1.00  0.00     0.080 C 
HETATM   16  C22 UNL     1     -10.655  47.714 -30.269  1.00  0.00     0.017 C 
HETATM   17  C23 UNL     1      -9.382  47.343 -31.088  1.00  0.00    -0.031 C 
HETATM   18  C24 UNL     1      -8.494  48.611 -31.141  1.00  0.00     0.016 C 
HETATM   19  C25 UNL     1      -9.808  46.968 -32.568  1.00  0.00     0.024 C 
HETATM   20  C26 UNL     1      -8.680  47.014 -33.614  1.00  0.00     0.010 C 
HETATM   21  C27 UNL     1      -9.256  46.858 -35.026  1.00  0.00     0.011 C 
HETATM   22  C28 UNL     1     -10.069  45.532 -35.277  1.00  0.00    -0.029 C 
HETATM   23  C29 UNL     1      -9.027  44.410 -35.378  1.00  0.00     0.016 C 
ENDROOT
BRANCH   1  24
HETATM   24  C6  UNL     1     -11.010  44.904 -37.843  1.00  0.00    -0.014 C 
HETATM   25  C7  UNL     1     -12.327  44.139 -38.021  1.00  0.00     0.010 C 
BRANCH  24  26
HETATM   26  C5  UNL     1     -10.443  45.428 -39.188  1.00  0.00     0.008 C 
BRANCH  26  27
HETATM   27  C4  UNL     1     -11.373  46.218 -40.112  1.00  0.00     0.028 C 
BRANCH  27  28
HETATM   28  C3  UNL     1     -11.805  47.508 -39.464  1.00  0.00    -0.013 C 
HETATM   29  C2  UNL     1     -12.982  48.148 -39.610  1.00  0.00     0.008 C 
HETATM   30  C1  UNL     1     -14.105  47.728 -40.510  1.00  0.00     0.055 C 
BRANCH  29  31
HETATM   31  C30 UNL     1     -13.163  49.388 -38.810  1.00  0.00     0.171 C 
HETATM   32  O2  UNL     1     -13.565  50.466 -39.212  1.00  0.00    -0.646 OA
BRANCH  31  33
HETATM   33  O3  UNL     1     -12.814  49.218 -37.522  1.00  0.00    -0.773 OA
HETATM   34  H46 UNL     1     -12.974  50.101 -37.128  1.00  0.00     0.167 HD
ENDBRANCH  31  33
ENDBRANCH  29  31
ENDBRANCH  27  28
ENDBRANCH  26  27
ENDBRANCH  24  26
ENDBRANCH   1  24
TORSDOF 6
ENDMDL
MODEL 3
REMARK minimizedAffinity -7.84082222
REMARK CNNscore 0.556400359
REMARK CNNaffinity 6.67020369
REMARK  6 active torsions:
REMARK  status: ('A' for Active; 'I' for Inactive)
REMARK    1  A    between atoms: C2_2  and  C30_31 
REMARK    2  A    between atoms: C3_3  and  C4_4 
REMARK    3  A    between atoms: C4_4  and  C5_5 
REMARK    4  A    between atoms: C5_5  and  C6_6 
REMARK    5  A    between atoms: C6_6  and  C8_8 
REMARK    6  A    between atoms: C30_31  and  O3_33 
ROOT
HETATM    1  C8  UNL     1      -1.711  52.249 -10.463  1.00  0.00    -0.002 C 
HETATM    2  C9  UNL     1      -1.203  52.734 -11.847  1.00  0.00     0.007 C 
HETATM    3  C10 UNL     1       0.110  53.478 -11.603  1.00  0.00     0.015 C 
HETATM    4  C11 UNL     1      -0.044  54.097 -10.194  1.00  0.00    -0.013 C 
HETATM    5  C12 UNL     1      -0.979  55.329 -10.346  1.00  0.00     0.021 C 
HETATM    6  C13 UNL     1       1.305  54.488  -9.539  1.00  0.00    -0.070 C 
HETATM    7  C14 UNL     1       1.580  55.716  -9.059  1.00  0.00    -0.022 C 
HETATM    8  C15 UNL     1       2.809  56.096  -8.297  1.00  0.00     0.034 C 
HETATM    9  C16 UNL     1       3.679  54.914  -7.793  1.00  0.00     0.013 C 
HETATM   10  C17 UNL     1       5.085  55.393  -7.268  1.00  0.00     0.018 C 
HETATM   11  C18 UNL     1       5.536  54.532  -6.065  1.00  0.00     0.023 C 
HETATM   12  C19 UNL     1       5.098  56.854  -6.765  1.00  0.00     0.023 C 
HETATM   13  C20 UNL     1       6.142  55.292  -8.376  1.00  0.00     0.135 C 
HETATM   14  O1  UNL     1       7.350  55.291  -8.118  1.00  0.00    -0.297 OA
HETATM   15  C21 UNL     1       5.679  55.324  -9.816  1.00  0.00     0.080 C 
HETATM   16  C22 UNL     1       4.497  54.409 -10.136  1.00  0.00     0.017 C 
HETATM   17  C23 UNL     1       3.759  53.814  -8.900  1.00  0.00    -0.031 C 
HETATM   18  C24 UNL     1       4.556  52.561  -8.459  1.00  0.00     0.016 C 
HETATM   19  C25 UNL     1       2.305  53.356  -9.333  1.00  0.00     0.024 C 
HETATM   20  C26 UNL     1       1.614  52.359  -8.385  1.00  0.00     0.010 C 
HETATM   21  C27 UNL     1       0.327  51.822  -9.022  1.00  0.00     0.011 C 
HETATM   22  C28 UNL     1      -0.741  52.918  -9.403  1.00  0.00    -0.029 C 
HETATM   23  C29 UNL     1      -1.367  53.377  -8.080  1.00  0.00     0.016 C 
ENDROOT
BRANCH   1  24
HETATM   24  C6  UNL     1      -3.270  52.169 -10.353  1.00  0.00    -0.014 C 
HETATM   25  C7  UNL     1      -3.975  53.501 -10.633  1.00  0.00     0.010 C 
BRANCH  24  26
HETATM   26  C5  UNL     1      -4.047  50.956 -10.928  1.00  0.00     0.008 C 
BRANCH  26  27
HETATM   27  C4  UNL     1      -4.889  50.109  -9.971  1.00  0.00     0.028 C 
BRANCH  27  28
HETATM   28  C3  UNL     1      -5.867  49.250 -10.731  1.00  0.00    -0.013 C 
HETATM   29  C2  UNL     1      -7.198  49.156 -10.541  1.00  0.00     0.008 C 
HETATM   30  C1  UNL     1      -7.986  49.856  -9.477  1.00  0.00     0.055 C 
BRANCH  29  31
HETATM   31  C30 UNL     1      -7.935  48.260 -11.472  1.00  0.00     0.171 C 
HETATM   32  O2  UNL     1      -7.565  47.177 -11.890  1.00  0.00    -0.646 OA
BRANCH  31  33
HETATM   33  O3  UNL     1      -9.116  48.780 -11.851  1.00  0.00    -0.773 OA
HETATM   34  H46 UNL     1      -9.477  48.099 -12.455  1.00  0.00     0.167 HD
ENDBRANCH  31  33
ENDBRANCH  29  31
ENDBRANCH  27  28
ENDBRANCH  26  27
ENDBRANCH  24  26
ENDBRANCH   1  24
TORSDOF 6
ENDMDL
MODEL 4
REMARK minimizedAffinity -7.8916502
REMARK CNNscore 0.473702013
REMARK CNNaffinity 6.0131793
REMARK  6 active torsions:
REMARK  status: ('A' for Active; 'I' for Inactive)
REMARK    1  A    between atoms: C2_2  and  C30_31 
REMARK    2  A    between atoms: C3_3  and  C4_4 
REMARK    3  A    between atoms: C4_4  and  C5_5 
REMARK    4  A    between atoms: C5_5  and  C6_6 
REMARK    5  A    between atoms: C6_6  and  C8_8 
REMARK    6  A    between atoms: C30_31  and  O3_33 
ROOT
HETATM    1  C8  UNL     1     -13.253  47.080 -27.372  1.00  0.00    -0.002 C 
HETATM    2  C9  UNL     1     -12.378  47.428 -26.139  1.00  0.00     0.007 C 
HETATM    3  C10 UNL     1     -10.919  47.332 -26.589  1.00  0.00     0.015 C 
HETATM    4  C11 UNL     1     -10.916  46.242 -27.685  1.00  0.00    -0.013 C 
HETATM    5  C12 UNL     1     -11.019  44.873 -26.956  1.00  0.00     0.021 C 
HETATM    6  C13 UNL     1      -9.673  46.297 -28.609  1.00  0.00    -0.070 C 
HETATM    7  C14 UNL     1      -8.858  45.249 -28.836  1.00  0.00    -0.022 C 
HETATM    8  C15 UNL     1      -7.736  45.220 -29.825  1.00  0.00     0.034 C 
HETATM    9  C16 UNL     1      -7.709  46.388 -30.845  1.00  0.00     0.013 C 
HETATM   10  C17 UNL     1      -6.354  46.446 -31.647  1.00  0.00     0.018 C 
HETATM   11  C18 UNL     1      -6.604  46.906 -33.102  1.00  0.00     0.023 C 
HETATM   12  C19 UNL     1      -5.636  45.081 -31.756  1.00  0.00     0.023 C 
HETATM   13  C20 UNL     1      -5.370  47.417 -30.980  1.00  0.00     0.135 C 
HETATM   14  O1  UNL     1      -4.398  47.872 -31.591  1.00  0.00    -0.297 OA
HETATM   15  C21 UNL     1      -5.537  47.711 -29.506  1.00  0.00     0.080 C 
HETATM   16  C22 UNL     1      -6.967  48.032 -29.068  1.00  0.00     0.017 C 
HETATM   17  C23 UNL     1      -8.073  47.724 -30.122  1.00  0.00    -0.031 C 
HETATM   18  C24 UNL     1      -8.136  48.940 -31.079  1.00  0.00     0.016 C 
HETATM   19  C25 UNL     1      -9.470  47.594 -29.385  1.00  0.00     0.024 C 
HETATM   20  C26 UNL     1     -10.711  47.738 -30.285  1.00  0.00     0.010 C 
HETATM   21  C27 UNL     1     -11.981  47.822 -29.432  1.00  0.00     0.011 C 
HETATM   22  C28 UNL     1     -12.236  46.589 -28.484  1.00  0.00    -0.029 C 
HETATM   23  C29 UNL     1     -12.700  45.444 -29.394  1.00  0.00     0.016 C 
ENDROOT
BRANCH   1  24
HETATM   24  C6  UNL     1     -14.614  46.395 -27.010  1.00  0.00    -0.014 C 
HETATM   25  C7  UNL     1     -15.036  45.307 -28.003  1.00  0.00     0.010 C 
BRANCH  24  26
HETATM   26  C5  UNL     1     -14.950  46.021 -25.543  1.00  0.00     0.008 C 
BRANCH  26  27
HETATM   27  C4  UNL     1     -15.730  47.028 -24.694  1.00  0.00     0.028 C 
BRANCH  27  28
HETATM   28  C3  UNL     1     -16.459  46.335 -23.572  1.00  0.00    -0.013 C 
HETATM   29  C2  UNL     1     -17.791  46.248 -23.388  1.00  0.00     0.008 C 
HETATM   30  C1  UNL     1     -18.841  46.883 -24.248  1.00  0.00     0.055 C 
BRANCH  29  31
HETATM   31  C30 UNL     1     -18.244  45.457 -22.213  1.00  0.00     0.171 C 
HETATM   32  O2  UNL     1     -19.322  45.535 -21.650  1.00  0.00    -0.646 OA
BRANCH  31  33
HETATM   33  O3  UNL     1     -17.302  44.599 -21.783  1.00  0.00    -0.773 OA
HETATM   34  H46 UNL     1     -17.729  44.162 -21.017  1.00  0.00     0.167 HD
ENDBRANCH  31  33
ENDBRANCH  29  31
ENDBRANCH  27  28
ENDBRANCH  26  27
ENDBRANCH  24  26
ENDBRANCH   1  24
TORSDOF 6
ENDMDL
MODEL 5
REMARK minimizedAffinity -7.15558672
REMARK CNNscore 0.472488999
REMARK CNNaffinity 6.45176744
REMARK  6 active torsions:
REMARK  status: ('A' for Active; 'I' for Inactive)
REMARK    1  A    between atoms: C2_2  and  C30_31 
REMARK    2  A    between atoms: C3_3  and  C4_4 
REMARK    3  A    between atoms: C4_4  and  C5_5 
REMARK    4  A    between atoms: C5_5  and  C6_6 
REMARK    5  A    between atoms: C6_6  and  C8_8 
REMARK    6  A    between atoms: C30_31  and  O3_33 
ROOT
HETATM    1  C8  UNL     1      -0.467  54.299 -10.896  1.00  0.00    -0.002 C 
HETATM    2  C9  UNL     1      -1.458  55.323 -10.282  1.00  0.00     0.007 C 
HETATM    3  C10 UNL     1      -0.772  55.923  -9.053  1.00  0.00     0.015 C 
HETATM    4  C11 UNL     1       0.135  54.790  -8.517  1.00  0.00    -0.013 C 
HETATM    5  C12 UNL     1      -0.794  53.780  -7.788  1.00  0.00     0.021 C 
HETATM    6  C13 UNL     1       1.266  55.293  -7.584  1.00  0.00    -0.070 C 
HETATM    7  C14 UNL     1       1.479  54.823  -6.340  1.00  0.00    -0.022 C 
HETATM    8  C15 UNL     1       2.639  55.177  -5.465  1.00  0.00     0.034 C 
HETATM    9  C16 UNL     1       3.808  55.919  -6.165  1.00  0.00     0.013 C 
HETATM   10  C17 UNL     1       4.840  56.510  -5.133  1.00  0.00     0.018 C 
HETATM   11  C18 UNL     1       6.278  56.430  -5.696  1.00  0.00     0.023 C 
HETATM   12  C19 UNL     1       4.876  55.755  -3.785  1.00  0.00     0.023 C 
HETATM   13  C20 UNL     1       4.512  57.976  -4.816  1.00  0.00     0.135 C 
HETATM   14  O1  UNL     1       5.348  58.730  -4.308  1.00  0.00    -0.297 OA
HETATM   15  C21 UNL     1       3.091  58.454  -5.017  1.00  0.00     0.080 C 
HETATM   16  C22 UNL     1       2.454  58.051  -6.348  1.00  0.00     0.017 C 
HETATM   17  C23 UNL     1       3.234  56.976  -7.162  1.00  0.00    -0.031 C 
HETATM   18  C24 UNL     1       4.333  57.722  -7.959  1.00  0.00     0.016 C 
HETATM   19  C25 UNL     1       2.247  56.288  -8.194  1.00  0.00     0.024 C 
HETATM   20  C26 UNL     1       2.920  55.545  -9.362  1.00  0.00     0.010 C 
HETATM   21  C27 UNL     1       1.874  55.125 -10.400  1.00  0.00     0.011 C 
HETATM   22  C28 UNL     1       0.725  54.193  -9.857  1.00  0.00    -0.029 C 
HETATM   23  C29 UNL     1       1.359  52.809  -9.664  1.00  0.00     0.016 C 
ENDROOT
BRANCH   1  24
HETATM   24  C6  UNL     1      -1.165  53.094 -11.613  1.00  0.00    -0.014 C 
HETATM   25  C7  UNL     1      -0.269  52.385 -12.634  1.00  0.00     0.010 C 
BRANCH  24  26
HETATM   26  C5  UNL     1      -2.057  52.104 -10.818  1.00  0.00     0.008 C 
BRANCH  26  27
HETATM   27  C4  UNL     1      -3.444  52.572 -10.370  1.00  0.00     0.028 C 
BRANCH  27  28
HETATM   28  C3  UNL     1      -4.457  51.465 -10.515  1.00  0.00    -0.013 C 
HETATM   29  C2  UNL     1      -4.470  50.275  -9.882  1.00  0.00     0.008 C 
HETATM   30  C1  UNL     1      -3.430  49.775  -8.927  1.00  0.00     0.055 C 
BRANCH  29  31
HETATM   31  C30 UNL     1      -5.623  49.384 -10.179  1.00  0.00     0.171 C 
HETATM   32  O2  UNL     1      -5.776  48.693 -11.171  1.00  0.00    -0.646 OA
BRANCH  31  33
HETATM   33  O3  UNL     1      -6.552  49.411  -9.207  1.00  0.00    -0.773 OA
HETATM   34  H46 UNL     1      -7.239  48.795  -9.537  1.00  0.00     0.167 HD
ENDBRANCH  31  33
ENDBRANCH  29  31
ENDBRANCH  27  28
ENDBRANCH  26  27
ENDBRANCH  24  26
ENDBRANCH   1  24
TORSDOF 6
ENDMDL
MODEL 6
REMARK minimizedAffinity -7.47651672
REMARK CNNscore 0.378023803
REMARK CNNaffinity 5.94841146
REMARK  6 active torsions:
REMARK  status: ('A' for Active; 'I' for Inactive)
REMARK    1  A    between atoms: C2_2  and  C30_31 
REMARK    2  A    between atoms: C3_3  and  C4_4 
REMARK    3  A    between atoms: C4_4  and  C5_5 
REMARK    4  A    between atoms: C5_5  and  C6_6 
REMARK    5  A    between atoms: C6_6  and  C8_8 
REMARK    6  A    between atoms: C30_31  and  O3_33 
ROOT
HETATM    1  C8  UNL     1       1.292  68.224 -39.811  1.00  0.00    -0.002 C 
HETATM    2  C9  UNL     1       2.516  67.999 -40.738  1.00  0.00     0.007 C 
HETATM    3  C10 UNL     1       3.699  67.649 -39.835  1.00  0.00     0.015 C 
HETATM    4  C11 UNL     1       3.425  68.409 -38.516  1.00  0.00    -0.013 C 
HETATM    5  C12 UNL     1       3.773  69.901 -38.778  1.00  0.00     0.021 C 
HETATM    6  C13 UNL     1       4.214  67.850 -37.305  1.00  0.00    -0.070 C 
HETATM    7  C14 UNL     1       5.007  68.597 -36.514  1.00  0.00    -0.022 C 
HETATM    8  C15 UNL     1       5.670  68.129 -35.258  1.00  0.00     0.034 C 
HETATM    9  C16 UNL     1       5.168  66.772 -34.698  1.00  0.00     0.013 C 
HETATM   10  C17 UNL     1       6.105  66.215 -33.561  1.00  0.00     0.018 C 
HETATM   11  C18 UNL     1       5.272  65.482 -32.483  1.00  0.00     0.023 C 
HETATM   12  C19 UNL     1       6.892  67.312 -32.808  1.00  0.00     0.023 C 
HETATM   13  C20 UNL     1       7.139  65.239 -34.139  1.00  0.00     0.135 C 
HETATM   14  O1  UNL     1       7.747  64.441 -33.419  1.00  0.00    -0.297 OA
HETATM   15  C21 UNL     1       7.502  65.360 -35.602  1.00  0.00     0.080 C 
HETATM   16  C22 UNL     1       6.314  65.488 -36.556  1.00  0.00     0.017 C 
HETATM   17  C23 UNL     1       4.941  65.772 -35.876  1.00  0.00    -0.031 C 
HETATM   18  C24 UNL     1       4.373  64.406 -35.417  1.00  0.00     0.016 C 
HETATM   19  C25 UNL     1       3.949  66.391 -36.947  1.00  0.00     0.024 C 
HETATM   20  C26 UNL     1       2.454  66.316 -36.588  1.00  0.00     0.010 C 
HETATM   21  C27 UNL     1       1.596  66.733 -37.788  1.00  0.00     0.011 C 
HETATM   22  C28 UNL     1       1.870  68.185 -38.336  1.00  0.00    -0.029 C 
HETATM   23  C29 UNL     1       1.244  69.147 -37.318  1.00  0.00     0.016 C 
ENDROOT
BRANCH   1  24
HETATM   24  C6  UNL     1       0.263  69.267 -40.363  1.00  0.00    -0.014 C 
HETATM   25  C7  UNL     1       0.876  70.279 -41.338  1.00  0.00     0.010 C 
BRANCH  24  26
HETATM   26  C5  UNL     1      -1.165  68.829 -40.785  1.00  0.00     0.008 C 
BRANCH  26  27
HETATM   27  C4  UNL     1      -1.897  69.656 -41.845  1.00  0.00     0.028 C 
BRANCH  27  28
HETATM   28  C3  UNL     1      -3.327  69.203 -41.985  1.00  0.00    -0.013 C 
HETATM   29  C2  UNL     1      -4.417  69.722 -41.384  1.00  0.00     0.008 C 
HETATM   30  C1  UNL     1      -4.422  70.843 -40.390  1.00  0.00     0.055 C 
BRANCH  29  31
HETATM   31  C30 UNL     1      -5.723  69.107 -41.742  1.00  0.00     0.171 C 
HETATM   32  O2  UNL     1      -6.742  69.691 -42.064  1.00  0.00    -0.646 OA
BRANCH  31  33
HETATM   33  O3  UNL     1      -5.691  67.765 -41.665  1.00  0.00    -0.773 OA
HETATM   34  H46 UNL     1      -6.602  67.504 -41.915  1.00  0.00     0.167 HD
ENDBRANCH  31  33
ENDBRANCH  29  31
ENDBRANCH  27  28
ENDBRANCH  26  27
ENDBRANCH  24  26
ENDBRANCH   1  24
TORSDOF 6
ENDMDL
MODEL 7
REMARK minimizedAffinity -7.42539549
REMARK CNNscore 0.356759012
REMARK CNNaffinity 6.70903778
REMARK  6 active torsions:
REMARK  status: ('A' for Active; 'I' for Inactive)
REMARK    1  A    between atoms: C2_2  and  C30_31 
REMARK    2  A    between atoms: C3_3  and  C4_4 
REMARK    3  A    between atoms: C4_4  and  C5_5 
REMARK    4  A    between atoms: C5_5  and  C6_6 
REMARK    5  A    between atoms: C6_6  and  C8_8 
REMARK    6  A    between atoms: C30_31  and  O3_33 
ROOT
HETATM    1  C8  UNL     1      -1.688  53.306 -11.185  1.00  0.00    -0.002 C 
HETATM    2  C9  UNL     1      -2.429  54.447 -10.437  1.00  0.00     0.007 C 
HETATM    3  C10 UNL     1      -1.421  55.073  -9.472  1.00  0.00     0.015 C 
HETATM    4  C11 UNL     1      -0.478  53.911  -9.079  1.00  0.00    -0.013 C 
HETATM    5  C12 UNL     1      -1.253  53.031  -8.059  1.00  0.00     0.021 C 
HETATM    6  C13 UNL     1       0.879  54.385  -8.500  1.00  0.00    -0.070 C 
HETATM    7  C14 UNL     1       1.370  53.986  -7.311  1.00  0.00    -0.022 C 
HETATM    8  C15 UNL     1       2.731  54.306  -6.782  1.00  0.00     0.034 C 
HETATM    9  C16 UNL     1       3.729  54.902  -7.810  1.00  0.00     0.013 C 
HETATM   10  C17 UNL     1       5.021  55.479  -7.118  1.00  0.00     0.018 C 
HETATM   11  C18 UNL     1       6.264  55.245  -8.009  1.00  0.00     0.023 C 
HETATM   12  C19 UNL     1       5.349  54.817  -5.760  1.00  0.00     0.023 C 
HETATM   13  C20 UNL     1       4.872  56.984  -6.858  1.00  0.00     0.135 C 
HETATM   14  O1  UNL     1       5.853  57.702  -6.639  1.00  0.00    -0.297 OA
HETATM   15  C21 UNL     1       3.478  57.559  -6.745  1.00  0.00     0.080 C 
HETATM   16  C22 UNL     1       2.504  57.118  -7.838  1.00  0.00     0.017 C 
HETATM   17  C23 UNL     1       2.988  55.930  -8.723  1.00  0.00    -0.031 C 
HETATM   18  C24 UNL     1       3.894  56.530  -9.828  1.00  0.00     0.016 C 
HETATM   19  C25 UNL     1       1.733  55.254  -9.416  1.00  0.00     0.024 C 
HETATM   20  C26 UNL     1       2.045  54.381 -10.645  1.00  0.00     0.010 C 
HETATM   21  C27 UNL     1       0.748  53.976 -11.354  1.00  0.00     0.011 C 
HETATM   22  C28 UNL     1      -0.281  53.178 -10.466  1.00  0.00    -0.029 C 
HETATM   23  C29 UNL     1       0.296  51.764 -10.316  1.00  0.00     0.016 C 
ENDROOT
BRANCH   1  24
HETATM   24  C6  UNL     1      -2.615  52.115 -11.601  1.00  0.00    -0.014 C 
HETATM   25  C7  UNL     1      -4.061  52.264 -11.115  1.00  0.00     0.010 C 
BRANCH  24  26
HETATM   26  C5  UNL     1      -2.528  51.498 -13.022  1.00  0.00     0.008 C 
BRANCH  26  27
HETATM   27  C4  UNL     1      -1.243  50.768 -13.421  1.00  0.00     0.028 C 
BRANCH  27  28
HETATM   28  C3  UNL     1      -0.478  51.553 -14.455  1.00  0.00    -0.013 C 
HETATM   29  C2  UNL     1       0.258  51.070 -15.476  1.00  0.00     0.008 C 
HETATM   30  C1  UNL     1       0.519  49.623 -15.763  1.00  0.00     0.055 C 
BRANCH  29  31
HETATM   31  C30 UNL     1       0.872  52.078 -16.381  1.00  0.00     0.171 C 
HETATM   32  O2  UNL     1       0.943  52.022 -17.596  1.00  0.00    -0.646 OA
BRANCH  31  33
HETATM   33  O3  UNL     1       1.388  53.121 -15.706  1.00  0.00    -0.773 OA
HETATM   34  H46 UNL     1       1.756  53.687 -16.416  1.00  0.00     0.167 HD
ENDBRANCH  31  33
ENDBRANCH  29  31
ENDBRANCH  27  28
ENDBRANCH  26  27
ENDBRANCH  24  26
ENDBRANCH   1  24
TORSDOF 6
ENDMDL
MODEL 8
REMARK minimizedAffinity -7.40996742
REMARK CNNscore 0.263617367
REMARK CNNaffinity 5.81936121
REMARK  6 active torsions:
REMARK  status: ('A' for Active; 'I' for Inactive)
REMARK    1  A    between atoms: C2_2  and  C30_31 
REMARK    2  A    between atoms: C3_3  and  C4_4 
REMARK    3  A    between atoms: C4_4  and  C5_5 
REMARK    4  A    between atoms: C5_5  and  C6_6 
REMARK    5  A    between atoms: C6_6  and  C8_8 
REMARK    6  A    between atoms: C30_31  and  O3_33 
ROOT
HETATM    1  C8  UNL     1      -7.507  47.738 -27.593  1.00  0.00    -0.002 C 
HETATM    2  C9  UNL     1      -8.054  48.230 -28.959  1.00  0.00     0.007 C 
HETATM    3  C10 UNL     1      -9.420  47.570 -29.155  1.00  0.00     0.015 C 
HETATM    4  C11 UNL     1      -9.309  46.213 -28.423  1.00  0.00    -0.013 C 
HETATM    5  C12 UNL     1      -8.471  45.276 -29.338  1.00  0.00     0.021 C 
HETATM    6  C13 UNL     1     -10.683  45.583 -28.077  1.00  0.00    -0.070 C 
HETATM    7  C14 UNL     1     -11.049  44.336 -28.430  1.00  0.00    -0.022 C 
HETATM    8  C15 UNL     1     -12.301  43.643 -27.998  1.00  0.00     0.034 C 
HETATM    9  C16 UNL     1     -13.078  44.320 -26.837  1.00  0.00     0.013 C 
HETATM   10  C17 UNL     1     -14.515  43.704 -26.644  1.00  0.00     0.018 C 
HETATM   11  C18 UNL     1     -14.896  43.677 -25.146  1.00  0.00     0.023 C 
HETATM   12  C19 UNL     1     -14.637  42.243 -27.135  1.00  0.00     0.023 C 
HETATM   13  C20 UNL     1     -15.564  44.523 -27.409  1.00  0.00     0.135 C 
HETATM   14  O1  UNL     1     -16.768  44.437 -27.147  1.00  0.00    -0.297 OA
HETATM   15  C21 UNL     1     -15.108  45.349 -28.592  1.00  0.00     0.080 C 
HETATM   16  C22 UNL     1     -13.860  46.197 -28.347  1.00  0.00     0.017 C 
HETATM   17  C23 UNL     1     -13.076  45.869 -27.041  1.00  0.00    -0.031 C 
HETATM   18  C24 UNL     1     -13.774  46.637 -25.891  1.00  0.00     0.016 C 
HETATM   19  C25 UNL     1     -11.593  46.411 -27.176  1.00  0.00     0.024 C 
HETATM   20  C26 UNL     1     -10.825  46.579 -25.852  1.00  0.00     0.010 C 
HETATM   21  C27 UNL     1      -9.503  47.316 -26.093  1.00  0.00     0.011 C 
HETATM   22  C28 UNL     1      -8.523  46.620 -27.113  1.00  0.00    -0.029 C 
HETATM   23  C29 UNL     1      -7.930  45.413 -26.374  1.00  0.00     0.016 C 
ENDROOT
BRANCH   1  24
HETATM   24  C6  UNL     1      -5.946  47.643 -27.533  1.00  0.00    -0.014 C 
HETATM   25  C7  UNL     1      -5.262  47.916 -28.877  1.00  0.00     0.010 C 
BRANCH  24  26
HETATM   26  C5  UNL     1      -5.158  48.237 -26.335  1.00  0.00     0.008 C 
BRANCH  26  27
HETATM   27  C4  UNL     1      -3.675  48.562 -26.528  1.00  0.00     0.028 C 
BRANCH  27  28
HETATM   28  C3  UNL     1      -3.443  50.051 -26.494  1.00  0.00    -0.013 C 
HETATM   29  C2  UNL     1      -2.792  50.759 -25.550  1.00  0.00     0.008 C 
HETATM   30  C1  UNL     1      -2.204  50.209 -24.286  1.00  0.00     0.055 C 
BRANCH  29  31
HETATM   31  C30 UNL     1      -2.668  52.221 -25.792  1.00  0.00     0.171 C 
HETATM   32  O2  UNL     1      -2.709  52.790 -26.868  1.00  0.00    -0.646 OA
BRANCH  31  33
HETATM   33  O3  UNL     1      -2.483  52.912 -24.653  1.00  0.00    -0.773 OA
HETATM   34  H46 UNL     1      -2.412  53.839 -24.962  1.00  0.00     0.167 HD
ENDBRANCH  31  33
ENDBRANCH  29  31
ENDBRANCH  27  28
ENDBRANCH  26  27
ENDBRANCH  24  26
ENDBRANCH   1  24
TORSDOF 6
ENDMDL
MODEL 9
REMARK minimizedAffinity -8.75869083
REMARK CNNscore 0.257769108
REMARK CNNaffinity 6.35682726
REMARK  6 active torsions:
REMARK  status: ('A' for Active; 'I' for Inactive)
REMARK    1  A    between atoms: C2_2  and  C30_31 
REMARK    2  A    between atoms: C3_3  and  C4_4 
REMARK    3  A    between atoms: C4_4  and  C5_5 
REMARK    4  A    between atoms: C5_5  and  C6_6 
REMARK    5  A    between atoms: C6_6  and  C8_8 
REMARK    6  A    between atoms: C30_31  and  O3_33 
ROOT
HETATM    1  C8  UNL     1      -1.091  51.660 -21.089  1.00  0.00    -0.002 C 
HETATM    2  C9  UNL     1      -0.742  51.314 -22.561  1.00  0.00     0.007 C 
HETATM    3  C10 UNL     1      -1.812  50.337 -23.053  1.00  0.00     0.015 C 
HETATM    4  C11 UNL     1      -2.232  49.547 -21.792  1.00  0.00    -0.013 C 
HETATM    5  C12 UNL     1      -1.100  48.520 -21.508  1.00  0.00     0.021 C 
HETATM    6  C13 UNL     1      -3.608  48.846 -21.931  1.00  0.00    -0.070 C 
HETATM    7  C14 UNL     1      -3.807  47.532 -21.717  1.00  0.00    -0.022 C 
HETATM    8  C15 UNL     1      -5.136  46.846 -21.702  1.00  0.00     0.034 C 
HETATM    9  C16 UNL     1      -6.374  47.780 -21.652  1.00  0.00     0.013 C 
HETATM   10  C17 UNL     1      -7.716  47.005 -21.935  1.00  0.00     0.018 C 
HETATM   11  C18 UNL     1      -8.869  47.589 -21.086  1.00  0.00     0.023 C 
HETATM   12  C19 UNL     1      -7.654  45.502 -21.580  1.00  0.00     0.023 C 
HETATM   13  C20 UNL     1      -8.094  47.099 -23.420  1.00  0.00     0.135 C 
HETATM   14  O1  UNL     1      -9.242  46.863 -23.810  1.00  0.00    -0.297 OA
HETATM   15  C21 UNL     1      -6.995  47.360 -24.426  1.00  0.00     0.080 C 
HETATM   16  C22 UNL     1      -6.036  48.493 -24.058  1.00  0.00     0.017 C 
HETATM   17  C23 UNL     1      -6.142  49.007 -22.591  1.00  0.00    -0.031 C 
HETATM   18  C24 UNL     1      -7.303  50.032 -22.555  1.00  0.00     0.016 C 
HETATM   19  C25 UNL     1      -4.800  49.756 -22.205  1.00  0.00     0.024 C 
HETATM   20  C26 UNL     1      -4.891  50.698 -20.990  1.00  0.00     0.010 C 
HETATM   21  C27 UNL     1      -3.609  51.527 -20.860  1.00  0.00     0.011 C 
HETATM   22  C28 UNL     1      -2.283  50.690 -20.700  1.00  0.00    -0.029 C 
HETATM   23  C29 UNL     1      -2.296  50.145 -19.267  1.00  0.00     0.016 C 
ENDROOT
BRANCH   1  24
HETATM   24  C6  UNL     1       0.159  51.976 -20.200  1.00  0.00    -0.014 C 
HETATM   25  C7  UNL     1       0.986  53.163 -20.705  1.00  0.00     0.010 C 
BRANCH  24  26
HETATM   26  C5  UNL     1       0.064  51.935 -18.652  1.00  0.00     0.008 C 
BRANCH  26  27
HETATM   27  C4  UNL     1       1.075  52.747 -17.839  1.00  0.00     0.028 C 
BRANCH  27  28
HETATM   28  C3  UNL     1       1.303  52.122 -16.487  1.00  0.00    -0.013 C 
HETATM   29  C2  UNL     1       2.457  52.060 -15.793  1.00  0.00     0.008 C 
HETATM   30  C1  UNL     1       3.790  52.560 -16.259  1.00  0.00     0.055 C 
BRANCH  29  31
HETATM   31  C30 UNL     1       2.387  51.422 -14.452  1.00  0.00     0.171 C 
HETATM   32  O2  UNL     1       2.404  50.228 -14.208  1.00  0.00    -0.646 OA
BRANCH  31  33
HETATM   33  O3  UNL     1       2.285  52.327 -13.462  1.00  0.00    -0.773 OA
HETATM   34  H46 UNL     1       2.242  51.773 -12.655  1.00  0.00     0.167 HD
ENDBRANCH  31  33
ENDBRANCH  29  31
ENDBRANCH  27  28
ENDBRANCH  26  27
ENDBRANCH  24  26
ENDBRANCH   1  24
TORSDOF 6
ENDMDL
