MODEL 1
REMARK minimizedAffinity -7.27489805
REMARK CNNscore 0.607447505
REMARK CNNaffinity 7.41437149
REMARK  9 active torsions:
REMARK  status: ('A' for Active; 'I' for Inactive)
REMARK    1  A    between atoms: O1_2  and  C2_3 
REMARK    2  A    between atoms: C2_3  and  C3_4 
REMARK    3  A    between atoms: C3_4  and  N1_5 
REMARK       I    between atoms: N1_5  and  C4_6 
REMARK    4  A    between atoms: C4_6  and  C5_8 
REMARK    5  A    between atoms: C5_8  and  C7_10 
REMARK    6  A    between atoms: C15_20  and  C16_21 
REMARK    7  A    between atoms: C16_21  and  O3_22 
REMARK    8  A    between atoms: O3_22  and  C17_23 
REMARK    9  A    between atoms: C26_34  and  O4_35 
ROOT
HETATM    1  C7  UNL     1      -0.330  51.103 -12.290  1.00  0.00     0.027 C 
HETATM    2  C8  UNL     1      -0.630  49.650 -12.722  1.00  0.00     0.009 C 
HETATM    3  C9  UNL     1      -0.232  49.312 -14.158  1.00  0.00     0.010 C 
HETATM    4  C10 UNL     1      -0.480  50.443 -15.176  1.00  0.00    -0.033 C 
HETATM    5  C11 UNL     1      -2.006  50.716 -15.264  1.00  0.00     0.016 C 
HETATM    6  C12 UNL     1      -0.034  49.918 -16.582  1.00  0.00     0.058 C 
HETATM    7  C13 UNL     1       0.250  51.054 -17.492  1.00  0.00     0.008 A 
HETATM    8  C14 UNL     1       0.883  52.200 -17.080  1.00  0.00     0.027 A 
HETATM    9  N2  UNL     1       1.064  53.158 -18.051  1.00  0.00    -0.354 N 
ATOM     10  H2  UNL     1       1.488  54.074 -17.904  1.00  0.00     0.166 HD
HETATM   11  C15 UNL     1       0.602  52.704 -19.205  1.00  0.00     0.076 A 
HETATM   12  S1  UNL     1      -0.122  51.134 -19.140  1.00  0.00    -0.077 SA
HETATM   13  C23 UNL     1       1.339  52.371 -15.666  1.00  0.00     0.040 C 
HETATM   14  C24 UNL     1       2.733  51.760 -15.485  1.00  0.00     0.017 C 
HETATM   15  C25 UNL     1       0.246  51.782 -14.697  1.00  0.00     0.033 C 
HETATM   16  C26 UNL     1       0.737  51.715 -13.226  1.00  0.00     0.128 C 
ENDROOT
BRANCH   1  17
HETATM   17  C5  UNL     1       0.039  51.177 -10.777  1.00  0.00     0.080 C 
HETATM   18  C6  UNL     1      -0.218  49.859 -10.032  1.00  0.00     0.020 C 
BRANCH  17  19
HETATM   19  C4  UNL     1      -0.698  52.273 -10.007  1.00  0.00     0.222 C 
HETATM   20  N1  UNL     1      -0.058  53.499  -9.976  1.00  0.00    -0.359 N 
HETATM   21  H8  UNL     1       0.600  53.685 -10.722  1.00  0.00     0.162 HD
HETATM   22  O2  UNL     1      -1.805  52.087  -9.512  1.00  0.00    -0.273 OA
BRANCH  20  23
HETATM   23  C3  UNL     1      -0.766  54.671  -9.481  1.00  0.00     0.148 C 
BRANCH  23  24
HETATM   24  C2  UNL     1      -0.402  54.966  -8.021  1.00  0.00     0.186 C 
BRANCH  24  25
HETATM   25  O1  UNL     1      -0.436  56.379  -7.769  1.00  0.00    -0.394 OA
HETATM   26  C1  UNL     1       0.780  56.873  -7.224  1.00  0.00     0.201 C 
ENDBRANCH  24  25
ENDBRANCH  23  24
ENDBRANCH  20  23
ENDBRANCH  17  19
ENDBRANCH   1  17
BRANCH  16  27
HETATM   27  O4  UNL     1       1.104  53.028 -12.826  1.00  0.00    -0.395 OA
HETATM   28  H35 UNL     1       0.298  53.555 -12.679  1.00  0.00     0.210 HD
ENDBRANCH  16  27
BRANCH  11  29
HETATM   29  C16 UNL     1       0.638  53.460 -20.501  1.00  0.00     0.240 C 
BRANCH  29  30
HETATM   30  O3  UNL     1       1.138  52.615 -21.544  1.00  0.00    -0.345 OA
BRANCH  30  31
HETATM   31  C17 UNL     1       0.512  52.628 -22.760  1.00  0.00     0.070 A 
HETATM   32  C18 UNL     1       0.716  53.561 -23.778  1.00  0.00     0.037 A 
HETATM   33  C19 UNL     1       0.009  53.457 -24.980  1.00  0.00     0.004 A 
HETATM   34  C20 UNL     1      -0.896  52.414 -25.172  1.00  0.00     0.024 A 
HETATM   35  C21 UNL     1      -1.082  51.471 -24.163  1.00  0.00     0.036 A 
HETATM   36 CL1  UNL     1      -2.189  50.175 -24.402  1.00  0.00    -0.084 Cl
HETATM   37  C22 UNL     1      -0.380  51.573 -22.965  1.00  0.00     0.060 A 
ENDBRANCH  30  31
ENDBRANCH  29  30
ENDBRANCH  11  29
TORSDOF 9
ENDMDL
MODEL 2
REMARK minimizedAffinity -7.70060301
REMARK CNNscore 0.548747182
REMARK CNNaffinity 7.18718004
REMARK  9 active torsions:
REMARK  status: ('A' for Active; 'I' for Inactive)
REMARK    1  A    between atoms: O1_2  and  C2_3 
REMARK    2  A    between atoms: C2_3  and  C3_4 
REMARK    3  A    between atoms: C3_4  and  N1_5 
REMARK       I    between atoms: N1_5  and  C4_6 
REMARK    4  A    between atoms: C4_6  and  C5_8 
REMARK    5  A    between atoms: C5_8  and  C7_10 
REMARK    6  A    between atoms: C15_20  and  C16_21 
REMARK    7  A    between atoms: C16_21  and  O3_22 
REMARK    8  A    between atoms: O3_22  and  C17_23 
REMARK    9  A    between atoms: C26_34  and  O4_35 
ROOT
HETATM    1  C7  UNL     1      -3.512  49.307 -24.726  1.00  0.00     0.027 C 
HETATM    2  C8  UNL     1      -2.378  50.167 -25.327  1.00  0.00     0.009 C 
HETATM    3  C9  UNL     1      -1.268  50.542 -24.345  1.00  0.00     0.010 C 
HETATM    4  C10 UNL     1      -1.755  50.867 -22.919  1.00  0.00    -0.033 C 
HETATM    5  C11 UNL     1      -2.654  52.133 -22.970  1.00  0.00     0.016 C 
HETATM    6  C12 UNL     1      -0.497  51.242 -22.065  1.00  0.00     0.058 C 
HETATM    7  C13 UNL     1      -0.782  51.064 -20.620  1.00  0.00     0.008 A 
HETATM    8  C14 UNL     1      -1.518  50.016 -20.128  1.00  0.00     0.027 A 
HETATM    9  N2  UNL     1      -1.692  50.004 -18.763  1.00  0.00    -0.354 N 
ATOM     10  H2  UNL     1      -2.236  49.314 -18.243  1.00  0.00     0.166 HD
HETATM   11  C15 UNL     1      -1.042  51.026 -18.230  1.00  0.00     0.076 A 
HETATM   12  S1  UNL     1      -0.256  52.069 -19.365  1.00  0.00    -0.077 SA
HETATM   13  C23 UNL     1      -2.082  48.968 -21.035  1.00  0.00     0.040 C 
HETATM   14  C24 UNL     1      -1.038  47.873 -21.284  1.00  0.00     0.017 C 
HETATM   15  C25 UNL     1      -2.622  49.656 -22.344  1.00  0.00     0.033 C 
HETATM   16  C26 UNL     1      -3.017  48.621 -23.433  1.00  0.00     0.128 C 
ENDROOT
BRANCH   1  17
HETATM   17  C5  UNL     1      -4.091  48.319 -25.784  1.00  0.00     0.080 C 
HETATM   18  C6  UNL     1      -3.681  48.671 -27.221  1.00  0.00     0.020 C 
BRANCH  17  19
HETATM   19  C4  UNL     1      -5.617  48.213 -25.771  1.00  0.00     0.222 C 
HETATM   20  N1  UNL     1      -6.198  47.968 -27.001  1.00  0.00    -0.359 N 
HETATM   21  H8  UNL     1      -5.613  47.525 -27.698  1.00  0.00     0.162 HD
HETATM   22  O2  UNL     1      -6.262  48.277 -24.729  1.00  0.00    -0.273 OA
BRANCH  20  23
HETATM   23  C3  UNL     1      -7.609  47.615 -27.076  1.00  0.00     0.148 C 
BRANCH  23  24
HETATM   24  C2  UNL     1      -8.127  47.695 -28.517  1.00  0.00     0.186 C 
BRANCH  24  25
HETATM   25  O1  UNL     1      -8.524  46.397 -28.982  1.00  0.00    -0.394 OA
HETATM   26  C1  UNL     1      -7.450  45.662 -29.554  1.00  0.00     0.201 C 
ENDBRANCH  24  25
ENDBRANCH  23  24
ENDBRANCH  20  23
ENDBRANCH  17  19
ENDBRANCH   1  17
BRANCH  16  27
HETATM   27  O4  UNL     1      -4.001  47.758 -22.880  1.00  0.00    -0.395 OA
HETATM   28  H35 UNL     1      -4.849  48.233 -22.825  1.00  0.00     0.210 HD
ENDBRANCH  16  27
BRANCH  11  29
HETATM   29  C16 UNL     1      -0.986  51.336 -16.763  1.00  0.00     0.240 C 
BRANCH  29  30
HETATM   30  O3  UNL     1      -0.328  50.271 -16.065  1.00  0.00    -0.345 OA
BRANCH  30  31
HETATM   31  C17 UNL     1       0.816  50.548 -15.369  1.00  0.00     0.070 A 
HETATM   32  C18 UNL     1       1.212  49.952 -14.170  1.00  0.00     0.037 A 
HETATM   33  C19 UNL     1       2.414  50.327 -13.563  1.00  0.00     0.004 A 
HETATM   34  C20 UNL     1       3.229  51.290 -14.155  1.00  0.00     0.024 A 
HETATM   35  C21 UNL     1       2.842  51.868 -15.362  1.00  0.00     0.036 A 
HETATM   36 CL1  UNL     1       3.852  53.049 -16.103  1.00  0.00    -0.084 Cl
HETATM   37  C22 UNL     1       1.645  51.497 -15.970  1.00  0.00     0.060 A 
ENDBRANCH  30  31
ENDBRANCH  29  30
ENDBRANCH  11  29
TORSDOF 9
ENDMDL
MODEL 3
REMARK minimizedAffinity -7.73399305
REMARK CNNscore 0.492780954
REMARK CNNaffinity 7.06878328
REMARK  9 active torsions:
REMARK  status: ('A' for Active; 'I' for Inactive)
REMARK    1  A    between atoms: O1_2  and  C2_3 
REMARK    2  A    between atoms: C2_3  and  C3_4 
REMARK    3  A    between atoms: C3_4  and  N1_5 
REMARK       I    between atoms: N1_5  and  C4_6 
REMARK    4  A    between atoms: C4_6  and  C5_8 
REMARK    5  A    between atoms: C5_8  and  C7_10 
REMARK    6  A    between atoms: C15_20  and  C16_21 
REMARK    7  A    between atoms: C16_21  and  O3_22 
REMARK    8  A    between atoms: O3_22  and  C17_23 
REMARK    9  A    between atoms: C26_34  and  O4_35 
ROOT
HETATM    1  C7  UNL     1      -4.524  49.054 -24.528  1.00  0.00     0.027 C 
HETATM    2  C8  UNL     1      -3.474  49.796 -25.385  1.00  0.00     0.009 C 
HETATM    3  C9  UNL     1      -2.171  50.128 -24.658  1.00  0.00     0.010 C 
HETATM    4  C10 UNL     1      -2.347  50.555 -23.187  1.00  0.00    -0.033 C 
HETATM    5  C11 UNL     1      -3.152  51.882 -23.141  1.00  0.00     0.016 C 
HETATM    6  C12 UNL     1      -0.924  50.870 -22.614  1.00  0.00     0.058 C 
HETATM    7  C13 UNL     1      -0.933  50.781 -21.134  1.00  0.00     0.008 A 
HETATM    8  C14 UNL     1      -1.627  49.816 -20.447  1.00  0.00     0.027 A 
HETATM    9  N2  UNL     1      -1.530  49.880 -19.076  1.00  0.00    -0.354 N 
ATOM     10  H2  UNL     1      -2.007  49.259 -18.422  1.00  0.00     0.166 HD
HETATM   11  C15 UNL     1      -0.723  50.873 -18.739  1.00  0.00     0.076 A 
HETATM   12  S1  UNL     1      -0.106  51.799 -20.065  1.00  0.00    -0.077 SA
HETATM   13  C23 UNL     1      -2.425  48.775 -21.165  1.00  0.00     0.040 C 
HETATM   14  C24 UNL     1      -1.526  47.592 -21.543  1.00  0.00     0.017 C 
HETATM   15  C25 UNL     1      -3.163  49.441 -22.386  1.00  0.00     0.033 C 
HETATM   16  C26 UNL     1      -3.832  48.392 -23.314  1.00  0.00     0.128 C 
ENDROOT
BRANCH   1  17
HETATM   17  C5  UNL     1      -5.363  48.066 -25.394  1.00  0.00     0.080 C 
HETATM   18  C6  UNL     1      -5.100  48.216 -26.900  1.00  0.00     0.020 C 
BRANCH  17  19
HETATM   19  C4  UNL     1      -6.874  48.186 -25.192  1.00  0.00     0.222 C 
HETATM   20  N1  UNL     1      -7.620  48.212 -26.355  1.00  0.00    -0.359 N 
HETATM   21  H8  UNL     1      -7.197  47.795 -27.174  1.00  0.00     0.162 HD
HETATM   22  O2  UNL     1      -7.380  48.193 -24.075  1.00  0.00    -0.273 OA
BRANCH  20  23
HETATM   23  C3  UNL     1      -9.069  48.088 -26.287  1.00  0.00     0.148 C 
BRANCH  23  24
HETATM   24  C2  UNL     1      -9.523  46.663 -26.628  1.00  0.00     0.186 C 
BRANCH  24  25
HETATM   25  O1  UNL     1     -10.285  46.655 -27.844  1.00  0.00    -0.394 OA
HETATM   26  C1  UNL     1     -10.554  45.342 -28.319  1.00  0.00     0.201 C 
ENDBRANCH  24  25
ENDBRANCH  23  24
ENDBRANCH  20  23
ENDBRANCH  17  19
ENDBRANCH   1  17
BRANCH  16  27
HETATM   27  O4  UNL     1      -4.744  47.633 -22.533  1.00  0.00    -0.395 OA
HETATM   28  H35 UNL     1      -5.532  48.174 -22.344  1.00  0.00     0.210 HD
ENDBRANCH  16  27
BRANCH  11  29
HETATM   29  C16 UNL     1      -0.360  51.245 -17.332  1.00  0.00     0.240 C 
BRANCH  29  30
HETATM   30  O3  UNL     1       0.632  52.279 -17.342  1.00  0.00    -0.345 OA
BRANCH  30  31
HETATM   31  C17 UNL     1       1.752  52.124 -16.573  1.00  0.00     0.070 A 
HETATM   32  C18 UNL     1       2.986  52.743 -16.784  1.00  0.00     0.037 A 
HETATM   33  C19 UNL     1       4.053  52.499 -15.915  1.00  0.00     0.004 A 
HETATM   34  C20 UNL     1       3.889  51.644 -14.826  1.00  0.00     0.024 A 
HETATM   35  C21 UNL     1       2.651  51.044 -14.604  1.00  0.00     0.036 A 
HETATM   36 CL1  UNL     1       2.441  49.998 -13.254  1.00  0.00    -0.084 Cl
HETATM   37  C22 UNL     1       1.586  51.285 -15.469  1.00  0.00     0.060 A 
ENDBRANCH  30  31
ENDBRANCH  29  30
ENDBRANCH  11  29
TORSDOF 9
ENDMDL
MODEL 4
REMARK minimizedAffinity -7.04404163
REMARK CNNscore 0.468543887
REMARK CNNaffinity 6.39033365
REMARK  9 active torsions:
REMARK  status: ('A' for Active; 'I' for Inactive)
REMARK    1  A    between atoms: O1_2  and  C2_3 
REMARK    2  A    between atoms: C2_3  and  C3_4 
REMARK    3  A    between atoms: C3_4  and  N1_5 
REMARK       I    between atoms: N1_5  and  C4_6 
REMARK    4  A    between atoms: C4_6  and  C5_8 
REMARK    5  A    between atoms: C5_8  and  C7_10 
REMARK    6  A    between atoms: C15_20  and  C16_21 
REMARK    7  A    between atoms: C16_21  and  O3_22 
REMARK    8  A    between atoms: O3_22  and  C17_23 
REMARK    9  A    between atoms: C26_34  and  O4_35 
ROOT
HETATM    1  C7  UNL     1      -1.352  50.220 -16.969  1.00  0.00     0.027 C 
HETATM    2  C8  UNL     1      -0.127  49.291 -16.811  1.00  0.00     0.009 C 
HETATM    3  C9  UNL     1       0.576  49.381 -15.457  1.00  0.00     0.010 C 
HETATM    4  C10 UNL     1       0.658  50.804 -14.870  1.00  0.00    -0.033 C 
HETATM    5  C11 UNL     1       1.530  51.686 -15.805  1.00  0.00     0.016 C 
HETATM    6  C12 UNL     1       1.418  50.707 -13.504  1.00  0.00     0.058 C 
HETATM    7  C13 UNL     1       1.099  51.878 -12.651  1.00  0.00     0.008 A 
HETATM    8  C14 UNL     1      -0.158  52.423 -12.571  1.00  0.00     0.027 A 
HETATM    9  N2  UNL     1      -0.279  53.510 -11.735  1.00  0.00    -0.354 N 
ATOM     10  H2  UNL     1      -1.134  54.047 -11.587  1.00  0.00     0.166 HD
HETATM   11  C15 UNL     1       0.885  53.749 -11.155  1.00  0.00     0.076 A 
HETATM   12  S1  UNL     1       2.178  52.709 -11.648  1.00  0.00    -0.077 SA
HETATM   13  C23 UNL     1      -1.302  51.854 -13.348  1.00  0.00     0.040 C 
HETATM   14  C24 UNL     1      -1.953  50.710 -12.562  1.00  0.00     0.017 C 
HETATM   15  C25 UNL     1      -0.800  51.448 -14.783  1.00  0.00     0.033 C 
HETATM   16  C26 UNL     1      -1.867  50.644 -15.575  1.00  0.00     0.128 C 
ENDROOT
BRANCH   1  17
HETATM   17  C5  UNL     1      -2.441  49.569 -17.875  1.00  0.00     0.080 C 
HETATM   18  C6  UNL     1      -1.916  48.368 -18.675  1.00  0.00     0.020 C 
BRANCH  17  19
HETATM   19  C4  UNL     1      -3.073  50.531 -18.881  1.00  0.00     0.222 C 
HETATM   20  N1  UNL     1      -3.750  49.927 -19.924  1.00  0.00    -0.359 N 
HETATM   21  H8  UNL     1      -4.089  48.988 -19.761  1.00  0.00     0.162 HD
HETATM   22  O2  UNL     1      -3.032  51.748 -18.730  1.00  0.00    -0.273 OA
BRANCH  20  23
HETATM   23  C3  UNL     1      -4.585  50.731 -20.806  1.00  0.00     0.148 C 
BRANCH  23  24
HETATM   24  C2  UNL     1      -5.311  49.857 -21.836  1.00  0.00     0.186 C 
BRANCH  24  25
HETATM   25  O1  UNL     1      -4.690  49.977 -23.124  1.00  0.00    -0.394 OA
HETATM   26  C1  UNL     1      -4.695  48.758 -23.856  1.00  0.00     0.201 C 
ENDBRANCH  24  25
ENDBRANCH  23  24
ENDBRANCH  20  23
ENDBRANCH  17  19
ENDBRANCH   1  17
BRANCH  16  27
HETATM   27  O4  UNL     1      -3.040  51.442 -15.663  1.00  0.00    -0.395 OA
HETATM   28  H35 UNL     1      -2.894  52.155 -16.311  1.00  0.00     0.210 HD
ENDBRANCH  16  27
BRANCH  11  29
HETATM   29  C16 UNL     1       1.143  54.847 -10.165  1.00  0.00     0.240 C 
BRANCH  29  30
HETATM   30  O3  UNL     1       2.282  55.613 -10.575  1.00  0.00    -0.345 OA
BRANCH  30  31
HETATM   31  C17 UNL     1       3.272  55.857  -9.664  1.00  0.00     0.070 A 
HETATM   32  C18 UNL     1       3.207  56.760  -8.601  1.00  0.00     0.037 A 
HETATM   33  C19 UNL     1       4.297  56.910  -7.738  1.00  0.00     0.004 A 
HETATM   34  C20 UNL     1       5.451  56.152  -7.927  1.00  0.00     0.024 A 
HETATM   35  C21 UNL     1       5.507  55.237  -8.976  1.00  0.00     0.036 A 
HETATM   36 CL1  UNL     1       6.926  54.291  -9.206  1.00  0.00    -0.084 Cl
HETATM   37  C22 UNL     1       4.423  55.085  -9.838  1.00  0.00     0.060 A 
ENDBRANCH  30  31
ENDBRANCH  29  30
ENDBRANCH  11  29
TORSDOF 9
ENDMDL
MODEL 5
REMARK minimizedAffinity -7.39799786
REMARK CNNscore 0.379800141
REMARK CNNaffinity 6.35782194
REMARK  9 active torsions:
REMARK  status: ('A' for Active; 'I' for Inactive)
REMARK    1  A    between atoms: O1_2  and  C2_3 
REMARK    2  A    between atoms: C2_3  and  C3_4 
REMARK    3  A    between atoms: C3_4  and  N1_5 
REMARK       I    between atoms: N1_5  and  C4_6 
REMARK    4  A    between atoms: C4_6  and  C5_8 
REMARK    5  A    between atoms: C5_8  and  C7_10 
REMARK    6  A    between atoms: C15_20  and  C16_21 
REMARK    7  A    between atoms: C16_21  and  O3_22 
REMARK    8  A    between atoms: O3_22  and  C17_23 
REMARK    9  A    between atoms: C26_34  and  O4_35 
ROOT
HETATM    1  C7  UNL     1      -7.657  44.759 -31.892  1.00  0.00     0.027 C 
HETATM    2  C8  UNL     1      -8.951  44.936 -31.066  1.00  0.00     0.009 C 
HETATM    3  C9  UNL     1      -8.871  45.995 -29.967  1.00  0.00     0.010 C 
HETATM    4  C10 UNL     1      -7.519  46.053 -29.228  1.00  0.00    -0.033 C 
HETATM    5  C11 UNL     1      -7.299  44.713 -28.475  1.00  0.00     0.016 C 
HETATM    6  C12 UNL     1      -7.626  47.172 -28.137  1.00  0.00     0.058 C 
HETATM    7  C13 UNL     1      -6.275  47.644 -27.748  1.00  0.00     0.008 A 
HETATM    8  C14 UNL     1      -5.256  47.819 -28.651  1.00  0.00     0.027 A 
HETATM    9  N2  UNL     1      -4.065  48.260 -28.121  1.00  0.00    -0.354 N 
ATOM     10  H2  UNL     1      -3.205  48.410 -28.649  1.00  0.00     0.166 HD
HETATM   11  C15 UNL     1      -4.210  48.457 -26.821  1.00  0.00     0.076 A 
HETATM   12  S1  UNL     1      -5.770  48.056 -26.187  1.00  0.00    -0.077 SA
HETATM   13  C23 UNL     1      -5.454  47.544 -30.108  1.00  0.00     0.040 C 
HETATM   14  C24 UNL     1      -6.030  48.784 -30.802  1.00  0.00     0.017 C 
HETATM   15  C25 UNL     1      -6.329  46.246 -30.274  1.00  0.00     0.033 C 
HETATM   16  C26 UNL     1      -6.769  46.017 -31.745  1.00  0.00     0.128 C 
ENDROOT
BRANCH   1  17
HETATM   17  C5  UNL     1      -7.978  44.381 -33.370  1.00  0.00     0.080 C 
HETATM   18  C6  UNL     1      -9.466  44.530 -33.717  1.00  0.00     0.020 C 
BRANCH  17  19
HETATM   19  C4  UNL     1      -7.573  42.957 -33.751  1.00  0.00     0.222 C 
HETATM   20  N1  UNL     1      -6.246  42.800 -34.109  1.00  0.00    -0.359 N 
HETATM   21  H8  UNL     1      -5.597  43.490 -33.753  1.00  0.00     0.162 HD
HETATM   22  O2  UNL     1      -8.358  42.017 -33.680  1.00  0.00    -0.273 OA
BRANCH  20  23
HETATM   23  C3  UNL     1      -5.692  41.463 -34.263  1.00  0.00     0.148 C 
BRANCH  23  24
HETATM   24  C2  UNL     1      -5.543  41.088 -35.742  1.00  0.00     0.186 C 
BRANCH  24  25
HETATM   25  O1  UNL     1      -4.166  41.148 -36.141  1.00  0.00    -0.394 OA
HETATM   26  C1  UNL     1      -3.581  39.863 -36.307  1.00  0.00     0.201 C 
ENDBRANCH  24  25
ENDBRANCH  23  24
ENDBRANCH  20  23
ENDBRANCH  17  19
ENDBRANCH   1  17
BRANCH  16  27
HETATM   27  O4  UNL     1      -5.598  45.936 -32.546  1.00  0.00    -0.395 OA
HETATM   28  H35 UNL     1      -5.166  45.076 -32.395  1.00  0.00     0.210 HD
ENDBRANCH  16  27
BRANCH  11  29
HETATM   29  C16 UNL     1      -3.132  48.951 -25.902  1.00  0.00     0.240 C 
BRANCH  29  30
HETATM   30  O3  UNL     1      -2.124  49.634 -26.658  1.00  0.00    -0.345 OA
BRANCH  30  31
HETATM   31  C17 UNL     1      -1.305  50.519 -26.013  1.00  0.00     0.070 A 
HETATM   32  C18 UNL     1      -1.654  51.319 -24.923  1.00  0.00     0.037 A 
HETATM   33  C19 UNL     1      -0.714  52.182 -24.354  1.00  0.00     0.004 A 
HETATM   34  C20 UNL     1       0.582  52.243 -24.864  1.00  0.00     0.024 A 
HETATM   35  C21 UNL     1       0.935  51.428 -25.938  1.00  0.00     0.036 A 
HETATM   36 CL1  UNL     1       2.538  51.491 -26.563  1.00  0.00    -0.084 Cl
HETATM   37  C22 UNL     1       0.000  50.567 -26.508  1.00  0.00     0.060 A 
ENDBRANCH  30  31
ENDBRANCH  29  30
ENDBRANCH  11  29
TORSDOF 9
ENDMDL
MODEL 6
REMARK minimizedAffinity -7.29664516
REMARK CNNscore 0.322497874
REMARK CNNaffinity 6.88149643
REMARK  9 active torsions:
REMARK  status: ('A' for Active; 'I' for Inactive)
REMARK    1  A    between atoms: O1_2  and  C2_3 
REMARK    2  A    between atoms: C2_3  and  C3_4 
REMARK    3  A    between atoms: C3_4  and  N1_5 
REMARK       I    between atoms: N1_5  and  C4_6 
REMARK    4  A    between atoms: C4_6  and  C5_8 
REMARK    5  A    between atoms: C5_8  and  C7_10 
REMARK    6  A    between atoms: C15_20  and  C16_21 
REMARK    7  A    between atoms: C16_21  and  O3_22 
REMARK    8  A    between atoms: O3_22  and  C17_23 
REMARK    9  A    between atoms: C26_34  and  O4_35 
ROOT
HETATM    1  C7  UNL     1       0.088  50.840 -12.252  1.00  0.00     0.027 C 
HETATM    2  C8  UNL     1       0.012  49.344 -12.630  1.00  0.00     0.009 C 
HETATM    3  C9  UNL     1       0.349  49.033 -14.088  1.00  0.00     0.010 C 
HETATM    4  C10 UNL     1      -0.171  50.071 -15.103  1.00  0.00    -0.033 C 
HETATM    5  C11 UNL     1      -1.724  50.074 -15.069  1.00  0.00     0.016 C 
HETATM    6  C12 UNL     1       0.247  49.584 -16.532  1.00  0.00     0.058 C 
HETATM    7  C13 UNL     1       0.256  50.722 -17.482  1.00  0.00     0.008 A 
HETATM    8  C14 UNL     1       0.711  51.973 -17.146  1.00  0.00     0.027 A 
HETATM    9  N2  UNL     1       0.645  52.915 -18.147  1.00  0.00    -0.354 N 
ATOM     10  H2  UNL     1       0.913  53.895 -18.053  1.00  0.00     0.166 HD
HETATM   11  C15 UNL     1       0.180  52.352 -19.250  1.00  0.00     0.076 A 
HETATM   12  S1  UNL     1      -0.253  50.683 -19.095  1.00  0.00    -0.077 SA
HETATM   13  C23 UNL     1       1.239  52.266 -15.778  1.00  0.00     0.040 C 
HETATM   14  C24 UNL     1       2.729  51.910 -15.703  1.00  0.00     0.017 C 
HETATM   15  C25 UNL     1       0.345  51.530 -14.711  1.00  0.00     0.033 C 
HETATM   16  C26 UNL     1       0.955  51.596 -13.285  1.00  0.00     0.128 C 
ENDROOT
BRANCH   1  17
HETATM   17  C5  UNL     1       0.557  51.026 -10.776  1.00  0.00     0.080 C 
HETATM   18  C6  UNL     1       0.804  49.694 -10.054  1.00  0.00     0.020 C 
BRANCH  17  19
HETATM   19  C4  UNL     1      -0.414  51.829  -9.909  1.00  0.00     0.222 C 
HETATM   20  N1  UNL     1      -1.218  52.717 -10.599  1.00  0.00    -0.359 N 
HETATM   21  H8  UNL     1      -1.377  52.519 -11.578  1.00  0.00     0.162 HD
HETATM   22  O2  UNL     1      -0.509  51.644  -8.700  1.00  0.00    -0.273 OA
BRANCH  20  23
HETATM   23  C3  UNL     1      -2.334  53.359  -9.919  1.00  0.00     0.148 C 
BRANCH  23  24
HETATM   24  C2  UNL     1      -3.491  53.636 -10.886  1.00  0.00     0.186 C 
BRANCH  24  25
HETATM   25  O1  UNL     1      -3.912  52.424 -11.529  1.00  0.00    -0.394 OA
HETATM   26  C1  UNL     1      -4.495  51.493 -10.626  1.00  0.00     0.201 C 
ENDBRANCH  24  25
ENDBRANCH  23  24
ENDBRANCH  20  23
ENDBRANCH  17  19
ENDBRANCH   1  17
BRANCH  16  27
HETATM   27  O4  UNL     1       1.118  52.965 -12.941  1.00  0.00    -0.395 OA
HETATM   28  H35 UNL     1       0.247  53.350 -12.738  1.00  0.00     0.210 HD
ENDBRANCH  16  27
BRANCH  11  29
HETATM   29  C16 UNL     1      -0.019  53.060 -20.557  1.00  0.00     0.240 C 
BRANCH  29  30
HETATM   30  O3  UNL     1       0.827  52.481 -21.558  1.00  0.00    -0.345 OA
BRANCH  30  31
HETATM   31  C17 UNL     1       0.279  52.128 -22.760  1.00  0.00     0.070 A 
HETATM   32  C18 UNL     1       0.685  52.587 -24.014  1.00  0.00     0.037 A 
HETATM   33  C19 UNL     1       0.037  52.141 -25.170  1.00  0.00     0.004 A 
HETATM   34  C20 UNL     1      -1.010  51.226 -25.078  1.00  0.00     0.024 A 
HETATM   35  C21 UNL     1      -1.400  50.752 -23.827  1.00  0.00     0.036 A 
HETATM   36 CL1  UNL     1      -2.685  49.613 -23.710  1.00  0.00    -0.084 Cl
HETATM   37  C22 UNL     1      -0.757  51.195 -22.674  1.00  0.00     0.060 A 
ENDBRANCH  30  31
ENDBRANCH  29  30
ENDBRANCH  11  29
TORSDOF 9
ENDMDL
MODEL 7
REMARK minimizedAffinity -7.29113674
REMARK CNNscore 0.289238274
REMARK CNNaffinity 5.39785242
REMARK  9 active torsions:
REMARK  status: ('A' for Active; 'I' for Inactive)
REMARK    1  A    between atoms: O1_2  and  C2_3 
REMARK    2  A    between atoms: C2_3  and  C3_4 
REMARK    3  A    between atoms: C3_4  and  N1_5 
REMARK       I    between atoms: N1_5  and  C4_6 
REMARK    4  A    between atoms: C4_6  and  C5_8 
REMARK    5  A    between atoms: C5_8  and  C7_10 
REMARK    6  A    between atoms: C15_20  and  C16_21 
REMARK    7  A    between atoms: C16_21  and  O3_22 
REMARK    8  A    between atoms: O3_22  and  C17_23 
REMARK    9  A    between atoms: C26_34  and  O4_35 
ROOT
HETATM    1  C7  UNL     1      -7.271  47.231 -28.238  1.00  0.00     0.027 C 
HETATM    2  C8  UNL     1      -7.255  45.726 -28.586  1.00  0.00     0.009 C 
HETATM    3  C9  UNL     1      -8.633  45.067 -28.652  1.00  0.00     0.010 C 
HETATM    4  C10 UNL     1      -9.632  45.561 -27.585  1.00  0.00    -0.033 C 
HETATM    5  C11 UNL     1      -9.097  45.174 -26.179  1.00  0.00     0.016 C 
HETATM    6  C12 UNL     1     -10.969  44.772 -27.791  1.00  0.00     0.058 C 
HETATM    7  C13 UNL     1     -12.103  45.513 -27.187  1.00  0.00     0.008 A 
HETATM    8  C14 UNL     1     -12.225  46.879 -27.257  1.00  0.00     0.027 A 
HETATM    9  N2  UNL     1     -13.336  47.406 -26.640  1.00  0.00    -0.354 N 
ATOM     10  H2  UNL     1     -13.558  48.400 -26.574  1.00  0.00     0.166 HD
HETATM   11  C15 UNL     1     -14.070  46.423 -26.145  1.00  0.00     0.076 A 
HETATM   12  S1  UNL     1     -13.411  44.837 -26.354  1.00  0.00    -0.077 SA
HETATM   13  C23 UNL     1     -11.206  47.715 -27.964  1.00  0.00     0.040 C 
HETATM   14  C24 UNL     1     -11.540  47.798 -29.458  1.00  0.00     0.017 C 
HETATM   15  C25 UNL     1      -9.770  47.149 -27.653  1.00  0.00     0.033 C 
HETATM   16  C26 UNL     1      -8.672  47.818 -28.525  1.00  0.00     0.128 C 
ENDROOT
BRANCH   1  17
HETATM   17  C5  UNL     1      -6.110  47.988 -28.952  1.00  0.00     0.080 C 
HETATM   18  C6  UNL     1      -5.611  47.267 -30.212  1.00  0.00     0.020 C 
BRANCH  17  19
HETATM   19  C4  UNL     1      -4.888  48.234 -28.067  1.00  0.00     0.222 C 
HETATM   20  N1  UNL     1      -5.163  48.412 -26.724  1.00  0.00    -0.359 N 
HETATM   21  H8  UNL     1      -6.030  48.015 -26.383  1.00  0.00     0.162 HD
HETATM   22  O2  UNL     1      -3.746  48.209 -28.515  1.00  0.00    -0.273 OA
BRANCH  20  23
HETATM   23  C3  UNL     1      -4.074  48.418 -25.757  1.00  0.00     0.148 C 
BRANCH  23  24
HETATM   24  C2  UNL     1      -4.586  48.713 -24.343  1.00  0.00     0.186 C 
BRANCH  24  25
HETATM   25  O1  UNL     1      -6.016  48.609 -24.293  1.00  0.00    -0.394 OA
HETATM   26  C1  UNL     1      -6.467  47.597 -23.400  1.00  0.00     0.201 C 
ENDBRANCH  24  25
ENDBRANCH  23  24
ENDBRANCH  20  23
ENDBRANCH  17  19
ENDBRANCH   1  17
BRANCH  16  27
HETATM   27  O4  UNL     1      -8.719  49.219 -28.291  1.00  0.00    -0.395 OA
HETATM   28  H35 UNL     1      -8.337  49.410 -27.416  1.00  0.00     0.210 HD
ENDBRANCH  16  27
BRANCH  11  29
HETATM   29  C16 UNL     1     -15.367  46.605 -25.413  1.00  0.00     0.240 C 
BRANCH  29  30
HETATM   30  O3  UNL     1     -15.202  46.250 -24.034  1.00  0.00    -0.345 OA
BRANCH  30  31
HETATM   31  C17 UNL     1     -16.285  46.317 -23.203  1.00  0.00     0.070 A 
HETATM   32  C18 UNL     1     -17.621  46.176 -23.581  1.00  0.00     0.037 A 
HETATM   33  C19 UNL     1     -18.636  46.264 -22.624  1.00  0.00     0.004 A 
HETATM   34  C20 UNL     1     -18.320  46.482 -21.284  1.00  0.00     0.024 A 
HETATM   35  C21 UNL     1     -16.984  46.601 -20.904  1.00  0.00     0.036 A 
HETATM   36 CL1  UNL     1     -16.589  46.857 -19.249  1.00  0.00    -0.084 Cl
HETATM   37  C22 UNL     1     -15.971  46.514 -21.856  1.00  0.00     0.060 A 
ENDBRANCH  30  31
ENDBRANCH  29  30
ENDBRANCH  11  29
TORSDOF 9
ENDMDL
MODEL 8
REMARK minimizedAffinity -7.24312735
REMARK CNNscore 0.257306635
REMARK CNNaffinity 6.39234781
REMARK  9 active torsions:
REMARK  status: ('A' for Active; 'I' for Inactive)
REMARK    1  A    between atoms: O1_2  and  C2_3 
REMARK    2  A    between atoms: C2_3  and  C3_4 
REMARK    3  A    between atoms: C3_4  and  N1_5 
REMARK       I    between atoms: N1_5  and  C4_6 
REMARK    4  A    between atoms: C4_6  and  C5_8 
REMARK    5  A    between atoms: C5_8  and  C7_10 
REMARK    6  A    between atoms: C15_20  and  C16_21 
REMARK    7  A    between atoms: C16_21  and  O3_22 
REMARK    8  A    between atoms: O3_22  and  C17_23 
REMARK    9  A    between atoms: C26_34  and  O4_35 
ROOT
HETATM    1  C7  UNL     1      -2.951  48.913 -24.369  1.00  0.00     0.027 C 
HETATM    2  C8  UNL     1      -4.345  48.418 -23.922  1.00  0.00     0.009 C 
HETATM    3  C9  UNL     1      -4.629  48.562 -22.427  1.00  0.00     0.010 C 
HETATM    4  C10 UNL     1      -3.422  48.269 -21.514  1.00  0.00    -0.033 C 
HETATM    5  C11 UNL     1      -3.017  46.778 -21.677  1.00  0.00     0.016 C 
HETATM    6  C12 UNL     1      -3.899  48.446 -20.032  1.00  0.00     0.058 C 
HETATM    7  C13 UNL     1      -2.738  48.693 -19.143  1.00  0.00     0.008 A 
HETATM    8  C14 UNL     1      -1.676  49.484 -19.503  1.00  0.00     0.027 A 
HETATM    9  N2  UNL     1      -0.680  49.604 -18.561  1.00  0.00    -0.354 N 
ATOM     10  H2  UNL     1       0.186  50.128 -18.682  1.00  0.00     0.166 HD
HETATM   11  C15 UNL     1      -1.023  48.933 -17.473  1.00  0.00     0.076 A 
HETATM   12  S1  UNL     1      -2.528  48.085 -17.578  1.00  0.00    -0.077 SA
HETATM   13  C23 UNL     1      -1.629  50.162 -20.836  1.00  0.00     0.040 C 
HETATM   14  C24 UNL     1      -2.364  51.505 -20.768  1.00  0.00     0.017 C 
HETATM   15  C25 UNL     1      -2.180  49.178 -21.934  1.00  0.00     0.033 C 
HETATM   16  C26 UNL     1      -2.377  49.878 -23.307  1.00  0.00     0.128 C 
ENDROOT
BRANCH   1  17
HETATM   17  C5  UNL     1      -2.999  49.512 -25.807  1.00  0.00     0.080 C 
HETATM   18  C6  UNL     1      -3.704  50.875 -25.866  1.00  0.00     0.020 C 
BRANCH  17  19
HETATM   19  C4  UNL     1      -3.685  48.612 -26.836  1.00  0.00     0.222 C 
HETATM   20  N1  UNL     1      -5.064  48.565 -26.746  1.00  0.00    -0.359 N 
HETATM   21  H8  UNL     1      -5.516  49.356 -26.305  1.00  0.00     0.162 HD
HETATM   22  O2  UNL     1      -3.055  48.029 -27.711  1.00  0.00    -0.273 OA
BRANCH  20  23
HETATM   23  C3  UNL     1      -5.837  47.936 -27.808  1.00  0.00     0.148 C 
BRANCH  23  24
HETATM   24  C2  UNL     1      -7.097  47.261 -27.255  1.00  0.00     0.186 C 
BRANCH  24  25
HETATM   25  O1  UNL     1      -8.275  47.847 -27.827  1.00  0.00    -0.394 OA
HETATM   26  C1  UNL     1      -8.057  48.367 -29.132  1.00  0.00     0.201 C 
ENDBRANCH  24  25
ENDBRANCH  23  24
ENDBRANCH  20  23
ENDBRANCH  17  19
ENDBRANCH   1  17
BRANCH  16  27
HETATM   27  O4  UNL     1      -1.125  50.421 -23.705  1.00  0.00    -0.395 OA
HETATM   28  H35 UNL     1      -0.542  49.699 -23.999  1.00  0.00     0.210 HD
ENDBRANCH  16  27
BRANCH  11  29
HETATM   29  C16 UNL     1      -0.197  48.842 -16.224  1.00  0.00     0.240 C 
BRANCH  29  30
HETATM   30  O3  UNL     1      -0.129  50.125 -15.591  1.00  0.00    -0.345 OA
BRANCH  30  31
HETATM   31  C17 UNL     1       1.044  50.506 -15.001  1.00  0.00     0.070 A 
HETATM   32  C18 UNL     1       1.539  50.041 -13.781  1.00  0.00     0.037 A 
HETATM   33  C19 UNL     1       2.760  50.514 -13.291  1.00  0.00     0.004 A 
HETATM   34  C20 UNL     1       3.497  51.444 -14.023  1.00  0.00     0.024 A 
HETATM   35  C21 UNL     1       3.012  51.891 -15.251  1.00  0.00     0.036 A 
HETATM   36 CL1  UNL     1       3.924  53.030 -16.163  1.00  0.00    -0.084 Cl
HETATM   37  C22 UNL     1       1.795  51.423 -15.741  1.00  0.00     0.060 A 
ENDBRANCH  30  31
ENDBRANCH  29  30
ENDBRANCH  11  29
TORSDOF 9
ENDMDL
MODEL 9
REMARK minimizedAffinity -8.94427586
REMARK CNNscore 0.227350205
REMARK CNNaffinity 7.04535437
REMARK  9 active torsions:
REMARK  status: ('A' for Active; 'I' for Inactive)
REMARK    1  A    between atoms: O1_2  and  C2_3 
REMARK    2  A    between atoms: C2_3  and  C3_4 
REMARK    3  A    between atoms: C3_4  and  N1_5 
REMARK       I    between atoms: N1_5  and  C4_6 
REMARK    4  A    between atoms: C4_6  and  C5_8 
REMARK    5  A    between atoms: C5_8  and  C7_10 
REMARK    6  A    between atoms: C15_20  and  C16_21 
REMARK    7  A    between atoms: C16_21  and  O3_22 
REMARK    8  A    between atoms: O3_22  and  C17_23 
REMARK    9  A    between atoms: C26_34  and  O4_35 
ROOT
HETATM    1  C7  UNL     1      -3.045  48.834 -25.547  1.00  0.00     0.027 C 
HETATM    2  C8  UNL     1      -4.275  48.565 -24.651  1.00  0.00     0.009 C 
HETATM    3  C9  UNL     1      -4.328  49.394 -23.368  1.00  0.00     0.010 C 
HETATM    4  C10 UNL     1      -2.961  49.612 -22.688  1.00  0.00    -0.033 C 
HETATM    5  C11 UNL     1      -2.403  48.238 -22.225  1.00  0.00     0.016 C 
HETATM    6  C12 UNL     1      -3.208  50.458 -21.393  1.00  0.00     0.058 C 
HETATM    7  C13 UNL     1      -1.959  51.138 -20.974  1.00  0.00     0.008 A 
HETATM    8  C14 UNL     1      -1.078  51.697 -21.866  1.00  0.00     0.027 A 
HETATM    9  N2  UNL     1       0.034  52.285 -21.308  1.00  0.00    -0.354 N 
ATOM     10  H2  UNL     1       0.797  52.718 -21.830  1.00  0.00     0.166 HD
HETATM   11  C15 UNL     1      -0.040  52.202 -19.990  1.00  0.00     0.076 A 
HETATM   12  S1  UNL     1      -1.423  51.356 -19.384  1.00  0.00    -0.077 SA
HETATM   13  C23 UNL     1      -1.334  51.659 -23.339  1.00  0.00     0.040 C 
HETATM   14  C24 UNL     1      -2.212  52.847 -23.750  1.00  0.00     0.017 C 
HETATM   15  C25 UNL     1      -1.928  50.253 -23.723  1.00  0.00     0.033 C 
HETATM   16  C26 UNL     1      -2.432  50.208 -25.191  1.00  0.00     0.128 C 
ENDROOT
BRANCH   1  17
HETATM   17  C5  UNL     1      -3.402  48.673 -27.057  1.00  0.00     0.080 C 
HETATM   18  C6  UNL     1      -3.268  49.983 -27.847  1.00  0.00     0.020 C 
BRANCH  17  19
HETATM   19  C4  UNL     1      -4.813  48.142 -27.312  1.00  0.00     0.222 C 
HETATM   20  N1  UNL     1      -5.113  47.889 -28.637  1.00  0.00    -0.359 N 
HETATM   21  H8  UNL     1      -4.330  47.713 -29.253  1.00  0.00     0.162 HD
HETATM   22  O2  UNL     1      -5.591  47.902 -26.395  1.00  0.00    -0.273 OA
BRANCH  20  23
HETATM   23  C3  UNL     1      -6.330  47.165 -28.977  1.00  0.00     0.148 C 
BRANCH  23  24
HETATM   24  C2  UNL     1      -7.424  48.118 -29.475  1.00  0.00     0.186 C 
BRANCH  24  25
HETATM   25  O1  UNL     1      -7.088  48.639 -30.769  1.00  0.00    -0.394 OA
HETATM   26  C1  UNL     1      -7.006  47.630 -31.767  1.00  0.00     0.201 C 
ENDBRANCH  24  25
ENDBRANCH  23  24
ENDBRANCH  20  23
ENDBRANCH  17  19
ENDBRANCH   1  17
BRANCH  16  27
HETATM   27  O4  UNL     1      -1.341  50.537 -26.039  1.00  0.00    -0.395 OA
HETATM   28  H35 UNL     1      -0.727  49.782 -26.079  1.00  0.00     0.210 HD
ENDBRANCH  16  27
BRANCH  11  29
HETATM   29  C16 UNL     1       0.983  52.745 -19.036  1.00  0.00     0.240 C 
BRANCH  29  30
HETATM   30  O3  UNL     1       0.608  52.430 -17.690  1.00  0.00    -0.345 OA
BRANCH  30  31
HETATM   31  C17 UNL     1       1.593  52.202 -16.769  1.00  0.00     0.070 A 
HETATM   32  C18 UNL     1       2.860  52.788 -16.758  1.00  0.00     0.037 A 
HETATM   33  C19 UNL     1       3.775  52.467 -15.751  1.00  0.00     0.004 A 
HETATM   34  C20 UNL     1       3.424  51.569 -14.745  1.00  0.00     0.024 A 
HETATM   35  C21 UNL     1       2.151  51.001 -14.744  1.00  0.00     0.036 A 
HETATM   36 CL1  UNL     1       1.709  49.901 -13.497  1.00  0.00    -0.084 Cl
HETATM   37  C22 UNL     1       1.238  51.318 -15.747  1.00  0.00     0.060 A 
ENDBRANCH  30  31
ENDBRANCH  29  30
ENDBRANCH  11  29
TORSDOF 9
ENDMDL
