MODEL 1
REMARK minimizedAffinity -8.68034744
REMARK  5 active torsions:
REMARK  status: ('A' for Active; 'I' for Inactive)
REMARK    1  A    between atoms: C2_2  and  C4_4 
REMARK    2  A    between atoms: C7_7  and  C8_8 
REMARK    3  A    between atoms: C8_8  and  O2_10 
REMARK    4  A    between atoms: C11_13  and  C12_14 
REMARK    5  A    between atoms: C12_14  and  O4_16 
ROOT
HETATM    1  C4  UNL     1      -6.420   4.706  12.488  1.00  0.00     0.019 C 
HETATM    2  C5  UNL     1      -6.243   3.264  12.966  1.00  0.00     0.011 C 
HETATM    3  C6  UNL     1      -4.980   2.826  12.236  1.00  0.00     0.021 C 
HETATM    4  C7  UNL     1      -4.016   4.030  12.356  1.00  0.00     0.050 C 
HETATM    5  C9  UNL     1      -3.142   3.860  13.611  1.00  0.00     0.022 C 
HETATM    6  C10 UNL     1      -2.470   5.148  14.083  1.00  0.00     0.023 C 
HETATM    7  C11 UNL     1      -3.439   6.332  14.332  1.00  0.00     0.057 C 
HETATM    8  C13 UNL     1      -4.393   6.531  13.105  1.00  0.00     0.011 C 
HETATM    9  C14 UNL     1      -5.378   7.683  13.342  1.00  0.00     0.007 C 
HETATM   10  C15 UNL     1      -4.691   9.008  13.698  1.00  0.00     0.006 C 
HETATM   11  C16 UNL     1      -3.672   8.879  14.856  1.00  0.00     0.003 C 
HETATM   12  C17 UNL     1      -3.087  10.257  15.400  1.00  0.00    -0.035 C 
HETATM   13  C18 UNL     1      -2.363  11.056  14.291  1.00  0.00     0.016 C 
HETATM   14  C19 UNL     1      -4.271  11.129  15.921  1.00  0.00     0.017 C 
HETATM   15  C20 UNL     1      -3.852  12.367  16.701  1.00  0.00     0.080 C 
HETATM   16  C21 UNL     1      -2.912  12.028  17.830  1.00  0.00     0.135 C 
HETATM   17  O5  UNL     1      -3.078  12.546  18.936  1.00  0.00    -0.297 OA
HETATM   18  C22 UNL     1      -1.702  11.134  17.512  1.00  0.00     0.017 C 
HETATM   19  C23 UNL     1      -0.614  12.005  16.867  1.00  0.00     0.023 C 
HETATM   20  C24 UNL     1      -1.135  10.621  18.861  1.00  0.00     0.023 C 
HETATM   21  C25 UNL     1      -2.180   9.918  16.643  1.00  0.00     0.009 C 
HETATM   22  C26 UNL     1      -1.049   8.943  16.257  1.00  0.00     0.007 C 
HETATM   23  C27 UNL     1      -1.592   7.612  15.730  1.00  0.00     0.011 C 
HETATM   24  C28 UNL     1      -2.618   7.736  14.564  1.00  0.00    -0.022 C 
HETATM   25  C29 UNL     1      -1.757   8.091  13.306  1.00  0.00     0.017 C 
HETATM   26  C30 UNL     1      -4.967   5.280  12.366  1.00  0.00     0.018 C 
ENDROOT
BRANCH   4  27
HETATM   27  C8  UNL     1      -3.080   4.086  11.149  1.00  0.00     0.149 C 
HETATM   28  O1  UNL     1      -1.907   4.427  11.156  1.00  0.00    -0.649 OA
BRANCH  27  29
HETATM   29  O2  UNL     1      -3.637   3.635  10.009  1.00  0.00    -0.776 OA
HETATM   30  H11 UNL     1      -2.913   3.697   9.351  1.00  0.00     0.167 HD
ENDBRANCH  27  29
ENDBRANCH   4  27
BRANCH   1  31
HETATM   31  C2  UNL     1      -7.599   5.480  13.048  1.00  0.00    -0.088 C 
HETATM   32  C1  UNL     1      -8.463   6.091  12.214  1.00  0.00     0.014 C 
HETATM   33  C3  UNL     1      -7.885   5.474  14.524  1.00  0.00     0.043 C 
ENDBRANCH   1  31
BRANCH   7  34
HETATM   34  C12 UNL     1      -4.249   5.973  15.606  1.00  0.00     0.149 C 
HETATM   35  O3  UNL     1      -5.455   6.023  15.781  1.00  0.00    -0.649 OA
BRANCH  34  36
HETATM   36  O4  UNL     1      -3.493   5.608  16.651  1.00  0.00    -0.776 OA
HETATM   37  H16 UNL     1      -4.153   5.458  17.362  1.00  0.00     0.167 HD
ENDBRANCH  34  36
ENDBRANCH   7  34
TORSDOF 5
ENDMDL
MODEL 2
REMARK minimizedAffinity -7.93157434
REMARK  5 active torsions:
REMARK  status: ('A' for Active; 'I' for Inactive)
REMARK    1  A    between atoms: C2_2  and  C4_4 
REMARK    2  A    between atoms: C7_7  and  C8_8 
REMARK    3  A    between atoms: C8_8  and  O2_10 
REMARK    4  A    between atoms: C11_13  and  C12_14 
REMARK    5  A    between atoms: C12_14  and  O4_16 
ROOT
HETATM    1  C4  UNL     1      -2.981   6.665  12.871  1.00  0.00     0.019 C 
HETATM    2  C5  UNL     1      -2.817   5.165  13.122  1.00  0.00     0.011 C 
HETATM    3  C6  UNL     1      -1.700   4.789  12.157  1.00  0.00     0.021 C 
HETATM    4  C7  UNL     1      -0.663   5.929  12.288  1.00  0.00     0.050 C 
HETATM    5  C9  UNL     1       0.374   5.555  13.361  1.00  0.00     0.022 C 
HETATM    6  C10 UNL     1       1.177   6.740  13.893  1.00  0.00     0.023 C 
HETATM    7  C11 UNL     1       0.322   7.911  14.441  1.00  0.00     0.057 C 
HETATM    8  C13 UNL     1      -0.788   8.313  13.411  1.00  0.00     0.011 C 
HETATM    9  C14 UNL     1      -1.662   9.454  13.945  1.00  0.00     0.007 C 
HETATM   10  C15 UNL     1      -0.858  10.692  14.365  1.00  0.00     0.006 C 
HETATM   11  C16 UNL     1       0.310  10.367  15.328  1.00  0.00     0.003 C 
HETATM   12  C17 UNL     1       1.043  11.634  15.955  1.00  0.00    -0.035 C 
HETATM   13  C18 UNL     1       1.642  12.554  14.865  1.00  0.00     0.016 C 
HETATM   14  C19 UNL     1      -0.002  12.466  16.761  1.00  0.00     0.017 C 
HETATM   15  C20 UNL     1       0.595  13.567  17.626  1.00  0.00     0.080 C 
HETATM   16  C21 UNL     1       1.669  13.041  18.544  1.00  0.00     0.135 C 
HETATM   17  O5  UNL     1       1.695  13.404  19.721  1.00  0.00    -0.297 OA
HETATM   18  C22 UNL     1       2.768  12.158  17.929  1.00  0.00     0.017 C 
HETATM   19  C23 UNL     1       3.798  13.072  17.249  1.00  0.00     0.023 C 
HETATM   20  C24 UNL     1       3.496  11.442  19.097  1.00  0.00     0.023 C 
HETATM   21  C25 UNL     1       2.102  11.093  16.989  1.00  0.00     0.009 C 
HETATM   22  C26 UNL     1       3.108  10.143  16.311  1.00  0.00     0.007 C 
HETATM   23  C27 UNL     1       2.422   8.918  15.700  1.00  0.00     0.011 C 
HETATM   24  C28 UNL     1       1.245   9.239  14.730  1.00  0.00    -0.022 C 
HETATM   25  C29 UNL     1       1.932   9.736  13.414  1.00  0.00     0.017 C 
HETATM   26  C30 UNL     1      -1.531   7.198  12.607  1.00  0.00     0.018 C 
ENDROOT
BRANCH   4  27
HETATM   27  C8  UNL     1       0.089   6.121  10.971  1.00  0.00     0.149 C 
HETATM   28  O1  UNL     1       0.083   7.121  10.271  1.00  0.00    -0.649 OA
BRANCH  27  29
HETATM   29  O2  UNL     1       0.876   5.079  10.640  1.00  0.00    -0.776 OA
HETATM   30  H11 UNL     1       1.312   5.366   9.810  1.00  0.00     0.167 HD
ENDBRANCH  27  29
ENDBRANCH   4  27
BRANCH   1  31
HETATM   31  C2  UNL     1      -4.021   7.393  13.702  1.00  0.00    -0.088 C 
HETATM   32  C1  UNL     1      -4.757   8.377  13.149  1.00  0.00     0.014 C 
HETATM   33  C3  UNL     1      -4.326   6.950  15.106  1.00  0.00     0.043 C 
ENDBRANCH   1  31
BRANCH   7  34
HETATM   34  C12 UNL     1      -0.312   7.407  15.764  1.00  0.00     0.149 C 
HETATM   35  O3  UNL     1      -1.437   7.605  16.193  1.00  0.00    -0.649 OA
BRANCH  34  36
HETATM   36  O4  UNL     1       0.524   6.701  16.539  1.00  0.00    -0.776 OA
HETATM   37  H16 UNL     1      -0.021   6.500  17.330  1.00  0.00     0.167 HD
ENDBRANCH  34  36
ENDBRANCH   7  34
TORSDOF 5
ENDMDL
MODEL 3
REMARK minimizedAffinity -7.89406919
REMARK  5 active torsions:
REMARK  status: ('A' for Active; 'I' for Inactive)
REMARK    1  A    between atoms: C2_2  and  C4_4 
REMARK    2  A    between atoms: C7_7  and  C8_8 
REMARK    3  A    between atoms: C8_8  and  O2_10 
REMARK    4  A    between atoms: C11_13  and  C12_14 
REMARK    5  A    between atoms: C12_14  and  O4_16 
ROOT
HETATM    1  C4  UNL     1      -1.895   4.937  13.118  1.00  0.00     0.019 C 
HETATM    2  C5  UNL     1      -3.041   5.095  12.117  1.00  0.00     0.011 C 
HETATM    3  C6  UNL     1      -4.221   5.437  13.017  1.00  0.00     0.021 C 
HETATM    4  C7  UNL     1      -3.659   6.453  14.039  1.00  0.00     0.050 C 
HETATM    5  C9  UNL     1      -3.871   7.881  13.510  1.00  0.00     0.022 C 
HETATM    6  C10 UNL     1      -2.998   8.935  14.187  1.00  0.00     0.023 C 
HETATM    7  C11 UNL     1      -1.477   8.636  14.157  1.00  0.00     0.057 C 
HETATM    8  C13 UNL     1      -1.194   7.173  14.644  1.00  0.00     0.011 C 
HETATM    9  C14 UNL     1       0.304   6.847  14.597  1.00  0.00     0.007 C 
HETATM   10  C15 UNL     1       1.169   7.843  15.383  1.00  0.00     0.006 C 
HETATM   11  C16 UNL     1       0.893   9.320  15.013  1.00  0.00     0.003 C 
HETATM   12  C17 UNL     1       1.903  10.377  15.645  1.00  0.00    -0.035 C 
HETATM   13  C18 UNL     1       1.902  10.325  17.191  1.00  0.00     0.016 C 
HETATM   14  C19 UNL     1       3.345  10.040  15.156  1.00  0.00     0.017 C 
HETATM   15  C20 UNL     1       4.386  11.106  15.469  1.00  0.00     0.080 C 
HETATM   16  C21 UNL     1       3.966  12.465  14.970  1.00  0.00     0.135 C 
HETATM   17  O5  UNL     1       4.786  13.180  14.391  1.00  0.00    -0.297 OA
HETATM   18  C22 UNL     1       2.549  12.951  15.319  1.00  0.00     0.017 C 
HETATM   19  C23 UNL     1       2.562  13.483  16.760  1.00  0.00     0.023 C 
HETATM   20  C24 UNL     1       2.228  14.152  14.393  1.00  0.00     0.023 C 
HETATM   21  C25 UNL     1       1.530  11.788  15.051  1.00  0.00     0.009 C 
HETATM   22  C26 UNL     1       0.067  12.156  15.365  1.00  0.00     0.007 C 
HETATM   23  C27 UNL     1      -0.921  11.150  14.766  1.00  0.00     0.011 C 
HETATM   24  C28 UNL     1      -0.648   9.661  15.136  1.00  0.00    -0.022 C 
HETATM   25  C29 UNL     1      -1.124   9.520  16.620  1.00  0.00     0.017 C 
HETATM   26  C30 UNL     1      -2.159   6.021  14.219  1.00  0.00     0.018 C 
ENDROOT
BRANCH   4  27
HETATM   27  C8  UNL     1      -4.405   6.341  15.369  1.00  0.00     0.149 C 
HETATM   28  O1  UNL     1      -5.614   6.388  15.529  1.00  0.00    -0.649 OA
BRANCH  27  29
HETATM   29  O2  UNL     1      -3.602   6.094  16.422  1.00  0.00    -0.776 OA
HETATM   30  H11 UNL     1      -4.220   6.013  17.178  1.00  0.00     0.167 HD
ENDBRANCH  27  29
ENDBRANCH   4  27
BRANCH   1  31
HETATM   31  C2  UNL     1      -0.526   4.610  12.553  1.00  0.00    -0.088 C 
HETATM   32  C1  UNL     1       0.520   5.421  12.807  1.00  0.00     0.014 C 
HETATM   33  C3  UNL     1      -0.293   3.325  11.808  1.00  0.00     0.043 C 
ENDBRANCH   1  31
BRANCH   7  34
HETATM   34  C12 UNL     1      -1.024   8.823  12.685  1.00  0.00     0.149 C 
HETATM   35  O3  UNL     1      -1.679   9.205  11.729  1.00  0.00    -0.649 OA
BRANCH  34  36
HETATM   36  O4  UNL     1       0.247   8.465  12.453  1.00  0.00    -0.776 OA
HETATM   37  H16 UNL     1       0.347   8.611  11.488  1.00  0.00     0.167 HD
ENDBRANCH  34  36
ENDBRANCH   7  34
TORSDOF 5
ENDMDL
MODEL 4
REMARK minimizedAffinity -7.88699961
REMARK  5 active torsions:
REMARK  status: ('A' for Active; 'I' for Inactive)
REMARK    1  A    between atoms: C2_2  and  C4_4 
REMARK    2  A    between atoms: C7_7  and  C8_8 
REMARK    3  A    between atoms: C8_8  and  O2_10 
REMARK    4  A    between atoms: C11_13  and  C12_14 
REMARK    5  A    between atoms: C12_14  and  O4_16 
ROOT
HETATM    1  C4  UNL     1       6.457  11.045  16.742  1.00  0.00     0.019 C 
HETATM    2  C5  UNL     1       7.696  11.902  16.481  1.00  0.00     0.011 C 
HETATM    3  C6  UNL     1       8.802  10.860  16.372  1.00  0.00     0.021 C 
HETATM    4  C7  UNL     1       8.193   9.724  15.517  1.00  0.00     0.050 C 
HETATM    5  C9  UNL     1       8.516   9.972  14.034  1.00  0.00     0.022 C 
HETATM    6  C10 UNL     1       7.632   9.193  13.063  1.00  0.00     0.023 C 
HETATM    7  C11 UNL     1       6.108   9.402  13.262  1.00  0.00     0.057 C 
HETATM    8  C13 UNL     1       5.717   9.209  14.766  1.00  0.00     0.011 C 
HETATM    9  C14 UNL     1       4.217   9.437  14.989  1.00  0.00     0.007 C 
HETATM   10  C15 UNL     1       3.328   8.562  14.095  1.00  0.00     0.006 C 
HETATM   11  C16 UNL     1       3.702   8.639  12.595  1.00  0.00     0.003 C 
HETATM   12  C17 UNL     1       2.685   7.915  11.605  1.00  0.00    -0.035 C 
HETATM   13  C18 UNL     1       2.541   6.408  11.924  1.00  0.00     0.016 C 
HETATM   14  C19 UNL     1       1.281   8.574  11.766  1.00  0.00     0.017 C 
HETATM   15  C20 UNL     1       0.263   8.164  10.710  1.00  0.00     0.080 C 
HETATM   16  C21 UNL     1       0.788   8.376   9.313  1.00  0.00     0.135 C 
HETATM   17  O5  UNL     1       0.057   8.885   8.460  1.00  0.00    -0.297 OA
HETATM   18  C22 UNL     1       2.187   7.830   8.980  1.00  0.00     0.017 C 
HETATM   19  C23 UNL     1       2.064   6.324   8.706  1.00  0.00     0.023 C 
HETATM   20  C24 UNL     1       2.644   8.498   7.658  1.00  0.00     0.023 C 
HETATM   21  C25 UNL     1       3.173   8.215  10.138  1.00  0.00     0.009 C 
HETATM   22  C26 UNL     1       4.616   7.720   9.918  1.00  0.00     0.007 C 
HETATM   23  C27 UNL     1       5.610   8.403  10.862  1.00  0.00     0.011 C 
HETATM   24  C28 UNL     1       5.238   8.329  12.373  1.00  0.00    -0.022 C 
HETATM   25  C29 UNL     1       5.569   6.859  12.798  1.00  0.00     0.017 C 
HETATM   26  C30 UNL     1       6.665   9.750  15.884  1.00  0.00     0.018 C 
ENDROOT
BRANCH   4  27
HETATM   27  C8  UNL     1       8.807   8.378  15.902  1.00  0.00     0.149 C 
HETATM   28  O1  UNL     1       9.206   8.053  17.009  1.00  0.00    -0.649 OA
BRANCH  27  29
HETATM   29  O2  UNL     1       8.813   7.479  14.900  1.00  0.00    -0.776 OA
HETATM   30  H11 UNL     1       9.193   6.672  15.307  1.00  0.00     0.167 HD
ENDBRANCH  27  29
ENDBRANCH   4  27
BRANCH   1  31
HETATM   31  C2  UNL     1       5.132  11.771  16.883  1.00  0.00    -0.088 C 
HETATM   32  C1  UNL     1       4.130  11.522  16.017  1.00  0.00     0.014 C 
HETATM   33  C3  UNL     1       4.881  12.681  18.053  1.00  0.00     0.043 C 
ENDBRANCH   1  31
BRANCH   7  34
HETATM   34  C12 UNL     1       5.802  10.850  12.795  1.00  0.00     0.149 C 
HETATM   35  O3  UNL     1       5.862  11.886  13.437  1.00  0.00    -0.649 OA
BRANCH  34  36
HETATM   36  O4  UNL     1       5.373  10.939  11.528  1.00  0.00    -0.776 OA
HETATM   37  H16 UNL     1       5.197  11.897  11.419  1.00  0.00     0.167 HD
ENDBRANCH  34  36
ENDBRANCH   7  34
TORSDOF 5
ENDMDL
MODEL 5
REMARK minimizedAffinity -7.76172161
REMARK  5 active torsions:
REMARK  status: ('A' for Active; 'I' for Inactive)
REMARK    1  A    between atoms: C2_2  and  C4_4 
REMARK    2  A    between atoms: C7_7  and  C8_8 
REMARK    3  A    between atoms: C8_8  and  O2_10 
REMARK    4  A    between atoms: C11_13  and  C12_14 
REMARK    5  A    between atoms: C12_14  and  O4_16 
ROOT
HETATM    1  C4  UNL     1      -0.586   8.931  13.371  1.00  0.00     0.019 C 
HETATM    2  C5  UNL     1      -1.163   7.523  13.218  1.00  0.00     0.011 C 
HETATM    3  C6  UNL     1      -0.823   7.181  11.774  1.00  0.00     0.021 C 
HETATM    4  C7  UNL     1       0.629   7.678  11.580  1.00  0.00     0.050 C 
HETATM    5  C9  UNL     1       1.607   6.534  11.898  1.00  0.00     0.022 C 
HETATM    6  C10 UNL     1       3.038   6.992  12.168  1.00  0.00     0.023 C 
HETATM    7  C11 UNL     1       3.178   8.065  13.279  1.00  0.00     0.057 C 
HETATM    8  C13 UNL     1       2.173   9.242  13.038  1.00  0.00     0.011 C 
HETATM    9  C14 UNL     1       2.277  10.303  14.141  1.00  0.00     0.007 C 
HETATM   10  C15 UNL     1       3.698  10.851  14.327  1.00  0.00     0.006 C 
HETATM   11  C16 UNL     1       4.766   9.743  14.496  1.00  0.00     0.003 C 
HETATM   12  C17 UNL     1       6.219  10.257  14.897  1.00  0.00    -0.035 C 
HETATM   13  C18 UNL     1       6.795  11.238  13.848  1.00  0.00     0.016 C 
HETATM   14  C19 UNL     1       6.121  11.015  16.256  1.00  0.00     0.017 C 
HETATM   15  C20 UNL     1       7.462  11.347  16.896  1.00  0.00     0.080 C 
HETATM   16  C21 UNL     1       8.335  10.126  17.036  1.00  0.00     0.135 C 
HETATM   17  O5  UNL     1       8.951   9.936  18.087  1.00  0.00    -0.297 OA
HETATM   18  C22 UNL     1       8.514   9.227  15.801  1.00  0.00     0.017 C 
HETATM   19  C23 UNL     1       9.562   9.871  14.882  1.00  0.00     0.023 C 
HETATM   20  C24 UNL     1       9.104   7.879  16.290  1.00  0.00     0.023 C 
HETATM   21  C25 UNL     1       7.112   8.982  15.140  1.00  0.00     0.009 C 
HETATM   22  C26 UNL     1       7.162   8.089  13.885  1.00  0.00     0.007 C 
HETATM   23  C27 UNL     1       5.773   7.585  13.482  1.00  0.00     0.011 C 
HETATM   24  C28 UNL     1       4.694   8.696  13.311  1.00  0.00    -0.022 C 
HETATM   25  C29 UNL     1       5.038   9.385  11.948  1.00  0.00     0.017 C 
HETATM   26  C30 UNL     1       0.732   8.930  12.522  1.00  0.00     0.018 C 
ENDROOT
BRANCH   4  27
HETATM   27  C8  UNL     1       0.863   8.089  10.126  1.00  0.00     0.149 C 
HETATM   28  O1  UNL     1       0.154   8.823   9.457  1.00  0.00    -0.649 OA
BRANCH  27  29
HETATM   29  O2  UNL     1       2.017   7.625   9.611  1.00  0.00    -0.776 OA
HETATM   30  H11 UNL     1       2.040   8.000   8.705  1.00  0.00     0.167 HD
ENDBRANCH  27  29
ENDBRANCH   4  27
BRANCH   1  31
HETATM   31  C2  UNL     1      -0.726   9.591  14.729  1.00  0.00    -0.088 C 
HETATM   32  C1  UNL     1      -1.213  10.844  14.824  1.00  0.00     0.014 C 
HETATM   33  C3  UNL     1      -0.440   8.819  15.987  1.00  0.00     0.043 C 
ENDBRANCH   1  31
BRANCH   7  34
HETATM   34  C12 UNL     1       2.873   7.347  14.620  1.00  0.00     0.149 C 
HETATM   35  O3  UNL     1       3.368   7.541  15.718  1.00  0.00    -0.649 OA
BRANCH  34  36
HETATM   36  O4  UNL     1       1.977   6.354  14.520  1.00  0.00    -0.776 OA
HETATM   37  H16 UNL     1       1.936   5.997  15.432  1.00  0.00     0.167 HD
ENDBRANCH  34  36
ENDBRANCH   7  34
TORSDOF 5
ENDMDL
MODEL 6
REMARK minimizedAffinity -7.65247965
REMARK  5 active torsions:
REMARK  status: ('A' for Active; 'I' for Inactive)
REMARK    1  A    between atoms: C2_2  and  C4_4 
REMARK    2  A    between atoms: C7_7  and  C8_8 
REMARK    3  A    between atoms: C8_8  and  O2_10 
REMARK    4  A    between atoms: C11_13  and  C12_14 
REMARK    5  A    between atoms: C12_14  and  O4_16 
ROOT
HETATM    1  C4  UNL     1       6.278   8.518  13.308  1.00  0.00     0.019 C 
HETATM    2  C5  UNL     1       6.773   9.341  12.117  1.00  0.00     0.011 C 
HETATM    3  C6  UNL     1       6.824   8.307  11.000  1.00  0.00     0.021 C 
HETATM    4  C7  UNL     1       5.522   7.488  11.158  1.00  0.00     0.050 C 
HETATM    5  C9  UNL     1       4.415   8.115  10.293  1.00  0.00     0.022 C 
HETATM    6  C10 UNL     1       3.001   7.686  10.679  1.00  0.00     0.023 C 
HETATM    7  C11 UNL     1       2.635   7.921  12.167  1.00  0.00     0.057 C 
HETATM    8  C13 UNL     1       3.748   7.344  13.106  1.00  0.00     0.011 C 
HETATM    9  C14 UNL     1       3.418   7.589  14.584  1.00  0.00     0.007 C 
HETATM   10  C15 UNL     1       2.043   7.047  14.999  1.00  0.00     0.006 C 
HETATM   11  C16 UNL     1       0.895   7.512  14.070  1.00  0.00     0.003 C 
HETATM   12  C17 UNL     1      -0.572   7.150  14.573  1.00  0.00    -0.035 C 
HETATM   13  C18 UNL     1      -0.764   5.624  14.745  1.00  0.00     0.016 C 
HETATM   14  C19 UNL     1      -0.801   7.819  15.963  1.00  0.00     0.017 C 
HETATM   15  C20 UNL     1      -2.240   7.776  16.459  1.00  0.00     0.080 C 
HETATM   16  C21 UNL     1      -3.202   8.334  15.441  1.00  0.00     0.135 C 
HETATM   17  O5  UNL     1      -4.096   9.100  15.805  1.00  0.00    -0.297 OA
HETATM   18  C22 UNL     1      -3.095   7.820  13.995  1.00  0.00     0.017 C 
HETATM   19  C23 UNL     1      -3.799   6.458  13.914  1.00  0.00     0.023 C 
HETATM   20  C24 UNL     1      -3.891   8.799  13.094  1.00  0.00     0.023 C 
HETATM   21  C25 UNL     1      -1.586   7.813  13.566  1.00  0.00     0.009 C 
HETATM   22  C26 UNL     1      -1.348   7.315  12.127  1.00  0.00     0.007 C 
HETATM   23  C27 UNL     1       0.058   7.653  11.625  1.00  0.00     0.011 C 
HETATM   24  C28 UNL     1       1.218   7.187  12.555  1.00  0.00    -0.022 C 
HETATM   25  C29 UNL     1       1.315   5.640  12.335  1.00  0.00     0.017 C 
HETATM   26  C30 UNL     1       5.250   7.500  12.705  1.00  0.00     0.018 C 
ENDROOT
BRANCH   4  27
HETATM   27  C8  UNL     1       5.729   6.054  10.669  1.00  0.00     0.149 C 
HETATM   28  O1  UNL     1       6.780   5.434  10.665  1.00  0.00    -0.649 OA
BRANCH  27  29
HETATM   29  O2  UNL     1       4.592   5.443  10.285  1.00  0.00    -0.776 OA
HETATM   30  H11 UNL     1       4.880   4.538  10.042  1.00  0.00     0.167 HD
ENDBRANCH  27  29
ENDBRANCH   4  27
BRANCH   1  31
HETATM   31  C2  UNL     1       6.083   9.253  14.621  1.00  0.00    -0.088 C 
HETATM   32  C1  UNL     1       5.365  10.393  14.655  1.00  0.00     0.014 C 
HETATM   33  C3  UNL     1       6.580   8.661  15.910  1.00  0.00     0.043 C 
ENDBRANCH   1  31
BRANCH   7  34
HETATM   34  C12 UNL     1       2.505   9.456  12.347  1.00  0.00     0.149 C 
HETATM   35  O3  UNL     1       3.334  10.323  12.123  1.00  0.00    -0.649 OA
BRANCH  34  36
HETATM   36  O4  UNL     1       1.331   9.851  12.863  1.00  0.00    -0.776 OA
HETATM   37  H16 UNL     1       1.437  10.823  12.941  1.00  0.00     0.167 HD
ENDBRANCH  34  36
ENDBRANCH   7  34
TORSDOF 5
ENDMDL
MODEL 7
REMARK minimizedAffinity -7.57939434
REMARK  5 active torsions:
REMARK  status: ('A' for Active; 'I' for Inactive)
REMARK    1  A    between atoms: C2_2  and  C4_4 
REMARK    2  A    between atoms: C7_7  and  C8_8 
REMARK    3  A    between atoms: C8_8  and  O2_10 
REMARK    4  A    between atoms: C11_13  and  C12_14 
REMARK    5  A    between atoms: C12_14  and  O4_16 
ROOT
HETATM    1  C4  UNL     1      -2.977   4.382  12.727  1.00  0.00     0.019 C 
HETATM    2  C5  UNL     1      -4.264   4.897  12.080  1.00  0.00     0.011 C 
HETATM    3  C6  UNL     1      -5.055   5.404  13.279  1.00  0.00     0.021 C 
HETATM    4  C7  UNL     1      -4.020   6.156  14.147  1.00  0.00     0.050 C 
HETATM    5  C9  UNL     1      -4.002   7.642  13.749  1.00  0.00     0.022 C 
HETATM    6  C10 UNL     1      -2.754   8.396  14.203  1.00  0.00     0.023 C 
HETATM    7  C11 UNL     1      -1.413   7.763  13.751  1.00  0.00     0.057 C 
HETATM    8  C13 UNL     1      -1.384   6.233  14.088  1.00  0.00     0.011 C 
HETATM    9  C14 UNL     1      -0.074   5.582  13.625  1.00  0.00     0.007 C 
HETATM   10  C15 UNL     1       1.179   6.270  14.184  1.00  0.00     0.006 C 
HETATM   11  C16 UNL     1       1.190   7.802  13.957  1.00  0.00     0.003 C 
HETATM   12  C17 UNL     1       2.555   8.532  14.331  1.00  0.00    -0.035 C 
HETATM   13  C18 UNL     1       2.934   8.325  15.817  1.00  0.00     0.016 C 
HETATM   14  C19 UNL     1       3.698   7.927  13.458  1.00  0.00     0.017 C 
HETATM   15  C20 UNL     1       5.013   8.691  13.517  1.00  0.00     0.080 C 
HETATM   16  C21 UNL     1       4.827  10.154  13.202  1.00  0.00     0.135 C 
HETATM   17  O5  UNL     1       5.623  10.719  12.449  1.00  0.00    -0.297 OA
HETATM   18  C22 UNL     1       3.710  10.911  13.939  1.00  0.00     0.017 C 
HETATM   19  C23 UNL     1       4.219  11.277  15.341  1.00  0.00     0.023 C 
HETATM   20  C24 UNL     1       3.470  12.241  13.179  1.00  0.00     0.023 C 
HETATM   21  C25 UNL     1       2.403  10.043  13.914  1.00  0.00     0.009 C 
HETATM   22  C26 UNL     1       1.204  10.700  14.626  1.00  0.00     0.007 C 
HETATM   23  C27 UNL     1      -0.119  10.011  14.280  1.00  0.00     0.011 C 
HETATM   24  C28 UNL     1      -0.136   8.469  14.506  1.00  0.00    -0.022 C 
HETATM   25  C29 UNL     1      -0.240   8.290  16.058  1.00  0.00     0.017 C 
HETATM   26  C30 UNL     1      -2.678   5.379  13.898  1.00  0.00     0.018 C 
ENDROOT
BRANCH   4  27
HETATM   27  C8  UNL     1      -4.408   6.083  15.624  1.00  0.00     0.149 C 
HETATM   28  O1  UNL     1      -5.541   6.067  16.077  1.00  0.00    -0.649 OA
BRANCH  27  29
HETATM   29  O2  UNL     1      -3.356   5.950  16.454  1.00  0.00    -0.776 OA
HETATM   30  H11 UNL     1      -3.763   5.878  17.344  1.00  0.00     0.167 HD
ENDBRANCH  27  29
ENDBRANCH   4  27
BRANCH   1  31
HETATM   31  C2  UNL     1      -1.920   3.811  11.800  1.00  0.00    -0.088 C 
HETATM   32  C1  UNL     1      -0.851   3.168  12.310  1.00  0.00     0.014 C 
HETATM   33  C3  UNL     1      -2.109   3.850  10.309  1.00  0.00     0.043 C 
ENDBRANCH   1  31
BRANCH   7  34
HETATM   34  C12 UNL     1      -1.317   7.991  12.219  1.00  0.00     0.149 C 
HETATM   35  O3  UNL     1      -0.844   7.256  11.368  1.00  0.00    -0.649 OA
BRANCH  34  36
HETATM   36  O4  UNL     1      -1.780   9.182  11.812  1.00  0.00    -0.776 OA
HETATM   37  H16 UNL     1      -1.610   9.168  10.846  1.00  0.00     0.167 HD
ENDBRANCH  34  36
ENDBRANCH   7  34
TORSDOF 5
ENDMDL
MODEL 8
REMARK minimizedAffinity -7.4830842
REMARK  5 active torsions:
REMARK  status: ('A' for Active; 'I' for Inactive)
REMARK    1  A    between atoms: C2_2  and  C4_4 
REMARK    2  A    between atoms: C7_7  and  C8_8 
REMARK    3  A    between atoms: C8_8  and  O2_10 
REMARK    4  A    between atoms: C11_13  and  C12_14 
REMARK    5  A    between atoms: C12_14  and  O4_16 
ROOT
HETATM    1  C4  UNL     1      -2.877   6.505  13.555  1.00  0.00     0.019 C 
HETATM    2  C5  UNL     1      -3.976   7.478  13.123  1.00  0.00     0.011 C 
HETATM    3  C6  UNL     1      -4.206   8.298  14.386  1.00  0.00     0.021 C 
HETATM    4  C7  UNL     1      -2.789   8.591  14.932  1.00  0.00     0.050 C 
HETATM    5  C9  UNL     1      -2.289   9.929  14.361  1.00  0.00     0.022 C 
HETATM    6  C10 UNL     1      -0.778  10.126  14.461  1.00  0.00     0.023 C 
HETATM    7  C11 UNL     1       0.068   8.991  13.829  1.00  0.00     0.057 C 
HETATM    8  C13 UNL     1      -0.422   7.591  14.335  1.00  0.00     0.011 C 
HETATM    9  C14 UNL     1       0.386   6.451  13.702  1.00  0.00     0.007 C 
HETATM   10  C15 UNL     1       1.900   6.588  13.910  1.00  0.00     0.006 C 
HETATM   11  C16 UNL     1       2.452   7.976  13.503  1.00  0.00     0.003 C 
HETATM   12  C17 UNL     1       4.040   8.101  13.505  1.00  0.00    -0.035 C 
HETATM   13  C18 UNL     1       4.643   7.802  14.898  1.00  0.00     0.016 C 
HETATM   14  C19 UNL     1       4.621   7.059  12.500  1.00  0.00     0.017 C 
HETATM   15  C20 UNL     1       6.105   7.226  12.200  1.00  0.00     0.080 C 
HETATM   16  C21 UNL     1       6.434   8.628  11.755  1.00  0.00     0.135 C 
HETATM   17  O5  UNL     1       7.188   8.800  10.795  1.00  0.00    -0.297 OA
HETATM   18  C22 UNL     1       5.902   9.795  12.605  1.00  0.00     0.017 C 
HETATM   19  C23 UNL     1       6.824   9.965  13.821  1.00  0.00     0.023 C 
HETATM   20  C24 UNL     1       6.028  11.085  11.753  1.00  0.00     0.023 C 
HETATM   21  C25 UNL     1       4.394   9.531  12.947  1.00  0.00     0.009 C 
HETATM   22  C26 UNL     1       3.745  10.639  13.800  1.00  0.00     0.007 C 
HETATM   23  C27 UNL     1       2.217  10.535  13.813  1.00  0.00     0.011 C 
HETATM   24  C28 UNL     1       1.656   9.140  14.222  1.00  0.00    -0.022 C 
HETATM   25  C29 UNL     1       1.855   9.065  15.773  1.00  0.00     0.017 C 
HETATM   26  C30 UNL     1      -1.952   7.330  14.514  1.00  0.00     0.018 C 
ENDROOT
BRANCH   4  27
HETATM   27  C8  UNL     1      -2.820   8.725  16.454  1.00  0.00     0.149 C 
HETATM   28  O1  UNL     1      -3.115   9.725  17.089  1.00  0.00    -0.649 OA
BRANCH  27  29
HETATM   29  O2  UNL     1      -2.559   7.575  17.105  1.00  0.00    -0.776 OA
HETATM   30  H11 UNL     1      -2.654   7.811  18.052  1.00  0.00     0.167 HD
ENDBRANCH  27  29
ENDBRANCH   4  27
BRANCH   1  31
HETATM   31  C2  UNL     1      -2.371   5.527  12.511  1.00  0.00    -0.088 C 
HETATM   32  C1  UNL     1      -1.575   5.959  11.514  1.00  0.00     0.014 C 
HETATM   33  C3  UNL     1      -2.650   4.056  12.642  1.00  0.00     0.043 C 
ENDBRANCH   1  31
BRANCH   7  34
HETATM   34  C12 UNL     1      -0.113   9.114  12.294  1.00  0.00     0.149 C 
HETATM   35  O3  UNL     1      -1.148   9.216  11.654  1.00  0.00    -0.649 OA
BRANCH  34  36
HETATM   36  O4  UNL     1       1.032   9.052  11.599  1.00  0.00    -0.776 OA
HETATM   37  H16 UNL     1       0.731   9.107  10.667  1.00  0.00     0.167 HD
ENDBRANCH  34  36
ENDBRANCH   7  34
TORSDOF 5
ENDMDL
MODEL 9
REMARK minimizedAffinity -7.44852448
REMARK  5 active torsions:
REMARK  status: ('A' for Active; 'I' for Inactive)
REMARK    1  A    between atoms: C2_2  and  C4_4 
REMARK    2  A    between atoms: C7_7  and  C8_8 
REMARK    3  A    between atoms: C8_8  and  O2_10 
REMARK    4  A    between atoms: C11_13  and  C12_14 
REMARK    5  A    between atoms: C12_14  and  O4_16 
ROOT
HETATM    1  C4  UNL     1       4.047   7.965  10.014  1.00  0.00     0.019 C 
HETATM    2  C5  UNL     1       5.191   7.056  10.467  1.00  0.00     0.011 C 
HETATM    3  C6  UNL     1       5.912   7.920  11.494  1.00  0.00     0.021 C 
HETATM    4  C7  UNL     1       4.784   8.572  12.326  1.00  0.00     0.050 C 
HETATM    5  C9  UNL     1       4.471   7.688  13.545  1.00  0.00     0.022 C 
HETATM    6  C10 UNL     1       3.119   7.974  14.195  1.00  0.00     0.023 C 
HETATM    7  C11 UNL     1       1.907   7.905  13.230  1.00  0.00     0.057 C 
HETATM    8  C13 UNL     1       2.180   8.752  11.941  1.00  0.00     0.011 C 
HETATM    9  C14 UNL     1       1.003   8.676  10.961  1.00  0.00     0.007 C 
HETATM   10  C15 UNL     1      -0.338   9.083  11.587  1.00  0.00     0.006 C 
HETATM   11  C16 UNL     1      -0.647   8.342  12.911  1.00  0.00     0.003 C 
HETATM   12  C17 UNL     1      -2.112   8.574  13.491  1.00  0.00    -0.035 C 
HETATM   13  C18 UNL     1      -2.394  10.069  13.771  1.00  0.00     0.016 C 
HETATM   14  C19 UNL     1      -3.149   8.082  12.434  1.00  0.00     0.017 C 
HETATM   15  C20 UNL     1      -4.582   8.003  12.940  1.00  0.00     0.080 C 
HETATM   16  C21 UNL     1      -4.688   7.184  14.202  1.00  0.00     0.135 C 
HETATM   17  O5  UNL     1      -5.601   6.365  14.320  1.00  0.00    -0.297 OA
HETATM   18  C22 UNL     1      -3.709   7.499  15.346  1.00  0.00     0.017 C 
HETATM   19  C23 UNL     1      -4.230   8.730  16.101  1.00  0.00     0.023 C 
HETATM   20  C24 UNL     1      -3.752   6.305  16.335  1.00  0.00     0.023 C 
HETATM   21  C25 UNL     1      -2.263   7.645  14.755  1.00  0.00     0.009 C 
HETATM   22  C26 UNL     1      -1.187   7.963  15.811  1.00  0.00     0.007 C 
HETATM   23  C27 UNL     1       0.230   7.748  15.272  1.00  0.00     0.011 C 
HETATM   24  C28 UNL     1       0.547   8.491  13.939  1.00  0.00    -0.022 C 
HETATM   25  C29 UNL     1       0.735   9.990  14.349  1.00  0.00     0.017 C 
HETATM   26  C30 UNL     1       3.605   8.742  11.301  1.00  0.00     0.018 C 
ENDROOT
BRANCH   4  27
HETATM   27  C8  UNL     1       5.228   9.937  12.852  1.00  0.00     0.149 C 
HETATM   28  O1  UNL     1       5.704  10.848  12.194  1.00  0.00    -0.649 OA
BRANCH  27  29
HETATM   29  O2  UNL     1       4.978  10.120  14.162  1.00  0.00    -0.776 OA
HETATM   30  H11 UNL     1       5.278  11.038  14.335  1.00  0.00     0.167 HD
ENDBRANCH  27  29
ENDBRANCH   4  27
BRANCH   1  31
HETATM   31  C2  UNL     1       3.086   7.403   8.983  1.00  0.00    -0.088 C 
HETATM   32  C1  UNL     1       2.472   8.229   8.113  1.00  0.00     0.014 C 
HETATM   33  C3  UNL     1       2.900   5.918   8.842  1.00  0.00     0.043 C 
ENDBRANCH   1  31
BRANCH   7  34
HETATM   34  C12 UNL     1       1.718   6.407  12.875  1.00  0.00     0.149 C 
HETATM   35  O3  UNL     1       1.707   5.881  11.774  1.00  0.00    -0.649 OA
BRANCH  34  36
HETATM   36  O4  UNL     1       1.491   5.616  13.933  1.00  0.00    -0.776 OA
HETATM   37  H16 UNL     1       1.361   4.732  13.528  1.00  0.00     0.167 HD
ENDBRANCH  34  36
ENDBRANCH   7  34
TORSDOF 5
ENDMDL
