MODEL 1
REMARK minimizedAffinity -8.91430187
REMARK  12 active torsions:
REMARK  status: ('A' for Active; 'I' for Inactive)
REMARK    1  A    between atoms: C2_2  and  C17_19 
REMARK    2  A    between atoms: C3_3  and  C4_4 
REMARK    3  A    between atoms: C4_4  and  C5_5 
REMARK    4  A    between atoms: C5_5  and  C6_6 
REMARK    5  A    between atoms: C12_12  and  O1_13 
REMARK    6  A    between atoms: C17_19  and  C18_20 
REMARK    7  A    between atoms: C19_21  and  C20_22 
REMARK    8  A    between atoms: C20_22  and  C22_24 
REMARK    9  A    between atoms: C22_24  and  C23_26 
REMARK   10  A    between atoms: C23_26  and  O4_27 
REMARK   11  A    between atoms: C23_26  and  C24_28 
REMARK   12  A    between atoms: C24_28  and  C25_29 
ROOT
HETATM    1  C1  UNL     1      -3.603  48.927 -21.321  1.00  0.00     0.043 C 
HETATM    2  C2  UNL     1      -3.932  50.396 -21.277  1.00  0.00    -0.084 C 
HETATM    3  C3  UNL     1      -3.926  51.138 -20.149  1.00  0.00    -0.024 C 
ENDROOT
BRANCH   3   4
HETATM    4  C4  UNL     1      -3.508  50.694 -18.776  1.00  0.00     0.030 C 
BRANCH   4   5
HETATM    5  C5  UNL     1      -2.198  51.281 -18.237  1.00  0.00     0.042 C 
BRANCH   5   6
HETATM    6  C6  UNL     1      -0.871  50.535 -18.539  1.00  0.00     0.065 C 
HETATM    7  C7  UNL     1      -1.024  49.022 -18.304  1.00  0.00     0.046 C 
HETATM    8  C8  UNL     1       0.348  51.026 -17.746  1.00  0.00     0.043 C 
HETATM    9  C9  UNL     1       0.678  52.470 -18.084  1.00  0.00     0.044 C 
HETATM   10  C10 UNL     1       0.681  52.667 -19.572  1.00  0.00    -0.021 A 
HETATM   11  C11 UNL     1       1.328  53.785 -20.120  1.00  0.00     0.046 A 
HETATM   12  C16 UNL     1       0.024  51.765 -20.418  1.00  0.00     0.082 A 
HETATM   13  C12 UNL     1       1.333  53.974 -21.498  1.00  0.00     0.066 A 
HETATM   14  C13 UNL     1       0.696  53.073 -22.342  1.00  0.00     0.046 A 
HETATM   15  C14 UNL     1       0.034  51.959 -21.811  1.00  0.00    -0.025 A 
HETATM   16  C15 UNL     1      -0.652  50.988 -22.729  1.00  0.00     0.051 C 
HETATM   17  O2  UNL     1      -0.632  50.650 -19.963  1.00  0.00    -0.340 OA
BRANCH  13  18
HETATM   18  O1  UNL     1       1.961  55.041 -22.066  1.00  0.00    -0.361 OA
HETATM   19  H17 UNL     1       2.382  55.564 -21.366  1.00  0.00     0.217 HD
ENDBRANCH  13  18
ENDBRANCH   5   6
ENDBRANCH   4   5
ENDBRANCH   3   4
BRANCH   2  20
HETATM   20  C17 UNL     1      -4.311  51.012 -22.615  1.00  0.00     0.060 C 
BRANCH  20  21
HETATM   21  C18 UNL     1      -4.889  49.982 -23.546  1.00  0.00    -0.026 C 
HETATM   22  C19 UNL     1      -4.414  49.453 -24.686  1.00  0.00    -0.019 C 
BRANCH  22  23
HETATM   23  C20 UNL     1      -3.156  49.696 -25.491  1.00  0.00     0.076 C 
HETATM   24  C21 UNL     1      -2.750  48.624 -26.502  1.00  0.00     0.022 C 
BRANCH  23  25
HETATM   25  C22 UNL     1      -3.254  51.076 -26.160  1.00  0.00     0.162 C 
HETATM   26  O3  UNL     1      -3.898  52.011 -25.666  1.00  0.00    -0.294 OA
BRANCH  25  27
HETATM   27  C23 UNL     1      -2.438  51.322 -27.443  1.00  0.00     0.188 C 
BRANCH  27  28
HETATM   28  O4  UNL     1      -2.966  50.573 -28.536  1.00  0.00    -0.388 OA
HETATM   29  H31 UNL     1      -3.802  50.173 -28.216  1.00  0.00     0.210 HD
ENDBRANCH  27  28
BRANCH  27  30
HETATM   30  C24 UNL     1      -0.926  51.076 -27.330  1.00  0.00     0.043 C 
BRANCH  30  31
HETATM   31  C25 UNL     1       0.060  52.044 -28.024  1.00  0.00    -0.020 C 
HETATM   32  C26 UNL     1       1.523  51.815 -27.651  1.00  0.00     0.009 C 
HETATM   33  C27 UNL     1      -0.308  53.516 -27.846  1.00  0.00     0.009 C 
ENDBRANCH  30  31
ENDBRANCH  27  30
ENDBRANCH  25  27
ENDBRANCH  23  25
ENDBRANCH  22  23
ENDBRANCH  20  21
ENDBRANCH   2  20
TORSDOF 12
ENDMDL
MODEL 2
REMARK minimizedAffinity -8.7999382
REMARK  12 active torsions:
REMARK  status: ('A' for Active; 'I' for Inactive)
REMARK    1  A    between atoms: C2_2  and  C17_19 
REMARK    2  A    between atoms: C3_3  and  C4_4 
REMARK    3  A    between atoms: C4_4  and  C5_5 
REMARK    4  A    between atoms: C5_5  and  C6_6 
REMARK    5  A    between atoms: C12_12  and  O1_13 
REMARK    6  A    between atoms: C17_19  and  C18_20 
REMARK    7  A    between atoms: C19_21  and  C20_22 
REMARK    8  A    between atoms: C20_22  and  C22_24 
REMARK    9  A    between atoms: C22_24  and  C23_26 
REMARK   10  A    between atoms: C23_26  and  O4_27 
REMARK   11  A    between atoms: C23_26  and  C24_28 
REMARK   12  A    between atoms: C24_28  and  C25_29 
ROOT
HETATM    1  C1  UNL     1      -4.840  47.460 -21.657  1.00  0.00     0.043 C 
HETATM    2  C2  UNL     1      -3.901  48.008 -22.699  1.00  0.00    -0.084 C 
HETATM    3  C3  UNL     1      -2.581  48.206 -22.498  1.00  0.00    -0.024 C 
ENDROOT
BRANCH   3   4
HETATM    4  C4  UNL     1      -1.788  47.840 -21.275  1.00  0.00     0.030 C 
BRANCH   4   5
HETATM    5  C5  UNL     1      -1.085  48.991 -20.546  1.00  0.00     0.042 C 
BRANCH   5   6
HETATM    6  C6  UNL     1      -1.934  50.210 -20.092  1.00  0.00     0.065 C 
HETATM    7  C7  UNL     1      -3.036  49.777 -19.111  1.00  0.00     0.046 C 
HETATM    8  C8  UNL     1      -2.585  51.009 -21.229  1.00  0.00     0.043 C 
HETATM    9  C9  UNL     1      -1.535  51.635 -22.131  1.00  0.00     0.044 C 
HETATM   10  C10 UNL     1      -0.480  52.315 -21.308  1.00  0.00    -0.021 A 
HETATM   11  C11 UNL     1       0.352  53.274 -21.905  1.00  0.00     0.046 A 
HETATM   12  C16 UNL     1      -0.298  51.985 -19.958  1.00  0.00     0.082 A 
HETATM   13  C12 UNL     1       1.333  53.905 -21.146  1.00  0.00     0.066 A 
HETATM   14  C13 UNL     1       1.506  53.592 -19.804  1.00  0.00     0.046 A 
HETATM   15  C14 UNL     1       0.692  52.628 -19.196  1.00  0.00    -0.025 A 
HETATM   16  C15 UNL     1       0.883  52.297 -17.743  1.00  0.00     0.051 C 
HETATM   17  O2  UNL     1      -1.068  51.060 -19.302  1.00  0.00    -0.340 OA
BRANCH  13  18
HETATM   18  O1  UNL     1       2.152  54.849 -21.689  1.00  0.00    -0.361 OA
HETATM   19  H17 UNL     1       1.900  54.984 -22.616  1.00  0.00     0.217 HD
ENDBRANCH  13  18
ENDBRANCH   5   6
ENDBRANCH   4   5
ENDBRANCH   3   4
BRANCH   2  20
HETATM   20  C17 UNL     1      -4.550  48.365 -24.027  1.00  0.00     0.060 C 
BRANCH  20  21
HETATM   21  C18 UNL     1      -3.576  48.232 -25.165  1.00  0.00    -0.026 C 
HETATM   22  C19 UNL     1      -3.142  49.128 -26.069  1.00  0.00    -0.019 C 
BRANCH  22  23
HETATM   23  C20 UNL     1      -3.474  50.582 -26.322  1.00  0.00     0.076 C 
HETATM   24  C21 UNL     1      -3.310  51.555 -25.155  1.00  0.00     0.022 C 
BRANCH  23  25
HETATM   25  C22 UNL     1      -2.693  51.061 -27.554  1.00  0.00     0.162 C 
HETATM   26  O3  UNL     1      -3.019  50.757 -28.709  1.00  0.00    -0.294 OA
BRANCH  25  27
HETATM   27  C23 UNL     1      -1.517  52.034 -27.338  1.00  0.00     0.188 C 
BRANCH  27  28
HETATM   28  O4  UNL     1      -1.605  53.146 -28.226  1.00  0.00    -0.388 OA
HETATM   29  H31 UNL     1      -2.472  53.069 -28.678  1.00  0.00     0.210 HD
ENDBRANCH  27  28
BRANCH  27  30
HETATM   30  C24 UNL     1      -0.115  51.414 -27.423  1.00  0.00     0.043 C 
BRANCH  30  31
HETATM   31  C25 UNL     1       1.090  52.163 -26.808  1.00  0.00    -0.020 C 
HETATM   32  C26 UNL     1       2.449  51.600 -27.221  1.00  0.00     0.009 C 
HETATM   33  C27 UNL     1       1.011  52.297 -25.289  1.00  0.00     0.009 C 
ENDBRANCH  30  31
ENDBRANCH  27  30
ENDBRANCH  25  27
ENDBRANCH  23  25
ENDBRANCH  22  23
ENDBRANCH  20  21
ENDBRANCH   2  20
TORSDOF 12
ENDMDL
MODEL 3
REMARK minimizedAffinity -8.75682926
REMARK  12 active torsions:
REMARK  status: ('A' for Active; 'I' for Inactive)
REMARK    1  A    between atoms: C2_2  and  C17_19 
REMARK    2  A    between atoms: C3_3  and  C4_4 
REMARK    3  A    between atoms: C4_4  and  C5_5 
REMARK    4  A    between atoms: C5_5  and  C6_6 
REMARK    5  A    between atoms: C12_12  and  O1_13 
REMARK    6  A    between atoms: C17_19  and  C18_20 
REMARK    7  A    between atoms: C19_21  and  C20_22 
REMARK    8  A    between atoms: C20_22  and  C22_24 
REMARK    9  A    between atoms: C22_24  and  C23_26 
REMARK   10  A    between atoms: C23_26  and  O4_27 
REMARK   11  A    between atoms: C23_26  and  C24_28 
REMARK   12  A    between atoms: C24_28  and  C25_29 
ROOT
HETATM    1  C1  UNL     1      -4.618  48.692 -22.963  1.00  0.00     0.043 C 
HETATM    2  C2  UNL     1      -4.368  49.286 -24.324  1.00  0.00    -0.084 C 
HETATM    3  C3  UNL     1      -4.081  50.587 -24.540  1.00  0.00    -0.024 C 
ENDROOT
BRANCH   3   4
HETATM    4  C4  UNL     1      -3.861  51.650 -23.501  1.00  0.00     0.030 C 
BRANCH   4   5
HETATM    5  C5  UNL     1      -2.521  52.394 -23.557  1.00  0.00     0.042 C 
BRANCH   5   6
HETATM    6  C6  UNL     1      -1.211  51.561 -23.582  1.00  0.00     0.065 C 
HETATM    7  C7  UNL     1      -0.816  51.201 -25.024  1.00  0.00     0.046 C 
HETATM    8  C8  UNL     1      -1.245  50.269 -22.753  1.00  0.00     0.043 C 
HETATM    9  C9  UNL     1      -1.437  50.570 -21.276  1.00  0.00     0.044 C 
HETATM   10  C10 UNL     1      -0.502  51.660 -20.841  1.00  0.00    -0.021 A 
HETATM   11  C11 UNL     1      -0.223  51.829 -19.477  1.00  0.00     0.046 A 
HETATM   12  C16 UNL     1       0.076  52.528 -21.778  1.00  0.00     0.082 A 
HETATM   13  C12 UNL     1       0.641  52.840 -19.069  1.00  0.00     0.066 A 
HETATM   14  C13 UNL     1       1.229  53.692 -19.995  1.00  0.00     0.046 A 
HETATM   15  C14 UNL     1       0.951  53.545 -21.360  1.00  0.00    -0.025 A 
HETATM   16  C15 UNL     1       1.591  54.469 -22.357  1.00  0.00     0.051 C 
HETATM   17  O2  UNL     1      -0.146  52.430 -23.127  1.00  0.00    -0.340 OA
BRANCH  13  18
HETATM   18  O1  UNL     1       0.944  53.026 -17.753  1.00  0.00    -0.361 OA
HETATM   19  H17 UNL     1       0.490  52.348 -17.230  1.00  0.00     0.217 HD
ENDBRANCH  13  18
ENDBRANCH   5   6
ENDBRANCH   4   5
ENDBRANCH   3   4
BRANCH   2  20
HETATM   20  C17 UNL     1      -4.487  48.310 -25.485  1.00  0.00     0.060 C 
BRANCH  20  21
HETATM   21  C18 UNL     1      -3.942  48.902 -26.755  1.00  0.00    -0.026 C 
HETATM   22  C19 UNL     1      -4.291  48.716 -28.040  1.00  0.00    -0.019 C 
BRANCH  22  23
HETATM   23  C20 UNL     1      -5.322  47.836 -28.712  1.00  0.00     0.076 C 
HETATM   24  C21 UNL     1      -6.746  47.874 -28.161  1.00  0.00     0.022 C 
BRANCH  23  25
HETATM   25  C22 UNL     1      -5.307  48.120 -30.221  1.00  0.00     0.162 C 
HETATM   26  O3  UNL     1      -4.827  49.157 -30.699  1.00  0.00    -0.294 OA
BRANCH  25  27
HETATM   27  C23 UNL     1      -5.825  47.025 -31.174  1.00  0.00     0.188 C 
BRANCH  27  28
HETATM   28  O4  UNL     1      -6.097  45.818 -30.464  1.00  0.00    -0.388 OA
HETATM   29  H31 UNL     1      -5.995  46.030 -29.512  1.00  0.00     0.210 HD
ENDBRANCH  27  28
BRANCH  27  30
HETATM   30  C24 UNL     1      -4.934  46.721 -32.388  1.00  0.00     0.043 C 
BRANCH  30  31
HETATM   31  C25 UNL     1      -4.585  47.853 -33.381  1.00  0.00    -0.020 C 
HETATM   32  C26 UNL     1      -5.568  47.987 -34.543  1.00  0.00     0.009 C 
HETATM   33  C27 UNL     1      -3.153  47.780 -33.906  1.00  0.00     0.009 C 
ENDBRANCH  30  31
ENDBRANCH  27  30
ENDBRANCH  25  27
ENDBRANCH  23  25
ENDBRANCH  22  23
ENDBRANCH  20  21
ENDBRANCH   2  20
TORSDOF 12
ENDMDL
MODEL 4
REMARK minimizedAffinity -8.56852722
REMARK  12 active torsions:
REMARK  status: ('A' for Active; 'I' for Inactive)
REMARK    1  A    between atoms: C2_2  and  C17_19 
REMARK    2  A    between atoms: C3_3  and  C4_4 
REMARK    3  A    between atoms: C4_4  and  C5_5 
REMARK    4  A    between atoms: C5_5  and  C6_6 
REMARK    5  A    between atoms: C12_12  and  O1_13 
REMARK    6  A    between atoms: C17_19  and  C18_20 
REMARK    7  A    between atoms: C19_21  and  C20_22 
REMARK    8  A    between atoms: C20_22  and  C22_24 
REMARK    9  A    between atoms: C22_24  and  C23_26 
REMARK   10  A    between atoms: C23_26  and  O4_27 
REMARK   11  A    between atoms: C23_26  and  C24_28 
REMARK   12  A    between atoms: C24_28  and  C25_29 
ROOT
HETATM    1  C1  UNL     1      -3.295  48.529 -27.327  1.00  0.00     0.043 C 
HETATM    2  C2  UNL     1      -4.563  48.286 -26.551  1.00  0.00    -0.084 C 
HETATM    3  C3  UNL     1      -5.726  47.888 -27.109  1.00  0.00    -0.024 C 
ENDROOT
BRANCH   3   4
HETATM    4  C4  UNL     1      -5.961  47.522 -28.547  1.00  0.00     0.030 C 
BRANCH   4   5
HETATM    5  C5  UNL     1      -7.208  46.680 -28.843  1.00  0.00     0.042 C 
BRANCH   5   6
HETATM    6  C6  UNL     1      -7.791  46.699 -30.281  1.00  0.00     0.065 C 
HETATM    7  C7  UNL     1      -8.403  48.071 -30.609  1.00  0.00     0.046 C 
HETATM    8  C8  UNL     1      -8.842  45.619 -30.572  1.00  0.00     0.043 C 
HETATM    9  C9  UNL     1      -8.245  44.227 -30.458  1.00  0.00     0.044 C 
HETATM   10  C10 UNL     1      -6.942  44.157 -31.200  1.00  0.00    -0.021 A 
HETATM   11  C11 UNL     1      -6.417  42.907 -31.561  1.00  0.00     0.046 A 
HETATM   12  C16 UNL     1      -6.230  45.322 -31.513  1.00  0.00     0.082 A 
HETATM   13  C12 UNL     1      -5.209  42.837 -32.247  1.00  0.00     0.066 A 
HETATM   14  C13 UNL     1      -4.508  43.992 -32.573  1.00  0.00     0.046 A 
HETATM   15  C14 UNL     1      -5.011  45.247 -32.209  1.00  0.00    -0.025 A 
HETATM   16  C15 UNL     1      -4.249  46.491 -32.566  1.00  0.00     0.051 C 
HETATM   17  O2  UNL     1      -6.674  46.580 -31.195  1.00  0.00    -0.340 OA
BRANCH  13  18
HETATM   18  O1  UNL     1      -4.675  41.642 -32.624  1.00  0.00    -0.361 OA
HETATM   19  H17 UNL     1      -5.280  40.933 -32.357  1.00  0.00     0.217 HD
ENDBRANCH  13  18
ENDBRANCH   5   6
ENDBRANCH   4   5
ENDBRANCH   3   4
BRANCH   2  20
HETATM   20  C17 UNL     1      -4.464  48.550 -25.056  1.00  0.00     0.060 C 
BRANCH  20  21
HETATM   21  C18 UNL     1      -3.039  48.782 -24.635  1.00  0.00    -0.026 C 
HETATM   22  C19 UNL     1      -2.413  49.889 -24.201  1.00  0.00    -0.019 C 
BRANCH  22  23
HETATM   23  C20 UNL     1      -2.866  51.319 -23.997  1.00  0.00     0.076 C 
HETATM   24  C21 UNL     1      -2.504  51.989 -22.672  1.00  0.00     0.022 C 
BRANCH  23  25
HETATM   25  C22 UNL     1      -2.394  52.163 -25.190  1.00  0.00     0.162 C 
HETATM   26  O3  UNL     1      -3.176  52.620 -26.034  1.00  0.00    -0.294 OA
BRANCH  25  27
HETATM   27  C23 UNL     1      -0.899  52.529 -25.276  1.00  0.00     0.188 C 
BRANCH  27  28
HETATM   28  O4  UNL     1      -0.719  53.792 -25.914  1.00  0.00    -0.388 OA
HETATM   29  H31 UNL     1      -1.617  54.170 -26.034  1.00  0.00     0.210 HD
ENDBRANCH  27  28
BRANCH  27  30
HETATM   30  C24 UNL     1       0.007  51.482 -25.940  1.00  0.00     0.043 C 
BRANCH  30  31
HETATM   31  C25 UNL     1       1.226  51.942 -26.771  1.00  0.00    -0.020 C 
HETATM   32  C26 UNL     1       1.020  51.851 -28.282  1.00  0.00     0.009 C 
HETATM   33  C27 UNL     1       2.529  51.252 -26.371  1.00  0.00     0.009 C 
ENDBRANCH  30  31
ENDBRANCH  27  30
ENDBRANCH  25  27
ENDBRANCH  23  25
ENDBRANCH  22  23
ENDBRANCH  20  21
ENDBRANCH   2  20
TORSDOF 12
ENDMDL
MODEL 5
REMARK minimizedAffinity -8.52925301
REMARK  12 active torsions:
REMARK  status: ('A' for Active; 'I' for Inactive)
REMARK    1  A    between atoms: C2_2  and  C17_19 
REMARK    2  A    between atoms: C3_3  and  C4_4 
REMARK    3  A    between atoms: C4_4  and  C5_5 
REMARK    4  A    between atoms: C5_5  and  C6_6 
REMARK    5  A    between atoms: C12_12  and  O1_13 
REMARK    6  A    between atoms: C17_19  and  C18_20 
REMARK    7  A    between atoms: C19_21  and  C20_22 
REMARK    8  A    between atoms: C20_22  and  C22_24 
REMARK    9  A    between atoms: C22_24  and  C23_26 
REMARK   10  A    between atoms: C23_26  and  O4_27 
REMARK   11  A    between atoms: C23_26  and  C24_28 
REMARK   12  A    between atoms: C24_28  and  C25_29 
ROOT
HETATM    1  C1  UNL     1      -3.060  48.656 -24.875  1.00  0.00     0.043 C 
HETATM    2  C2  UNL     1      -2.726  49.030 -26.295  1.00  0.00    -0.084 C 
HETATM    3  C3  UNL     1      -1.665  49.786 -26.648  1.00  0.00    -0.024 C 
ENDROOT
BRANCH   3   4
HETATM    4  C4  UNL     1      -0.584  50.307 -25.743  1.00  0.00     0.030 C 
BRANCH   4   5
HETATM    5  C5  UNL     1       0.192  51.533 -26.239  1.00  0.00     0.042 C 
BRANCH   5   6
HETATM    6  C6  UNL     1      -0.225  52.935 -25.718  1.00  0.00     0.065 C 
HETATM    7  C7  UNL     1      -0.244  53.963 -26.861  1.00  0.00     0.046 C 
HETATM    8  C8  UNL     1       0.645  53.491 -24.582  1.00  0.00     0.043 C 
HETATM    9  C9  UNL     1       0.552  52.619 -23.342  1.00  0.00     0.044 C 
HETATM   10  C10 UNL     1      -0.881  52.298 -23.037  1.00  0.00    -0.021 A 
HETATM   11  C11 UNL     1      -1.233  51.853 -21.754  1.00  0.00     0.046 A 
HETATM   12  C16 UNL     1      -1.869  52.413 -24.024  1.00  0.00     0.082 A 
HETATM   13  C12 UNL     1      -2.561  51.552 -21.467  1.00  0.00     0.066 A 
HETATM   14  C13 UNL     1      -3.546  51.680 -22.439  1.00  0.00     0.046 A 
HETATM   15  C14 UNL     1      -3.210  52.111 -23.728  1.00  0.00    -0.025 A 
HETATM   16  C15 UNL     1      -4.280  52.249 -24.773  1.00  0.00     0.051 C 
HETATM   17  O2  UNL     1      -1.608  52.840 -25.301  1.00  0.00    -0.340 OA
BRANCH  13  18
HETATM   18  O1  UNL     1      -2.942  51.128 -20.230  1.00  0.00    -0.361 OA
HETATM   19  H17 UNL     1      -2.162  51.114 -19.652  1.00  0.00     0.217 HD
ENDBRANCH  13  18
ENDBRANCH   5   6
ENDBRANCH   4   5
ENDBRANCH   3   4
BRANCH   2  20
HETATM   20  C17 UNL     1      -3.698  48.513 -27.344  1.00  0.00     0.060 C 
BRANCH  20  21
HETATM   21  C18 UNL     1      -5.064  48.283 -26.757  1.00  0.00    -0.026 C 
HETATM   22  C19 UNL     1      -6.142  47.645 -27.245  1.00  0.00    -0.019 C 
BRANCH  22  23
HETATM   23  C20 UNL     1      -6.423  46.949 -28.558  1.00  0.00     0.076 C 
HETATM   24  C21 UNL     1      -7.620  46.001 -28.610  1.00  0.00     0.022 C 
BRANCH  23  25
HETATM   25  C22 UNL     1      -6.505  48.004 -29.671  1.00  0.00     0.162 C 
HETATM   26  O3  UNL     1      -7.505  48.715 -29.841  1.00  0.00    -0.294 OA
BRANCH  25  27
HETATM   27  C23 UNL     1      -5.257  48.243 -30.542  1.00  0.00     0.188 C 
BRANCH  27  28
HETATM   28  O4  UNL     1      -4.889  49.621 -30.540  1.00  0.00    -0.388 OA
HETATM   29  H31 UNL     1      -5.465  50.058 -29.877  1.00  0.00     0.210 HD
ENDBRANCH  27  28
BRANCH  27  30
HETATM   30  C24 UNL     1      -5.346  47.734 -31.988  1.00  0.00     0.043 C 
BRANCH  30  31
HETATM   31  C25 UNL     1      -4.201  46.870 -32.566  1.00  0.00    -0.020 C 
HETATM   32  C26 UNL     1      -3.631  47.393 -33.884  1.00  0.00     0.009 C 
HETATM   33  C27 UNL     1      -4.562  45.392 -32.694  1.00  0.00     0.009 C 
ENDBRANCH  30  31
ENDBRANCH  27  30
ENDBRANCH  25  27
ENDBRANCH  23  25
ENDBRANCH  22  23
ENDBRANCH  20  21
ENDBRANCH   2  20
TORSDOF 12
ENDMDL
MODEL 6
REMARK minimizedAffinity -8.51087666
REMARK  12 active torsions:
REMARK  status: ('A' for Active; 'I' for Inactive)
REMARK    1  A    between atoms: C2_2  and  C17_19 
REMARK    2  A    between atoms: C3_3  and  C4_4 
REMARK    3  A    between atoms: C4_4  and  C5_5 
REMARK    4  A    between atoms: C5_5  and  C6_6 
REMARK    5  A    between atoms: C12_12  and  O1_13 
REMARK    6  A    between atoms: C17_19  and  C18_20 
REMARK    7  A    between atoms: C19_21  and  C20_22 
REMARK    8  A    between atoms: C20_22  and  C22_24 
REMARK    9  A    between atoms: C22_24  and  C23_26 
REMARK   10  A    between atoms: C23_26  and  O4_27 
REMARK   11  A    between atoms: C23_26  and  C24_28 
REMARK   12  A    between atoms: C24_28  and  C25_29 
ROOT
HETATM    1  C1  UNL     1      -4.805  48.410 -25.540  1.00  0.00     0.043 C 
HETATM    2  C2  UNL     1      -3.774  48.528 -26.631  1.00  0.00    -0.084 C 
HETATM    3  C3  UNL     1      -4.026  48.304 -27.938  1.00  0.00    -0.024 C 
ENDROOT
BRANCH   3   4
HETATM    4  C4  UNL     1      -5.359  48.002 -28.563  1.00  0.00     0.030 C 
BRANCH   4   5
HETATM    5  C5  UNL     1      -5.478  48.246 -30.072  1.00  0.00     0.042 C 
BRANCH   5   6
HETATM    6  C6  UNL     1      -6.204  47.183 -30.940  1.00  0.00     0.065 C 
HETATM    7  C7  UNL     1      -5.210  46.138 -31.476  1.00  0.00     0.046 C 
HETATM    8  C8  UNL     1      -7.000  47.745 -32.126  1.00  0.00     0.043 C 
HETATM    9  C9  UNL     1      -8.134  48.638 -31.652  1.00  0.00     0.044 C 
HETATM   10  C10 UNL     1      -8.896  47.969 -30.547  1.00  0.00    -0.021 A 
HETATM   11  C11 UNL     1     -10.189  48.414 -30.230  1.00  0.00     0.046 A 
HETATM   12  C16 UNL     1      -8.325  46.923 -29.810  1.00  0.00     0.082 A 
HETATM   13  C12 UNL     1     -10.899  47.797 -29.205  1.00  0.00     0.066 A 
HETATM   14  C13 UNL     1     -10.342  46.749 -28.483  1.00  0.00     0.046 A 
HETATM   15  C14 UNL     1      -9.048  46.301 -28.777  1.00  0.00    -0.025 A 
HETATM   16  C15 UNL     1      -8.453  45.166 -27.994  1.00  0.00     0.051 C 
HETATM   17  O2  UNL     1      -7.069  46.431 -30.056  1.00  0.00    -0.340 OA
BRANCH  13  18
HETATM   18  O1  UNL     1     -12.160  48.194 -28.877  1.00  0.00    -0.361 OA
HETATM   19  H17 UNL     1     -12.428  48.908 -29.476  1.00  0.00     0.217 HD
ENDBRANCH  13  18
ENDBRANCH   5   6
ENDBRANCH   4   5
ENDBRANCH   3   4
BRANCH   2  20
HETATM   20  C17 UNL     1      -2.376  48.899 -26.159  1.00  0.00     0.060 C 
BRANCH  20  21
HETATM   21  C18 UNL     1      -2.318  50.329 -25.695  1.00  0.00    -0.026 C 
HETATM   22  C19 UNL     1      -1.389  51.282 -25.880  1.00  0.00    -0.019 C 
BRANCH  22  23
HETATM   23  C20 UNL     1      -0.049  51.296 -26.582  1.00  0.00     0.076 C 
HETATM   24  C21 UNL     1      -0.046  51.546 -28.089  1.00  0.00     0.022 C 
BRANCH  23  25
HETATM   25  C22 UNL     1       0.880  52.281 -25.857  1.00  0.00     0.162 C 
HETATM   26  O3  UNL     1       2.111  52.251 -25.983  1.00  0.00    -0.294 OA
BRANCH  25  27
HETATM   27  C23 UNL     1       0.239  53.405 -25.020  1.00  0.00     0.188 C 
BRANCH  27  28
HETATM   28  O4  UNL     1       0.117  54.604 -25.782  1.00  0.00    -0.388 OA
HETATM   29  H31 UNL     1       0.370  54.372 -26.701  1.00  0.00     0.210 HD
ENDBRANCH  27  28
BRANCH  27  30
HETATM   30  C24 UNL     1       0.924  53.711 -23.680  1.00  0.00     0.043 C 
BRANCH  30  31
HETATM   31  C25 UNL     1       0.660  52.798 -22.460  1.00  0.00    -0.020 C 
HETATM   32  C26 UNL     1      -0.733  52.170 -22.443  1.00  0.00     0.009 C 
HETATM   33  C27 UNL     1       0.954  53.472 -21.122  1.00  0.00     0.009 C 
ENDBRANCH  30  31
ENDBRANCH  27  30
ENDBRANCH  25  27
ENDBRANCH  23  25
ENDBRANCH  22  23
ENDBRANCH  20  21
ENDBRANCH   2  20
TORSDOF 12
ENDMDL
MODEL 7
REMARK minimizedAffinity -8.484725
REMARK  12 active torsions:
REMARK  status: ('A' for Active; 'I' for Inactive)
REMARK    1  A    between atoms: C2_2  and  C17_19 
REMARK    2  A    between atoms: C3_3  and  C4_4 
REMARK    3  A    between atoms: C4_4  and  C5_5 
REMARK    4  A    between atoms: C5_5  and  C6_6 
REMARK    5  A    between atoms: C12_12  and  O1_13 
REMARK    6  A    between atoms: C17_19  and  C18_20 
REMARK    7  A    between atoms: C19_21  and  C20_22 
REMARK    8  A    between atoms: C20_22  and  C22_24 
REMARK    9  A    between atoms: C22_24  and  C23_26 
REMARK   10  A    between atoms: C23_26  and  O4_27 
REMARK   11  A    between atoms: C23_26  and  C24_28 
REMARK   12  A    between atoms: C24_28  and  C25_29 
ROOT
HETATM    1  C1  UNL     1      -1.309  50.304 -22.654  1.00  0.00     0.043 C 
HETATM    2  C2  UNL     1      -1.936  48.970 -22.343  1.00  0.00    -0.084 C 
HETATM    3  C3  UNL     1      -1.661  48.244 -21.239  1.00  0.00    -0.024 C 
ENDROOT
BRANCH   3   4
HETATM    4  C4  UNL     1      -0.783  48.647 -20.088  1.00  0.00     0.030 C 
BRANCH   4   5
HETATM    5  C5  UNL     1      -0.423  50.134 -19.990  1.00  0.00     0.042 C 
BRANCH   5   6
HETATM    6  C6  UNL     1      -1.207  51.023 -18.988  1.00  0.00     0.065 C 
HETATM    7  C7  UNL     1      -2.718  50.748 -19.076  1.00  0.00     0.046 C 
HETATM    8  C8  UNL     1      -0.981  52.533 -19.142  1.00  0.00     0.043 C 
HETATM    9  C9  UNL     1       0.468  52.901 -18.871  1.00  0.00     0.044 C 
HETATM   10  C10 UNL     1       0.944  52.244 -17.609  1.00  0.00    -0.021 A 
HETATM   11  C11 UNL     1       2.087  52.736 -16.961  1.00  0.00     0.046 A 
HETATM   12  C16 UNL     1       0.279  51.128 -17.084  1.00  0.00     0.082 A 
HETATM   13  C12 UNL     1       2.534  52.129 -15.793  1.00  0.00     0.066 A 
HETATM   14  C13 UNL     1       1.867  51.033 -15.260  1.00  0.00     0.046 A 
HETATM   15  C14 UNL     1       0.733  50.520 -15.901  1.00  0.00    -0.025 A 
HETATM   16  C15 UNL     1       0.016  49.335 -15.319  1.00  0.00     0.051 C 
HETATM   17  O2  UNL     1      -0.843  50.586 -17.657  1.00  0.00    -0.340 OA
BRANCH  13  18
HETATM   18  O1  UNL     1       3.633  52.587 -15.130  1.00  0.00    -0.361 OA
HETATM   19  H17 UNL     1       3.976  53.365 -15.596  1.00  0.00     0.217 HD
ENDBRANCH  13  18
ENDBRANCH   5   6
ENDBRANCH   4   5
ENDBRANCH   3   4
BRANCH   2  20
HETATM   20  C17 UNL     1      -2.911  48.457 -23.392  1.00  0.00     0.060 C 
BRANCH  20  21
HETATM   21  C18 UNL     1      -3.604  49.591 -24.096  1.00  0.00    -0.026 C 
HETATM   22  C19 UNL     1      -3.587  49.977 -25.383  1.00  0.00    -0.019 C 
BRANCH  22  23
HETATM   23  C20 UNL     1      -2.859  49.463 -26.606  1.00  0.00     0.076 C 
HETATM   24  C21 UNL     1      -3.523  48.339 -27.400  1.00  0.00     0.022 C 
BRANCH  23  25
HETATM   25  C22 UNL     1      -2.516  50.652 -27.514  1.00  0.00     0.162 C 
HETATM   26  O3  UNL     1      -3.294  51.074 -28.381  1.00  0.00    -0.294 OA
BRANCH  25  27
HETATM   27  C23 UNL     1      -1.191  51.400 -27.267  1.00  0.00     0.188 C 
BRANCH  27  28
HETATM   28  O4  UNL     1      -0.631  51.865 -28.492  1.00  0.00    -0.388 OA
HETATM   29  H31 UNL     1      -1.302  51.690 -29.186  1.00  0.00     0.210 HD
ENDBRANCH  27  28
BRANCH  27  30
HETATM   30  C24 UNL     1      -0.128  50.628 -26.472  1.00  0.00     0.043 C 
BRANCH  30  31
HETATM   31  C25 UNL     1       0.983  51.405 -25.727  1.00  0.00    -0.020 C 
HETATM   32  C26 UNL     1       0.550  52.780 -25.223  1.00  0.00     0.009 C 
HETATM   33  C27 UNL     1       2.282  51.517 -26.522  1.00  0.00     0.009 C 
ENDBRANCH  30  31
ENDBRANCH  27  30
ENDBRANCH  25  27
ENDBRANCH  23  25
ENDBRANCH  22  23
ENDBRANCH  20  21
ENDBRANCH   2  20
TORSDOF 12
ENDMDL
MODEL 8
REMARK minimizedAffinity -8.4544735
REMARK  12 active torsions:
REMARK  status: ('A' for Active; 'I' for Inactive)
REMARK    1  A    between atoms: C2_2  and  C17_19 
REMARK    2  A    between atoms: C3_3  and  C4_4 
REMARK    3  A    between atoms: C4_4  and  C5_5 
REMARK    4  A    between atoms: C5_5  and  C6_6 
REMARK    5  A    between atoms: C12_12  and  O1_13 
REMARK    6  A    between atoms: C17_19  and  C18_20 
REMARK    7  A    between atoms: C19_21  and  C20_22 
REMARK    8  A    between atoms: C20_22  and  C22_24 
REMARK    9  A    between atoms: C22_24  and  C23_26 
REMARK   10  A    between atoms: C23_26  and  O4_27 
REMARK   11  A    between atoms: C23_26  and  C24_28 
REMARK   12  A    between atoms: C24_28  and  C25_29 
ROOT
HETATM    1  C1  UNL     1      -3.609  48.579 -24.665  1.00  0.00     0.043 C 
HETATM    2  C2  UNL     1      -3.595  48.795 -26.155  1.00  0.00    -0.084 C 
HETATM    3  C3  UNL     1      -2.617  49.451 -26.815  1.00  0.00    -0.024 C 
ENDROOT
BRANCH   3   4
HETATM    4  C4  UNL     1      -1.339  49.990 -26.235  1.00  0.00     0.030 C 
BRANCH   4   5
HETATM    5  C5  UNL     1      -0.660  51.123 -27.015  1.00  0.00     0.042 C 
BRANCH   5   6
HETATM    6  C6  UNL     1      -0.907  52.587 -26.562  1.00  0.00     0.065 C 
HETATM    7  C7  UNL     1      -1.260  53.482 -27.762  1.00  0.00     0.046 C 
HETATM    8  C8  UNL     1       0.255  53.237 -25.799  1.00  0.00     0.043 C 
HETATM    9  C9  UNL     1       0.528  52.511 -24.492  1.00  0.00     0.044 C 
HETATM   10  C10 UNL     1      -0.755  52.275 -23.751  1.00  0.00    -0.021 A 
HETATM   11  C11 UNL     1      -0.718  51.986 -22.378  1.00  0.00     0.046 A 
HETATM   12  C16 UNL     1      -1.987  52.312 -24.416  1.00  0.00     0.082 A 
HETATM   13  C12 UNL     1      -1.904  51.764 -21.687  1.00  0.00     0.066 A 
HETATM   14  C13 UNL     1      -3.129  51.816 -22.340  1.00  0.00     0.046 A 
HETATM   15  C14 UNL     1      -3.184  52.089 -23.712  1.00  0.00    -0.025 A 
HETATM   16  C15 UNL     1      -4.512  52.145 -24.412  1.00  0.00     0.051 C 
HETATM   17  O2  UNL     1      -2.109  52.585 -25.754  1.00  0.00    -0.340 OA
BRANCH  13  18
HETATM   18  O1  UNL     1      -1.908  51.493 -20.352  1.00  0.00    -0.361 OA
HETATM   19  H17 UNL     1      -0.994  51.516 -20.027  1.00  0.00     0.217 HD
ENDBRANCH  13  18
ENDBRANCH   5   6
ENDBRANCH   4   5
ENDBRANCH   3   4
BRANCH   2  20
HETATM   20  C17 UNL     1      -4.800  48.239 -26.898  1.00  0.00     0.060 C 
BRANCH  20  21
HETATM   21  C18 UNL     1      -4.598  48.295 -28.387  1.00  0.00    -0.026 C 
HETATM   22  C19 UNL     1      -5.379  47.888 -29.403  1.00  0.00    -0.019 C 
BRANCH  22  23
HETATM   23  C20 UNL     1      -6.724  47.198 -29.458  1.00  0.00     0.076 C 
HETATM   24  C21 UNL     1      -7.006  46.119 -28.414  1.00  0.00     0.022 C 
BRANCH  23  25
HETATM   25  C22 UNL     1      -7.829  48.265 -29.460  1.00  0.00     0.162 C 
HETATM   26  O3  UNL     1      -8.456  48.576 -28.439  1.00  0.00    -0.294 OA
BRANCH  25  27
HETATM   27  C23 UNL     1      -8.092  49.039 -30.767  1.00  0.00     0.188 C 
BRANCH  27  28
HETATM   28  O4  UNL     1      -8.833  50.231 -30.514  1.00  0.00    -0.388 OA
HETATM   29  H31 UNL     1      -8.888  50.319 -29.538  1.00  0.00     0.210 HD
ENDBRANCH  27  28
BRANCH  27  30
HETATM   30  C24 UNL     1      -8.767  48.240 -31.891  1.00  0.00     0.043 C 
BRANCH  30  31
HETATM   31  C25 UNL     1      -9.462  46.898 -31.563  1.00  0.00    -0.020 C 
HETATM   32  C26 UNL     1      -8.991  45.727 -32.423  1.00  0.00     0.009 C 
HETATM   33  C27 UNL     1     -10.987  46.985 -31.575  1.00  0.00     0.009 C 
ENDBRANCH  30  31
ENDBRANCH  27  30
ENDBRANCH  25  27
ENDBRANCH  23  25
ENDBRANCH  22  23
ENDBRANCH  20  21
ENDBRANCH   2  20
TORSDOF 12
ENDMDL
MODEL 9
REMARK minimizedAffinity -8.39154911
REMARK  12 active torsions:
REMARK  status: ('A' for Active; 'I' for Inactive)
REMARK    1  A    between atoms: C2_2  and  C17_19 
REMARK    2  A    between atoms: C3_3  and  C4_4 
REMARK    3  A    between atoms: C4_4  and  C5_5 
REMARK    4  A    between atoms: C5_5  and  C6_6 
REMARK    5  A    between atoms: C12_12  and  O1_13 
REMARK    6  A    between atoms: C17_19  and  C18_20 
REMARK    7  A    between atoms: C19_21  and  C20_22 
REMARK    8  A    between atoms: C20_22  and  C22_24 
REMARK    9  A    between atoms: C22_24  and  C23_26 
REMARK   10  A    between atoms: C23_26  and  O4_27 
REMARK   11  A    between atoms: C23_26  and  C24_28 
REMARK   12  A    between atoms: C24_28  and  C25_29 
ROOT
HETATM    1  C1  UNL     1      -4.361  48.471 -25.100  1.00  0.00     0.043 C 
HETATM    2  C2  UNL     1      -3.913  48.580 -26.534  1.00  0.00    -0.084 C 
HETATM    3  C3  UNL     1      -4.693  48.280 -27.594  1.00  0.00    -0.024 C 
ENDROOT
BRANCH   3   4
HETATM    4  C4  UNL     1      -6.143  47.888 -27.568  1.00  0.00     0.030 C 
BRANCH   4   5
HETATM    5  C5  UNL     1      -6.530  46.646 -28.381  1.00  0.00     0.042 C 
BRANCH   5   6
HETATM    6  C6  UNL     1      -7.275  46.845 -29.728  1.00  0.00     0.065 C 
HETATM    7  C7  UNL     1      -7.716  48.308 -29.903  1.00  0.00     0.046 C 
HETATM    8  C8  UNL     1      -8.500  45.943 -29.934  1.00  0.00     0.043 C 
HETATM    9  C9  UNL     1      -8.102  44.477 -29.970  1.00  0.00     0.044 C 
HETATM   10  C10 UNL     1      -6.924  44.280 -30.878  1.00  0.00    -0.021 A 
HETATM   11  C11 UNL     1      -6.635  42.998 -31.368  1.00  0.00     0.046 A 
HETATM   12  C16 UNL     1      -6.093  45.355 -31.221  1.00  0.00     0.082 A 
HETATM   13  C12 UNL     1      -5.542  42.810 -32.208  1.00  0.00     0.066 A 
HETATM   14  C13 UNL     1      -4.725  43.876 -32.564  1.00  0.00     0.046 A 
HETATM   15  C14 UNL     1      -4.992  45.160 -32.073  1.00  0.00    -0.025 A 
HETATM   16  C15 UNL     1      -4.106  46.309 -32.463  1.00  0.00     0.051 C 
HETATM   17  O2  UNL     1      -6.307  46.637 -30.785  1.00  0.00    -0.340 OA
BRANCH  13  18
HETATM   18  O1  UNL     1      -5.237  41.581 -32.712  1.00  0.00    -0.361 OA
HETATM   19  H17 UNL     1      -5.902  40.945 -32.406  1.00  0.00     0.217 HD
ENDBRANCH  13  18
ENDBRANCH   5   6
ENDBRANCH   4   5
ENDBRANCH   3   4
BRANCH   2  20
HETATM   20  C17 UNL     1      -2.475  49.037 -26.727  1.00  0.00     0.060 C 
BRANCH  20  21
HETATM   21  C18 UNL     1      -2.415  50.433 -27.283  1.00  0.00    -0.026 C 
HETATM   22  C19 UNL     1      -1.414  51.329 -27.322  1.00  0.00    -0.019 C 
BRANCH  22  23
HETATM   23  C20 UNL     1       0.009  51.309 -26.808  1.00  0.00     0.076 C 
HETATM   24  C21 UNL     1       1.132  51.374 -27.842  1.00  0.00     0.022 C 
BRANCH  23  25
HETATM   25  C22 UNL     1       0.169  52.411 -25.750  1.00  0.00     0.162 C 
HETATM   26  O3  UNL     1       0.463  53.578 -26.044  1.00  0.00    -0.294 OA
BRANCH  25  27
HETATM   27  C23 UNL     1      -0.143  52.063 -24.282  1.00  0.00     0.188 C 
BRANCH  27  28
HETATM   28  O4  UNL     1      -1.544  51.883 -24.087  1.00  0.00    -0.388 OA
HETATM   29  H31 UNL     1      -1.952  51.912 -24.979  1.00  0.00     0.210 HD
ENDBRANCH  27  28
BRANCH  27  30
HETATM   30  C24 UNL     1       0.403  53.042 -23.233  1.00  0.00     0.043 C 
BRANCH  30  31
HETATM   31  C25 UNL     1       0.967  52.498 -21.900  1.00  0.00    -0.020 C 
HETATM   32  C26 UNL     1       0.147  51.360 -21.296  1.00  0.00     0.009 C 
HETATM   33  C27 UNL     1       1.214  53.586 -20.857  1.00  0.00     0.009 C 
ENDBRANCH  30  31
ENDBRANCH  27  30
ENDBRANCH  25  27
ENDBRANCH  23  25
ENDBRANCH  22  23
ENDBRANCH  20  21
ENDBRANCH   2  20
TORSDOF 12
ENDMDL
