MODEL 1
REMARK minimizedAffinity -9.47702217
REMARK  8 active torsions:
REMARK  status: ('A' for Active; 'I' for Inactive)
REMARK    1  A    between atoms: C2_2  and  C3_3 
REMARK    2  A    between atoms: C2_2  and  C29_30 
REMARK    3  A    between atoms: C3_3  and  C4_4 
REMARK    4  A    between atoms: C4_4  and  C5_5 
REMARK    5  A    between atoms: C5_5  and  C7_7 
REMARK    6  A    between atoms: C29_30  and  C31_32 
REMARK    7  A    between atoms: C31_32  and  O2_33 
REMARK    8  A    between atoms: O2_33  and  C32_34 
ROOT
HETATM    1  C7  UNL     1      -3.914  48.558 -26.190  1.00  0.00    -0.002 C 
HETATM    2  C8  UNL     1      -2.872  49.380 -26.959  1.00  0.00     0.006 C 
HETATM    3  C9  UNL     1      -3.019  50.807 -26.470  1.00  0.00     0.011 C 
HETATM    4  C10 UNL     1      -3.436  50.738 -24.974  1.00  0.00    -0.032 C 
HETATM    5  C11 UNL     1      -4.559  51.782 -24.769  1.00  0.00     0.016 C 
HETATM    6  C12 UNL     1      -2.185  51.081 -24.070  1.00  0.00     0.004 C 
HETATM    7  C13 UNL     1      -1.737  52.552 -24.108  1.00  0.00     0.007 C 
HETATM    8  C14 UNL     1      -0.485  52.731 -23.257  1.00  0.00     0.007 C 
HETATM    9  C15 UNL     1      -0.754  52.529 -21.750  1.00  0.00     0.010 C 
HETATM   10  C16 UNL     1       0.566  52.601 -20.903  1.00  0.00     0.018 C 
HETATM   11  C17 UNL     1       1.127  54.043 -20.932  1.00  0.00     0.023 C 
HETATM   12  C18 UNL     1       1.673  51.655 -21.406  1.00  0.00     0.023 C 
HETATM   13  C19 UNL     1       0.292  52.259 -19.430  1.00  0.00     0.135 C 
HETATM   14  O1  UNL     1       1.017  52.671 -18.519  1.00  0.00    -0.297 OA
HETATM   15  C20 UNL     1      -0.895  51.395 -19.097  1.00  0.00     0.080 C 
HETATM   16  C21 UNL     1      -1.210  50.469 -20.252  1.00  0.00     0.018 C 
HETATM   17  C22 UNL     1      -1.612  51.268 -21.478  1.00  0.00    -0.026 A 
HETATM   18  C23 UNL     1      -3.111  51.439 -21.641  1.00  0.00     0.021 A 
HETATM   19  C24 UNL     1      -2.369  50.576 -22.638  1.00  0.00    -0.027 A 
HETATM   20  C25 UNL     1      -2.576  49.073 -22.555  1.00  0.00     0.011 C 
HETATM   21  C26 UNL     1      -2.871  48.445 -23.913  1.00  0.00     0.011 C 
HETATM   22  C27 UNL     1      -3.928  49.228 -24.762  1.00  0.00    -0.032 C 
HETATM   23  C28 UNL     1      -5.265  49.109 -24.007  1.00  0.00     0.016 C 
ENDROOT
BRANCH   1  24
HETATM   24  C5  UNL     1      -5.216  48.306 -27.019  1.00  0.00    -0.014 C 
HETATM   25  C6  UNL     1      -6.348  47.556 -26.321  1.00  0.00     0.010 C 
BRANCH  24  26
HETATM   26  C4  UNL     1      -4.891  47.836 -28.467  1.00  0.00     0.009 C 
BRANCH  26  27
HETATM   27  C3  UNL     1      -6.052  47.820 -29.470  1.00  0.00     0.034 C 
BRANCH  27  28
HETATM   28  C2  UNL     1      -6.402  46.414 -29.935  1.00  0.00    -0.083 C 
HETATM   29  C1  UNL     1      -7.040  45.578 -29.096  1.00  0.00     0.015 C 
BRANCH  28  30
HETATM   30  C29 UNL     1      -6.001  46.038 -31.366  1.00  0.00     0.034 C 
HETATM   31  C30 UNL     1      -7.197  45.884 -32.315  1.00  0.00     0.017 C 
BRANCH  30  32
HETATM   32  C31 UNL     1      -5.000  47.049 -31.966  1.00  0.00     0.187 C 
BRANCH  32  33
HETATM   33  O2  UNL     1      -5.599  47.861 -32.993  1.00  0.00    -0.321 OA
BRANCH  33  34
HETATM   34  C32 UNL     1      -4.833  48.074 -34.096  1.00  0.00     0.254 C 
HETATM   35  C33 UNL     1      -3.408  47.715 -33.807  1.00  0.00     0.126 C 
HETATM   36  O3  UNL     1      -5.234  48.498 -35.171  1.00  0.00    -0.266 OA
ENDBRANCH  33  34
ENDBRANCH  32  33
ENDBRANCH  30  32
ENDBRANCH  28  30
ENDBRANCH  27  28
ENDBRANCH  26  27
ENDBRANCH  24  26
ENDBRANCH   1  24
TORSDOF 8
ENDMDL
MODEL 2
REMARK minimizedAffinity -9.14196777
REMARK  8 active torsions:
REMARK  status: ('A' for Active; 'I' for Inactive)
REMARK    1  A    between atoms: C2_2  and  C3_3 
REMARK    2  A    between atoms: C2_2  and  C29_30 
REMARK    3  A    between atoms: C3_3  and  C4_4 
REMARK    4  A    between atoms: C4_4  and  C5_5 
REMARK    5  A    between atoms: C5_5  and  C7_7 
REMARK    6  A    between atoms: C29_30  and  C31_32 
REMARK    7  A    between atoms: C31_32  and  O2_33 
REMARK    8  A    between atoms: O2_33  and  C32_34 
ROOT
HETATM    1  C7  UNL     1      -4.415  48.373 -25.429  1.00  0.00    -0.002 C 
HETATM    2  C8  UNL     1      -3.428  49.081 -26.367  1.00  0.00     0.006 C 
HETATM    3  C9  UNL     1      -3.477  50.549 -25.996  1.00  0.00     0.011 C 
HETATM    4  C10 UNL     1      -3.742  50.627 -24.466  1.00  0.00    -0.032 C 
HETATM    5  C11 UNL     1      -4.803  51.732 -24.247  1.00  0.00     0.016 C 
HETATM    6  C12 UNL     1      -2.396  50.993 -23.723  1.00  0.00     0.004 C 
HETATM    7  C13 UNL     1      -1.904  52.435 -23.936  1.00  0.00     0.007 C 
HETATM    8  C14 UNL     1      -0.567  52.633 -23.231  1.00  0.00     0.007 C 
HETATM    9  C15 UNL     1      -0.689  52.572 -21.693  1.00  0.00     0.010 C 
HETATM   10  C16 UNL     1       0.712  52.661 -20.989  1.00  0.00     0.018 C 
HETATM   11  C17 UNL     1       1.314  54.070 -21.202  1.00  0.00     0.023 C 
HETATM   12  C18 UNL     1       1.729  51.628 -21.510  1.00  0.00     0.023 C 
HETATM   13  C19 UNL     1       0.576  52.459 -19.471  1.00  0.00     0.135 C 
HETATM   14  O1  UNL     1       1.402  52.916 -18.676  1.00  0.00    -0.297 OA
HETATM   15  C20 UNL     1      -0.600  51.678 -18.948  1.00  0.00     0.080 C 
HETATM   16  C21 UNL     1      -1.061  50.671 -19.979  1.00  0.00     0.018 C 
HETATM   17  C22 UNL     1      -1.557  51.377 -21.226  1.00  0.00    -0.026 A 
HETATM   18  C23 UNL     1      -3.058  51.598 -21.258  1.00  0.00     0.021 A 
HETATM   19  C24 UNL     1      -2.451  50.622 -22.240  1.00  0.00    -0.027 A 
HETATM   20  C25 UNL     1      -2.699  49.142 -22.002  1.00  0.00     0.011 C 
HETATM   21  C26 UNL     1      -3.152  48.412 -23.263  1.00  0.00     0.011 C 
HETATM   22  C27 UNL     1      -4.262  49.164 -24.072  1.00  0.00    -0.032 C 
HETATM   23  C28 UNL     1      -5.519  49.167 -23.183  1.00  0.00     0.016 C 
ENDROOT
BRANCH   1  24
HETATM   24  C5  UNL     1      -5.801  48.106 -26.101  1.00  0.00    -0.014 C 
HETATM   25  C6  UNL     1      -6.800  47.259 -25.316  1.00  0.00     0.010 C 
BRANCH  24  26
HETATM   26  C4  UNL     1      -5.648  47.742 -27.607  1.00  0.00     0.009 C 
BRANCH  26  27
HETATM   27  C3  UNL     1      -6.931  47.392 -28.372  1.00  0.00     0.034 C 
BRANCH  27  28
HETATM   28  C2  UNL     1      -6.716  46.288 -29.395  1.00  0.00    -0.083 C 
HETATM   29  C1  UNL     1      -7.050  45.021 -29.084  1.00  0.00     0.015 C 
BRANCH  28  30
HETATM   30  C29 UNL     1      -6.128  46.702 -30.749  1.00  0.00     0.034 C 
HETATM   31  C30 UNL     1      -5.608  45.519 -31.577  1.00  0.00     0.017 C 
BRANCH  30  32
HETATM   32  C31 UNL     1      -7.140  47.509 -31.591  1.00  0.00     0.187 C 
BRANCH  32  33
HETATM   33  O2  UNL     1      -7.279  48.863 -31.122  1.00  0.00    -0.321 OA
BRANCH  33  34
HETATM   34  C32 UNL     1      -8.554  49.327 -31.029  1.00  0.00     0.254 C 
HETATM   35  C33 UNL     1      -9.515  48.178 -30.998  1.00  0.00     0.126 C 
HETATM   36  O3  UNL     1      -8.883  50.504 -30.981  1.00  0.00    -0.266 OA
ENDBRANCH  33  34
ENDBRANCH  32  33
ENDBRANCH  30  32
ENDBRANCH  28  30
ENDBRANCH  27  28
ENDBRANCH  26  27
ENDBRANCH  24  26
ENDBRANCH   1  24
TORSDOF 8
ENDMDL
MODEL 3
REMARK minimizedAffinity -8.98709965
REMARK  8 active torsions:
REMARK  status: ('A' for Active; 'I' for Inactive)
REMARK    1  A    between atoms: C2_2  and  C3_3 
REMARK    2  A    between atoms: C2_2  and  C29_30 
REMARK    3  A    between atoms: C3_3  and  C4_4 
REMARK    4  A    between atoms: C4_4  and  C5_5 
REMARK    5  A    between atoms: C5_5  and  C7_7 
REMARK    6  A    between atoms: C29_30  and  C31_32 
REMARK    7  A    between atoms: C31_32  and  O2_33 
REMARK    8  A    between atoms: O2_33  and  C32_34 
ROOT
HETATM    1  C7  UNL     1      -4.033  48.481 -25.895  1.00  0.00    -0.002 C 
HETATM    2  C8  UNL     1      -2.956  49.185 -26.729  1.00  0.00     0.006 C 
HETATM    3  C9  UNL     1      -3.021  50.651 -26.348  1.00  0.00     0.011 C 
HETATM    4  C10 UNL     1      -3.426  50.717 -24.848  1.00  0.00    -0.032 C 
HETATM    5  C11 UNL     1      -4.489  51.833 -24.716  1.00  0.00     0.016 C 
HETATM    6  C12 UNL     1      -2.150  51.057 -23.979  1.00  0.00     0.004 C 
HETATM    7  C13 UNL     1      -1.623  52.495 -24.130  1.00  0.00     0.007 C 
HETATM    8  C14 UNL     1      -0.355  52.669 -23.302  1.00  0.00     0.007 C 
HETATM    9  C15 UNL     1      -0.621  52.594 -21.782  1.00  0.00     0.010 C 
HETATM   10  C16 UNL     1       0.709  52.658 -20.950  1.00  0.00     0.018 C 
HETATM   11  C17 UNL     1       1.346  54.061 -21.090  1.00  0.00     0.023 C 
HETATM   12  C18 UNL     1       1.758  51.617 -21.387  1.00  0.00     0.023 C 
HETATM   13  C19 UNL     1       0.431  52.442 -19.454  1.00  0.00     0.135 C 
HETATM   14  O1  UNL     1       1.185  52.881 -18.581  1.00  0.00    -0.297 OA
HETATM   15  C20 UNL     1      -0.798  51.671 -19.051  1.00  0.00     0.080 C 
HETATM   16  C21 UNL     1      -1.173  50.680 -20.131  1.00  0.00     0.018 C 
HETATM   17  C22 UNL     1      -1.543  51.406 -21.411  1.00  0.00    -0.026 A 
HETATM   18  C23 UNL     1      -3.032  51.646 -21.579  1.00  0.00     0.021 A 
HETATM   19  C24 UNL     1      -2.348  50.672 -22.512  1.00  0.00    -0.027 A 
HETATM   20  C25 UNL     1      -2.635  49.193 -22.315  1.00  0.00     0.011 C 
HETATM   21  C26 UNL     1      -2.976  48.483 -23.620  1.00  0.00     0.011 C 
HETATM   22  C27 UNL     1      -3.997  49.256 -24.521  1.00  0.00    -0.032 C 
HETATM   23  C28 UNL     1      -5.332  49.267 -23.752  1.00  0.00     0.016 C 
ENDROOT
BRANCH   1  24
HETATM   24  C5  UNL     1      -5.354  48.239 -26.695  1.00  0.00    -0.014 C 
HETATM   25  C6  UNL     1      -6.470  47.483 -25.978  1.00  0.00     0.010 C 
BRANCH  24  26
HETATM   26  C4  UNL     1      -5.064  47.785 -28.155  1.00  0.00     0.009 C 
BRANCH  26  27
HETATM   27  C3  UNL     1      -5.971  48.354 -29.254  1.00  0.00     0.034 C 
BRANCH  27  28
HETATM   28  C2  UNL     1      -7.278  47.586 -29.387  1.00  0.00    -0.083 C 
HETATM   29  C1  UNL     1      -7.250  46.276 -29.692  1.00  0.00     0.015 C 
BRANCH  28  30
HETATM   30  C29 UNL     1      -8.572  48.374 -29.149  1.00  0.00     0.034 C 
HETATM   31  C30 UNL     1      -9.393  48.599 -30.426  1.00  0.00     0.017 C 
BRANCH  30  32
HETATM   32  C31 UNL     1      -9.462  47.706 -28.080  1.00  0.00     0.187 C 
BRANCH  32  33
HETATM   33  O2  UNL     1     -10.864  47.859 -28.368  1.00  0.00    -0.321 OA
BRANCH  33  34
HETATM   34  C32 UNL     1     -11.674  48.013 -27.286  1.00  0.00     0.254 C 
HETATM   35  C33 UNL     1     -11.010  47.454 -26.066  1.00  0.00     0.126 C 
HETATM   36  O3  UNL     1     -12.784  48.526 -27.294  1.00  0.00    -0.266 OA
ENDBRANCH  33  34
ENDBRANCH  32  33
ENDBRANCH  30  32
ENDBRANCH  28  30
ENDBRANCH  27  28
ENDBRANCH  26  27
ENDBRANCH  24  26
ENDBRANCH   1  24
TORSDOF 8
ENDMDL
MODEL 4
REMARK minimizedAffinity -8.9867897
REMARK  8 active torsions:
REMARK  status: ('A' for Active; 'I' for Inactive)
REMARK    1  A    between atoms: C2_2  and  C3_3 
REMARK    2  A    between atoms: C2_2  and  C29_30 
REMARK    3  A    between atoms: C3_3  and  C4_4 
REMARK    4  A    between atoms: C4_4  and  C5_5 
REMARK    5  A    between atoms: C5_5  and  C7_7 
REMARK    6  A    between atoms: C29_30  and  C31_32 
REMARK    7  A    between atoms: C31_32  and  O2_33 
REMARK    8  A    between atoms: O2_33  and  C32_34 
ROOT
HETATM    1  C7  UNL     1      -1.305  48.891 -19.204  1.00  0.00    -0.002 C 
HETATM    2  C8  UNL     1      -1.474  47.736 -20.198  1.00  0.00     0.006 C 
HETATM    3  C9  UNL     1      -2.538  48.180 -21.182  1.00  0.00     0.011 C 
HETATM    4  C10 UNL     1      -2.398  49.721 -21.344  1.00  0.00    -0.032 C 
HETATM    5  C11 UNL     1      -3.827  50.309 -21.315  1.00  0.00     0.016 C 
HETATM    6  C12 UNL     1      -1.693  50.035 -22.724  1.00  0.00     0.004 C 
HETATM    7  C13 UNL     1      -2.550  49.757 -23.971  1.00  0.00     0.007 C 
HETATM    8  C14 UNL     1      -1.732  50.031 -25.229  1.00  0.00     0.007 C 
HETATM    9  C15 UNL     1      -1.398  51.528 -25.410  1.00  0.00     0.010 C 
HETATM   10  C16 UNL     1      -0.459  51.774 -26.644  1.00  0.00     0.018 C 
HETATM   11  C17 UNL     1      -1.224  51.462 -27.952  1.00  0.00     0.023 C 
HETATM   12  C18 UNL     1       0.818  50.914 -26.626  1.00  0.00     0.023 C 
HETATM   13  C19 UNL     1      -0.030  53.248 -26.720  1.00  0.00     0.135 C 
HETATM   14  O1  UNL     1       0.303  53.776 -27.785  1.00  0.00    -0.297 OA
HETATM   15  C20 UNL     1      -0.017  54.063 -25.454  1.00  0.00     0.080 C 
HETATM   16  C21 UNL     1       0.234  53.172 -24.258  1.00  0.00     0.018 C 
HETATM   17  C22 UNL     1      -0.897  52.174 -24.094  1.00  0.00    -0.026 A 
HETATM   18  C23 UNL     1      -1.975  52.613 -23.120  1.00  0.00     0.021 A 
HETATM   19  C24 UNL     1      -1.095  51.443 -22.744  1.00  0.00    -0.027 A 
HETATM   20  C25 UNL     1      -0.057  51.667 -21.656  1.00  0.00     0.011 C 
HETATM   21  C26 UNL     1      -0.068  50.568 -20.599  1.00  0.00     0.011 C 
HETATM   22  C27 UNL     1      -1.499  50.176 -20.099  1.00  0.00    -0.032 C 
HETATM   23  C28 UNL     1      -2.048  51.406 -19.351  1.00  0.00     0.016 C 
ENDROOT
BRANCH   1  24
HETATM   24  C5  UNL     1      -2.092  48.661 -17.872  1.00  0.00    -0.014 C 
HETATM   25  C6  UNL     1      -3.592  48.950 -17.895  1.00  0.00     0.010 C 
BRANCH  24  26
HETATM   26  C4  UNL     1      -1.318  49.224 -16.644  1.00  0.00     0.009 C 
BRANCH  26  27
HETATM   27  C3  UNL     1       0.186  49.468 -16.823  1.00  0.00     0.034 C 
BRANCH  27  28
HETATM   28  C2  UNL     1       0.610  50.853 -16.359  1.00  0.00    -0.083 C 
HETATM   29  C1  UNL     1       0.724  51.848 -17.258  1.00  0.00     0.015 C 
BRANCH  28  30
HETATM   30  C29 UNL     1       0.879  51.029 -14.860  1.00  0.00     0.034 C 
HETATM   31  C30 UNL     1      -0.400  51.189 -14.025  1.00  0.00     0.017 C 
BRANCH  30  32
HETATM   32  C31 UNL     1       1.721  49.869 -14.288  1.00  0.00     0.187 C 
BRANCH  32  33
HETATM   33  O2  UNL     1       2.784  50.338 -13.438  1.00  0.00    -0.321 OA
BRANCH  33  34
HETATM   34  C32 UNL     1       4.027  50.327 -13.990  1.00  0.00     0.254 C 
HETATM   35  C33 UNL     1       4.156  51.441 -14.982  1.00  0.00     0.126 C 
HETATM   36  O3  UNL     1       4.916  49.529 -13.727  1.00  0.00    -0.266 OA
ENDBRANCH  33  34
ENDBRANCH  32  33
ENDBRANCH  30  32
ENDBRANCH  28  30
ENDBRANCH  27  28
ENDBRANCH  26  27
ENDBRANCH  24  26
ENDBRANCH   1  24
TORSDOF 8
ENDMDL
MODEL 5
REMARK minimizedAffinity -8.95380592
REMARK  8 active torsions:
REMARK  status: ('A' for Active; 'I' for Inactive)
REMARK    1  A    between atoms: C2_2  and  C3_3 
REMARK    2  A    between atoms: C2_2  and  C29_30 
REMARK    3  A    between atoms: C3_3  and  C4_4 
REMARK    4  A    between atoms: C4_4  and  C5_5 
REMARK    5  A    between atoms: C5_5  and  C7_7 
REMARK    6  A    between atoms: C29_30  and  C31_32 
REMARK    7  A    between atoms: C31_32  and  O2_33 
REMARK    8  A    between atoms: O2_33  and  C32_34 
ROOT
HETATM    1  C7  UNL     1      -1.731  48.339 -19.312  1.00  0.00    -0.002 C 
HETATM    2  C8  UNL     1      -1.908  47.285 -20.412  1.00  0.00     0.006 C 
HETATM    3  C9  UNL     1      -2.899  47.871 -21.399  1.00  0.00     0.011 C 
HETATM    4  C10 UNL     1      -2.673  49.409 -21.416  1.00  0.00    -0.032 C 
HETATM    5  C11 UNL     1      -4.070  50.071 -21.398  1.00  0.00     0.016 C 
HETATM    6  C12 UNL     1      -1.886  49.803 -22.730  1.00  0.00     0.004 C 
HETATM    7  C13 UNL     1      -2.693  49.683 -24.034  1.00  0.00     0.007 C 
HETATM    8  C14 UNL     1      -1.801  50.019 -25.224  1.00  0.00     0.007 C 
HETATM    9  C15 UNL     1      -1.383  51.506 -25.255  1.00  0.00     0.010 C 
HETATM   10  C16 UNL     1      -0.373  51.807 -26.419  1.00  0.00     0.018 C 
HETATM   11  C17 UNL     1      -1.087  51.652 -27.783  1.00  0.00     0.023 C 
HETATM   12  C18 UNL     1       0.857  50.880 -26.421  1.00  0.00     0.023 C 
HETATM   13  C19 UNL     1       0.134  53.256 -26.343  1.00  0.00     0.135 C 
HETATM   14  O1  UNL     1       0.545  53.856 -27.341  1.00  0.00    -0.297 OA
HETATM   15  C20 UNL     1       0.125  53.956 -25.010  1.00  0.00     0.080 C 
HETATM   16  C21 UNL     1       0.271  52.951 -23.889  1.00  0.00     0.018 C 
HETATM   17  C22 UNL     1      -0.916  52.006 -23.866  1.00  0.00    -0.026 A 
HETATM   18  C23 UNL     1      -2.017  52.418 -22.906  1.00  0.00     0.021 A 
HETATM   19  C24 UNL     1      -1.217  51.173 -22.596  1.00  0.00    -0.027 A 
HETATM   20  C25 UNL     1      -0.224  51.245 -21.448  1.00  0.00     0.011 C 
HETATM   21  C26 UNL     1      -0.343  50.060 -20.495  1.00  0.00     0.011 C 
HETATM   22  C27 UNL     1      -1.815  49.705 -20.096  1.00  0.00    -0.032 C 
HETATM   23  C28 UNL     1      -2.337  50.893 -19.267  1.00  0.00     0.016 C 
ENDROOT
BRANCH   1  24
HETATM   24  C5  UNL     1      -2.593  48.037 -18.043  1.00  0.00    -0.014 C 
HETATM   25  C6  UNL     1      -4.084  48.359 -18.126  1.00  0.00     0.010 C 
BRANCH  24  26
HETATM   26  C4  UNL     1      -1.877  48.499 -16.740  1.00  0.00     0.009 C 
BRANCH  26  27
HETATM   27  C3  UNL     1      -0.426  48.976 -16.876  1.00  0.00     0.034 C 
BRANCH  27  28
HETATM   28  C2  UNL     1       0.190  49.357 -15.539  1.00  0.00    -0.083 C 
HETATM   29  C1  UNL     1       1.058  48.518 -14.945  1.00  0.00     0.015 C 
BRANCH  28  30
HETATM   30  C29 UNL     1      -0.222  50.710 -14.947  1.00  0.00     0.034 C 
HETATM   31  C30 UNL     1      -1.047  50.587 -13.658  1.00  0.00     0.017 C 
BRANCH  30  32
HETATM   32  C31 UNL     1       0.999  51.619 -14.688  1.00  0.00     0.187 C 
BRANCH  32  33
HETATM   33  O2  UNL     1       1.036  52.746 -15.582  1.00  0.00    -0.321 OA
BRANCH  33  34
HETATM   34  C32 UNL     1       1.721  52.556 -16.741  1.00  0.00     0.254 C 
HETATM   35  C33 UNL     1       3.194  52.574 -16.474  1.00  0.00     0.126 C 
HETATM   36  O3  UNL     1       1.221  52.396 -17.846  1.00  0.00    -0.266 OA
ENDBRANCH  33  34
ENDBRANCH  32  33
ENDBRANCH  30  32
ENDBRANCH  28  30
ENDBRANCH  27  28
ENDBRANCH  26  27
ENDBRANCH  24  26
ENDBRANCH   1  24
TORSDOF 8
ENDMDL
MODEL 6
REMARK minimizedAffinity -8.85969543
REMARK  8 active torsions:
REMARK  status: ('A' for Active; 'I' for Inactive)
REMARK    1  A    between atoms: C2_2  and  C3_3 
REMARK    2  A    between atoms: C2_2  and  C29_30 
REMARK    3  A    between atoms: C3_3  and  C4_4 
REMARK    4  A    between atoms: C4_4  and  C5_5 
REMARK    5  A    between atoms: C5_5  and  C7_7 
REMARK    6  A    between atoms: C29_30  and  C31_32 
REMARK    7  A    between atoms: C31_32  and  O2_33 
REMARK    8  A    between atoms: O2_33  and  C32_34 
ROOT
HETATM    1  C7  UNL     1      -1.308  48.949 -19.069  1.00  0.00    -0.002 C 
HETATM    2  C8  UNL     1      -1.508  47.773 -20.033  1.00  0.00     0.006 C 
HETATM    3  C9  UNL     1      -2.584  48.208 -21.009  1.00  0.00     0.011 C 
HETATM    4  C10 UNL     1      -2.427  49.742 -21.209  1.00  0.00    -0.032 C 
HETATM    5  C11 UNL     1      -3.849  50.350 -21.169  1.00  0.00     0.016 C 
HETATM    6  C12 UNL     1      -1.743  50.016 -22.608  1.00  0.00     0.004 C 
HETATM    7  C13 UNL     1      -2.624  49.721 -23.834  1.00  0.00     0.007 C 
HETATM    8  C14 UNL     1      -1.825  49.954 -25.111  1.00  0.00     0.007 C 
HETATM    9  C15 UNL     1      -1.476  51.442 -25.332  1.00  0.00     0.010 C 
HETATM   10  C16 UNL     1      -0.555  51.648 -26.587  1.00  0.00     0.018 C 
HETATM   11  C17 UNL     1      -1.346  51.315 -27.875  1.00  0.00     0.023 C 
HETATM   12  C18 UNL     1       0.712  50.772 -26.572  1.00  0.00     0.023 C 
HETATM   13  C19 UNL     1      -0.108  53.114 -26.705  1.00  0.00     0.135 C 
HETATM   14  O1  UNL     1       0.213  53.613 -27.787  1.00  0.00    -0.297 OA
HETATM   15  C20 UNL     1      -0.064  53.958 -25.459  1.00  0.00     0.080 C 
HETATM   16  C21 UNL     1       0.196  53.091 -24.247  1.00  0.00     0.018 C 
HETATM   17  C22 UNL     1      -0.944  52.112 -24.041  1.00  0.00    -0.026 A 
HETATM   18  C23 UNL     1      -1.999  52.588 -23.059  1.00  0.00     0.021 A 
HETATM   19  C24 UNL     1      -1.128  51.415 -22.670  1.00  0.00    -0.027 A 
HETATM   20  C25 UNL     1      -0.068  51.651 -21.606  1.00  0.00     0.011 C 
HETATM   21  C26 UNL     1      -0.074  50.576 -20.524  1.00  0.00     0.011 C 
HETATM   22  C27 UNL     1      -1.501  50.215 -19.990  1.00  0.00    -0.032 C 
HETATM   23  C28 UNL     1      -2.022  51.468 -19.262  1.00  0.00     0.016 C 
ENDROOT
BRANCH   1  24
HETATM   24  C5  UNL     1      -2.075  48.760 -17.719  1.00  0.00    -0.014 C 
HETATM   25  C6  UNL     1      -3.589  48.963 -17.748  1.00  0.00     0.010 C 
BRANCH  24  26
HETATM   26  C4  UNL     1      -1.328  49.441 -16.535  1.00  0.00     0.009 C 
BRANCH  26  27
HETATM   27  C3  UNL     1       0.205  49.424 -16.579  1.00  0.00     0.034 C 
BRANCH  27  28
HETATM   28  C2  UNL     1       0.813  50.768 -16.208  1.00  0.00    -0.083 C 
HETATM   29  C1  UNL     1       0.840  51.758 -17.120  1.00  0.00     0.015 C 
BRANCH  28  30
HETATM   30  C29 UNL     1       1.360  50.911 -14.783  1.00  0.00     0.034 C 
HETATM   31  C30 UNL     1       2.831  51.349 -14.734  1.00  0.00     0.017 C 
BRANCH  30  32
HETATM   32  C31 UNL     1       0.509  51.883 -13.938  1.00  0.00     0.187 C 
BRANCH  32  33
HETATM   33  O2  UNL     1      -0.837  51.406 -13.753  1.00  0.00    -0.321 OA
BRANCH  33  34
HETATM   34  C32 UNL     1      -1.613  52.145 -12.915  1.00  0.00     0.254 C 
HETATM   35  C33 UNL     1      -3.051  52.031 -13.317  1.00  0.00     0.126 C 
HETATM   36  O3  UNL     1      -1.210  52.810 -11.971  1.00  0.00    -0.266 OA
ENDBRANCH  33  34
ENDBRANCH  32  33
ENDBRANCH  30  32
ENDBRANCH  28  30
ENDBRANCH  27  28
ENDBRANCH  26  27
ENDBRANCH  24  26
ENDBRANCH   1  24
TORSDOF 8
ENDMDL
MODEL 7
REMARK minimizedAffinity -8.67658615
REMARK  8 active torsions:
REMARK  status: ('A' for Active; 'I' for Inactive)
REMARK    1  A    between atoms: C2_2  and  C3_3 
REMARK    2  A    between atoms: C2_2  and  C29_30 
REMARK    3  A    between atoms: C3_3  and  C4_4 
REMARK    4  A    between atoms: C4_4  and  C5_5 
REMARK    5  A    between atoms: C5_5  and  C7_7 
REMARK    6  A    between atoms: C29_30  and  C31_32 
REMARK    7  A    between atoms: C31_32  and  O2_33 
REMARK    8  A    between atoms: O2_33  and  C32_34 
ROOT
HETATM    1  C7  UNL     1      -1.830  48.466 -19.253  1.00  0.00    -0.002 C 
HETATM    2  C8  UNL     1      -1.983  47.386 -20.331  1.00  0.00     0.006 C 
HETATM    3  C9  UNL     1      -2.957  47.945 -21.349  1.00  0.00     0.011 C 
HETATM    4  C10 UNL     1      -2.735  49.484 -21.399  1.00  0.00    -0.032 C 
HETATM    5  C11 UNL     1      -4.135  50.141 -21.423  1.00  0.00     0.016 C 
HETATM    6  C12 UNL     1      -1.925  49.849 -22.707  1.00  0.00     0.004 C 
HETATM    7  C13 UNL     1      -2.707  49.695 -24.022  1.00  0.00     0.007 C 
HETATM    8  C14 UNL     1      -1.794  50.006 -25.203  1.00  0.00     0.007 C 
HETATM    9  C15 UNL     1      -1.380  51.492 -25.262  1.00  0.00     0.010 C 
HETATM   10  C16 UNL     1      -0.349  51.769 -26.414  1.00  0.00     0.018 C 
HETATM   11  C17 UNL     1      -1.037  51.579 -27.787  1.00  0.00     0.023 C 
HETATM   12  C18 UNL     1       0.883  50.846 -26.371  1.00  0.00     0.023 C 
HETATM   13  C19 UNL     1       0.152  53.221 -26.363  1.00  0.00     0.135 C 
HETATM   14  O1  UNL     1       0.581  53.798 -27.367  1.00  0.00    -0.297 OA
HETATM   15  C20 UNL     1       0.117  53.953 -25.048  1.00  0.00     0.080 C 
HETATM   16  C21 UNL     1       0.244  52.975 -23.900  1.00  0.00     0.018 C 
HETATM   17  C22 UNL     1      -0.940  52.027 -23.877  1.00  0.00    -0.026 A 
HETATM   18  C23 UNL     1      -2.060  52.458 -22.947  1.00  0.00     0.021 A 
HETATM   19  C24 UNL     1      -1.262  51.223 -22.593  1.00  0.00    -0.027 A 
HETATM   20  C25 UNL     1      -0.291  51.325 -21.429  1.00  0.00     0.011 C 
HETATM   21  C26 UNL     1      -0.424  50.163 -20.450  1.00  0.00     0.011 C 
HETATM   22  C27 UNL     1      -1.903  49.813 -20.070  1.00  0.00    -0.032 C 
HETATM   23  C28 UNL     1      -2.444  51.019 -19.280  1.00  0.00     0.016 C 
ENDROOT
BRANCH   1  24
HETATM   24  C5  UNL     1      -2.715  48.192 -17.993  1.00  0.00    -0.014 C 
HETATM   25  C6  UNL     1      -4.217  48.428 -18.138  1.00  0.00     0.010 C 
BRANCH  24  26
HETATM   26  C4  UNL     1      -2.065  48.767 -16.700  1.00  0.00     0.009 C 
BRANCH  26  27
HETATM   27  C3  UNL     1      -2.860  49.836 -15.939  1.00  0.00     0.034 C 
BRANCH  27  28
HETATM   28  C2  UNL     1      -2.041  50.500 -14.843  1.00  0.00    -0.083 C 
HETATM   29  C1  UNL     1      -0.785  50.905 -15.106  1.00  0.00     0.015 C 
BRANCH  28  30
HETATM   30  C29 UNL     1      -2.721  50.675 -13.480  1.00  0.00     0.034 C 
HETATM   31  C30 UNL     1      -2.307  49.615 -12.450  1.00  0.00     0.017 C 
BRANCH  30  32
HETATM   32  C31 UNL     1      -2.475  52.082 -12.893  1.00  0.00     0.187 C 
BRANCH  32  33
HETATM   33  O2  UNL     1      -3.704  52.751 -12.555  1.00  0.00    -0.321 OA
BRANCH  33  34
HETATM   34  C32 UNL     1      -4.057  52.706 -11.242  1.00  0.00     0.254 C 
HETATM   35  C33 UNL     1      -3.702  53.998 -10.573  1.00  0.00     0.126 C 
HETATM   36  O3  UNL     1      -4.584  51.757 -10.678  1.00  0.00    -0.266 OA
ENDBRANCH  33  34
ENDBRANCH  32  33
ENDBRANCH  30  32
ENDBRANCH  28  30
ENDBRANCH  27  28
ENDBRANCH  26  27
ENDBRANCH  24  26
ENDBRANCH   1  24
TORSDOF 8
ENDMDL
MODEL 8
REMARK minimizedAffinity -8.55162048
REMARK  8 active torsions:
REMARK  status: ('A' for Active; 'I' for Inactive)
REMARK    1  A    between atoms: C2_2  and  C3_3 
REMARK    2  A    between atoms: C2_2  and  C29_30 
REMARK    3  A    between atoms: C3_3  and  C4_4 
REMARK    4  A    between atoms: C4_4  and  C5_5 
REMARK    5  A    between atoms: C5_5  and  C7_7 
REMARK    6  A    between atoms: C29_30  and  C31_32 
REMARK    7  A    between atoms: C31_32  and  O2_33 
REMARK    8  A    between atoms: O2_33  and  C32_34 
ROOT
HETATM    1  C7  UNL     1      -2.110  48.661 -22.580  1.00  0.00    -0.002 C 
HETATM    2  C8  UNL     1      -2.307  47.324 -21.856  1.00  0.00     0.006 C 
HETATM    3  C9  UNL     1      -3.667  47.403 -21.191  1.00  0.00     0.011 C 
HETATM    4  C10 UNL     1      -4.577  48.267 -22.110  1.00  0.00    -0.032 C 
HETATM    5  C11 UNL     1      -5.361  49.232 -21.190  1.00  0.00     0.016 C 
HETATM    6  C12 UNL     1      -5.567  47.320 -22.898  1.00  0.00     0.004 C 
HETATM    7  C13 UNL     1      -6.668  46.671 -22.043  1.00  0.00     0.007 C 
HETATM    8  C14 UNL     1      -7.503  45.731 -22.905  1.00  0.00     0.007 C 
HETATM    9  C15 UNL     1      -8.338  46.479 -23.968  1.00  0.00     0.010 C 
HETATM   10  C16 UNL     1      -9.099  45.490 -24.920  1.00  0.00     0.018 C 
HETATM   11  C17 UNL     1     -10.197  44.742 -24.126  1.00  0.00     0.023 C 
HETATM   12  C18 UNL     1      -8.184  44.434 -25.569  1.00  0.00     0.023 C 
HETATM   13  C19 UNL     1      -9.807  46.253 -26.050  1.00  0.00     0.135 C 
HETATM   14  O1  UNL     1     -10.798  45.793 -26.626  1.00  0.00    -0.297 OA
HETATM   15  C20 UNL     1      -9.271  47.598 -26.461  1.00  0.00     0.080 C 
HETATM   16  C21 UNL     1      -7.784  47.674 -26.195  1.00  0.00     0.018 C 
HETATM   17  C22 UNL     1      -7.504  47.555 -24.708  1.00  0.00    -0.026 A 
HETATM   18  C23 UNL     1      -7.362  48.887 -23.996  1.00  0.00     0.021 A 
HETATM   19  C24 UNL     1      -6.139  48.010 -24.138  1.00  0.00    -0.027 A 
HETATM   20  C25 UNL     1      -5.070  48.452 -25.124  1.00  0.00     0.011 C 
HETATM   21  C26 UNL     1      -3.666  48.402 -24.529  1.00  0.00     0.011 C 
HETATM   22  C27 UNL     1      -3.558  49.017 -23.094  1.00  0.00    -0.032 C 
HETATM   23  C28 UNL     1      -3.836  50.524 -23.246  1.00  0.00     0.016 C 
ENDROOT
BRANCH   1  24
HETATM   24  C5  UNL     1      -1.231  49.666 -21.765  1.00  0.00    -0.014 C 
HETATM   25  C6  UNL     1      -0.730  49.198 -20.400  1.00  0.00     0.010 C 
BRANCH  24  26
HETATM   26  C4  UNL     1      -1.817  51.107 -21.808  1.00  0.00     0.009 C 
BRANCH  26  27
HETATM   27  C3  UNL     1      -0.894  52.247 -21.361  1.00  0.00     0.034 C 
BRANCH  27  28
HETATM   28  C2  UNL     1       0.057  52.693 -22.461  1.00  0.00    -0.083 C 
HETATM   29  C1  UNL     1       1.182  53.357 -22.137  1.00  0.00     0.015 C 
BRANCH  28  30
HETATM   30  C29 UNL     1      -0.334  52.338 -23.900  1.00  0.00     0.034 C 
HETATM   31  C30 UNL     1      -1.647  52.991 -24.355  1.00  0.00     0.017 C 
BRANCH  30  32
HETATM   32  C31 UNL     1       0.786  52.691 -24.903  1.00  0.00     0.187 C 
BRANCH  32  33
HETATM   33  O2  UNL     1       1.510  51.527 -25.340  1.00  0.00    -0.321 OA
BRANCH  33  34
HETATM   34  C32 UNL     1       1.878  51.519 -26.650  1.00  0.00     0.254 C 
HETATM   35  C33 UNL     1       0.682  51.762 -27.518  1.00  0.00     0.126 C 
HETATM   36  O3  UNL     1       3.012  51.339 -27.070  1.00  0.00    -0.266 OA
ENDBRANCH  33  34
ENDBRANCH  32  33
ENDBRANCH  30  32
ENDBRANCH  28  30
ENDBRANCH  27  28
ENDBRANCH  26  27
ENDBRANCH  24  26
ENDBRANCH   1  24
TORSDOF 8
ENDMDL
MODEL 9
REMARK minimizedAffinity -8.53144646
REMARK  8 active torsions:
REMARK  status: ('A' for Active; 'I' for Inactive)
REMARK    1  A    between atoms: C2_2  and  C3_3 
REMARK    2  A    between atoms: C2_2  and  C29_30 
REMARK    3  A    between atoms: C3_3  and  C4_4 
REMARK    4  A    between atoms: C4_4  and  C5_5 
REMARK    5  A    between atoms: C5_5  and  C7_7 
REMARK    6  A    between atoms: C29_30  and  C31_32 
REMARK    7  A    between atoms: C31_32  and  O2_33 
REMARK    8  A    between atoms: O2_33  and  C32_34 
ROOT
HETATM    1  C7  UNL     1      -2.553  49.157 -22.713  1.00  0.00    -0.002 C 
HETATM    2  C8  UNL     1      -2.744  47.911 -21.839  1.00  0.00     0.006 C 
HETATM    3  C9  UNL     1      -4.179  47.954 -21.354  1.00  0.00     0.011 C 
HETATM    4  C10 UNL     1      -5.025  48.610 -22.483  1.00  0.00    -0.032 C 
HETATM    5  C11 UNL     1      -5.987  49.611 -21.801  1.00  0.00     0.016 C 
HETATM    6  C12 UNL     1      -5.836  47.487 -23.243  1.00  0.00     0.004 C 
HETATM    7  C13 UNL     1      -6.988  46.857 -22.441  1.00  0.00     0.007 C 
HETATM    8  C14 UNL     1      -7.637  45.745 -23.257  1.00  0.00     0.007 C 
HETATM    9  C15 UNL     1      -8.381  46.275 -24.502  1.00  0.00     0.010 C 
HETATM   10  C16 UNL     1      -8.942  45.109 -25.391  1.00  0.00     0.018 C 
HETATM   11  C17 UNL     1     -10.076  44.375 -24.635  1.00  0.00     0.023 C 
HETATM   12  C18 UNL     1      -7.879  44.064 -25.778  1.00  0.00     0.023 C 
HETATM   13  C19 UNL     1      -9.554  45.656 -26.690  1.00  0.00     0.135 C 
HETATM   14  O1  UNL     1     -10.428  45.041 -27.309  1.00  0.00    -0.297 OA
HETATM   15  C20 UNL     1      -9.068  46.980 -27.217  1.00  0.00     0.080 C 
HETATM   16  C21 UNL     1      -7.636  47.220 -26.792  1.00  0.00     0.018 C 
HETATM   17  C22 UNL     1      -7.540  47.317 -25.281  1.00  0.00    -0.026 A 
HETATM   18  C23 UNL     1      -7.585  48.737 -24.747  1.00  0.00     0.021 A 
HETATM   19  C24 UNL     1      -6.294  47.960 -24.624  1.00  0.00    -0.027 A 
HETATM   20  C25 UNL     1      -5.143  48.364 -25.530  1.00  0.00     0.011 C 
HETATM   21  C26 UNL     1      -3.826  48.515 -24.775  1.00  0.00     0.011 C 
HETATM   22  C27 UNL     1      -3.947  49.316 -23.435  1.00  0.00    -0.032 C 
HETATM   23  C28 UNL     1      -4.310  50.760 -23.824  1.00  0.00     0.016 C 
ENDROOT
BRANCH   1  24
HETATM   24  C5  UNL     1      -1.859  50.330 -21.947  1.00  0.00    -0.014 C 
HETATM   25  C6  UNL     1      -2.764  51.434 -21.403  1.00  0.00     0.010 C 
BRANCH  24  26
HETATM   26  C4  UNL     1      -0.575  50.815 -22.682  1.00  0.00     0.009 C 
BRANCH  26  27
HETATM   27  C3  UNL     1      -0.739  51.274 -24.137  1.00  0.00     0.034 C 
BRANCH  27  28
HETATM   28  C2  UNL     1       0.229  52.387 -24.509  1.00  0.00    -0.083 C 
HETATM   29  C1  UNL     1       0.642  53.251 -23.562  1.00  0.00     0.015 C 
BRANCH  28  30
HETATM   30  C29 UNL     1       0.687  52.447 -25.970  1.00  0.00     0.034 C 
HETATM   31  C30 UNL     1       0.971  51.066 -26.578  1.00  0.00     0.017 C 
BRANCH  30  32
HETATM   32  C31 UNL     1      -0.327  53.198 -26.859  1.00  0.00     0.187 C 
BRANCH  32  33
HETATM   33  O2  UNL     1      -1.168  52.297 -27.604  1.00  0.00    -0.321 OA
BRANCH  33  34
HETATM   34  C32 UNL     1      -2.426  52.128 -27.116  1.00  0.00     0.254 C 
HETATM   35  C33 UNL     1      -2.992  50.830 -27.604  1.00  0.00     0.126 C 
HETATM   36  O3  UNL     1      -3.020  52.912 -26.390  1.00  0.00    -0.266 OA
ENDBRANCH  33  34
ENDBRANCH  32  33
ENDBRANCH  30  32
ENDBRANCH  28  30
ENDBRANCH  27  28
ENDBRANCH  26  27
ENDBRANCH  24  26
ENDBRANCH   1  24
TORSDOF 8
ENDMDL
