MODEL 1
REMARK minimizedAffinity -8.46305656
REMARK CNNscore 0.855739057
REMARK CNNaffinity 7.34249163
REMARK  11 active torsions:
REMARK  status: ('A' for Active; 'I' for Inactive)
REMARK    1  A    between atoms: C2_2  and  O2_4 
REMARK    2  A    between atoms: O2_4  and  C3_5 
REMARK    3  A    between atoms: C4_6  and  O3_7 
REMARK    4  A    between atoms: O3_7  and  C5_8 
REMARK    5  A    between atoms: C15_18  and  C16_19 
REMARK    6  A    between atoms: C20_23  and  C21_24 
REMARK    7  A    between atoms: C21_24  and  O4_27 
REMARK    8  A    between atoms: C24_29  and  O6_30 
REMARK    9  A    between atoms: C30_36  and  O7_37 
REMARK   10  A    between atoms: C36_44  and  O9_45 
REMARK   11  A    between atoms: C37_46  and  O10_47 
ROOT
HETATM    1  C5  UNL     1       6.337  56.917  -5.155  1.00  0.00     0.133 C 
HETATM    2  C6  UNL     1       4.857  57.277  -4.991  1.00  0.00     0.034 C 
HETATM    3  C7  UNL     1       4.283  57.796  -6.299  1.00  0.00     0.013 C 
HETATM    4  C8  UNL     1       4.447  56.794  -7.430  1.00  0.00    -0.025 A 
HETATM    5  C9  UNL     1       3.667  57.157  -8.672  1.00  0.00     0.021 A 
HETATM    6  C10 UNL     1       3.290  55.893  -7.912  1.00  0.00    -0.027 A 
HETATM    7  C11 UNL     1       1.943  55.915  -7.204  1.00  0.00     0.011 C 
HETATM    8  C12 UNL     1       0.792  55.290  -8.016  1.00  0.00     0.011 C 
HETATM    9  C13 UNL     1       1.246  54.434  -9.212  1.00  0.00    -0.028 C 
HETATM   10  C14 UNL     1       1.546  55.363 -10.427  1.00  0.00     0.016 C 
HETATM   11  C15 UNL     1       0.248  53.297  -9.642  1.00  0.00     0.057 C 
HETATM   12  C24 UNL     1       1.171  52.298 -10.405  1.00  0.00     0.126 C 
HETATM   13  C25 UNL     1       2.635  52.667 -10.029  1.00  0.00     0.042 C 
HETATM   14  C26 UNL     1       2.509  53.585  -8.796  1.00  0.00    -0.029 C 
HETATM   15  C27 UNL     1       2.261  52.626  -7.570  1.00  0.00     0.016 C 
HETATM   16  C28 UNL     1       3.724  54.490  -8.379  1.00  0.00     0.006 C 
HETATM   17  C29 UNL     1       4.910  54.509  -9.340  1.00  0.00     0.038 C 
HETATM   18  C30 UNL     1       6.074  55.431  -8.912  1.00  0.00     0.124 C 
HETATM   19  C31 UNL     1       5.911  56.308  -7.623  1.00  0.00     0.034 C 
HETATM   20  C32 UNL     1       6.562  55.819  -6.258  1.00  0.00    -0.015 C 
HETATM   21  C33 UNL     1       8.093  55.604  -6.388  1.00  0.00     0.018 C 
HETATM   22  C34 UNL     1       5.983  54.482  -5.755  1.00  0.00     0.018 C 
ENDROOT
BRANCH   1  23
HETATM   23  O3  UNL     1       7.013  58.133  -5.521  1.00  0.00    -0.352 OA
BRANCH  23  24
HETATM   24  C4  UNL     1       7.719  58.760  -4.451  1.00  0.00     0.292 C 
HETATM   25  C3  UNL     1       8.803  59.674  -5.067  1.00  0.00     0.218 C 
HETATM   26  C37 UNL     1       9.243  60.679  -4.005  1.00  0.00     0.183 C 
HETATM   27  C36 UNL     1       8.049  61.541  -3.560  1.00  0.00     0.173 C 
HETATM   28  C35 UNL     1       6.709  60.831  -3.809  1.00  0.00     0.205 C 
HETATM   29  O8  UNL     1       6.816  59.434  -3.561  1.00  0.00    -0.356 OA
BRANCH  25  30
HETATM   30  O2  UNL     1       9.926  58.854  -5.465  1.00  0.00    -0.309 OA
BRANCH  30  31
HETATM   31  C2  UNL     1      10.488  58.088  -4.490  1.00  0.00     0.255 C 
HETATM   32  C1  UNL     1      11.944  58.409  -4.355  1.00  0.00     0.126 C 
HETATM   33  O1  UNL     1       9.921  57.230  -3.830  1.00  0.00    -0.266 OA
ENDBRANCH  30  31
ENDBRANCH  25  30
BRANCH  26  34
HETATM   34  O10 UNL     1      10.283  61.538  -4.501  1.00  0.00    -0.390 OA
HETATM   35  H60 UNL     1      10.600  62.049  -3.731  1.00  0.00     0.210 HD
ENDBRANCH  26  34
BRANCH  27  36
HETATM   36  O9  UNL     1       8.247  61.840  -2.170  1.00  0.00    -0.391 OA
HETATM   37  H58 UNL     1       7.410  62.180  -1.810  1.00  0.00     0.210 HD
ENDBRANCH  27  36
ENDBRANCH  23  24
ENDBRANCH   1  23
BRANCH  18  38
HETATM   38  O7  UNL     1       7.296  54.701  -8.951  1.00  0.00    -0.395 OA
HETATM   39  H47 UNL     1       7.144  53.826  -8.553  1.00  0.00     0.210 HD
ENDBRANCH  18  38
BRANCH  11  40
HETATM   40  C16 UNL     1      -1.160  53.603 -10.229  1.00  0.00     0.065 C 
HETATM   41  C17 UNL     1      -1.529  55.073 -10.431  1.00  0.00     0.046 C 
HETATM   42  C18 UNL     1      -1.404  52.835 -11.538  1.00  0.00     0.041 C 
HETATM   43  C19 UNL     1      -2.859  52.444 -11.461  1.00  0.00     0.038 C 
HETATM   44  C20 UNL     1      -3.090  52.229  -9.972  1.00  0.00     0.156 C 
HETATM   45  O5  UNL     1      -2.139  53.075  -9.292  1.00  0.00    -0.372 OA
BRANCH  44  46
HETATM   46  C21 UNL     1      -2.954  50.751  -9.494  1.00  0.00     0.076 C 
HETATM   47  C22 UNL     1      -2.117  50.670  -8.213  1.00  0.00     0.048 C 
HETATM   48  C23 UNL     1      -2.311  49.878 -10.580  1.00  0.00     0.048 C 
BRANCH  46  49
HETATM   49  O4  UNL     1      -4.246  50.199  -9.200  1.00  0.00    -0.388 OA
HETATM   50  H35 UNL     1      -4.131  49.247  -9.036  1.00  0.00     0.210 HD
ENDBRANCH  46  49
ENDBRANCH  44  46
ENDBRANCH  11  40
BRANCH  12  51
HETATM   51  O6  UNL     1       1.036  52.357 -11.811  1.00  0.00    -0.395 OA
HETATM   52  H37 UNL     1       0.399  51.674 -12.075  1.00  0.00     0.210 HD
ENDBRANCH  12  51
TORSDOF 11
ENDMDL
MODEL 2
REMARK minimizedAffinity -10.0335665
REMARK CNNscore 0.804617286
REMARK CNNaffinity 8.000144
REMARK  11 active torsions:
REMARK  status: ('A' for Active; 'I' for Inactive)
REMARK    1  A    between atoms: C2_2  and  O2_4 
REMARK    2  A    between atoms: O2_4  and  C3_5 
REMARK    3  A    between atoms: C4_6  and  O3_7 
REMARK    4  A    between atoms: O3_7  and  C5_8 
REMARK    5  A    between atoms: C15_18  and  C16_19 
REMARK    6  A    between atoms: C20_23  and  C21_24 
REMARK    7  A    between atoms: C21_24  and  O4_27 
REMARK    8  A    between atoms: C24_29  and  O6_30 
REMARK    9  A    between atoms: C30_36  and  O7_37 
REMARK   10  A    between atoms: C36_44  and  O9_45 
REMARK   11  A    between atoms: C37_46  and  O10_47 
ROOT
HETATM    1  C5  UNL     1      -0.809  50.026 -22.167  1.00  0.00     0.133 C 
HETATM    2  C6  UNL     1       0.194  50.854 -21.357  1.00  0.00     0.034 C 
HETATM    3  C7  UNL     1      -0.531  51.814 -20.428  1.00  0.00     0.013 C 
HETATM    4  C8  UNL     1      -1.480  51.090 -19.487  1.00  0.00    -0.025 A 
HETATM    5  C9  UNL     1      -2.020  51.968 -18.384  1.00  0.00     0.021 A 
HETATM    6  C10 UNL     1      -1.122  50.796 -18.015  1.00  0.00    -0.027 A 
HETATM    7  C11 UNL     1       0.251  51.153 -17.465  1.00  0.00     0.011 C 
HETATM    8  C12 UNL     1       0.329  51.177 -15.926  1.00  0.00     0.011 C 
HETATM    9  C13 UNL     1      -0.854  50.494 -15.216  1.00  0.00    -0.028 C 
HETATM   10  C14 UNL     1      -2.051  51.489 -15.133  1.00  0.00     0.016 C 
HETATM   11  C15 UNL     1      -0.538  49.918 -13.787  1.00  0.00     0.057 C 
HETATM   12  C24 UNL     1      -1.650  48.841 -13.596  1.00  0.00     0.126 C 
HETATM   13  C25 UNL     1      -2.249  48.563 -15.005  1.00  0.00     0.042 C 
HETATM   14  C26 UNL     1      -1.238  49.177 -15.994  1.00  0.00    -0.029 C 
HETATM   15  C27 UNL     1      -0.062  48.133 -16.108  1.00  0.00     0.016 C 
HETATM   16  C28 UNL     1      -1.683  49.467 -17.473  1.00  0.00     0.006 C 
HETATM   17  C29 UNL     1      -3.163  49.260 -17.783  1.00  0.00     0.038 C 
HETATM   18  C30 UNL     1      -3.569  49.581 -19.239  1.00  0.00     0.124 C 
HETATM   19  C31 UNL     1      -2.489  50.159 -20.217  1.00  0.00     0.034 C 
HETATM   20  C32 UNL     1      -1.767  49.186 -21.246  1.00  0.00    -0.015 C 
HETATM   21  C33 UNL     1      -2.780  48.464 -22.173  1.00  0.00     0.018 C 
HETATM   22  C34 UNL     1      -0.949  48.076 -20.558  1.00  0.00     0.018 C 
ENDROOT
BRANCH   1  23
HETATM   23  O3  UNL     1      -1.570  50.962 -22.951  1.00  0.00    -0.352 OA
BRANCH  23  24
HETATM   24  C4  UNL     1      -1.102  51.129 -24.289  1.00  0.00     0.292 C 
HETATM   25  C3  UNL     1      -2.163  51.938 -25.067  1.00  0.00     0.218 C 
HETATM   26  C37 UNL     1      -1.504  52.517 -26.317  1.00  0.00     0.183 C 
HETATM   27  C36 UNL     1      -0.346  53.449 -25.926  1.00  0.00     0.173 C 
HETATM   28  C35 UNL     1       0.211  53.112 -24.533  1.00  0.00     0.205 C 
HETATM   29  O8  UNL     1       0.212  51.707 -24.308  1.00  0.00    -0.356 OA
BRANCH  25  30
HETATM   30  O2  UNL     1      -3.239  51.046 -25.445  1.00  0.00    -0.309 OA
BRANCH  30  31
HETATM   31  C2  UNL     1      -2.924  50.068 -26.337  1.00  0.00     0.255 C 
HETATM   32  C1  UNL     1      -3.313  48.729 -25.794  1.00  0.00     0.126 C 
HETATM   33  O1  UNL     1      -2.372  50.226 -27.415  1.00  0.00    -0.266 OA
ENDBRANCH  30  31
ENDBRANCH  25  30
BRANCH  26  34
HETATM   34  O10 UNL     1      -2.450  53.252 -27.111  1.00  0.00    -0.390 OA
HETATM   35  H60 UNL     1      -1.991  53.465 -27.947  1.00  0.00     0.210 HD
ENDBRANCH  26  34
BRANCH  27  36
HETATM   36  O9  UNL     1       0.654  53.323 -26.948  1.00  0.00    -0.391 OA
HETATM   37  H58 UNL     1       1.480  53.715 -26.615  1.00  0.00     0.210 HD
ENDBRANCH  27  36
ENDBRANCH  23  24
ENDBRANCH   1  23
BRANCH  18  38
HETATM   38  O7  UNL     1      -4.298  48.485 -19.782  1.00  0.00    -0.395 OA
HETATM   39  H47 UNL     1      -3.844  47.661 -19.532  1.00  0.00     0.210 HD
ENDBRANCH  18  38
BRANCH  11  40
HETATM   40  C16 UNL     1      -0.175  50.832 -12.582  1.00  0.00     0.065 C 
HETATM   41  C17 UNL     1       1.056  50.448 -11.760  1.00  0.00     0.046 C 
HETATM   42  C18 UNL     1      -0.063  52.306 -13.005  1.00  0.00     0.041 C 
HETATM   43  C19 UNL     1      -0.650  53.061 -11.838  1.00  0.00     0.038 C 
HETATM   44  C20 UNL     1      -1.725  52.122 -11.312  1.00  0.00     0.156 C 
HETATM   45  O5  UNL     1      -1.297  50.788 -11.657  1.00  0.00    -0.372 OA
BRANCH  44  46
HETATM   46  C21 UNL     1      -3.161  52.398 -11.855  1.00  0.00     0.076 C 
HETATM   47  C22 UNL     1      -3.763  53.639 -11.187  1.00  0.00     0.048 C 
HETATM   48  C23 UNL     1      -4.081  51.193 -11.617  1.00  0.00     0.048 C 
BRANCH  46  49
HETATM   49  O4  UNL     1      -3.123  52.645 -13.268  1.00  0.00    -0.388 OA
HETATM   50  H35 UNL     1      -4.041  52.680 -13.587  1.00  0.00     0.210 HD
ENDBRANCH  46  49
ENDBRANCH  44  46
ENDBRANCH  11  40
BRANCH  12  51
HETATM   51  O6  UNL     1      -2.693  49.246 -12.731  1.00  0.00    -0.395 OA
HETATM   52  H37 UNL     1      -2.485  48.914 -11.843  1.00  0.00     0.210 HD
ENDBRANCH  12  51
TORSDOF 11
ENDMDL
MODEL 3
REMARK minimizedAffinity -9.96074772
REMARK CNNscore 0.763982832
REMARK CNNaffinity 7.29635286
REMARK  11 active torsions:
REMARK  status: ('A' for Active; 'I' for Inactive)
REMARK    1  A    between atoms: C2_2  and  O2_4 
REMARK    2  A    between atoms: O2_4  and  C3_5 
REMARK    3  A    between atoms: C4_6  and  O3_7 
REMARK    4  A    between atoms: O3_7  and  C5_8 
REMARK    5  A    between atoms: C15_18  and  C16_19 
REMARK    6  A    between atoms: C20_23  and  C21_24 
REMARK    7  A    between atoms: C21_24  and  O4_27 
REMARK    8  A    between atoms: C24_29  and  O6_30 
REMARK    9  A    between atoms: C30_36  and  O7_37 
REMARK   10  A    between atoms: C36_44  and  O9_45 
REMARK   11  A    between atoms: C37_46  and  O10_47 
ROOT
HETATM    1  C5  UNL     1      -2.436  51.017 -23.357  1.00  0.00     0.133 C 
HETATM    2  C6  UNL     1      -3.484  49.980 -23.774  1.00  0.00     0.034 C 
HETATM    3  C7  UNL     1      -2.976  48.571 -23.514  1.00  0.00     0.013 C 
HETATM    4  C8  UNL     1      -2.595  48.362 -22.058  1.00  0.00    -0.025 A 
HETATM    5  C9  UNL     1      -2.335  46.917 -21.705  1.00  0.00     0.021 A 
HETATM    6  C10 UNL     1      -3.515  47.628 -21.059  1.00  0.00    -0.027 A 
HETATM    7  C11 UNL     1      -4.897  47.153 -21.482  1.00  0.00     0.011 C 
HETATM    8  C12 UNL     1      -5.524  46.109 -20.536  1.00  0.00     0.011 C 
HETATM    9  C13 UNL     1      -4.837  46.000 -19.163  1.00  0.00    -0.028 C 
HETATM   10  C14 UNL     1      -3.585  45.080 -19.284  1.00  0.00     0.016 C 
HETATM   11  C15 UNL     1      -5.758  45.497 -17.991  1.00  0.00     0.057 C 
HETATM   12  C24 UNL     1      -5.024  46.031 -16.723  1.00  0.00     0.126 C 
HETATM   13  C25 UNL     1      -4.018  47.113 -17.212  1.00  0.00     0.042 C 
HETATM   14  C26 UNL     1      -4.460  47.443 -18.652  1.00  0.00    -0.029 C 
HETATM   15  C27 UNL     1      -5.692  48.416 -18.511  1.00  0.00     0.016 C 
HETATM   16  C28 UNL     1      -3.459  48.174 -19.618  1.00  0.00     0.006 C 
HETATM   17  C29 UNL     1      -2.038  48.367 -19.096  1.00  0.00     0.038 C 
HETATM   18  C30 UNL     1      -1.075  49.064 -20.083  1.00  0.00     0.124 C 
HETATM   19  C31 UNL     1      -1.591  49.420 -21.520  1.00  0.00     0.034 C 
HETATM   20  C32 UNL     1      -2.062  50.904 -21.835  1.00  0.00    -0.015 C 
HETATM   21  C33 UNL     1      -0.941  51.942 -21.558  1.00  0.00     0.018 C 
HETATM   22  C34 UNL     1      -3.273  51.347 -20.991  1.00  0.00     0.018 C 
ENDROOT
BRANCH   1  23
HETATM   23  O3  UNL     1      -1.276  50.772 -24.172  1.00  0.00    -0.352 OA
BRANCH  23  24
HETATM   24  C4  UNL     1      -0.990  51.803 -25.118  1.00  0.00     0.292 C 
HETATM   25  C3  UNL     1      -0.516  51.131 -26.426  1.00  0.00     0.218 C 
HETATM   26  C37 UNL     1      -0.651  52.143 -27.561  1.00  0.00     0.183 C 
HETATM   27  C36 UNL     1      -2.119  52.574 -27.718  1.00  0.00     0.173 C 
HETATM   28  C35 UNL     1      -2.913  52.378 -26.417  1.00  0.00     0.205 C 
HETATM   29  O8  UNL     1      -2.114  52.681 -25.279  1.00  0.00    -0.356 OA
BRANCH  25  30
HETATM   30  O2  UNL     1       0.871  50.747 -26.271  1.00  0.00    -0.309 OA
BRANCH  30  31
HETATM   31  C2  UNL     1       1.767  51.764 -26.146  1.00  0.00     0.255 C 
HETATM   32  C1  UNL     1       2.822  51.654 -27.202  1.00  0.00     0.126 C 
HETATM   33  O1  UNL     1       1.758  52.632 -25.287  1.00  0.00    -0.266 OA
ENDBRANCH  30  31
ENDBRANCH  25  30
BRANCH  26  34
HETATM   34  O10 UNL     1      -0.187  51.594 -28.806  1.00  0.00    -0.390 OA
HETATM   35  H60 UNL     1      -0.176  52.337 -29.440  1.00  0.00     0.210 HD
ENDBRANCH  26  34
BRANCH  27  36
HETATM   36  O9  UNL     1      -2.108  53.947 -28.138  1.00  0.00    -0.391 OA
HETATM   37  H58 UNL     1      -3.003  54.307 -28.022  1.00  0.00     0.210 HD
ENDBRANCH  27  36
ENDBRANCH  23  24
ENDBRANCH   1  23
BRANCH  18  38
HETATM   38  O7  UNL     1      -0.426  50.148 -19.427  1.00  0.00    -0.395 OA
HETATM   39  H47 UNL     1      -1.090  50.635 -18.909  1.00  0.00     0.210 HD
ENDBRANCH  18  38
BRANCH  11  40
HETATM   40  C16 UNL     1      -6.351  44.059 -17.955  1.00  0.00     0.065 C 
HETATM   41  C17 UNL     1      -7.770  43.902 -17.408  1.00  0.00     0.046 C 
HETATM   42  C18 UNL     1      -6.259  43.376 -19.329  1.00  0.00     0.041 C 
HETATM   43  C19 UNL     1      -5.934  41.940 -18.996  1.00  0.00     0.038 C 
HETATM   44  C20 UNL     1      -5.087  42.050 -17.737  1.00  0.00     0.156 C 
HETATM   45  O5  UNL     1      -5.501  43.267 -17.080  1.00  0.00    -0.372 OA
BRANCH  44  46
HETATM   46  C21 UNL     1      -3.547  42.051 -17.980  1.00  0.00     0.076 C 
HETATM   47  C22 UNL     1      -2.964  40.650 -17.768  1.00  0.00     0.048 C 
HETATM   48  C23 UNL     1      -2.842  43.044 -17.046  1.00  0.00     0.048 C 
BRANCH  46  49
HETATM   49  O4  UNL     1      -3.253  42.440 -19.330  1.00  0.00    -0.388 OA
HETATM   50  H35 UNL     1      -2.290  42.556 -19.402  1.00  0.00     0.210 HD
ENDBRANCH  46  49
ENDBRANCH  44  46
ENDBRANCH  11  40
BRANCH  12  51
HETATM   51  O6  UNL     1      -4.310  45.036 -16.015  1.00  0.00    -0.395 OA
HETATM   52  H37 UNL     1      -4.888  44.706 -15.309  1.00  0.00     0.210 HD
ENDBRANCH  12  51
TORSDOF 11
ENDMDL
MODEL 4
REMARK minimizedAffinity -8.51168823
REMARK CNNscore 0.609542072
REMARK CNNaffinity 6.35551262
REMARK  11 active torsions:
REMARK  status: ('A' for Active; 'I' for Inactive)
REMARK    1  A    between atoms: C2_2  and  O2_4 
REMARK    2  A    between atoms: O2_4  and  C3_5 
REMARK    3  A    between atoms: C4_6  and  O3_7 
REMARK    4  A    between atoms: O3_7  and  C5_8 
REMARK    5  A    between atoms: C15_18  and  C16_19 
REMARK    6  A    between atoms: C20_23  and  C21_24 
REMARK    7  A    between atoms: C21_24  and  O4_27 
REMARK    8  A    between atoms: C24_29  and  O6_30 
REMARK    9  A    between atoms: C30_36  and  O7_37 
REMARK   10  A    between atoms: C36_44  and  O9_45 
REMARK   11  A    between atoms: C37_46  and  O10_47 
ROOT
HETATM    1  C5  UNL     1     -15.531  43.158 -25.078  1.00  0.00     0.133 C 
HETATM    2  C6  UNL     1     -15.139  42.551 -26.429  1.00  0.00     0.034 C 
HETATM    3  C7  UNL     1     -15.395  43.540 -27.555  1.00  0.00     0.013 C 
HETATM    4  C8  UNL     1     -14.653  44.849 -27.343  1.00  0.00    -0.025 A 
HETATM    5  C9  UNL     1     -14.671  45.754 -28.553  1.00  0.00     0.021 A 
HETATM    6  C10 UNL     1     -13.340  45.186 -28.081  1.00  0.00    -0.027 A 
HETATM    7  C11 UNL     1     -12.684  44.165 -29.001  1.00  0.00     0.011 C 
HETATM    8  C12 UNL     1     -11.634  44.761 -29.959  1.00  0.00     0.011 C 
HETATM    9  C13 UNL     1     -11.162  46.178 -29.586  1.00  0.00    -0.028 C 
HETATM   10  C14 UNL     1     -12.186  47.222 -30.123  1.00  0.00     0.016 C 
HETATM   11  C15 UNL     1      -9.713  46.551 -30.072  1.00  0.00     0.057 C 
HETATM   12  C24 UNL     1      -9.312  47.706 -29.104  1.00  0.00     0.126 C 
HETATM   13  C25 UNL     1     -10.308  47.654 -27.910  1.00  0.00     0.042 C 
HETATM   14  C26 UNL     1     -10.989  46.274 -28.021  1.00  0.00    -0.029 C 
HETATM   15  C27 UNL     1      -9.961  45.239 -27.424  1.00  0.00     0.016 C 
HETATM   16  C28 UNL     1     -12.336  46.015 -27.256  1.00  0.00     0.006 C 
HETATM   17  C29 UNL     1     -12.965  47.225 -26.571  1.00  0.00     0.038 C 
HETATM   18  C30 UNL     1     -14.303  46.937 -25.852  1.00  0.00     0.124 C 
HETATM   19  C31 UNL     1     -14.928  45.503 -25.959  1.00  0.00     0.034 C 
HETATM   20  C32 UNL     1     -14.732  44.475 -24.764  1.00  0.00    -0.015 C 
HETATM   21  C33 UNL     1     -15.273  45.033 -23.421  1.00  0.00     0.018 C 
HETATM   22  C34 UNL     1     -13.255  44.113 -24.512  1.00  0.00     0.018 C 
ENDROOT
BRANCH   1  23
HETATM   23  O3  UNL     1     -16.940  43.439 -25.151  1.00  0.00    -0.352 OA
BRANCH  23  24
HETATM   24  C4  UNL     1     -17.665  43.139 -23.959  1.00  0.00     0.292 C 
HETATM   25  C3  UNL     1     -19.081  43.739 -24.099  1.00  0.00     0.218 C 
HETATM   26  C37 UNL     1     -19.995  43.056 -23.084  1.00  0.00     0.183 C 
HETATM   27  C36 UNL     1     -20.058  41.544 -23.357  1.00  0.00     0.173 C 
HETATM   28  C35 UNL     1     -18.817  41.050 -24.118  1.00  0.00     0.205 C 
HETATM   29  O8  UNL     1     -17.645  41.730 -23.684  1.00  0.00    -0.356 OA
BRANCH  25  30
HETATM   30  O2  UNL     1     -19.011  45.158 -23.822  1.00  0.00    -0.309 OA
BRANCH  30  31
HETATM   31  C2  UNL     1     -19.327  45.988 -24.853  1.00  0.00     0.255 C 
HETATM   32  C1  UNL     1     -19.649  45.192 -26.078  1.00  0.00     0.126 C 
HETATM   33  O1  UNL     1     -19.321  47.210 -24.823  1.00  0.00    -0.266 OA
ENDBRANCH  30  31
ENDBRANCH  25  30
BRANCH  26  34
HETATM   34  O10 UNL     1     -21.325  43.597 -23.133  1.00  0.00    -0.390 OA
HETATM   35  H60 UNL     1     -21.800  43.212 -22.372  1.00  0.00     0.210 HD
ENDBRANCH  26  34
BRANCH  27  36
HETATM   36  O9  UNL     1     -20.199  40.895 -22.084  1.00  0.00    -0.391 OA
HETATM   37  H58 UNL     1     -20.010  39.949 -22.202  1.00  0.00     0.210 HD
ENDBRANCH  27  36
ENDBRANCH  23  24
ENDBRANCH   1  23
BRANCH  18  38
HETATM   38  O7  UNL     1     -14.241  47.432 -24.518  1.00  0.00    -0.395 OA
HETATM   39  H47 UNL     1     -13.378  47.188 -24.140  1.00  0.00     0.210 HD
ENDBRANCH  18  38
BRANCH  11  40
HETATM   40  C16 UNL     1      -9.348  46.686 -31.579  1.00  0.00     0.065 C 
HETATM   41  C17 UNL     1     -10.437  46.339 -32.595  1.00  0.00     0.046 C 
HETATM   42  C18 UNL     1      -8.780  48.077 -31.900  1.00  0.00     0.041 C 
HETATM   43  C19 UNL     1      -7.697  47.800 -32.913  1.00  0.00     0.038 C 
HETATM   44  C20 UNL     1      -7.164  46.436 -32.497  1.00  0.00     0.156 C 
HETATM   45  O5  UNL     1      -8.256  45.761 -31.839  1.00  0.00    -0.372 OA
BRANCH  44  46
HETATM   46  C21 UNL     1      -5.906  46.477 -31.576  1.00  0.00     0.076 C 
HETATM   47  C22 UNL     1      -5.603  47.913 -31.135  1.00  0.00     0.048 C 
HETATM   48  C23 UNL     1      -4.680  45.895 -32.292  1.00  0.00     0.048 C 
BRANCH  46  49
HETATM   49  O4  UNL     1      -6.128  45.700 -30.390  1.00  0.00    -0.388 OA
HETATM   50  H35 UNL     1      -5.283  45.642 -29.911  1.00  0.00     0.210 HD
ENDBRANCH  46  49
ENDBRANCH  44  46
ENDBRANCH  11  40
BRANCH  12  51
HETATM   51  O6  UNL     1      -9.376  48.992 -29.691  1.00  0.00    -0.395 OA
HETATM   52  H37 UNL     1      -8.488  49.211 -30.017  1.00  0.00     0.210 HD
ENDBRANCH  12  51
TORSDOF 11
ENDMDL
MODEL 5
REMARK minimizedAffinity -10.0740824
REMARK CNNscore 0.591972411
REMARK CNNaffinity 7.61501169
REMARK  11 active torsions:
REMARK  status: ('A' for Active; 'I' for Inactive)
REMARK    1  A    between atoms: C2_2  and  O2_4 
REMARK    2  A    between atoms: O2_4  and  C3_5 
REMARK    3  A    between atoms: C4_6  and  O3_7 
REMARK    4  A    between atoms: O3_7  and  C5_8 
REMARK    5  A    between atoms: C15_18  and  C16_19 
REMARK    6  A    between atoms: C20_23  and  C21_24 
REMARK    7  A    between atoms: C21_24  and  O4_27 
REMARK    8  A    between atoms: C24_29  and  O6_30 
REMARK    9  A    between atoms: C30_36  and  O7_37 
REMARK   10  A    between atoms: C36_44  and  O9_45 
REMARK   11  A    between atoms: C37_46  and  O10_47 
ROOT
HETATM    1  C5  UNL     1      -0.893  50.002 -22.331  1.00  0.00     0.133 C 
HETATM    2  C6  UNL     1      -0.120  50.947 -21.405  1.00  0.00     0.034 C 
HETATM    3  C7  UNL     1      -1.079  51.774 -20.563  1.00  0.00     0.013 C 
HETATM    4  C8  UNL     1      -2.016  50.902 -19.744  1.00  0.00    -0.025 A 
HETATM    5  C9  UNL     1      -2.801  51.671 -18.708  1.00  0.00     0.021 A 
HETATM    6  C10 UNL     1      -1.793  50.631 -18.241  1.00  0.00    -0.027 A 
HETATM    7  C11 UNL     1      -0.558  51.168 -17.531  1.00  0.00     0.011 C 
HETATM    8  C12 UNL     1      -0.664  51.170 -15.993  1.00  0.00     0.011 C 
HETATM    9  C13 UNL     1      -1.811  50.311 -15.432  1.00  0.00    -0.028 C 
HETATM   10  C14 UNL     1      -3.139  51.123 -15.486  1.00  0.00     0.016 C 
HETATM   11  C15 UNL     1      -1.583  49.755 -13.978  1.00  0.00     0.057 C 
HETATM   12  C24 UNL     1      -2.542  48.527 -13.924  1.00  0.00     0.126 C 
HETATM   13  C25 UNL     1      -2.928  48.197 -15.394  1.00  0.00     0.042 C 
HETATM   14  C26 UNL     1      -1.907  48.969 -16.255  1.00  0.00    -0.029 C 
HETATM   15  C27 UNL     1      -0.589  48.106 -16.234  1.00  0.00     0.016 C 
HETATM   16  C28 UNL     1      -2.216  49.224 -17.775  1.00  0.00     0.006 C 
HETATM   17  C29 UNL     1      -3.604  48.815 -18.258  1.00  0.00     0.038 C 
HETATM   18  C30 UNL     1      -3.881  49.107 -19.751  1.00  0.00     0.124 C 
HETATM   19  C31 UNL     1      -2.789  49.853 -20.592  1.00  0.00     0.034 C 
HETATM   20  C32 UNL     1      -1.820  49.015 -21.533  1.00  0.00    -0.015 C 
HETATM   21  C33 UNL     1      -2.604  48.176 -22.576  1.00  0.00     0.018 C 
HETATM   22  C34 UNL     1      -0.936  48.018 -20.758  1.00  0.00     0.018 C 
ENDROOT
BRANCH   1  23
HETATM   23  O3  UNL     1      -1.684  50.837 -23.194  1.00  0.00    -0.352 OA
BRANCH  23  24
HETATM   24  C4  UNL     1      -1.133  51.029 -24.497  1.00  0.00     0.292 C 
HETATM   25  C3  UNL     1      -2.128  51.884 -25.314  1.00  0.00     0.218 C 
HETATM   26  C37 UNL     1      -1.382  52.480 -26.506  1.00  0.00     0.183 C 
HETATM   27  C36 UNL     1      -0.229  53.374 -26.019  1.00  0.00     0.173 C 
HETATM   28  C35 UNL     1       0.236  52.987 -24.607  1.00  0.00     0.205 C 
HETATM   29  O8  UNL     1       0.192  51.576 -24.422  1.00  0.00    -0.356 OA
BRANCH  25  30
HETATM   30  O2  UNL     1      -3.198  51.028 -25.780  1.00  0.00    -0.309 OA
BRANCH  30  31
HETATM   31  C2  UNL     1      -2.876  50.143 -26.763  1.00  0.00     0.255 C 
HETATM   32  C1  UNL     1      -2.727  48.768 -26.191  1.00  0.00     0.126 C 
HETATM   33  O1  UNL     1      -2.693  50.409 -27.941  1.00  0.00    -0.266 OA
ENDBRANCH  30  31
ENDBRANCH  25  30
BRANCH  26  34
HETATM   34  O10 UNL     1      -2.262  53.258 -27.333  1.00  0.00    -0.390 OA
HETATM   35  H60 UNL     1      -1.749  53.483 -28.134  1.00  0.00     0.210 HD
ENDBRANCH  26  34
BRANCH  27  36
HETATM   36  O9  UNL     1       0.828  53.252 -26.983  1.00  0.00    -0.391 OA
HETATM   37  H58 UNL     1       1.640  53.615 -26.591  1.00  0.00     0.210 HD
ENDBRANCH  27  36
ENDBRANCH  23  24
ENDBRANCH   1  23
BRANCH  18  38
HETATM   38  O7  UNL     1      -4.377  47.929 -20.380  1.00  0.00    -0.395 OA
HETATM   39  H47 UNL     1      -3.841  47.173 -20.082  1.00  0.00     0.210 HD
ENDBRANCH  18  38
BRANCH  11  40
HETATM   40  C16 UNL     1      -1.497  50.686 -12.734  1.00  0.00     0.065 C 
HETATM   41  C17 UNL     1      -2.803  51.305 -12.234  1.00  0.00     0.046 C 
HETATM   42  C18 UNL     1      -0.783  49.995 -11.561  1.00  0.00     0.041 C 
HETATM   43  C19 UNL     1       0.025  51.101 -10.929  1.00  0.00     0.038 C 
HETATM   44  C20 UNL     1       0.400  51.985 -12.110  1.00  0.00     0.156 C 
HETATM   45  O5  UNL     1      -0.641  51.804 -13.093  1.00  0.00    -0.372 OA
BRANCH  44  46
HETATM   46  C21 UNL     1       1.801  51.693 -12.729  1.00  0.00     0.076 C 
HETATM   47  C22 UNL     1       1.942  50.206 -13.074  1.00  0.00     0.048 C 
HETATM   48  C23 UNL     1       2.924  52.102 -11.767  1.00  0.00     0.048 C 
BRANCH  46  49
HETATM   49  O4  UNL     1       1.976  52.436 -13.945  1.00  0.00    -0.388 OA
HETATM   50  H35 UNL     1       2.901  52.330 -14.225  1.00  0.00     0.210 HD
ENDBRANCH  46  49
ENDBRANCH  44  46
ENDBRANCH  11  40
BRANCH  12  51
HETATM   51  O6  UNL     1      -3.726  48.760 -13.186  1.00  0.00    -0.395 OA
HETATM   52  H37 UNL     1      -3.577  48.443 -12.281  1.00  0.00     0.210 HD
ENDBRANCH  12  51
TORSDOF 11
ENDMDL
MODEL 6
REMARK minimizedAffinity -8.64053917
REMARK CNNscore 0.590244234
REMARK CNNaffinity 6.70931292
REMARK  11 active torsions:
REMARK  status: ('A' for Active; 'I' for Inactive)
REMARK    1  A    between atoms: C2_2  and  O2_4 
REMARK    2  A    between atoms: O2_4  and  C3_5 
REMARK    3  A    between atoms: C4_6  and  O3_7 
REMARK    4  A    between atoms: O3_7  and  C5_8 
REMARK    5  A    between atoms: C15_18  and  C16_19 
REMARK    6  A    between atoms: C20_23  and  C21_24 
REMARK    7  A    between atoms: C21_24  and  O4_27 
REMARK    8  A    between atoms: C24_29  and  O6_30 
REMARK    9  A    between atoms: C30_36  and  O7_37 
REMARK   10  A    between atoms: C36_44  and  O9_45 
REMARK   11  A    between atoms: C37_46  and  O10_47 
ROOT
HETATM    1  C5  UNL     1     -14.801  44.005 -26.429  1.00  0.00     0.133 C 
HETATM    2  C6  UNL     1     -14.391  43.803 -27.892  1.00  0.00     0.034 C 
HETATM    3  C7  UNL     1     -14.125  45.140 -28.563  1.00  0.00     0.013 C 
HETATM    4  C8  UNL     1     -13.058  45.941 -27.835  1.00  0.00    -0.025 A 
HETATM    5  C9  UNL     1     -12.581  47.148 -28.606  1.00  0.00     0.021 A 
HETATM    6  C10 UNL     1     -11.599  46.019 -28.332  1.00  0.00    -0.027 A 
HETATM    7  C11 UNL     1     -11.147  45.215 -29.543  1.00  0.00     0.011 C 
HETATM    8  C12 UNL     1      -9.814  45.688 -30.155  1.00  0.00     0.011 C 
HETATM    9  C13 UNL     1      -8.993  46.622 -29.248  1.00  0.00    -0.028 C 
HETATM   10  C14 UNL     1      -9.528  48.079 -29.388  1.00  0.00     0.016 C 
HETATM   11  C15 UNL     1      -7.439  46.599 -29.492  1.00  0.00     0.057 C 
HETATM   12  C24 UNL     1      -6.870  47.126 -28.140  1.00  0.00     0.126 C 
HETATM   13  C25 UNL     1      -8.022  47.025 -27.100  1.00  0.00     0.042 C 
HETATM   14  C26 UNL     1      -9.072  46.107 -27.760  1.00  0.00    -0.029 C 
HETATM   15  C27 UNL     1      -8.542  44.636 -27.561  1.00  0.00     0.016 C 
HETATM   16  C28 UNL     1     -10.544  46.098 -27.211  1.00  0.00     0.006 C 
HETATM   17  C29 UNL     1     -10.870  47.138 -26.142  1.00  0.00     0.038 C 
HETATM   18  C30 UNL     1     -12.334  47.117 -25.646  1.00  0.00     0.124 C 
HETATM   19  C31 UNL     1     -13.348  46.131 -26.319  1.00  0.00     0.034 C 
HETATM   20  C32 UNL     1     -13.696  44.757 -25.601  1.00  0.00    -0.015 C 
HETATM   21  C33 UNL     1     -14.259  44.973 -24.172  1.00  0.00     0.018 C 
HETATM   22  C34 UNL     1     -12.474  43.829 -25.445  1.00  0.00     0.018 C 
ENDROOT
BRANCH   1  23
HETATM   23  O3  UNL     1     -16.015  44.776 -26.450  1.00  0.00    -0.352 OA
BRANCH  23  24
HETATM   24  C4  UNL     1     -17.189  44.037 -26.111  1.00  0.00     0.292 C 
HETATM   25  C3  UNL     1     -18.262  44.331 -27.183  1.00  0.00     0.218 C 
HETATM   26  C37 UNL     1     -19.322  43.235 -27.113  1.00  0.00     0.183 C 
HETATM   27  C36 UNL     1     -18.689  41.862 -27.395  1.00  0.00     0.173 C 
HETATM   28  C35 UNL     1     -17.183  41.855 -27.089  1.00  0.00     0.205 C 
HETATM   29  O8  UNL     1     -16.891  42.644 -25.940  1.00  0.00    -0.356 OA
BRANCH  25  30
HETATM   30  O2  UNL     1     -18.862  45.616 -26.895  1.00  0.00    -0.309 OA
BRANCH  30  31
HETATM   31  C2  UNL     1     -18.809  46.029 -25.599  1.00  0.00     0.255 C 
HETATM   32  C1  UNL     1     -19.827  45.298 -24.782  1.00  0.00     0.126 C 
HETATM   33  O1  UNL     1     -18.074  46.894 -25.147  1.00  0.00    -0.266 OA
ENDBRANCH  30  31
ENDBRANCH  25  30
BRANCH  26  34
HETATM   34  O10 UNL     1     -20.376  43.469 -28.061  1.00  0.00    -0.390 OA
HETATM   35  H60 UNL     1     -21.071  42.813 -27.859  1.00  0.00     0.210 HD
ENDBRANCH  26  34
BRANCH  27  36
HETATM   36  O9  UNL     1     -19.402  40.903 -26.601  1.00  0.00    -0.391 OA
HETATM   37  H58 UNL     1     -18.885  40.080 -26.582  1.00  0.00     0.210 HD
ENDBRANCH  27  36
ENDBRANCH  23  24
ENDBRANCH   1  23
BRANCH  18  38
HETATM   38  O7  UNL     1     -12.352  47.067 -24.223  1.00  0.00    -0.395 OA
HETATM   39  H47 UNL     1     -11.688  46.417 -23.930  1.00  0.00     0.210 HD
ENDBRANCH  18  38
BRANCH  11  40
HETATM   40  C16 UNL     1      -6.795  47.103 -30.816  1.00  0.00     0.065 C 
HETATM   41  C17 UNL     1      -7.113  48.536 -31.246  1.00  0.00     0.046 C 
HETATM   42  C18 UNL     1      -5.271  46.901 -30.814  1.00  0.00     0.041 C 
HETATM   43  C19 UNL     1      -4.959  46.506 -32.237  1.00  0.00     0.038 C 
HETATM   44  C20 UNL     1      -6.195  45.731 -32.669  1.00  0.00     0.156 C 
HETATM   45  O5  UNL     1      -7.289  46.251 -31.886  1.00  0.00    -0.372 OA
BRANCH  44  46
HETATM   46  C21 UNL     1      -6.088  44.183 -32.509  1.00  0.00     0.076 C 
HETATM   47  C22 UNL     1      -6.912  43.704 -31.310  1.00  0.00     0.048 C 
HETATM   48  C23 UNL     1      -4.627  43.749 -32.330  1.00  0.00     0.048 C 
BRANCH  46  49
HETATM   49  O4  UNL     1      -6.599  43.522 -33.676  1.00  0.00    -0.388 OA
HETATM   50  H35 UNL     1      -6.394  42.575 -33.594  1.00  0.00     0.210 HD
ENDBRANCH  46  49
ENDBRANCH  44  46
ENDBRANCH  11  40
BRANCH  12  51
HETATM   51  O6  UNL     1      -6.424  48.468 -28.193  1.00  0.00    -0.395 OA
HETATM   52  H37 UNL     1      -5.470  48.454 -28.371  1.00  0.00     0.210 HD
ENDBRANCH  12  51
TORSDOF 11
ENDMDL
MODEL 7
REMARK minimizedAffinity -9.07921982
REMARK CNNscore 0.514639556
REMARK CNNaffinity 6.3852725
REMARK  11 active torsions:
REMARK  status: ('A' for Active; 'I' for Inactive)
REMARK    1  A    between atoms: C2_2  and  O2_4 
REMARK    2  A    between atoms: O2_4  and  C3_5 
REMARK    3  A    between atoms: C4_6  and  O3_7 
REMARK    4  A    between atoms: O3_7  and  C5_8 
REMARK    5  A    between atoms: C15_18  and  C16_19 
REMARK    6  A    between atoms: C20_23  and  C21_24 
REMARK    7  A    between atoms: C21_24  and  O4_27 
REMARK    8  A    between atoms: C24_29  and  O6_30 
REMARK    9  A    between atoms: C30_36  and  O7_37 
REMARK   10  A    between atoms: C36_44  and  O9_45 
REMARK   11  A    between atoms: C37_46  and  O10_47 
ROOT
HETATM    1  C5  UNL     1      -8.552  47.514 -29.707  1.00  0.00     0.133 C 
HETATM    2  C6  UNL     1      -9.926  47.827 -30.309  1.00  0.00     0.034 C 
HETATM    3  C7  UNL     1     -10.629  46.548 -30.732  1.00  0.00     0.013 C 
HETATM    4  C8  UNL     1     -10.783  45.573 -29.577  1.00  0.00    -0.025 A 
HETATM    5  C9  UNL     1     -11.697  44.412 -29.887  1.00  0.00     0.021 A 
HETATM    6  C10 UNL     1     -12.110  45.402 -28.808  1.00  0.00    -0.027 A 
HETATM    7  C11 UNL     1     -13.311  46.280 -29.129  1.00  0.00     0.011 C 
HETATM    8  C12 UNL     1     -14.650  45.744 -28.586  1.00  0.00     0.011 C 
HETATM    9  C13 UNL     1     -14.510  44.642 -27.521  1.00  0.00    -0.028 C 
HETATM   10  C14 UNL     1     -14.291  43.269 -28.224  1.00  0.00     0.016 C 
HETATM   11  C15 UNL     1     -15.706  44.536 -26.504  1.00  0.00     0.057 C 
HETATM   12  C24 UNL     1     -15.057  43.815 -25.283  1.00  0.00     0.126 C 
HETATM   13  C25 UNL     1     -13.516  43.921 -25.469  1.00  0.00     0.042 C 
HETATM   14  C26 UNL     1     -13.320  45.003 -26.551  1.00  0.00    -0.029 C 
HETATM   15  C27 UNL     1     -13.491  46.384 -25.811  1.00  0.00     0.016 C 
HETATM   16  C28 UNL     1     -11.946  45.101 -27.305  1.00  0.00     0.006 C 
HETATM   17  C29 UNL     1     -10.937  43.992 -27.015  1.00  0.00     0.038 C 
HETATM   18  C30 UNL     1      -9.609  44.106 -27.796  1.00  0.00     0.124 C 
HETATM   19  C31 UNL     1      -9.445  45.254 -28.850  1.00  0.00     0.034 C 
HETATM   20  C32 UNL     1      -8.653  46.573 -28.452  1.00  0.00    -0.015 C 
HETATM   21  C33 UNL     1      -7.205  46.264 -27.990  1.00  0.00     0.018 C 
HETATM   22  C34 UNL     1      -9.315  47.352 -27.298  1.00  0.00     0.018 C 
ENDROOT
BRANCH   1  23
HETATM   23  O3  UNL     1      -7.790  46.874 -30.746  1.00  0.00    -0.352 OA
BRANCH  23  24
HETATM   24  C4  UNL     1      -6.937  47.753 -31.479  1.00  0.00     0.292 C 
HETATM   25  C3  UNL     1      -5.545  47.091 -31.581  1.00  0.00     0.218 C 
HETATM   26  C37 UNL     1      -4.776  47.761 -32.717  1.00  0.00     0.183 C 
HETATM   27  C36 UNL     1      -5.523  47.574 -34.049  1.00  0.00     0.173 C 
HETATM   28  C35 UNL     1      -7.024  47.325 -33.830  1.00  0.00     0.205 C 
HETATM   29  O8  UNL     1      -7.519  48.101 -32.745  1.00  0.00    -0.356 OA
BRANCH  25  30
HETATM   30  O2  UNL     1      -4.846  47.290 -30.329  1.00  0.00    -0.309 OA
BRANCH  30  31
HETATM   31  C2  UNL     1      -4.747  48.575 -29.893  1.00  0.00     0.255 C 
HETATM   32  C1  UNL     1      -4.670  48.608 -28.399  1.00  0.00     0.126 C 
HETATM   33  O1  UNL     1      -4.753  49.577 -30.592  1.00  0.00    -0.266 OA
ENDBRANCH  30  31
ENDBRANCH  25  30
BRANCH  26  34
HETATM   34  O10 UNL     1      -3.452  47.217 -32.842  1.00  0.00    -0.390 OA
HETATM   35  H60 UNL     1      -2.987  47.786 -33.486  1.00  0.00     0.210 HD
ENDBRANCH  26  34
BRANCH  27  36
HETATM   36  O9  UNL     1      -5.283  48.753 -34.831  1.00  0.00    -0.391 OA
HETATM   37  H58 UNL     1      -5.919  48.765 -35.566  1.00  0.00     0.210 HD
ENDBRANCH  27  36
ENDBRANCH  23  24
ENDBRANCH   1  23
BRANCH  18  38
HETATM   38  O7  UNL     1      -8.516  44.008 -26.888  1.00  0.00    -0.395 OA
HETATM   39  H47 UNL     1      -8.715  44.554 -26.107  1.00  0.00     0.210 HD
ENDBRANCH  18  38
BRANCH  11  40
HETATM   40  C16 UNL     1     -17.138  44.113 -26.941  1.00  0.00     0.065 C 
HETATM   41  C17 UNL     1     -17.338  43.744 -28.412  1.00  0.00     0.046 C 
HETATM   42  C18 UNL     1     -17.686  42.982 -26.056  1.00  0.00     0.041 C 
HETATM   43  C19 UNL     1     -19.148  43.320 -25.904  1.00  0.00     0.038 C 
HETATM   44  C20 UNL     1     -19.164  44.842 -25.922  1.00  0.00     0.156 C 
HETATM   45  O5  UNL     1     -18.014  45.246 -26.694  1.00  0.00    -0.372 OA
BRANCH  44  46
HETATM   46  C21 UNL     1     -19.148  45.514 -24.515  1.00  0.00     0.076 C 
HETATM   47  C22 UNL     1     -18.765  46.994 -24.625  1.00  0.00     0.048 C 
HETATM   48  C23 UNL     1     -18.165  44.802 -23.576  1.00  0.00     0.048 C 
BRANCH  46  49
HETATM   49  O4  UNL     1     -20.450  45.449 -23.914  1.00  0.00    -0.388 OA
HETATM   50  H35 UNL     1     -20.367  45.756 -22.995  1.00  0.00     0.210 HD
ENDBRANCH  46  49
ENDBRANCH  44  46
ENDBRANCH  11  40
BRANCH  12  51
HETATM   51  O6  UNL     1     -15.407  42.449 -25.175  1.00  0.00    -0.395 OA
HETATM   52  H37 UNL     1     -16.163  42.386 -24.569  1.00  0.00     0.210 HD
ENDBRANCH  12  51
TORSDOF 11
ENDMDL
MODEL 8
REMARK minimizedAffinity -8.02976227
REMARK CNNscore 0.513977468
REMARK CNNaffinity 6.28700638
REMARK  11 active torsions:
REMARK  status: ('A' for Active; 'I' for Inactive)
REMARK    1  A    between atoms: C2_2  and  O2_4 
REMARK    2  A    between atoms: O2_4  and  C3_5 
REMARK    3  A    between atoms: C4_6  and  O3_7 
REMARK    4  A    between atoms: O3_7  and  C5_8 
REMARK    5  A    between atoms: C15_18  and  C16_19 
REMARK    6  A    between atoms: C20_23  and  C21_24 
REMARK    7  A    between atoms: C21_24  and  O4_27 
REMARK    8  A    between atoms: C24_29  and  O6_30 
REMARK    9  A    between atoms: C30_36  and  O7_37 
REMARK   10  A    between atoms: C36_44  and  O9_45 
REMARK   11  A    between atoms: C37_46  and  O10_47 
ROOT
HETATM    1  C5  UNL     1     -15.878  45.125 -24.477  1.00  0.00     0.133 C 
HETATM    2  C6  UNL     1     -15.593  46.501 -25.089  1.00  0.00     0.034 C 
HETATM    3  C7  UNL     1     -14.177  46.949 -24.763  1.00  0.00     0.013 C 
HETATM    4  C8  UNL     1     -13.139  45.947 -25.240  1.00  0.00    -0.025 A 
HETATM    5  C9  UNL     1     -11.723  46.469 -25.171  1.00  0.00     0.021 A 
HETATM    6  C10 UNL     1     -12.322  46.153 -26.533  1.00  0.00    -0.027 A 
HETATM    7  C11 UNL     1     -12.592  47.347 -27.439  1.00  0.00     0.011 C 
HETATM    8  C12 UNL     1     -11.465  47.641 -28.448  1.00  0.00     0.011 C 
HETATM    9  C13 UNL     1     -10.453  46.495 -28.628  1.00  0.00    -0.028 C 
HETATM   10  C14 UNL     1      -9.394  46.558 -27.486  1.00  0.00     0.016 C 
HETATM   11  C15 UNL     1      -9.732  46.449 -30.024  1.00  0.00     0.057 C 
HETATM   12  C24 UNL     1      -9.273  44.962 -30.127  1.00  0.00     0.126 C 
HETATM   13  C25 UNL     1     -10.076  44.172 -29.054  1.00  0.00     0.042 C 
HETATM   14  C26 UNL     1     -11.223  45.119 -28.640  1.00  0.00    -0.029 C 
HETATM   15  C27 UNL     1     -12.308  45.000 -29.777  1.00  0.00     0.016 C 
HETATM   16  C28 UNL     1     -11.994  44.855 -27.297  1.00  0.00     0.006 C 
HETATM   17  C29 UNL     1     -11.436  43.749 -26.405  1.00  0.00     0.038 C 
HETATM   18  C30 UNL     1     -12.203  43.538 -25.081  1.00  0.00     0.124 C 
HETATM   19  C31 UNL     1     -13.392  44.499 -24.732  1.00  0.00     0.034 C 
HETATM   20  C32 UNL     1     -14.884  44.025 -24.999  1.00  0.00    -0.015 C 
HETATM   21  C33 UNL     1     -15.220  42.708 -24.250  1.00  0.00     0.018 C 
HETATM   22  C34 UNL     1     -15.177  43.757 -26.489  1.00  0.00     0.018 C 
ENDROOT
BRANCH   1  23
HETATM   23  O3  UNL     1     -15.745  45.278 -23.053  1.00  0.00    -0.352 OA
BRANCH  23  24
HETATM   24  C4  UNL     1     -16.737  46.111 -22.453  1.00  0.00     0.292 C 
HETATM   25  C3  UNL     1     -17.862  45.199 -21.915  1.00  0.00     0.218 C 
HETATM   26  C37 UNL     1     -18.673  45.991 -20.893  1.00  0.00     0.183 C 
HETATM   27  C36 UNL     1     -17.775  46.428 -19.723  1.00  0.00     0.173 C 
HETATM   28  C35 UNL     1     -16.296  46.495 -20.135  1.00  0.00     0.205 C 
HETATM   29  O8  UNL     1     -16.157  46.977 -21.466  1.00  0.00    -0.356 OA
BRANCH  25  30
HETATM   30  O2  UNL     1     -18.710  44.810 -23.022  1.00  0.00    -0.309 OA
BRANCH  30  31
HETATM   31  C2  UNL     1     -19.126  45.812 -23.843  1.00  0.00     0.255 C 
HETATM   32  C1  UNL     1     -19.571  45.252 -25.157  1.00  0.00     0.126 C 
HETATM   33  O1  UNL     1     -19.116  47.006 -23.586  1.00  0.00    -0.266 OA
ENDBRANCH  30  31
ENDBRANCH  25  30
BRANCH  26  34
HETATM   34  O10 UNL     1     -19.766  45.211 -20.379  1.00  0.00    -0.390 OA
HETATM   35  H60 UNL     1     -20.308  45.825 -19.847  1.00  0.00     0.210 HD
ENDBRANCH  26  34
BRANCH  27  36
HETATM   36  O9  UNL     1     -18.265  47.700 -19.274  1.00  0.00    -0.391 OA
HETATM   37  H58 UNL     1     -17.589  48.101 -18.702  1.00  0.00     0.210 HD
ENDBRANCH  27  36
ENDBRANCH  23  24
ENDBRANCH   1  23
BRANCH  18  38
HETATM   38  O7  UNL     1     -12.527  42.159 -24.935  1.00  0.00    -0.395 OA
HETATM   39  H47 UNL     1     -12.853  41.828 -25.790  1.00  0.00     0.210 HD
ENDBRANCH  18  38
BRANCH  11  40
HETATM   40  C16 UNL     1      -8.750  47.562 -30.493  1.00  0.00     0.065 C 
HETATM   41  C17 UNL     1      -8.723  48.857 -29.679  1.00  0.00     0.046 C 
HETATM   42  C18 UNL     1      -7.318  47.026 -30.640  1.00  0.00     0.041 C 
HETATM   43  C19 UNL     1      -6.789  47.739 -31.860  1.00  0.00     0.038 C 
HETATM   44  C20 UNL     1      -8.022  47.906 -32.735  1.00  0.00     0.156 C 
HETATM   45  O5  UNL     1      -9.150  47.949 -31.837  1.00  0.00    -0.372 OA
BRANCH  44  46
HETATM   46  C21 UNL     1      -8.217  46.794 -33.812  1.00  0.00     0.076 C 
HETATM   47  C22 UNL     1      -8.018  47.364 -35.221  1.00  0.00     0.048 C 
HETATM   48  C23 UNL     1      -9.613  46.166 -33.709  1.00  0.00     0.048 C 
BRANCH  46  49
HETATM   49  O4  UNL     1      -7.253  45.746 -33.631  1.00  0.00    -0.388 OA
HETATM   50  H35 UNL     1      -7.490  45.019 -34.231  1.00  0.00     0.210 HD
ENDBRANCH  46  49
ENDBRANCH  44  46
ENDBRANCH  11  40
BRANCH  12  51
HETATM   51  O6  UNL     1      -7.892  44.773 -29.889  1.00  0.00    -0.395 OA
HETATM   52  H37 UNL     1      -7.442  44.773 -30.749  1.00  0.00     0.210 HD
ENDBRANCH  12  51
TORSDOF 11
ENDMDL
MODEL 9
REMARK minimizedAffinity -9.84726048
REMARK CNNscore 0.51015985
REMARK CNNaffinity 7.1290493
REMARK  11 active torsions:
REMARK  status: ('A' for Active; 'I' for Inactive)
REMARK    1  A    between atoms: C2_2  and  O2_4 
REMARK    2  A    between atoms: O2_4  and  C3_5 
REMARK    3  A    between atoms: C4_6  and  O3_7 
REMARK    4  A    between atoms: O3_7  and  C5_8 
REMARK    5  A    between atoms: C15_18  and  C16_19 
REMARK    6  A    between atoms: C20_23  and  C21_24 
REMARK    7  A    between atoms: C21_24  and  O4_27 
REMARK    8  A    between atoms: C24_29  and  O6_30 
REMARK    9  A    between atoms: C30_36  and  O7_37 
REMARK   10  A    between atoms: C36_44  and  O9_45 
REMARK   11  A    between atoms: C37_46  and  O10_47 
ROOT
HETATM    1  C5  UNL     1      -2.007  49.990 -22.292  1.00  0.00     0.133 C 
HETATM    2  C6  UNL     1      -2.218  49.123 -21.046  1.00  0.00     0.034 C 
HETATM    3  C7  UNL     1      -3.402  49.627 -20.237  1.00  0.00     0.013 C 
HETATM    4  C8  UNL     1      -4.679  49.666 -21.059  1.00  0.00    -0.025 A 
HETATM    5  C9  UNL     1      -5.919  49.910 -20.233  1.00  0.00     0.021 A 
HETATM    6  C10 UNL     1      -5.767  48.578 -20.952  1.00  0.00    -0.027 A 
HETATM    7  C11 UNL     1      -5.559  47.359 -20.064  1.00  0.00     0.011 C 
HETATM    8  C12 UNL     1      -6.852  46.582 -19.743  1.00  0.00     0.011 C 
HETATM    9  C13 UNL     1      -8.047  46.933 -20.647  1.00  0.00    -0.028 C 
HETATM   10  C14 UNL     1      -8.737  48.224 -20.113  1.00  0.00     0.016 C 
HETATM   11  C15 UNL     1      -9.114  45.790 -20.822  1.00  0.00     0.057 C 
HETATM   12  C24 UNL     1      -9.819  46.178 -22.158  1.00  0.00     0.126 C 
HETATM   13  C25 UNL     1      -8.898  47.214 -22.865  1.00  0.00     0.042 C 
HETATM   14  C26 UNL     1      -7.544  47.105 -22.132  1.00  0.00    -0.029 C 
HETATM   15  C27 UNL     1      -6.838  45.827 -22.724  1.00  0.00     0.016 C 
HETATM   16  C28 UNL     1      -6.495  48.266 -22.274  1.00  0.00     0.006 C 
HETATM   17  C29 UNL     1      -6.966  49.514 -23.017  1.00  0.00     0.038 C 
HETATM   18  C30 UNL     1      -5.917  50.644 -23.112  1.00  0.00     0.124 C 
HETATM   19  C31 UNL     1      -4.539  50.462 -22.388  1.00  0.00     0.034 C 
HETATM   20  C32 UNL     1      -3.270  50.002 -23.228  1.00  0.00    -0.015 C 
HETATM   21  C33 UNL     1      -2.965  50.972 -24.400  1.00  0.00     0.018 C 
HETATM   22  C34 UNL     1      -3.435  48.606 -23.859  1.00  0.00     0.018 C 
ENDROOT
BRANCH   1  23
HETATM   23  O3  UNL     1      -1.728  51.320 -21.819  1.00  0.00    -0.352 OA
BRANCH  23  24
HETATM   24  C4  UNL     1      -0.442  51.474 -21.217  1.00  0.00     0.292 C 
HETATM   25  C3  UNL     1       0.192  52.767 -21.776  1.00  0.00     0.218 C 
HETATM   26  C37 UNL     1       1.318  53.194 -20.837  1.00  0.00     0.183 C 
HETATM   27  C36 UNL     1       0.762  53.471 -19.430  1.00  0.00     0.173 C 
HETATM   28  C35 UNL     1      -0.555  52.720 -19.180  1.00  0.00     0.205 C 
HETATM   29  O8  UNL     1      -0.534  51.433 -19.786  1.00  0.00    -0.356 OA
BRANCH  25  30
HETATM   30  O2  UNL     1       0.727  52.489 -23.092  1.00  0.00    -0.309 OA
BRANCH  30  31
HETATM   31  C2  UNL     1       0.591  53.476 -24.019  1.00  0.00     0.255 C 
HETATM   32  C1  UNL     1      -0.501  53.132 -24.982  1.00  0.00     0.126 C 
HETATM   33  O1  UNL     1       1.270  54.488 -24.099  1.00  0.00    -0.266 OA
ENDBRANCH  30  31
ENDBRANCH  25  30
BRANCH  26  34
HETATM   34  O10 UNL     1       1.980  54.374 -21.321  1.00  0.00    -0.390 OA
HETATM   35  H60 UNL     1       2.763  54.497 -20.749  1.00  0.00     0.210 HD
ENDBRANCH  26  34
BRANCH  27  36
HETATM   36  O9  UNL     1       1.783  53.090 -18.496  1.00  0.00    -0.391 OA
HETATM   37  H58 UNL     1       1.381  53.036 -17.612  1.00  0.00     0.210 HD
ENDBRANCH  27  36
ENDBRANCH  23  24
ENDBRANCH   1  23
BRANCH  18  38
HETATM   38  O7  UNL     1      -5.795  51.065 -24.467  1.00  0.00    -0.395 OA
HETATM   39  H47 UNL     1      -5.769  50.274 -25.033  1.00  0.00     0.210 HD
ENDBRANCH  18  38
BRANCH  11  40
HETATM   40  C16 UNL     1      -9.990  45.280 -19.641  1.00  0.00     0.065 C 
HETATM   41  C17 UNL     1     -11.106  44.289 -19.977  1.00  0.00     0.046 C 
HETATM   42  C18 UNL     1      -9.127  44.705 -18.507  1.00  0.00     0.041 C 
HETATM   43  C19 UNL     1      -9.843  45.142 -17.253  1.00  0.00     0.038 C 
HETATM   44  C20 UNL     1     -10.445  46.486 -17.638  1.00  0.00     0.156 C 
HETATM   45  O5  UNL     1     -10.651  46.440 -19.065  1.00  0.00    -0.372 OA
BRANCH  44  46
HETATM   46  C21 UNL     1      -9.584  47.726 -17.245  1.00  0.00     0.076 C 
HETATM   47  C22 UNL     1      -9.666  48.808 -18.327  1.00  0.00     0.048 C 
HETATM   48  C23 UNL     1      -8.116  47.331 -17.029  1.00  0.00     0.048 C 
BRANCH  46  49
HETATM   49  O4  UNL     1     -10.064  48.302 -16.022  1.00  0.00    -0.388 OA
HETATM   50  H35 UNL     1      -9.427  48.983 -15.745  1.00  0.00     0.210 HD
ENDBRANCH  46  49
ENDBRANCH  44  46
ENDBRANCH  11  40
BRANCH  12  51
HETATM   51  O6  UNL     1     -11.098  46.756 -21.981  1.00  0.00    -0.395 OA
HETATM   52  H37 UNL     1     -11.755  46.047 -22.061  1.00  0.00     0.210 HD
ENDBRANCH  12  51
TORSDOF 11
ENDMDL
