MODEL 1
REMARK minimizedAffinity -10.1497288
REMARK  7 active torsions:
REMARK  status: ('A' for Active; 'I' for Inactive)
REMARK    1  A    between atoms: C2_2  and  C4_4 
REMARK    2  A    between atoms: C7_7  and  C8_8 
REMARK    3  A    between atoms: C8_8  and  O2_10 
REMARK    4  A    between atoms: C15_17  and  O3_18 
REMARK    5  A    between atoms: C21_24  and  O4_25 
REMARK    6  A    between atoms: C22_26  and  C24_28 
REMARK    7  A    between atoms: C24_28  and  O5_29 
ROOT
HETATM    1  C4  UNL     1       0.215  51.478 -16.800  1.00  0.00     0.019 C 
HETATM    2  C5  UNL     1       0.100  50.692 -15.466  1.00  0.00     0.011 C 
HETATM    3  C6  UNL     1      -0.589  49.357 -15.793  1.00  0.00     0.021 C 
HETATM    4  C7  UNL     1      -1.340  49.636 -17.098  1.00  0.00     0.050 C 
HETATM    5  C9  UNL     1      -1.691  48.398 -17.932  1.00  0.00     0.022 C 
HETATM    6  C10 UNL     1      -2.222  48.809 -19.321  1.00  0.00     0.011 C 
HETATM    7  C11 UNL     1      -1.275  49.760 -20.137  1.00  0.00    -0.032 C 
HETATM    8  C12 UNL     1      -0.043  48.875 -20.532  1.00  0.00     0.016 C 
HETATM    9  C13 UNL     1      -0.813  50.960 -19.223  1.00  0.00     0.003 C 
HETATM   10  C14 UNL     1       0.155  51.876 -19.971  1.00  0.00     0.038 C 
HETATM   11  C15 UNL     1      -0.392  52.404 -21.306  1.00  0.00     0.124 C 
HETATM   12  C16 UNL     1      -0.962  51.296 -22.248  1.00  0.00     0.032 C 
HETATM   13  C17 UNL     1      -1.437  51.769 -23.717  1.00  0.00    -0.033 C 
HETATM   14  C18 UNL     1      -2.553  52.838 -23.633  1.00  0.00     0.016 C 
HETATM   15  C19 UNL     1      -0.242  52.416 -24.487  1.00  0.00     0.012 C 
HETATM   16  C20 UNL     1      -0.466  52.619 -25.988  1.00  0.00     0.033 C 
HETATM   17  C21 UNL     1      -0.865  51.333 -26.698  1.00  0.00     0.128 C 
HETATM   18  C22 UNL     1      -2.111  50.639 -26.070  1.00  0.00     0.007 C 
HETATM   19  C23 UNL     1      -3.378  51.456 -26.396  1.00  0.00     0.020 C 
HETATM   20  C25 UNL     1      -1.860  50.466 -24.516  1.00  0.00     0.007 C 
HETATM   21  C26 UNL     1      -2.960  49.688 -23.774  1.00  0.00     0.007 C 
HETATM   22  C27 UNL     1      -2.489  49.237 -22.391  1.00  0.00     0.011 C 
HETATM   23  C28 UNL     1      -1.998  50.375 -21.460  1.00  0.00    -0.030 C 
HETATM   24  C29 UNL     1      -3.264  51.187 -21.043  1.00  0.00     0.016 C 
HETATM   25  C30 UNL     1      -0.275  50.462 -17.860  1.00  0.00     0.017 C 
ENDROOT
BRANCH   4  26
HETATM   26  C8  UNL     1      -2.631  50.387 -16.732  1.00  0.00     0.149 C 
HETATM   27  O1  UNL     1      -3.067  51.410 -17.230  1.00  0.00    -0.649 OA
BRANCH  26  28
HETATM   28  O2  UNL     1      -3.303  49.811 -15.714  1.00  0.00    -0.776 OA
HETATM   29  H11 UNL     1      -4.081  50.394 -15.586  1.00  0.00     0.167 HD
ENDBRANCH  26  28
ENDBRANCH   4  26
BRANCH   1  30
HETATM   30  C2  UNL     1       1.601  52.090 -16.934  1.00  0.00    -0.088 C 
HETATM   31  C1  UNL     1       2.629  51.868 -16.098  1.00  0.00     0.014 C 
HETATM   32  C3  UNL     1       1.769  53.018 -18.111  1.00  0.00     0.043 C 
ENDBRANCH   1  30
BRANCH  11  33
HETATM   33  O3  UNL     1       0.686  53.114 -21.913  1.00  0.00    -0.395 OA
HETATM   34  H23 UNL     1       1.402  52.477 -22.085  1.00  0.00     0.210 HD
ENDBRANCH  11  33
BRANCH  18  35
HETATM   35  C24 UNL     1      -2.239  49.244 -26.768  1.00  0.00     0.176 C 
BRANCH  35  36
HETATM   36  O5  UNL     1      -3.232  49.206 -27.791  1.00  0.00    -0.400 OA
HETATM   37  H39 UNL     1      -2.869  49.656 -28.572  1.00  0.00     0.209 HD
ENDBRANCH  35  36
ENDBRANCH  18  35
BRANCH  17  38
HETATM   38  O4  UNL     1       0.254  50.440 -26.670  1.00  0.00    -0.395 OA
HETATM   39  H33 UNL     1       1.012  50.902 -27.069  1.00  0.00     0.210 HD
ENDBRANCH  17  38
TORSDOF 7
ENDMDL
MODEL 2
REMARK minimizedAffinity -9.53318214
REMARK  7 active torsions:
REMARK  status: ('A' for Active; 'I' for Inactive)
REMARK    1  A    between atoms: C2_2  and  C4_4 
REMARK    2  A    between atoms: C7_7  and  C8_8 
REMARK    3  A    between atoms: C8_8  and  O2_10 
REMARK    4  A    between atoms: C15_17  and  O3_18 
REMARK    5  A    between atoms: C21_24  and  O4_25 
REMARK    6  A    between atoms: C22_26  and  C24_28 
REMARK    7  A    between atoms: C24_28  and  O5_29 
ROOT
HETATM    1  C4  UNL     1       0.252  52.561 -23.097  1.00  0.00     0.019 C 
HETATM    2  C5  UNL     1       0.765  53.554 -24.176  1.00  0.00     0.011 C 
HETATM    3  C6  UNL     1      -0.363  53.710 -25.209  1.00  0.00     0.021 C 
HETATM    4  C7  UNL     1      -1.203  52.441 -25.037  1.00  0.00     0.050 C 
HETATM    5  C9  UNL     1      -2.647  52.534 -25.544  1.00  0.00     0.022 C 
HETATM    6  C10 UNL     1      -3.460  51.298 -25.107  1.00  0.00     0.011 C 
HETATM    7  C11 UNL     1      -3.446  51.010 -23.562  1.00  0.00    -0.032 C 
HETATM    8  C12 UNL     1      -4.284  52.168 -22.919  1.00  0.00     0.016 C 
HETATM    9  C13 UNL     1      -1.963  51.049 -23.028  1.00  0.00     0.003 C 
HETATM   10  C14 UNL     1      -1.919  50.828 -21.517  1.00  0.00     0.038 C 
HETATM   11  C15 UNL     1      -2.616  49.538 -21.056  1.00  0.00     0.124 C 
HETATM   12  C16 UNL     1      -4.065  49.359 -21.611  1.00  0.00     0.032 C 
HETATM   13  C17 UNL     1      -4.897  48.088 -21.065  1.00  0.00    -0.033 C 
HETATM   14  C18 UNL     1      -4.176  46.758 -21.390  1.00  0.00     0.016 C 
HETATM   15  C19 UNL     1      -5.037  48.164 -19.511  1.00  0.00     0.012 C 
HETATM   16  C20 UNL     1      -6.061  47.203 -18.901  1.00  0.00     0.033 C 
HETATM   17  C21 UNL     1      -7.443  47.350 -19.523  1.00  0.00     0.128 C 
HETATM   18  C22 UNL     1      -7.443  47.202 -21.074  1.00  0.00     0.007 C 
HETATM   19  C23 UNL     1      -7.202  45.726 -21.453  1.00  0.00     0.020 C 
HETATM   20  C25 UNL     1      -6.358  48.187 -21.673  1.00  0.00     0.007 C 
HETATM   21  C26 UNL     1      -6.322  48.239 -23.211  1.00  0.00     0.007 C 
HETATM   22  C27 UNL     1      -5.541  49.455 -23.709  1.00  0.00     0.011 C 
HETATM   23  C28 UNL     1      -4.083  49.557 -23.193  1.00  0.00    -0.030 C 
HETATM   24  C29 UNL     1      -3.277  48.428 -23.908  1.00  0.00     0.016 C 
HETATM   25  C30 UNL     1      -1.225  52.329 -23.493  1.00  0.00     0.017 C 
ENDROOT
BRANCH   4  26
HETATM   26  C8  UNL     1      -0.476  51.306 -25.778  1.00  0.00     0.149 C 
HETATM   27  O1  UNL     1       0.726  51.144 -25.900  1.00  0.00    -0.649 OA
BRANCH  26  28
HETATM   28  O2  UNL     1      -1.321  50.434 -26.365  1.00  0.00    -0.776 OA
HETATM   29  H11 UNL     1      -0.728  49.788 -26.801  1.00  0.00     0.167 HD
ENDBRANCH  26  28
ENDBRANCH   4  26
BRANCH   1  30
HETATM   30  C2  UNL     1       0.582  53.079 -21.705  1.00  0.00    -0.088 C 
HETATM   31  C1  UNL     1       1.131  54.275 -21.434  1.00  0.00     0.014 C 
HETATM   32  C3  UNL     1       0.253  52.126 -20.583  1.00  0.00     0.043 C 
ENDBRANCH   1  30
BRANCH  11  33
HETATM   33  O3  UNL     1      -2.594  49.574 -19.630  1.00  0.00    -0.395 OA
HETATM   34  H23 UNL     1      -3.115  50.344 -19.345  1.00  0.00     0.210 HD
ENDBRANCH  11  33
BRANCH  18  35
HETATM   35  C24 UNL     1      -8.878  47.599 -21.556  1.00  0.00     0.176 C 
BRANCH  35  36
HETATM   36  O5  UNL     1      -9.917  47.153 -20.688  1.00  0.00    -0.400 OA
HETATM   37  H39 UNL     1      -9.926  47.738 -19.912  1.00  0.00     0.209 HD
ENDBRANCH  35  36
ENDBRANCH  18  35
BRANCH  17  38
HETATM   38  O4  UNL     1      -7.965  48.632 -19.157  1.00  0.00    -0.395 OA
HETATM   39  H33 UNL     1      -7.952  48.692 -18.186  1.00  0.00     0.210 HD
ENDBRANCH  17  38
TORSDOF 7
ENDMDL
MODEL 3
REMARK minimizedAffinity -9.45768166
REMARK  7 active torsions:
REMARK  status: ('A' for Active; 'I' for Inactive)
REMARK    1  A    between atoms: C2_2  and  C4_4 
REMARK    2  A    between atoms: C7_7  and  C8_8 
REMARK    3  A    between atoms: C8_8  and  O2_10 
REMARK    4  A    between atoms: C15_17  and  O3_18 
REMARK    5  A    between atoms: C21_24  and  O4_25 
REMARK    6  A    between atoms: C22_26  and  C24_28 
REMARK    7  A    between atoms: C24_28  and  O5_29 
ROOT
HETATM    1  C4  UNL     1      -7.170  47.621 -23.205  1.00  0.00     0.019 C 
HETATM    2  C5  UNL     1      -8.127  47.432 -21.997  1.00  0.00     0.011 C 
HETATM    3  C6  UNL     1      -7.798  48.546 -20.990  1.00  0.00     0.021 C 
HETATM    4  C7  UNL     1      -6.365  48.955 -21.342  1.00  0.00     0.050 C 
HETATM    5  C9  UNL     1      -5.947  50.354 -20.874  1.00  0.00     0.022 C 
HETATM    6  C10 UNL     1      -4.587  50.749 -21.486  1.00  0.00     0.011 C 
HETATM    7  C11 UNL     1      -4.514  50.658 -23.053  1.00  0.00    -0.032 C 
HETATM    8  C12 UNL     1      -5.430  51.816 -23.576  1.00  0.00     0.016 C 
HETATM    9  C13 UNL     1      -5.073  49.262 -23.530  1.00  0.00     0.003 C 
HETATM   10  C14 UNL     1      -5.068  49.163 -25.054  1.00  0.00     0.038 C 
HETATM   11  C15 UNL     1      -3.695  49.431 -25.691  1.00  0.00     0.124 C 
HETATM   12  C16 UNL     1      -3.013  50.750 -25.209  1.00  0.00     0.032 C 
HETATM   13  C17 UNL     1      -1.627  51.154 -25.934  1.00  0.00    -0.033 C 
HETATM   14  C18 UNL     1      -0.552  50.056 -25.750  1.00  0.00     0.016 C 
HETATM   15  C19 UNL     1      -1.851  51.322 -27.470  1.00  0.00     0.012 C 
HETATM   16  C20 UNL     1      -0.708  52.004 -28.226  1.00  0.00     0.033 C 
HETATM   17  C21 UNL     1      -0.344  53.359 -27.636  1.00  0.00     0.128 C 
HETATM   18  C22 UNL     1      -0.009  53.303 -26.116  1.00  0.00     0.007 C 
HETATM   19  C23 UNL     1       1.357  52.616 -25.912  1.00  0.00     0.020 C 
HETATM   20  C25 UNL     1      -1.196  52.570 -25.365  1.00  0.00     0.007 C 
HETATM   21  C26 UNL     1      -1.062  52.541 -23.833  1.00  0.00     0.007 C 
HETATM   22  C27 UNL     1      -2.385  52.170 -23.165  1.00  0.00     0.011 C 
HETATM   23  C28 UNL     1      -2.994  50.818 -23.617  1.00  0.00    -0.030 C 
HETATM   24  C29 UNL     1      -2.086  49.698 -23.019  1.00  0.00     0.016 C 
HETATM   25  C30 UNL     1      -6.447  48.952 -22.888  1.00  0.00     0.017 C 
ENDROOT
BRANCH   4  26
HETATM   26  C8  UNL     1      -5.425  47.908 -20.722  1.00  0.00     0.149 C 
HETATM   27  O1  UNL     1      -4.674  47.142 -21.301  1.00  0.00    -0.649 OA
BRANCH  26  28
HETATM   28  O2  UNL     1      -5.506  47.860 -19.376  1.00  0.00    -0.776 OA
HETATM   29  H11 UNL     1      -4.874  47.154 -19.127  1.00  0.00     0.167 HD
ENDBRANCH  26  28
ENDBRANCH   4  26
BRANCH   1  30
HETATM   30  C2  UNL     1      -7.935  47.477 -24.512  1.00  0.00    -0.088 C 
HETATM   31  C1  UNL     1      -7.896  46.402 -25.318  1.00  0.00     0.014 C 
HETATM   32  C3  UNL     1      -8.777  48.672 -24.884  1.00  0.00     0.043 C 
ENDBRANCH   1  30
BRANCH  11  33
HETATM   33  O3  UNL     1      -3.916  49.431 -27.101  1.00  0.00    -0.395 OA
HETATM   34  H23 UNL     1      -4.519  50.167 -27.307  1.00  0.00     0.210 HD
ENDBRANCH  11  33
BRANCH  18  35
HETATM   35  C24 UNL     1       0.117  54.787 -25.635  1.00  0.00     0.176 C 
BRANCH  35  36
HETATM   36  O5  UNL     1       0.191  55.729 -26.702  1.00  0.00    -0.400 OA
HETATM   37  H39 UNL     1      -0.704  55.836 -27.065  1.00  0.00     0.209 HD
ENDBRANCH  35  36
ENDBRANCH  18  35
BRANCH  17  38
HETATM   38  O4  UNL     1      -1.440  54.254 -27.859  1.00  0.00    -0.395 OA
HETATM   39  H33 UNL     1      -1.623  54.266 -28.815  1.00  0.00     0.210 HD
ENDBRANCH  17  38
TORSDOF 7
ENDMDL
MODEL 4
REMARK minimizedAffinity -9.45683289
REMARK  7 active torsions:
REMARK  status: ('A' for Active; 'I' for Inactive)
REMARK    1  A    between atoms: C2_2  and  C4_4 
REMARK    2  A    between atoms: C7_7  and  C8_8 
REMARK    3  A    between atoms: C8_8  and  O2_10 
REMARK    4  A    between atoms: C15_17  and  O3_18 
REMARK    5  A    between atoms: C21_24  and  O4_25 
REMARK    6  A    between atoms: C22_26  and  C24_28 
REMARK    7  A    between atoms: C24_28  and  O5_29 
ROOT
HETATM    1  C4  UNL     1      -1.653  48.947 -16.778  1.00  0.00     0.019 C 
HETATM    2  C5  UNL     1      -2.075  47.787 -15.835  1.00  0.00     0.011 C 
HETATM    3  C6  UNL     1      -2.680  46.688 -16.724  1.00  0.00     0.021 C 
HETATM    4  C7  UNL     1      -3.110  47.431 -17.993  1.00  0.00     0.050 C 
HETATM    5  C9  UNL     1      -3.270  46.558 -19.243  1.00  0.00     0.022 C 
HETATM    6  C10 UNL     1      -3.467  47.433 -20.498  1.00  0.00     0.011 C 
HETATM    7  C11 UNL     1      -2.351  48.515 -20.732  1.00  0.00    -0.032 C 
HETATM    8  C12 UNL     1      -1.068  47.706 -21.124  1.00  0.00     0.016 C 
HETATM    9  C13 UNL     1      -2.103  49.318 -19.397  1.00  0.00     0.003 C 
HETATM   10  C14 UNL     1      -0.983  50.342 -19.575  1.00  0.00     0.038 C 
HETATM   11  C15 UNL     1      -1.207  51.312 -20.745  1.00  0.00     0.124 C 
HETATM   12  C16 UNL     1      -1.554  50.615 -22.098  1.00  0.00     0.032 C 
HETATM   13  C17 UNL     1      -1.676  51.570 -23.394  1.00  0.00    -0.033 C 
HETATM   14  C18 UNL     1      -2.775  52.643 -23.203  1.00  0.00     0.016 C 
HETATM   15  C19 UNL     1      -0.333  52.330 -23.633  1.00  0.00     0.012 C 
HETATM   16  C20 UNL     1      -0.206  53.020 -24.994  1.00  0.00     0.033 C 
HETATM   17  C21 UNL     1      -0.440  52.065 -26.157  1.00  0.00     0.128 C 
HETATM   18  C22 UNL     1      -1.802  51.311 -26.075  1.00  0.00     0.007 C 
HETATM   19  C23 UNL     1      -2.955  52.291 -26.376  1.00  0.00     0.020 C 
HETATM   20  C25 UNL     1      -1.914  50.631 -24.649  1.00  0.00     0.007 C 
HETATM   21  C26 UNL     1      -3.160  49.748 -24.459  1.00  0.00     0.007 C 
HETATM   22  C27 UNL     1      -3.020  48.842 -23.237  1.00  0.00     0.011 C 
HETATM   23  C28 UNL     1      -2.748  49.578 -21.900  1.00  0.00    -0.030 C 
HETATM   24  C29 UNL     1      -4.071  50.314 -21.519  1.00  0.00     0.016 C 
HETATM   25  C30 UNL     1      -1.894  48.367 -18.193  1.00  0.00     0.017 C 
ENDROOT
BRANCH   4  26
HETATM   26  C8  UNL     1      -4.446  48.128 -17.684  1.00  0.00     0.149 C 
HETATM   27  O1  UNL     1      -4.809  49.237 -18.036  1.00  0.00    -0.649 OA
BRANCH  26  28
HETATM   28  O2  UNL     1      -5.259  47.384 -16.906  1.00  0.00    -0.776 OA
HETATM   29  H11 UNL     1      -6.051  47.950 -16.784  1.00  0.00     0.167 HD
ENDBRANCH  26  28
ENDBRANCH   4  26
BRANCH   1  30
HETATM   30  C2  UNL     1      -0.269  49.454 -16.403  1.00  0.00    -0.088 C 
HETATM   31  C1  UNL     1       0.189  50.696 -16.632  1.00  0.00     0.014 C 
HETATM   32  C3  UNL     1       0.618  48.432 -15.735  1.00  0.00     0.043 C 
ENDBRANCH   1  30
BRANCH  11  33
HETATM   33  O3  UNL     1      -0.013  52.089 -20.837  1.00  0.00    -0.395 OA
HETATM   34  H23 UNL     1       0.718  51.484 -21.053  1.00  0.00     0.210 HD
ENDBRANCH  11  33
BRANCH  18  35
HETATM   35  C24 UNL     1      -1.776  50.228 -27.204  1.00  0.00     0.176 C 
BRANCH  35  36
HETATM   36  O5  UNL     1      -2.657  50.512 -28.288  1.00  0.00    -0.400 OA
HETATM   37  H39 UNL     1      -2.246  51.207 -28.830  1.00  0.00     0.209 HD
ENDBRANCH  35  36
ENDBRANCH  18  35
BRANCH  17  38
HETATM   38  O4  UNL     1       0.637  51.122 -26.186  1.00  0.00    -0.395 OA
HETATM   39  H33 UNL     1       1.469  51.624 -26.238  1.00  0.00     0.210 HD
ENDBRANCH  17  38
TORSDOF 7
ENDMDL
MODEL 5
REMARK minimizedAffinity -8.80034542
REMARK  7 active torsions:
REMARK  status: ('A' for Active; 'I' for Inactive)
REMARK    1  A    between atoms: C2_2  and  C4_4 
REMARK    2  A    between atoms: C7_7  and  C8_8 
REMARK    3  A    between atoms: C8_8  and  O2_10 
REMARK    4  A    between atoms: C15_17  and  O3_18 
REMARK    5  A    between atoms: C21_24  and  O4_25 
REMARK    6  A    between atoms: C22_26  and  C24_28 
REMARK    7  A    between atoms: C24_28  and  O5_29 
ROOT
HETATM    1  C4  UNL     1      -6.941  47.682 -20.202  1.00  0.00     0.019 C 
HETATM    2  C5  UNL     1      -7.203  47.558 -18.676  1.00  0.00     0.011 C 
HETATM    3  C6  UNL     1      -6.112  48.378 -17.969  1.00  0.00     0.021 C 
HETATM    4  C7  UNL     1      -4.979  48.455 -18.997  1.00  0.00     0.050 C 
HETATM    5  C9  UNL     1      -3.989  49.608 -18.798  1.00  0.00     0.022 C 
HETATM    6  C10 UNL     1      -3.045  49.732 -20.012  1.00  0.00     0.011 C 
HETATM    7  C11 UNL     1      -3.767  49.872 -21.400  1.00  0.00    -0.032 C 
HETATM    8  C12 UNL     1      -4.425  51.294 -21.380  1.00  0.00     0.016 C 
HETATM    9  C13 UNL     1      -4.877  48.760 -21.535  1.00  0.00     0.003 C 
HETATM   10  C14 UNL     1      -5.638  48.903 -22.853  1.00  0.00     0.038 C 
HETATM   11  C15 UNL     1      -4.734  48.907 -24.096  1.00  0.00     0.124 C 
HETATM   12  C16 UNL     1      -3.543  49.913 -24.019  1.00  0.00     0.032 C 
HETATM   13  C17 UNL     1      -2.630  50.057 -25.344  1.00  0.00    -0.033 C 
HETATM   14  C18 UNL     1      -1.988  48.704 -25.736  1.00  0.00     0.016 C 
HETATM   15  C19 UNL     1      -3.505  50.515 -26.554  1.00  0.00     0.012 C 
HETATM   16  C20 UNL     1      -2.723  50.990 -27.781  1.00  0.00     0.033 C 
HETATM   17  C21 UNL     1      -1.731  52.097 -27.449  1.00  0.00     0.128 C 
HETATM   18  C22 UNL     1      -0.739  51.718 -26.308  1.00  0.00     0.007 C 
HETATM   19  C23 UNL     1       0.276  50.680 -26.829  1.00  0.00     0.020 C 
HETATM   20  C25 UNL     1      -1.575  51.207 -25.064  1.00  0.00     0.007 C 
HETATM   21  C26 UNL     1      -0.735  50.904 -23.811  1.00  0.00     0.007 C 
HETATM   22  C27 UNL     1      -1.614  50.785 -22.566  1.00  0.00     0.011 C 
HETATM   23  C28 UNL     1      -2.740  49.723 -22.655  1.00  0.00    -0.030 C 
HETATM   24  C29 UNL     1      -2.042  48.328 -22.606  1.00  0.00     0.016 C 
HETATM   25  C30 UNL     1      -5.793  48.716 -20.288  1.00  0.00     0.017 C 
ENDROOT
BRANCH   4  26
HETATM   26  C8  UNL     1      -4.222  47.118 -18.944  1.00  0.00     0.149 C 
HETATM   27  O1  UNL     1      -3.446  46.732 -18.087  1.00  0.00    -0.649 OA
BRANCH  26  28
HETATM   28  O2  UNL     1      -4.465  46.333 -20.014  1.00  0.00    -0.776 OA
HETATM   29  H11 UNL     1      -3.916  45.538 -19.853  1.00  0.00     0.167 HD
ENDBRANCH  26  28
ENDBRANCH   4  26
BRANCH   1  30
HETATM   30  C2  UNL     1      -8.244  47.946 -20.942  1.00  0.00    -0.088 C 
HETATM   31  C1  UNL     1      -8.373  48.032 -22.276  1.00  0.00     0.014 C 
HETATM   32  C3  UNL     1      -9.448  48.131 -20.052  1.00  0.00     0.043 C 
ENDBRANCH   1  30
BRANCH  11  33
HETATM   33  O3  UNL     1      -5.595  49.184 -25.199  1.00  0.00    -0.395 OA
HETATM   34  H23 UNL     1      -5.969  50.073 -25.067  1.00  0.00     0.210 HD
ENDBRANCH  11  33
BRANCH  18  35
HETATM   35  C24 UNL     1       0.043  53.026 -25.950  1.00  0.00     0.176 C 
BRANCH  35  36
HETATM   36  O5  UNL     1      -0.702  53.934 -25.143  1.00  0.00    -0.400 OA
HETATM   37  H39 UNL     1      -0.706  53.589 -24.234  1.00  0.00     0.209 HD
ENDBRANCH  35  36
ENDBRANCH  18  35
BRANCH  17  38
HETATM   38  O4  UNL     1      -2.471  53.266 -27.081  1.00  0.00    -0.395 OA
HETATM   39  H33 UNL     1      -3.078  53.475 -27.813  1.00  0.00     0.210 HD
ENDBRANCH  17  38
TORSDOF 7
ENDMDL
MODEL 6
REMARK minimizedAffinity -8.77207184
REMARK  7 active torsions:
REMARK  status: ('A' for Active; 'I' for Inactive)
REMARK    1  A    between atoms: C2_2  and  C4_4 
REMARK    2  A    between atoms: C7_7  and  C8_8 
REMARK    3  A    between atoms: C8_8  and  O2_10 
REMARK    4  A    between atoms: C15_17  and  O3_18 
REMARK    5  A    between atoms: C21_24  and  O4_25 
REMARK    6  A    between atoms: C22_26  and  C24_28 
REMARK    7  A    between atoms: C24_28  and  O5_29 
ROOT
HETATM    1  C4  UNL     1      -0.679  52.595 -22.889  1.00  0.00     0.019 C 
HETATM    2  C5  UNL     1       0.775  52.763 -22.370  1.00  0.00     0.011 C 
HETATM    3  C6  UNL     1       1.079  51.538 -21.492  1.00  0.00     0.021 C 
HETATM    4  C7  UNL     1      -0.304  51.031 -21.070  1.00  0.00     0.050 C 
HETATM    5  C9  UNL     1      -0.359  49.563 -20.630  1.00  0.00     0.022 C 
HETATM    6  C10 UNL     1      -1.821  49.100 -20.461  1.00  0.00     0.011 C 
HETATM    7  C11 UNL     1      -2.735  49.323 -21.719  1.00  0.00    -0.032 C 
HETATM    8  C12 UNL     1      -2.216  48.306 -22.792  1.00  0.00     0.016 C 
HETATM    9  C13 UNL     1      -2.566  50.802 -22.242  1.00  0.00     0.003 C 
HETATM   10  C14 UNL     1      -3.402  51.036 -23.500  1.00  0.00     0.038 C 
HETATM   11  C15 UNL     1      -4.891  50.699 -23.330  1.00  0.00     0.124 C 
HETATM   12  C16 UNL     1      -5.163  49.285 -22.727  1.00  0.00     0.032 C 
HETATM   13  C17 UNL     1      -6.708  48.820 -22.640  1.00  0.00    -0.033 C 
HETATM   14  C18 UNL     1      -7.542  49.793 -21.773  1.00  0.00     0.016 C 
HETATM   15  C19 UNL     1      -7.349  48.812 -24.064  1.00  0.00     0.012 C 
HETATM   16  C20 UNL     1      -8.698  48.097 -24.168  1.00  0.00     0.033 C 
HETATM   17  C21 UNL     1      -8.643  46.666 -23.650  1.00  0.00     0.128 C 
HETATM   18  C22 UNL     1      -8.101  46.555 -22.193  1.00  0.00     0.007 C 
HETATM   19  C23 UNL     1      -9.157  47.092 -21.205  1.00  0.00     0.020 C 
HETATM   20  C25 UNL     1      -6.719  47.325 -22.111  1.00  0.00     0.007 C 
HETATM   21  C26 UNL     1      -6.000  47.205 -20.756  1.00  0.00     0.007 C 
HETATM   22  C27 UNL     1      -4.537  47.636 -20.861  1.00  0.00     0.011 C 
HETATM   23  C28 UNL     1      -4.312  49.074 -21.396  1.00  0.00    -0.030 C 
HETATM   24  C29 UNL     1      -4.783  50.047 -20.270  1.00  0.00     0.016 C 
HETATM   25  C30 UNL     1      -1.074  51.180 -22.404  1.00  0.00     0.017 C 
ENDROOT
BRANCH   4  26
HETATM   26  C8  UNL     1      -0.787  51.927 -19.917  1.00  0.00     0.149 C 
HETATM   27  O1  UNL     1      -0.337  53.005 -19.569  1.00  0.00    -0.649 OA
BRANCH  26  28
HETATM   28  O2  UNL     1      -1.815  51.389 -19.229  1.00  0.00    -0.776 OA
HETATM   29  H11 UNL     1      -2.004  52.051 -18.531  1.00  0.00     0.167 HD
ENDBRANCH  26  28
ENDBRANCH   4  26
BRANCH   1  30
HETATM   30  C2  UNL     1      -0.751  52.925 -24.372  1.00  0.00    -0.088 C 
HETATM   31  C1  UNL     1      -1.539  52.305 -25.267  1.00  0.00     0.014 C 
HETATM   32  C3  UNL     1       0.168  54.037 -24.816  1.00  0.00     0.043 C 
ENDBRANCH   1  30
BRANCH  11  33
HETATM   33  O3  UNL     1      -5.471  50.846 -24.625  1.00  0.00    -0.395 OA
HETATM   34  H23 UNL     1      -5.056  50.190 -25.212  1.00  0.00     0.210 HD
ENDBRANCH  11  33
BRANCH  18  35
HETATM   35  C24 UNL     1      -7.901  45.029 -21.910  1.00  0.00     0.176 C 
BRANCH  35  36
HETATM   36  O5  UNL     1      -8.937  44.208 -22.446  1.00  0.00    -0.400 OA
HETATM   37  H39 UNL     1      -8.790  44.135 -23.404  1.00  0.00     0.209 HD
ENDBRANCH  35  36
ENDBRANCH  18  35
BRANCH  17  38
HETATM   38  O4  UNL     1      -7.818  45.901 -24.535  1.00  0.00    -0.395 OA
HETATM   39  H33 UNL     1      -8.184  45.991 -25.433  1.00  0.00     0.210 HD
ENDBRANCH  17  38
TORSDOF 7
ENDMDL
MODEL 7
REMARK minimizedAffinity -8.74106598
REMARK  7 active torsions:
REMARK  status: ('A' for Active; 'I' for Inactive)
REMARK    1  A    between atoms: C2_2  and  C4_4 
REMARK    2  A    between atoms: C7_7  and  C8_8 
REMARK    3  A    between atoms: C8_8  and  O2_10 
REMARK    4  A    between atoms: C15_17  and  O3_18 
REMARK    5  A    between atoms: C21_24  and  O4_25 
REMARK    6  A    between atoms: C22_26  and  C24_28 
REMARK    7  A    between atoms: C24_28  and  O5_29 
ROOT
HETATM    1  C4  UNL     1      -0.336  51.718 -23.265  1.00  0.00     0.019 C 
HETATM    2  C5  UNL     1       0.077  52.657 -24.431  1.00  0.00     0.011 C 
HETATM    3  C6  UNL     1      -1.217  53.060 -25.158  1.00  0.00     0.021 C 
HETATM    4  C7  UNL     1      -2.209  51.951 -24.792  1.00  0.00     0.050 C 
HETATM    5  C9  UNL     1      -3.691  52.323 -24.932  1.00  0.00     0.022 C 
HETATM    6  C10 UNL     1      -4.587  51.229 -24.316  1.00  0.00     0.011 C 
HETATM    7  C11 UNL     1      -4.258  50.868 -22.822  1.00  0.00    -0.032 C 
HETATM    8  C12 UNL     1      -4.692  52.122 -21.989  1.00  0.00     0.016 C 
HETATM    9  C13 UNL     1      -2.709  50.619 -22.666  1.00  0.00     0.003 C 
HETATM   10  C14 UNL     1      -2.347  50.319 -21.212  1.00  0.00     0.038 C 
HETATM   11  C15 UNL     1      -3.137  49.151 -20.602  1.00  0.00     0.124 C 
HETATM   12  C16 UNL     1      -4.684  49.258 -20.788  1.00  0.00     0.032 C 
HETATM   13  C17 UNL     1      -5.580  48.128 -20.060  1.00  0.00    -0.033 C 
HETATM   14  C18 UNL     1      -5.213  46.710 -20.558  1.00  0.00     0.016 C 
HETATM   15  C19 UNL     1      -5.329  48.151 -18.520  1.00  0.00     0.012 C 
HETATM   16  C20 UNL     1      -6.336  47.357 -17.682  1.00  0.00     0.033 C 
HETATM   17  C21 UNL     1      -7.775  47.775 -17.948  1.00  0.00     0.128 C 
HETATM   18  C22 UNL     1      -8.172  47.706 -19.453  1.00  0.00     0.007 C 
HETATM   19  C23 UNL     1      -8.303  46.231 -19.886  1.00  0.00     0.020 C 
HETATM   20  C25 UNL     1      -7.101  48.513 -20.295  1.00  0.00     0.007 C 
HETATM   21  C26 UNL     1      -7.423  48.633 -21.794  1.00  0.00     0.007 C 
HETATM   22  C27 UNL     1      -6.576  49.715 -22.462  1.00  0.00     0.011 C 
HETATM   23  C28 UNL     1      -5.043  49.533 -22.316  1.00  0.00    -0.030 C 
HETATM   24  C29 UNL     1      -4.651  48.316 -23.211  1.00  0.00     0.016 C 
HETATM   25  C30 UNL     1      -1.882  51.769 -23.290  1.00  0.00     0.017 C 
ENDROOT
BRANCH   4  26
HETATM   26  C8  UNL     1      -1.900  50.745 -25.694  1.00  0.00     0.149 C 
HETATM   27  O1  UNL     1      -1.955  49.562 -25.404  1.00  0.00    -0.649 OA
BRANCH  26  28
HETATM   28  O2  UNL     1      -1.499  51.102 -26.931  1.00  0.00    -0.776 OA
HETATM   29  H11 UNL     1      -1.328  50.247 -27.380  1.00  0.00     0.167 HD
ENDBRANCH  26  28
ENDBRANCH   4  26
BRANCH   1  30
HETATM   30  C2  UNL     1       0.405  52.101 -21.993  1.00  0.00    -0.088 C 
HETATM   31  C1  UNL     1       0.530  51.322 -20.905  1.00  0.00     0.014 C 
HETATM   32  C3  UNL     1       1.014  53.481 -22.009  1.00  0.00     0.043 C 
ENDBRANCH   1  30
BRANCH  11  33
HETATM   33  O3  UNL     1      -2.769  49.113 -19.224  1.00  0.00    -0.395 OA
HETATM   34  H23 UNL     1      -3.058  49.948 -18.816  1.00  0.00     0.210 HD
ENDBRANCH  11  33
BRANCH  18  35
HETATM   35  C24 UNL     1      -9.584  48.373 -19.570  1.00  0.00     0.176 C 
BRANCH  35  36
HETATM   36  O5  UNL     1     -10.446  48.081 -18.473  1.00  0.00    -0.400 OA
HETATM   37  H39 UNL     1     -10.160  48.624 -17.719  1.00  0.00     0.209 HD
ENDBRANCH  35  36
ENDBRANCH  18  35
BRANCH  17  38
HETATM   38  O4  UNL     1      -7.952  49.110 -17.461  1.00  0.00    -0.395 OA
HETATM   39  H33 UNL     1      -7.696  49.118 -16.522  1.00  0.00     0.210 HD
ENDBRANCH  17  38
TORSDOF 7
ENDMDL
MODEL 8
REMARK minimizedAffinity -8.68533421
REMARK  7 active torsions:
REMARK  status: ('A' for Active; 'I' for Inactive)
REMARK    1  A    between atoms: C2_2  and  C4_4 
REMARK    2  A    between atoms: C7_7  and  C8_8 
REMARK    3  A    between atoms: C8_8  and  O2_10 
REMARK    4  A    between atoms: C15_17  and  O3_18 
REMARK    5  A    between atoms: C21_24  and  O4_25 
REMARK    6  A    between atoms: C22_26  and  C24_28 
REMARK    7  A    between atoms: C24_28  and  O5_29 
ROOT
HETATM    1  C4  UNL     1      -4.193  48.573 -18.042  1.00  0.00     0.019 C 
HETATM    2  C5  UNL     1      -4.956  47.342 -17.480  1.00  0.00     0.011 C 
HETATM    3  C6  UNL     1      -5.144  46.363 -18.650  1.00  0.00     0.021 C 
HETATM    4  C7  UNL     1      -5.026  47.245 -19.896  1.00  0.00     0.050 C 
HETATM    5  C9  UNL     1      -4.662  46.509 -21.191  1.00  0.00     0.022 C 
HETATM    6  C10 UNL     1      -4.337  47.513 -22.316  1.00  0.00     0.011 C 
HETATM    7  C11 UNL     1      -3.227  48.567 -21.962  1.00  0.00    -0.032 C 
HETATM    8  C12 UNL     1      -1.891  47.751 -21.888  1.00  0.00     0.016 C 
HETATM    9  C13 UNL     1      -3.544  49.222 -20.562  1.00  0.00     0.003 C 
HETATM   10  C14 UNL     1      -2.453  50.213 -20.162  1.00  0.00     0.038 C 
HETATM   11  C15 UNL     1      -2.188  51.304 -21.211  1.00  0.00     0.124 C 
HETATM   12  C16 UNL     1      -1.953  50.760 -22.656  1.00  0.00     0.032 C 
HETATM   13  C17 UNL     1      -1.544  51.845 -23.780  1.00  0.00    -0.033 C 
HETATM   14  C18 UNL     1      -2.631  52.936 -23.934  1.00  0.00     0.016 C 
HETATM   15  C19 UNL     1      -0.223  52.570 -23.374  1.00  0.00     0.012 C 
HETATM   16  C20 UNL     1       0.442  53.388 -24.485  1.00  0.00     0.033 C 
HETATM   17  C21 UNL     1       0.703  52.565 -25.739  1.00  0.00     0.128 C 
HETATM   18  C22 UNL     1      -0.571  51.861 -26.294  1.00  0.00     0.007 C 
HETATM   19  C23 UNL     1      -1.508  52.911 -26.928  1.00  0.00     0.020 C 
HETATM   20  C25 UNL     1      -1.249  51.046 -25.118  1.00  0.00     0.007 C 
HETATM   21  C26 UNL     1      -2.461  50.199 -25.543  1.00  0.00     0.007 C 
HETATM   22  C27 UNL     1      -2.825  49.170 -24.473  1.00  0.00     0.011 C 
HETATM   23  C28 UNL     1      -3.121  49.757 -23.069  1.00  0.00    -0.030 C 
HETATM   24  C29 UNL     1      -4.488  50.503 -23.178  1.00  0.00     0.016 C 
HETATM   25  C30 UNL     1      -3.837  48.148 -19.487  1.00  0.00     0.017 C 
ENDROOT
BRANCH   4  26
HETATM   26  C8  UNL     1      -6.375  47.960 -20.080  1.00  0.00     0.149 C 
HETATM   27  O1  UNL     1      -6.574  49.153 -20.236  1.00  0.00    -0.649 OA
BRANCH  26  28
HETATM   28  O2  UNL     1      -7.428  47.118 -20.026  1.00  0.00    -0.776 OA
HETATM   29  H11 UNL     1      -8.205  47.705 -20.143  1.00  0.00     0.167 HD
ENDBRANCH  26  28
ENDBRANCH   4  26
BRANCH   1  30
HETATM   30  C2  UNL     1      -3.082  48.984 -17.088  1.00  0.00    -0.088 C 
HETATM   31  C1  UNL     1      -2.050  48.207 -16.719  1.00  0.00     0.014 C 
HETATM   32  C3  UNL     1      -3.210  50.383 -16.536  1.00  0.00     0.043 C 
ENDBRANCH   1  30
BRANCH  11  33
HETATM   33  O3  UNL     1      -1.062  52.038 -20.730  1.00  0.00    -0.395 OA
HETATM   34  H23 UNL     1      -0.304  51.429 -20.697  1.00  0.00     0.210 HD
ENDBRANCH  11  33
BRANCH  18  35
HETATM   35  C24 UNL     1      -0.086  50.897 -27.427  1.00  0.00     0.176 C 
BRANCH  35  36
HETATM   36  O5  UNL     1       0.872  51.483 -28.306  1.00  0.00    -0.400 OA
HETATM   37  H39 UNL     1       1.726  51.502 -27.842  1.00  0.00     0.209 HD
ENDBRANCH  35  36
ENDBRANCH  18  35
BRANCH  17  38
HETATM   38  O4  UNL     1       1.704  51.587 -25.433  1.00  0.00    -0.395 OA
HETATM   39  H33 UNL     1       2.483  52.058 -25.090  1.00  0.00     0.210 HD
ENDBRANCH  17  38
TORSDOF 7
ENDMDL
MODEL 9
REMARK minimizedAffinity -8.68099308
REMARK  7 active torsions:
REMARK  status: ('A' for Active; 'I' for Inactive)
REMARK    1  A    between atoms: C2_2  and  C4_4 
REMARK    2  A    between atoms: C7_7  and  C8_8 
REMARK    3  A    between atoms: C8_8  and  O2_10 
REMARK    4  A    between atoms: C15_17  and  O3_18 
REMARK    5  A    between atoms: C21_24  and  O4_25 
REMARK    6  A    between atoms: C22_26  and  C24_28 
REMARK    7  A    between atoms: C24_28  and  O5_29 
ROOT
HETATM    1  C4  UNL     1      -5.562  48.548 -25.604  1.00  0.00     0.019 C 
HETATM    2  C5  UNL     1      -5.579  48.516 -24.051  1.00  0.00     0.011 C 
HETATM    3  C6  UNL     1      -6.715  47.566 -23.638  1.00  0.00     0.021 C 
HETATM    4  C7  UNL     1      -7.642  47.543 -24.856  1.00  0.00     0.050 C 
HETATM    5  C9  UNL     1      -8.567  46.324 -24.956  1.00  0.00     0.022 C 
HETATM    6  C10 UNL     1      -9.273  46.286 -26.327  1.00  0.00     0.011 C 
HETATM    7  C11 UNL     1      -8.311  46.339 -27.568  1.00  0.00    -0.032 C 
HETATM    8  C12 UNL     1      -7.567  44.960 -27.572  1.00  0.00     0.016 C 
HETATM    9  C13 UNL     1      -7.278  47.517 -27.389  1.00  0.00     0.003 C 
HETATM   10  C14 UNL     1      -6.291  47.561 -28.555  1.00  0.00     0.038 C 
HETATM   11  C15 UNL     1      -6.962  47.647 -29.935  1.00  0.00     0.124 C 
HETATM   12  C16 UNL     1      -8.072  46.576 -30.176  1.00  0.00     0.032 C 
HETATM   13  C17 UNL     1      -8.727  46.532 -31.651  1.00  0.00    -0.033 C 
HETATM   14  C18 UNL     1      -9.387  47.883 -32.016  1.00  0.00     0.016 C 
HETATM   15  C19 UNL     1      -7.625  46.258 -32.722  1.00  0.00     0.012 C 
HETATM   16  C20 UNL     1      -8.144  45.880 -34.112  1.00  0.00     0.033 C 
HETATM   17  C21 UNL     1      -9.096  44.692 -34.077  1.00  0.00     0.128 C 
HETATM   18  C22 UNL     1     -10.296  44.890 -33.103  1.00  0.00     0.007 C 
HETATM   19  C23 UNL     1     -11.278  45.923 -33.693  1.00  0.00     0.020 C 
HETATM   20  C25 UNL     1      -9.729  45.304 -31.683  1.00  0.00     0.007 C 
HETATM   21  C26 UNL     1     -10.794  45.421 -30.579  1.00  0.00     0.007 C 
HETATM   22  C27 UNL     1     -10.157  45.448 -29.190  1.00  0.00     0.011 C 
HETATM   23  C28 UNL     1      -9.112  46.571 -28.968  1.00  0.00    -0.030 C 
HETATM   24  C29 UNL     1      -9.907  47.913 -28.907  1.00  0.00     0.016 C 
HETATM   25  C30 UNL     1      -6.599  47.470 -25.998  1.00  0.00     0.017 C 
ENDROOT
BRANCH   4  26
HETATM   26  C8  UNL     1      -8.492  48.824 -24.809  1.00  0.00     0.149 C 
HETATM   27  O1  UNL     1      -9.332  49.194 -25.611  1.00  0.00    -0.649 OA
BRANCH  26  28
HETATM   28  O2  UNL     1      -8.208  49.604 -23.745  1.00  0.00    -0.776 OA
HETATM   29  H11 UNL     1      -8.805  50.375 -23.852  1.00  0.00     0.167 HD
ENDBRANCH  26  28
ENDBRANCH   4  26
BRANCH   1  30
HETATM   30  C2  UNL     1      -4.134  48.437 -26.118  1.00  0.00    -0.088 C 
HETATM   31  C1  UNL     1      -3.784  48.316 -27.409  1.00  0.00     0.014 C 
HETATM   32  C3  UNL     1      -3.074  48.457 -25.045  1.00  0.00     0.043 C 
ENDBRANCH   1  30
BRANCH  11  33
HETATM   33  O3  UNL     1      -5.904  47.539 -30.886  1.00  0.00    -0.395 OA
HETATM   34  H23 UNL     1      -5.496  46.662 -30.778  1.00  0.00     0.210 HD
ENDBRANCH  11  33
BRANCH  18  35
HETATM   35  C24 UNL     1     -11.033  43.511 -33.023  1.00  0.00     0.176 C 
BRANCH  35  36
HETATM   36  O5  UNL     1     -12.038  43.341 -34.020  1.00  0.00    -0.400 OA
HETATM   37  H39 UNL     1     -11.590  43.148 -34.861  1.00  0.00     0.209 HD
ENDBRANCH  35  36
ENDBRANCH  18  35
BRANCH  17  38
HETATM   38  O4  UNL     1      -8.350  43.530 -33.699  1.00  0.00    -0.395 OA
HETATM   39  H33 UNL     1      -7.611  43.436 -34.326  1.00  0.00     0.210 HD
ENDBRANCH  17  38
TORSDOF 7
ENDMDL
