MODEL 1
REMARK minimizedAffinity -8.73192215
REMARK CNNscore 0.598557472
REMARK CNNaffinity 6.97037363
REMARK  14 active torsions:
REMARK  status: ('A' for Active; 'I' for Inactive)
REMARK    1  A    between atoms: O1_2  and  C2_3 
REMARK    2  A    between atoms: C2_3  and  C3_5 
REMARK    3  A    between atoms: C3_5  and  C4_6 
REMARK    4  A    between atoms: C3_5  and  N2_16 
REMARK    5  A    between atoms: C4_6  and  C5_7 
REMARK       I    between atoms: N2_16  and  C13_17 
REMARK    6  A    between atoms: C13_17  and  C14_19 
REMARK    7  A    between atoms: C14_19  and  C15_20 
REMARK    8  A    between atoms: C15_20  and  C16_21 
REMARK    9  A    between atoms: C16_21  and  O5_23 
REMARK   10  A    between atoms: O5_23  and  C17_24 
REMARK   11  A    between atoms: C17_24  and  C18_25 
REMARK   12  A    between atoms: C18_25  and  C19_27 
REMARK   13  A    between atoms: C19_27  and  O7_28 
REMARK   14  A    between atoms: C34_44  and  O9_45 
ROOT
HETATM    1  C17 UNL     1     -14.047   6.382  14.523  1.00  0.00     0.260 C 
ENDROOT
BRANCH   1   2
HETATM    2  O5  UNL     1     -13.086   6.431  13.463  1.00  0.00    -0.314 OA
BRANCH   2   3
HETATM    3  C16 UNL     1     -12.320   7.559  13.471  1.00  0.00     0.259 C 
HETATM    4  O4  UNL     1     -12.737   8.677  13.742  1.00  0.00    -0.265 OA
BRANCH   3   5
HETATM    5  C15 UNL     1     -10.895   7.248  13.105  1.00  0.00     0.120 C 
BRANCH   5   6
HETATM    6  C14 UNL     1     -10.135   6.813  14.351  1.00  0.00     0.112 C 
BRANCH   6   7
HETATM    7  C13 UNL     1      -8.683   6.513  14.059  1.00  0.00     0.218 C 
HETATM    8  N2  UNL     1      -8.514   5.351  13.347  1.00  0.00    -0.347 N 
HETATM    9  H13 UNL     1      -9.316   4.773  13.113  1.00  0.00     0.163 HD
HETATM   10  O3  UNL     1      -7.752   7.226  14.414  1.00  0.00    -0.274 OA
BRANCH   8  11
HETATM   11  C3  UNL     1      -7.192   4.860  12.927  1.00  0.00     0.188 C 
BRANCH  11  12
HETATM   12  C2  UNL     1      -7.379   3.394  12.531  1.00  0.00     0.281 C 
HETATM   13  O2  UNL     1      -8.288   2.688  12.958  1.00  0.00    -0.263 OA
BRANCH  12  14
HETATM   14  O1  UNL     1      -6.420   2.993  11.653  1.00  0.00    -0.325 OA
HETATM   15  C1  UNL     1      -6.312   1.578  11.501  1.00  0.00     0.213 C 
ENDBRANCH  12  14
ENDBRANCH  11  12
BRANCH  11  16
HETATM   16  C4  UNL     1      -6.164   4.979  14.061  1.00  0.00     0.076 C 
BRANCH  16  17
HETATM   17  C5  UNL     1      -4.768   5.236  13.581  1.00  0.00    -0.028 A 
HETATM   18  C6  UNL     1      -3.815   4.277  13.296  1.00  0.00     0.096 A 
HETATM   19  N1  UNL     1      -2.665   4.911  12.910  1.00  0.00    -0.365 N 
HETATM   20  C7  UNL     1      -2.845   6.274  12.930  1.00  0.00     0.042 A 
HETATM   21  H8  UNL     1      -1.806   4.450  12.647  1.00  0.00     0.165 HD
HETATM   22  C8  UNL     1      -1.951   7.304  12.617  1.00  0.00     0.030 A 
HETATM   23  C12 UNL     1      -4.156   6.511  13.345  1.00  0.00    -0.002 A 
HETATM   24  C9  UNL     1      -2.410   8.619  12.734  1.00  0.00     0.002 A 
HETATM   25  C10 UNL     1      -3.713   8.890  13.145  1.00  0.00     0.001 A 
HETATM   26  C11 UNL     1      -4.594   7.847  13.453  1.00  0.00     0.014 A 
ENDBRANCH  16  17
ENDBRANCH  11  16
ENDBRANCH   8  11
ENDBRANCH   6   7
ENDBRANCH   5   6
ENDBRANCH   3   5
ENDBRANCH   2   3
ENDBRANCH   1   2
BRANCH   1  27
HETATM   27  C18 UNL     1     -15.474   6.374  13.983  1.00  0.00     0.185 C 
HETATM   28  O6  UNL     1     -15.749   6.863  12.876  1.00  0.00    -0.292 OA
BRANCH  27  29
HETATM   29  C19 UNL     1     -16.601   5.722  14.809  1.00  0.00     0.128 C 
HETATM   30  C20 UNL     1     -16.379   5.602  16.321  1.00  0.00     0.047 C 
HETATM   31  C21 UNL     1     -17.234   4.410  16.777  1.00  0.00     0.009 C 
HETATM   32  C22 UNL     1     -17.897   3.833  15.514  1.00  0.00     0.002 C 
HETATM   33  C23 UNL     1     -18.197   2.320  15.549  1.00  0.00    -0.002 C 
HETATM   34  C36 UNL     1     -16.967   4.272  14.359  1.00  0.00     0.001 C 
HETATM   35  C24 UNL     1     -19.109   1.984  16.740  1.00  0.00     0.010 C 
HETATM   36  C33 UNL     1     -16.922   1.419  15.500  1.00  0.00     0.035 C 
HETATM   37  C25 UNL     1     -19.515   0.519  16.733  1.00  0.00     0.036 C 
HETATM   38  C26 UNL     1     -18.279  -0.340  16.738  1.00  0.00    -0.064 A 
HETATM   39  C27 UNL     1     -18.076  -1.198  17.755  1.00  0.00     0.058 A 
HETATM   40  C31 UNL     1     -17.286  -0.128  15.578  1.00  0.00     0.004 A 
HETATM   41  C28 UNL     1     -16.855  -2.019  17.854  1.00  0.00     0.172 A 
HETATM   42  O8  UNL     1     -16.691  -2.807  18.776  1.00  0.00    -0.289 OA
HETATM   43  C29 UNL     1     -15.844  -1.845  16.800  1.00  0.00     0.052 A 
HETATM   44  C30 UNL     1     -16.046  -0.994  15.785  1.00  0.00    -0.009 A 
HETATM   45  C32 UNL     1     -17.940  -0.629  14.269  1.00  0.00     0.025 C 
HETATM   46  C34 UNL     1     -16.067   1.847  14.273  1.00  0.00     0.124 C 
HETATM   47  C35 UNL     1     -15.734   3.345  14.296  1.00  0.00     0.045 C 
HETATM   48  C37 UNL     1     -17.712   4.235  13.010  1.00  0.00     0.019 C 
BRANCH  29  49
HETATM   49  O7  UNL     1     -17.751   6.575  14.641  1.00  0.00    -0.381 OA
HETATM   50  H20 UNL     1     -17.727   6.896  13.717  1.00  0.00     0.211 HD
ENDBRANCH  29  49
BRANCH  46  51
HETATM   51  O9  UNL     1     -14.816   1.165  14.250  1.00  0.00    -0.395 OA
HETATM   52  H39 UNL     1     -14.377   1.374  13.407  1.00  0.00     0.210 HD
ENDBRANCH  46  51
ENDBRANCH  27  29
ENDBRANCH   1  27
TORSDOF 14
ENDMDL
MODEL 2
REMARK minimizedAffinity -8.58071613
REMARK CNNscore 0.580182135
REMARK CNNaffinity 7.06472588
REMARK  14 active torsions:
REMARK  status: ('A' for Active; 'I' for Inactive)
REMARK    1  A    between atoms: O1_2  and  C2_3 
REMARK    2  A    between atoms: C2_3  and  C3_5 
REMARK    3  A    between atoms: C3_5  and  C4_6 
REMARK    4  A    between atoms: C3_5  and  N2_16 
REMARK    5  A    between atoms: C4_6  and  C5_7 
REMARK       I    between atoms: N2_16  and  C13_17 
REMARK    6  A    between atoms: C13_17  and  C14_19 
REMARK    7  A    between atoms: C14_19  and  C15_20 
REMARK    8  A    between atoms: C15_20  and  C16_21 
REMARK    9  A    between atoms: C16_21  and  O5_23 
REMARK   10  A    between atoms: O5_23  and  C17_24 
REMARK   11  A    between atoms: C17_24  and  C18_25 
REMARK   12  A    between atoms: C18_25  and  C19_27 
REMARK   13  A    between atoms: C19_27  and  O7_28 
REMARK   14  A    between atoms: C34_44  and  O9_45 
ROOT
HETATM    1  C17 UNL     1     -14.491   6.680  14.174  1.00  0.00     0.260 C 
ENDROOT
BRANCH   1   2
HETATM    2  O5  UNL     1     -13.500   6.642  13.142  1.00  0.00    -0.314 OA
BRANCH   2   3
HETATM    3  C16 UNL     1     -12.780   7.794  13.034  1.00  0.00     0.259 C 
HETATM    4  O4  UNL     1     -13.229   8.914  13.240  1.00  0.00    -0.265 OA
BRANCH   3   5
HETATM    5  C15 UNL     1     -11.359   7.508  12.630  1.00  0.00     0.120 C 
BRANCH   5   6
HETATM    6  C14 UNL     1     -10.666   6.726  13.737  1.00  0.00     0.112 C 
BRANCH   6   7
HETATM    7  C13 UNL     1      -9.339   6.157  13.289  1.00  0.00     0.218 C 
HETATM    8  N2  UNL     1      -8.557   5.744  14.339  1.00  0.00    -0.347 N 
HETATM    9  H13 UNL     1      -8.872   5.879  15.296  1.00  0.00     0.163 HD
HETATM   10  O3  UNL     1      -8.994   6.067  12.117  1.00  0.00    -0.274 OA
BRANCH   8  11
HETATM   11  C3  UNL     1      -7.229   5.138  14.153  1.00  0.00     0.188 C 
BRANCH  11  12
HETATM   12  C2  UNL     1      -6.234   6.037  14.888  1.00  0.00     0.281 C 
HETATM   13  O2  UNL     1      -5.015   5.927  14.781  1.00  0.00    -0.263 OA
BRANCH  12  14
HETATM   14  O1  UNL     1      -6.873   6.960  15.656  1.00  0.00    -0.325 OA
HETATM   15  C1  UNL     1      -6.504   8.313  15.385  1.00  0.00     0.213 C 
ENDBRANCH  12  14
ENDBRANCH  11  12
BRANCH  11  16
HETATM   16  C4  UNL     1      -6.861   5.040  12.666  1.00  0.00     0.076 C 
BRANCH  16  17
HETATM   17  C5  UNL     1      -6.223   3.737  12.289  1.00  0.00    -0.028 A 
HETATM   18  C6  UNL     1      -6.877   2.536  12.095  1.00  0.00     0.096 A 
HETATM   19  N1  UNL     1      -5.946   1.582  11.787  1.00  0.00    -0.365 N 
HETATM   20  C7  UNL     1      -4.687   2.135  11.768  1.00  0.00     0.042 A 
HETATM   21  H8  UNL     1      -6.148   0.611  11.598  1.00  0.00     0.165 HD
HETATM   22  C8  UNL     1      -3.447   1.541  11.507  1.00  0.00     0.030 A 
HETATM   23  C12 UNL     1      -4.827   3.488  12.078  1.00  0.00    -0.002 A 
HETATM   24  C9  UNL     1      -2.313   2.355  11.565  1.00  0.00     0.002 A 
HETATM   25  C10 UNL     1      -2.418   3.709  11.871  1.00  0.00     0.001 A 
HETATM   26  C11 UNL     1      -3.666   4.287  12.129  1.00  0.00     0.014 A 
ENDBRANCH  16  17
ENDBRANCH  11  16
ENDBRANCH   8  11
ENDBRANCH   6   7
ENDBRANCH   5   6
ENDBRANCH   3   5
ENDBRANCH   2   3
ENDBRANCH   1   2
BRANCH   1  27
HETATM   27  C18 UNL     1     -15.875   6.329  13.633  1.00  0.00     0.185 C 
HETATM   28  O6  UNL     1     -16.181   6.548  12.451  1.00  0.00    -0.292 OA
BRANCH  27  29
HETATM   29  C19 UNL     1     -16.912   5.664  14.559  1.00  0.00     0.128 C 
HETATM   30  C20 UNL     1     -16.575   5.599  16.053  1.00  0.00     0.047 C 
HETATM   31  C21 UNL     1     -17.348   4.392  16.606  1.00  0.00     0.009 C 
HETATM   32  C22 UNL     1     -18.080   3.752  15.412  1.00  0.00     0.002 C 
HETATM   33  C23 UNL     1     -18.319   2.231  15.513  1.00  0.00    -0.002 C 
HETATM   34  C36 UNL     1     -17.255   4.188  14.180  1.00  0.00     0.001 C 
HETATM   35  C24 UNL     1     -19.127   1.900  16.777  1.00  0.00     0.010 C 
HETATM   36  C33 UNL     1     -17.017   1.375  15.395  1.00  0.00     0.035 C 
HETATM   37  C25 UNL     1     -19.477   0.422  16.843  1.00  0.00     0.036 C 
HETATM   38  C26 UNL     1     -18.213  -0.392  16.781  1.00  0.00    -0.064 A 
HETATM   39  C27 UNL     1     -17.902  -1.209  17.804  1.00  0.00     0.058 A 
HETATM   40  C31 UNL     1     -17.316  -0.180  15.544  1.00  0.00     0.004 A 
HETATM   41  C28 UNL     1     -16.648  -1.983  17.835  1.00  0.00     0.172 A 
HETATM   42  O8  UNL     1     -16.386  -2.735  18.765  1.00  0.00    -0.289 OA
HETATM   43  C29 UNL     1     -15.724  -1.805  16.704  1.00  0.00     0.052 A 
HETATM   44  C30 UNL     1     -16.032  -0.994  15.683  1.00  0.00    -0.009 A 
HETATM   45  C32 UNL     1     -18.044  -0.745  14.302  1.00  0.00     0.025 C 
HETATM   46  C34 UNL     1     -16.272   1.795  14.096  1.00  0.00     0.124 C 
HETATM   47  C35 UNL     1     -15.996   3.304  14.052  1.00  0.00     0.045 C 
HETATM   48  C37 UNL     1     -18.095   4.082  12.891  1.00  0.00     0.019 C 
BRANCH  29  49
HETATM   49  O7  UNL     1     -18.103   6.469  14.453  1.00  0.00    -0.381 OA
HETATM   50  H20 UNL     1     -18.159   6.762  13.520  1.00  0.00     0.211 HD
ENDBRANCH  29  49
BRANCH  46  51
HETATM   51  O9  UNL     1     -15.001   1.158  14.000  1.00  0.00    -0.395 OA
HETATM   52  H39 UNL     1     -14.633   1.356  13.120  1.00  0.00     0.210 HD
ENDBRANCH  46  51
ENDBRANCH  27  29
ENDBRANCH   1  27
TORSDOF 14
ENDMDL
MODEL 3
REMARK minimizedAffinity -9.45102501
REMARK CNNscore 0.467324555
REMARK CNNaffinity 6.97065973
REMARK  14 active torsions:
REMARK  status: ('A' for Active; 'I' for Inactive)
REMARK    1  A    between atoms: O1_2  and  C2_3 
REMARK    2  A    between atoms: C2_3  and  C3_5 
REMARK    3  A    between atoms: C3_5  and  C4_6 
REMARK    4  A    between atoms: C3_5  and  N2_16 
REMARK    5  A    between atoms: C4_6  and  C5_7 
REMARK       I    between atoms: N2_16  and  C13_17 
REMARK    6  A    between atoms: C13_17  and  C14_19 
REMARK    7  A    between atoms: C14_19  and  C15_20 
REMARK    8  A    between atoms: C15_20  and  C16_21 
REMARK    9  A    between atoms: C16_21  and  O5_23 
REMARK   10  A    between atoms: O5_23  and  C17_24 
REMARK   11  A    between atoms: C17_24  and  C18_25 
REMARK   12  A    between atoms: C18_25  and  C19_27 
REMARK   13  A    between atoms: C19_27  and  O7_28 
REMARK   14  A    between atoms: C34_44  and  O9_45 
ROOT
HETATM    1  C17 UNL     1      -5.092   5.973  13.887  1.00  0.00     0.260 C 
ENDROOT
BRANCH   1   2
HETATM    2  O5  UNL     1      -4.206   6.512  12.901  1.00  0.00    -0.314 OA
BRANCH   2   3
HETATM    3  C16 UNL     1      -3.969   7.846  13.050  1.00  0.00     0.259 C 
HETATM    4  O4  UNL     1      -4.790   8.725  12.824  1.00  0.00    -0.265 OA
BRANCH   3   5
HETATM    5  C15 UNL     1      -2.566   8.096  13.531  1.00  0.00     0.120 C 
BRANCH   5   6
HETATM    6  C14 UNL     1      -1.739   8.686  12.395  1.00  0.00     0.112 C 
BRANCH   6   7
HETATM    7  C13 UNL     1      -0.454   7.923  12.170  1.00  0.00     0.218 C 
HETATM    8  N2  UNL     1       0.603   8.443  12.876  1.00  0.00    -0.347 N 
HETATM    9  H13 UNL     1       0.481   9.283  13.435  1.00  0.00     0.163 HD
HETATM   10  O3  UNL     1      -0.358   6.945  11.439  1.00  0.00    -0.274 OA
BRANCH   8  11
HETATM   11  C3  UNL     1       1.953   7.860  12.833  1.00  0.00     0.188 C 
BRANCH  11  12
HETATM   12  C2  UNL     1       2.645   8.269  14.133  1.00  0.00     0.281 C 
HETATM   13  O2  UNL     1       3.772   7.896  14.447  1.00  0.00    -0.263 OA
BRANCH  12  14
HETATM   14  O1  UNL     1       1.857   9.093  14.876  1.00  0.00    -0.325 OA
HETATM   15  C1  UNL     1       2.259  10.462  14.869  1.00  0.00     0.213 C 
ENDBRANCH  12  14
ENDBRANCH  11  12
BRANCH  11  16
HETATM   16  C4  UNL     1       2.747   8.373  11.623  1.00  0.00     0.076 C 
BRANCH  16  17
HETATM   17  C5  UNL     1       2.997   7.325  10.581  1.00  0.00    -0.028 A 
HETATM   18  C6  UNL     1       3.773   6.192  10.734  1.00  0.00     0.096 A 
HETATM   19  N1  UNL     1       3.771   5.504   9.552  1.00  0.00    -0.365 N 
HETATM   20  C7  UNL     1       3.001   6.160   8.621  1.00  0.00     0.042 A 
HETATM   21  H8  UNL     1       4.261   4.637   9.382  1.00  0.00     0.165 HD
HETATM   22  C8  UNL     1       2.719   5.828   7.291  1.00  0.00     0.030 A 
HETATM   23  C12 UNL     1       2.499   7.307   9.237  1.00  0.00    -0.002 A 
HETATM   24  C9  UNL     1       1.898   6.696   6.566  1.00  0.00     0.002 A 
HETATM   25  C10 UNL     1       1.380   7.848   7.150  1.00  0.00     0.001 A 
HETATM   26  C11 UNL     1       1.673   8.166   8.482  1.00  0.00     0.014 A 
ENDBRANCH  16  17
ENDBRANCH  11  16
ENDBRANCH   8  11
ENDBRANCH   6   7
ENDBRANCH   5   6
ENDBRANCH   3   5
ENDBRANCH   2   3
ENDBRANCH   1   2
BRANCH   1  27
HETATM   27  C18 UNL     1      -5.968   4.866  13.304  1.00  0.00     0.185 C 
HETATM   28  O6  UNL     1      -5.473   3.836  12.822  1.00  0.00    -0.292 OA
BRANCH  27  29
HETATM   29  C19 UNL     1      -7.502   5.010  13.335  1.00  0.00     0.128 C 
HETATM   30  C20 UNL     1      -8.178   5.557  12.072  1.00  0.00     0.047 C 
HETATM   31  C21 UNL     1      -9.487   6.207  12.545  1.00  0.00     0.009 C 
HETATM   32  C22 UNL     1      -9.521   6.067  14.077  1.00  0.00     0.002 C 
HETATM   33  C23 UNL     1     -10.285   7.176  14.832  1.00  0.00    -0.002 C 
HETATM   34  C36 UNL     1      -8.037   5.926  14.482  1.00  0.00     0.001 C 
HETATM   35  C24 UNL     1     -11.741   7.249  14.346  1.00  0.00     0.010 C 
HETATM   36  C33 UNL     1      -9.574   8.567  14.802  1.00  0.00     0.035 C 
HETATM   37  C25 UNL     1     -12.547   8.254  15.152  1.00  0.00     0.036 C 
HETATM   38  C26 UNL     1     -11.882   9.602  15.075  1.00  0.00    -0.064 A 
HETATM   39  C27 UNL     1     -12.558  10.641  14.551  1.00  0.00     0.058 A 
HETATM   40  C31 UNL     1     -10.421   9.680  15.561  1.00  0.00     0.004 A 
HETATM   41  C28 UNL     1     -11.942  11.971  14.386  1.00  0.00     0.172 A 
HETATM   42  O8  UNL     1     -12.573  12.912  13.922  1.00  0.00    -0.289 OA
HETATM   43  C29 UNL     1     -10.536  12.114  14.796  1.00  0.00     0.052 A 
HETATM   44  C30 UNL     1      -9.863  11.081  15.320  1.00  0.00    -0.009 A 
HETATM   45  C32 UNL     1     -10.398   9.472  17.093  1.00  0.00     0.025 C 
HETATM   46  C34 UNL     1      -8.112   8.381  15.299  1.00  0.00     0.124 C 
HETATM   47  C35 UNL     1      -7.361   7.314  14.491  1.00  0.00     0.045 C 
HETATM   48  C37 UNL     1      -7.905   5.278  15.875  1.00  0.00     0.019 C 
BRANCH  29  49
HETATM   49  O7  UNL     1      -8.015   3.676  13.517  1.00  0.00    -0.381 OA
HETATM   50  H20 UNL     1      -7.395   3.218  14.120  1.00  0.00     0.211 HD
ENDBRANCH  29  49
BRANCH  46  51
HETATM   51  O9  UNL     1      -7.361   9.584  15.160  1.00  0.00    -0.395 OA
HETATM   52  H39 UNL     1      -6.499   9.451  15.593  1.00  0.00     0.210 HD
ENDBRANCH  46  51
ENDBRANCH  27  29
ENDBRANCH   1  27
TORSDOF 14
ENDMDL
MODEL 4
REMARK minimizedAffinity -8.82052422
REMARK CNNscore 0.383023411
REMARK CNNaffinity 7.51077223
REMARK  14 active torsions:
REMARK  status: ('A' for Active; 'I' for Inactive)
REMARK    1  A    between atoms: O1_2  and  C2_3 
REMARK    2  A    between atoms: C2_3  and  C3_5 
REMARK    3  A    between atoms: C3_5  and  C4_6 
REMARK    4  A    between atoms: C3_5  and  N2_16 
REMARK    5  A    between atoms: C4_6  and  C5_7 
REMARK       I    between atoms: N2_16  and  C13_17 
REMARK    6  A    between atoms: C13_17  and  C14_19 
REMARK    7  A    between atoms: C14_19  and  C15_20 
REMARK    8  A    between atoms: C15_20  and  C16_21 
REMARK    9  A    between atoms: C16_21  and  O5_23 
REMARK   10  A    between atoms: O5_23  and  C17_24 
REMARK   11  A    between atoms: C17_24  and  C18_25 
REMARK   12  A    between atoms: C18_25  and  C19_27 
REMARK   13  A    between atoms: C19_27  and  O7_28 
REMARK   14  A    between atoms: C34_44  and  O9_45 
ROOT
HETATM    1  C17 UNL     1      -0.173   7.967  16.211  1.00  0.00     0.260 C 
ENDROOT
BRANCH   1   2
HETATM    2  O5  UNL     1       1.120   7.657  15.681  1.00  0.00    -0.314 OA
BRANCH   2   3
HETATM    3  C16 UNL     1       2.060   8.610  15.938  1.00  0.00     0.259 C 
HETATM    4  O4  UNL     1       2.506   8.861  17.050  1.00  0.00    -0.265 OA
BRANCH   3   5
HETATM    5  C15 UNL     1       2.477   9.313  14.675  1.00  0.00     0.120 C 
BRANCH   5   6
HETATM    6  C14 UNL     1       3.956   9.665  14.757  1.00  0.00     0.112 C 
BRANCH   6   7
HETATM    7  C13 UNL     1       4.842   8.500  14.380  1.00  0.00     0.218 C 
HETATM    8  N2  UNL     1       4.809   8.222  13.035  1.00  0.00    -0.347 N 
HETATM    9  H13 UNL     1       4.197   8.748  12.419  1.00  0.00     0.163 HD
HETATM   10  O3  UNL     1       5.521   7.868  15.181  1.00  0.00    -0.274 OA
BRANCH   8  11
HETATM   11  C3  UNL     1       5.603   7.143  12.426  1.00  0.00     0.188 C 
BRANCH  11  12
HETATM   12  C2  UNL     1       6.913   7.779  11.958  1.00  0.00     0.281 C 
HETATM   13  O2  UNL     1       7.947   7.763  12.620  1.00  0.00    -0.263 OA
BRANCH  12  14
HETATM   14  O1  UNL     1       6.777   8.346  10.729  1.00  0.00    -0.325 OA
HETATM   15  C1  UNL     1       6.854   9.771  10.723  1.00  0.00     0.213 C 
ENDBRANCH  12  14
ENDBRANCH  11  12
BRANCH  11  16
HETATM   16  C4  UNL     1       4.866   6.506  11.239  1.00  0.00     0.076 C 
BRANCH  16  17
HETATM   17  C5  UNL     1       3.405   6.836  11.191  1.00  0.00    -0.028 A 
HETATM   18  C6  UNL     1       2.494   6.650  12.213  1.00  0.00     0.096 A 
HETATM   19  N1  UNL     1       1.263   7.051  11.772  1.00  0.00    -0.365 N 
HETATM   20  C7  UNL     1       1.346   7.506  10.478  1.00  0.00     0.042 A 
HETATM   21  H8  UNL     1       0.412   7.021  12.316  1.00  0.00     0.165 HD
HETATM   22  C8  UNL     1       0.348   8.006   9.633  1.00  0.00     0.030 A 
HETATM   23  C12 UNL     1       2.680   7.386  10.084  1.00  0.00    -0.002 A 
HETATM   24  C9  UNL     1       0.724   8.394   8.345  1.00  0.00     0.002 A 
HETATM   25  C10 UNL     1       2.046   8.289   7.921  1.00  0.00     0.001 A 
HETATM   26  C11 UNL     1       3.031   7.786   8.779  1.00  0.00     0.014 A 
ENDBRANCH  16  17
ENDBRANCH  11  16
ENDBRANCH   8  11
ENDBRANCH   6   7
ENDBRANCH   5   6
ENDBRANCH   3   5
ENDBRANCH   2   3
ENDBRANCH   1   2
BRANCH   1  27
HETATM   27  C18 UNL     1      -1.102   8.515  15.130  1.00  0.00     0.185 C 
HETATM   28  O6  UNL     1      -1.262   9.735  14.974  1.00  0.00    -0.292 OA
BRANCH  27  29
HETATM   29  C19 UNL     1      -1.840   7.541  14.191  1.00  0.00     0.128 C 
HETATM   30  C20 UNL     1      -2.400   8.118  12.886  1.00  0.00     0.047 C 
HETATM   31  C21 UNL     1      -3.579   7.212  12.498  1.00  0.00     0.009 C 
HETATM   32  C22 UNL     1      -3.708   6.156  13.611  1.00  0.00     0.002 C 
HETATM   33  C23 UNL     1      -5.133   5.613  13.852  1.00  0.00    -0.002 C 
HETATM   34  C36 UNL     1      -3.061   6.821  14.847  1.00  0.00     0.001 C 
HETATM   35  C24 UNL     1      -5.693   4.992  12.564  1.00  0.00     0.010 C 
HETATM   36  C33 UNL     1      -6.109   6.653  14.489  1.00  0.00     0.035 C 
HETATM   37  C25 UNL     1      -7.048   4.345  12.802  1.00  0.00     0.036 C 
HETATM   38  C26 UNL     1      -7.996   5.369  13.366  1.00  0.00    -0.064 A 
HETATM   39  C27 UNL     1      -9.120   5.672  12.690  1.00  0.00     0.058 A 
HETATM   40  C31 UNL     1      -7.570   6.054  14.680  1.00  0.00     0.004 A 
HETATM   41  C28 UNL     1     -10.056   6.712  13.154  1.00  0.00     0.172 A 
HETATM   42  O8  UNL     1     -11.083   6.966  12.538  1.00  0.00    -0.289 OA
HETATM   43  C29 UNL     1      -9.698   7.434  14.385  1.00  0.00     0.052 A 
HETATM   44  C30 UNL     1      -8.581   7.133  15.060  1.00  0.00    -0.009 A 
HETATM   45  C32 UNL     1      -7.615   5.009  15.820  1.00  0.00     0.025 C 
HETATM   46  C34 UNL     1      -5.444   7.227  15.772  1.00  0.00     0.124 C 
HETATM   47  C35 UNL     1      -4.054   7.813  15.490  1.00  0.00     0.045 C 
HETATM   48  C37 UNL     1      -2.643   5.761  15.886  1.00  0.00     0.019 C 
BRANCH  29  49
HETATM   49  O7  UNL     1      -0.861   6.555  13.804  1.00  0.00    -0.381 OA
HETATM   50  H20 UNL     1      -0.299   6.398  14.589  1.00  0.00     0.211 HD
ENDBRANCH  29  49
BRANCH  46  51
HETATM   51  O9  UNL     1      -6.216   8.289  16.325  1.00  0.00    -0.395 OA
HETATM   52  H39 UNL     1      -5.826   8.528  17.184  1.00  0.00     0.210 HD
ENDBRANCH  46  51
ENDBRANCH  27  29
ENDBRANCH   1  27
TORSDOF 14
ENDMDL
MODEL 5
REMARK minimizedAffinity -8.25367737
REMARK CNNscore 0.331222653
REMARK CNNaffinity 6.56760454
REMARK  14 active torsions:
REMARK  status: ('A' for Active; 'I' for Inactive)
REMARK    1  A    between atoms: O1_2  and  C2_3 
REMARK    2  A    between atoms: C2_3  and  C3_5 
REMARK    3  A    between atoms: C3_5  and  C4_6 
REMARK    4  A    between atoms: C3_5  and  N2_16 
REMARK    5  A    between atoms: C4_6  and  C5_7 
REMARK       I    between atoms: N2_16  and  C13_17 
REMARK    6  A    between atoms: C13_17  and  C14_19 
REMARK    7  A    between atoms: C14_19  and  C15_20 
REMARK    8  A    between atoms: C15_20  and  C16_21 
REMARK    9  A    between atoms: C16_21  and  O5_23 
REMARK   10  A    between atoms: O5_23  and  C17_24 
REMARK   11  A    between atoms: C17_24  and  C18_25 
REMARK   12  A    between atoms: C18_25  and  C19_27 
REMARK   13  A    between atoms: C19_27  and  O7_28 
REMARK   14  A    between atoms: C34_44  and  O9_45 
ROOT
HETATM    1  C17 UNL     1     -13.954   9.998  20.025  1.00  0.00     0.260 C 
ENDROOT
BRANCH   1   2
HETATM    2  O5  UNL     1     -13.675   9.920  18.623  1.00  0.00    -0.314 OA
BRANCH   2   3
HETATM    3  C16 UNL     1     -12.848  10.906  18.174  1.00  0.00     0.259 C 
HETATM    4  O4  UNL     1     -12.715  11.996  18.713  1.00  0.00    -0.265 OA
BRANCH   3   5
HETATM    5  C15 UNL     1     -12.119  10.476  16.930  1.00  0.00     0.120 C 
BRANCH   5   6
HETATM    6  C14 UNL     1     -10.806   9.809  17.318  1.00  0.00     0.112 C 
BRANCH   6   7
HETATM    7  C13 UNL     1      -9.991   9.409  16.110  1.00  0.00     0.218 C 
HETATM    8  N2  UNL     1      -9.931   8.048  15.937  1.00  0.00    -0.347 N 
HETATM    9  H13 UNL     1     -10.368   7.427  16.612  1.00  0.00     0.163 HD
HETATM   10  O3  UNL     1      -9.442  10.208  15.360  1.00  0.00    -0.274 OA
BRANCH   8  11
HETATM   11  C3  UNL     1      -9.210   7.419  14.819  1.00  0.00     0.188 C 
BRANCH  11  12
HETATM   12  C2  UNL     1     -10.256   7.110  13.747  1.00  0.00     0.281 C 
HETATM   13  O2  UNL     1      -9.989   6.570  12.676  1.00  0.00    -0.263 OA
BRANCH  12  14
HETATM   14  O1  UNL     1     -11.498   7.502  14.138  1.00  0.00    -0.325 OA
HETATM   15  C1  UNL     1     -12.409   6.430  14.379  1.00  0.00     0.213 C 
ENDBRANCH  12  14
ENDBRANCH  11  12
BRANCH  11  16
HETATM   16  C4  UNL     1      -8.504   6.130  15.262  1.00  0.00     0.076 C 
BRANCH  16  17
HETATM   17  C5  UNL     1      -7.287   5.802  14.450  1.00  0.00    -0.028 A 
HETATM   18  C6  UNL     1      -6.172   6.603  14.294  1.00  0.00     0.096 A 
HETATM   19  N1  UNL     1      -5.294   5.963  13.463  1.00  0.00    -0.365 N 
HETATM   20  C7  UNL     1      -5.807   4.749  13.072  1.00  0.00     0.042 A 
HETATM   21  H8  UNL     1      -4.396   6.324  13.176  1.00  0.00     0.165 HD
HETATM   22  C8  UNL     1      -5.263   3.769  12.234  1.00  0.00     0.030 A 
HETATM   23  C12 UNL     1      -7.058   4.617  13.678  1.00  0.00    -0.002 A 
HETATM   24  C9  UNL     1      -6.023   2.619  12.003  1.00  0.00     0.002 A 
HETATM   25  C10 UNL     1      -7.273   2.455  12.592  1.00  0.00     0.001 A 
HETATM   26  C11 UNL     1      -7.802   3.445  13.429  1.00  0.00     0.014 A 
ENDBRANCH  16  17
ENDBRANCH  11  16
ENDBRANCH   8  11
ENDBRANCH   6   7
ENDBRANCH   5   6
ENDBRANCH   3   5
ENDBRANCH   2   3
ENDBRANCH   1   2
BRANCH   1  27
HETATM   27  C18 UNL     1     -13.021   9.097  20.830  1.00  0.00     0.185 C 
HETATM   28  O6  UNL     1     -12.094   8.476  20.288  1.00  0.00    -0.292 OA
BRANCH  27  29
HETATM   29  C19 UNL     1     -13.209   8.970  22.355  1.00  0.00     0.128 C 
HETATM   30  C20 UNL     1     -11.944   8.808  23.205  1.00  0.00     0.047 C 
HETATM   31  C21 UNL     1     -12.384   8.068  24.477  1.00  0.00     0.009 C 
HETATM   32  C22 UNL     1     -13.886   7.773  24.318  1.00  0.00     0.002 C 
HETATM   33  C23 UNL     1     -14.398   6.507  25.037  1.00  0.00    -0.002 C 
HETATM   34  C36 UNL     1     -14.118   7.776  22.790  1.00  0.00     0.001 C 
HETATM   35  C24 UNL     1     -14.104   6.592  26.543  1.00  0.00     0.010 C 
HETATM   36  C33 UNL     1     -13.893   5.171  24.404  1.00  0.00     0.035 C 
HETATM   37  C25 UNL     1     -14.699   5.412  27.293  1.00  0.00     0.036 C 
HETATM   38  C26 UNL     1     -14.167   4.131  26.709  1.00  0.00    -0.064 A 
HETATM   39  C27 UNL     1     -13.468   3.288  27.493  1.00  0.00     0.058 A 
HETATM   40  C31 UNL     1     -14.419   3.901  25.205  1.00  0.00     0.004 A 
HETATM   41  C28 UNL     1     -12.864   2.050  26.967  1.00  0.00     0.172 A 
HETATM   42  O8  UNL     1     -12.245   1.285  27.694  1.00  0.00    -0.289 OA
HETATM   43  C29 UNL     1     -13.033   1.781  25.530  1.00  0.00     0.052 A 
HETATM   44  C30 UNL     1     -13.730   2.617  24.750  1.00  0.00    -0.009 A 
HETATM   45  C32 UNL     1     -15.932   3.671  24.987  1.00  0.00     0.025 C 
HETATM   46  C34 UNL     1     -14.228   5.192  22.885  1.00  0.00     0.124 C 
HETATM   47  C35 UNL     1     -13.656   6.433  22.186  1.00  0.00     0.045 C 
HETATM   48  C37 UNL     1     -15.606   8.007  22.460  1.00  0.00     0.019 C 
BRANCH  29  49
HETATM   49  O7  UNL     1     -13.817  10.207  22.777  1.00  0.00    -0.381 OA
HETATM   50  H20 UNL     1     -14.438  10.469  22.067  1.00  0.00     0.211 HD
ENDBRANCH  29  49
BRANCH  46  51
HETATM   51  O9  UNL     1     -13.666   4.067  22.215  1.00  0.00    -0.395 OA
HETATM   52  H39 UNL     1     -14.004   4.063  21.302  1.00  0.00     0.210 HD
ENDBRANCH  46  51
ENDBRANCH  27  29
ENDBRANCH   1  27
TORSDOF 14
ENDMDL
MODEL 6
REMARK minimizedAffinity -9.51105213
REMARK CNNscore 0.319679856
REMARK CNNaffinity 8.00603867
REMARK  14 active torsions:
REMARK  status: ('A' for Active; 'I' for Inactive)
REMARK    1  A    between atoms: O1_2  and  C2_3 
REMARK    2  A    between atoms: C2_3  and  C3_5 
REMARK    3  A    between atoms: C3_5  and  C4_6 
REMARK    4  A    between atoms: C3_5  and  N2_16 
REMARK    5  A    between atoms: C4_6  and  C5_7 
REMARK       I    between atoms: N2_16  and  C13_17 
REMARK    6  A    between atoms: C13_17  and  C14_19 
REMARK    7  A    between atoms: C14_19  and  C15_20 
REMARK    8  A    between atoms: C15_20  and  C16_21 
REMARK    9  A    between atoms: C16_21  and  O5_23 
REMARK   10  A    between atoms: O5_23  and  C17_24 
REMARK   11  A    between atoms: C17_24  and  C18_25 
REMARK   12  A    between atoms: C18_25  and  C19_27 
REMARK   13  A    between atoms: C19_27  and  O7_28 
REMARK   14  A    between atoms: C34_44  and  O9_45 
ROOT
HETATM    1  C17 UNL     1      -5.201   3.411  12.509  1.00  0.00     0.260 C 
ENDROOT
BRANCH   1   2
HETATM    2  O5  UNL     1      -3.771   3.478  12.527  1.00  0.00    -0.314 OA
BRANCH   2   3
HETATM    3  C16 UNL     1      -3.171   2.571  11.705  1.00  0.00     0.259 C 
HETATM    4  O4  UNL     1      -3.347   1.361  11.762  1.00  0.00    -0.265 OA
BRANCH   3   5
HETATM    5  C15 UNL     1      -2.264   3.253  10.718  1.00  0.00     0.120 C 
BRANCH   5   6
HETATM    6  C14 UNL     1      -0.936   3.577  11.389  1.00  0.00     0.112 C 
BRANCH   6   7
HETATM    7  C13 UNL     1      -0.941   4.942  12.036  1.00  0.00     0.218 C 
HETATM    8  N2  UNL     1      -0.011   5.058  13.040  1.00  0.00    -0.347 N 
HETATM    9  H13 UNL     1       0.557   4.258  13.306  1.00  0.00     0.163 HD
HETATM   10  O3  UNL     1      -1.689   5.854  11.704  1.00  0.00    -0.274 OA
BRANCH   8  11
HETATM   11  C3  UNL     1       0.185   6.299  13.804  1.00  0.00     0.188 C 
BRANCH  11  12
HETATM   12  C2  UNL     1      -1.014   6.425  14.745  1.00  0.00     0.281 C 
HETATM   13  O2  UNL     1      -1.672   5.465  15.136  1.00  0.00    -0.263 OA
BRANCH  12  14
HETATM   14  O1  UNL     1      -1.241   7.722  15.088  1.00  0.00    -0.325 OA
HETATM   15  C1  UNL     1      -2.116   7.896  16.202  1.00  0.00     0.213 C 
ENDBRANCH  12  14
ENDBRANCH  11  12
BRANCH  11  16
HETATM   16  C4  UNL     1       0.267   7.521  12.879  1.00  0.00     0.076 C 
BRANCH  16  17
HETATM   17  C5  UNL     1       1.451   7.502  11.961  1.00  0.00    -0.028 A 
HETATM   18  C6  UNL     1       2.767   7.310  12.333  1.00  0.00     0.096 A 
HETATM   19  N1  UNL     1       3.549   7.385  11.213  1.00  0.00    -0.365 N 
HETATM   20  C7  UNL     1       2.769   7.616  10.104  1.00  0.00     0.042 A 
HETATM   21  H8  UNL     1       4.553   7.284  11.196  1.00  0.00     0.165 HD
HETATM   22  C8  UNL     1       3.135   7.766   8.762  1.00  0.00     0.030 A 
HETATM   23  C12 UNL     1       1.446   7.693  10.540  1.00  0.00    -0.002 A 
HETATM   24  C9  UNL     1       2.117   8.003   7.835  1.00  0.00     0.002 A 
HETATM   25  C10 UNL     1       0.787   8.085   8.236  1.00  0.00     0.001 A 
HETATM   26  C11 UNL     1       0.438   7.933   9.583  1.00  0.00     0.014 A 
ENDBRANCH  16  17
ENDBRANCH  11  16
ENDBRANCH   8  11
ENDBRANCH   6   7
ENDBRANCH   5   6
ENDBRANCH   3   5
ENDBRANCH   2   3
ENDBRANCH   1   2
BRANCH   1  27
HETATM   27  C18 UNL     1      -5.826   4.683  13.076  1.00  0.00     0.185 C 
HETATM   28  O6  UNL     1      -5.126   5.607  13.516  1.00  0.00    -0.292 OA
BRANCH  27  29
HETATM   29  C19 UNL     1      -7.359   4.843  13.082  1.00  0.00     0.128 C 
HETATM   30  C20 UNL     1      -8.003   5.460  11.835  1.00  0.00     0.047 C 
HETATM   31  C21 UNL     1      -9.314   6.102  12.313  1.00  0.00     0.009 C 
HETATM   32  C22 UNL     1      -9.382   5.885  13.835  1.00  0.00     0.002 C 
HETATM   33  C23 UNL     1     -10.149   6.964  14.629  1.00  0.00    -0.002 C 
HETATM   34  C36 UNL     1      -7.908   5.707  14.263  1.00  0.00     0.001 C 
HETATM   35  C24 UNL     1     -11.593   7.079  14.118  1.00  0.00     0.010 C 
HETATM   36  C33 UNL     1      -9.423   8.347  14.684  1.00  0.00     0.035 C 
HETATM   37  C25 UNL     1     -12.405   8.051  14.957  1.00  0.00     0.036 C 
HETATM   38  C26 UNL     1     -11.724   9.394  14.961  1.00  0.00    -0.064 A 
HETATM   39  C27 UNL     1     -12.377  10.466  14.477  1.00  0.00     0.058 A 
HETATM   40  C31 UNL     1     -10.273   9.430  15.481  1.00  0.00     0.004 A 
HETATM   41  C28 UNL     1     -11.744  11.795  14.391  1.00  0.00     0.172 A 
HETATM   42  O8  UNL     1     -12.355  12.766  13.963  1.00  0.00    -0.289 OA
HETATM   43  C29 UNL     1     -10.346  11.900  14.837  1.00  0.00     0.052 A 
HETATM   44  C30 UNL     1      -9.695  10.834  15.322  1.00  0.00    -0.009 A 
HETATM   45  C32 UNL     1     -10.284   9.145  17.001  1.00  0.00     0.025 C 
HETATM   46  C34 UNL     1      -7.974   8.118  15.201  1.00  0.00     0.124 C 
HETATM   47  C35 UNL     1      -7.217   7.084  14.356  1.00  0.00     0.045 C 
HETATM   48  C37 UNL     1      -7.813   4.987  15.623  1.00  0.00     0.019 C 
BRANCH  29  49
HETATM   49  O7  UNL     1      -7.891   3.507  13.186  1.00  0.00    -0.381 OA
HETATM   50  H20 UNL     1      -7.288   3.012  13.778  1.00  0.00     0.211 HD
ENDBRANCH  29  49
BRANCH  46  51
HETATM   51  O9  UNL     1      -7.206   9.317  15.137  1.00  0.00    -0.395 OA
HETATM   52  H39 UNL     1      -6.356   9.152  15.581  1.00  0.00     0.210 HD
ENDBRANCH  46  51
ENDBRANCH  27  29
ENDBRANCH   1  27
TORSDOF 14
ENDMDL
MODEL 7
REMARK minimizedAffinity -9.25358391
REMARK CNNscore 0.276879311
REMARK CNNaffinity 6.07941294
REMARK  14 active torsions:
REMARK  status: ('A' for Active; 'I' for Inactive)
REMARK    1  A    between atoms: O1_2  and  C2_3 
REMARK    2  A    between atoms: C2_3  and  C3_5 
REMARK    3  A    between atoms: C3_5  and  C4_6 
REMARK    4  A    between atoms: C3_5  and  N2_16 
REMARK    5  A    between atoms: C4_6  and  C5_7 
REMARK       I    between atoms: N2_16  and  C13_17 
REMARK    6  A    between atoms: C13_17  and  C14_19 
REMARK    7  A    between atoms: C14_19  and  C15_20 
REMARK    8  A    between atoms: C15_20  and  C16_21 
REMARK    9  A    between atoms: C16_21  and  O5_23 
REMARK   10  A    between atoms: O5_23  and  C17_24 
REMARK   11  A    between atoms: C17_24  and  C18_25 
REMARK   12  A    between atoms: C18_25  and  C19_27 
REMARK   13  A    between atoms: C19_27  and  O7_28 
REMARK   14  A    between atoms: C34_44  and  O9_45 
ROOT
HETATM    1  C17 UNL     1      -0.631   9.453  16.534  1.00  0.00     0.260 C 
ENDROOT
BRANCH   1   2
HETATM    2  O5  UNL     1      -0.806   8.049  16.317  1.00  0.00    -0.314 OA
BRANCH   2   3
HETATM    3  C16 UNL     1      -1.385   7.748  15.121  1.00  0.00     0.259 C 
HETATM    4  O4  UNL     1      -2.238   8.433  14.573  1.00  0.00    -0.265 OA
BRANCH   3   5
HETATM    5  C15 UNL     1      -0.837   6.464  14.561  1.00  0.00     0.120 C 
BRANCH   5   6
HETATM    6  C14 UNL     1      -0.353   6.698  13.137  1.00  0.00     0.112 C 
BRANCH   6   7
HETATM    7  C13 UNL     1      -0.902   5.673  12.171  1.00  0.00     0.218 C 
HETATM    8  N2  UNL     1      -1.305   4.518  12.796  1.00  0.00    -0.347 N 
HETATM    9  H13 UNL     1      -1.178   4.407  13.798  1.00  0.00     0.163 HD
HETATM   10  O3  UNL     1      -0.983   5.847  10.961  1.00  0.00    -0.274 OA
BRANCH   8  11
HETATM   11  C3  UNL     1      -1.891   3.382  12.068  1.00  0.00     0.188 C 
BRANCH  11  12
HETATM   12  C2  UNL     1      -0.756   2.749  11.263  1.00  0.00     0.281 C 
HETATM   13  O2  UNL     1       0.432   2.989  11.464  1.00  0.00    -0.263 OA
BRANCH  12  14
HETATM   14  O1  UNL     1      -1.234   1.895  10.318  1.00  0.00    -0.325 OA
HETATM   15  C1  UNL     1      -0.754   0.556  10.433  1.00  0.00     0.213 C 
ENDBRANCH  12  14
ENDBRANCH  11  12
BRANCH  11  16
HETATM   16  C4  UNL     1      -3.019   3.837  11.131  1.00  0.00     0.076 C 
BRANCH  16  17
HETATM   17  C5  UNL     1      -4.391   3.530  11.649  1.00  0.00    -0.028 A 
HETATM   18  C6  UNL     1      -5.205   2.494  11.233  1.00  0.00     0.096 A 
HETATM   19  N1  UNL     1      -6.383   2.565  11.926  1.00  0.00    -0.365 N 
HETATM   20  C7  UNL     1      -6.358   3.628  12.799  1.00  0.00     0.042 A 
HETATM   21  H8  UNL     1      -7.161   1.931  11.819  1.00  0.00     0.165 HD
HETATM   22  C8  UNL     1      -7.332   4.079  13.696  1.00  0.00     0.030 A 
HETATM   23  C12 UNL     1      -5.119   4.253  12.650  1.00  0.00    -0.002 A 
HETATM   24  C9  UNL     1      -7.033   5.207  14.465  1.00  0.00     0.002 A 
HETATM   25  C10 UNL     1      -5.807   5.854  14.342  1.00  0.00     0.001 A 
HETATM   26  C11 UNL     1      -4.843   5.389  13.439  1.00  0.00     0.014 A 
ENDBRANCH  16  17
ENDBRANCH  11  16
ENDBRANCH   8  11
ENDBRANCH   6   7
ENDBRANCH   5   6
ENDBRANCH   3   5
ENDBRANCH   2   3
ENDBRANCH   1   2
BRANCH   1  27
HETATM   27  C18 UNL     1       0.810   9.784  16.913  1.00  0.00     0.185 C 
HETATM   28  O6  UNL     1       1.711   8.936  16.831  1.00  0.00    -0.292 OA
BRANCH  27  29
HETATM   29  C19 UNL     1       1.169  11.208  17.383  1.00  0.00     0.128 C 
HETATM   30  C20 UNL     1       2.451  11.828  16.817  1.00  0.00     0.047 C 
HETATM   31  C21 UNL     1       2.919  12.852  17.863  1.00  0.00     0.009 C 
HETATM   32  C22 UNL     1       1.925  12.771  19.035  1.00  0.00     0.002 C 
HETATM   33  C23 UNL     1       2.501  13.118  20.424  1.00  0.00    -0.002 C 
HETATM   34  C36 UNL     1       1.325  11.350  18.930  1.00  0.00     0.001 C 
HETATM   35  C24 UNL     1       3.090  14.537  20.419  1.00  0.00     0.010 C 
HETATM   36  C33 UNL     1       3.506  12.056  20.977  1.00  0.00     0.035 C 
HETATM   37  C25 UNL     1       3.560  14.949  21.805  1.00  0.00     0.036 C 
HETATM   38  C26 UNL     1       4.566  13.948  22.306  1.00  0.00    -0.064 A 
HETATM   39  C27 UNL     1       5.813  14.358  22.602  1.00  0.00     0.058 A 
HETATM   40  C31 UNL     1       4.097  12.482  22.391  1.00  0.00     0.004 A 
HETATM   41  C28 UNL     1       6.864  13.418  23.035  1.00  0.00     0.172 A 
HETATM   42  O8  UNL     1       7.990  13.806  23.317  1.00  0.00    -0.289 OA
HETATM   43  C29 UNL     1       6.500  11.994  23.106  1.00  0.00     0.052 A 
HETATM   44  C30 UNL     1       5.258  11.585  22.814  1.00  0.00    -0.009 A 
HETATM   45  C32 UNL     1       3.040  12.364  23.513  1.00  0.00     0.025 C 
HETATM   46  C34 UNL     1       2.821  10.661  20.927  1.00  0.00     0.124 C 
HETATM   47  C35 UNL     1       2.310  10.319  19.521  1.00  0.00     0.045 C 
HETATM   48  C37 UNL     1      -0.022  11.266  19.677  1.00  0.00     0.019 C 
BRANCH  29  49
HETATM   49  O7  UNL     1       0.087  12.050  16.936  1.00  0.00    -0.381 OA
HETATM   50  H20 UNL     1      -0.733  11.524  17.029  1.00  0.00     0.211 HD
ENDBRANCH  29  49
BRANCH  46  51
HETATM   51  O9  UNL     1       3.731   9.624  21.280  1.00  0.00    -0.395 OA
HETATM   52  H39 UNL     1       3.227   8.794  21.352  1.00  0.00     0.210 HD
ENDBRANCH  46  51
ENDBRANCH  27  29
ENDBRANCH   1  27
TORSDOF 14
ENDMDL
MODEL 8
REMARK minimizedAffinity -8.58900356
REMARK CNNscore 0.25992462
REMARK CNNaffinity 6.54336357
REMARK  14 active torsions:
REMARK  status: ('A' for Active; 'I' for Inactive)
REMARK    1  A    between atoms: O1_2  and  C2_3 
REMARK    2  A    between atoms: C2_3  and  C3_5 
REMARK    3  A    between atoms: C3_5  and  C4_6 
REMARK    4  A    between atoms: C3_5  and  N2_16 
REMARK    5  A    between atoms: C4_6  and  C5_7 
REMARK       I    between atoms: N2_16  and  C13_17 
REMARK    6  A    between atoms: C13_17  and  C14_19 
REMARK    7  A    between atoms: C14_19  and  C15_20 
REMARK    8  A    between atoms: C15_20  and  C16_21 
REMARK    9  A    between atoms: C16_21  and  O5_23 
REMARK   10  A    between atoms: O5_23  and  C17_24 
REMARK   11  A    between atoms: C17_24  and  C18_25 
REMARK   12  A    between atoms: C18_25  and  C19_27 
REMARK   13  A    between atoms: C19_27  and  O7_28 
REMARK   14  A    between atoms: C34_44  and  O9_45 
ROOT
HETATM    1  C17 UNL     1       2.467   8.045  11.260  1.00  0.00     0.260 C 
ENDROOT
BRANCH   1   2
HETATM    2  O5  UNL     1       1.839   6.765  11.132  1.00  0.00    -0.314 OA
BRANCH   2   3
HETATM    3  C16 UNL     1       0.531   6.833  10.756  1.00  0.00     0.259 C 
HETATM    4  O4  UNL     1       0.131   7.378   9.735  1.00  0.00    -0.265 OA
BRANCH   3   5
HETATM    5  C15 UNL     1      -0.357   6.150  11.759  1.00  0.00     0.120 C 
BRANCH   5   6
HETATM    6  C14 UNL     1      -0.477   4.673  11.406  1.00  0.00     0.112 C 
BRANCH   6   7
HETATM    7  C13 UNL     1      -1.917   4.222  11.320  1.00  0.00     0.218 C 
HETATM    8  N2  UNL     1      -2.423   3.827  12.533  1.00  0.00    -0.347 N 
HETATM    9  H13 UNL     1      -1.828   3.816  13.357  1.00  0.00     0.163 HD
HETATM   10  O3  UNL     1      -2.568   4.210  10.282  1.00  0.00    -0.274 OA
BRANCH   8  11
HETATM   11  C3  UNL     1      -3.809   3.365  12.705  1.00  0.00     0.188 C 
BRANCH  11  12
HETATM   12  C2  UNL     1      -3.989   2.171  11.767  1.00  0.00     0.281 C 
HETATM   13  O2  UNL     1      -3.196   1.235  11.702  1.00  0.00    -0.263 OA
BRANCH  12  14
HETATM   14  O1  UNL     1      -5.130   2.284  11.033  1.00  0.00    -0.325 OA
HETATM   15  C1  UNL     1      -6.026   1.181  11.160  1.00  0.00     0.213 C 
ENDBRANCH  12  14
ENDBRANCH  11  12
BRANCH  11  16
HETATM   16  C4  UNL     1      -4.816   4.470  12.360  1.00  0.00     0.076 C 
BRANCH  16  17
HETATM   17  C5  UNL     1      -5.941   4.587  13.343  1.00  0.00    -0.028 A 
HETATM   18  C6  UNL     1      -6.943   3.659  13.549  1.00  0.00     0.096 A 
HETATM   19  N1  UNL     1      -7.789   4.141  14.509  1.00  0.00    -0.365 N 
HETATM   20  C7  UNL     1      -7.360   5.372  14.947  1.00  0.00     0.042 A 
HETATM   21  H8  UNL     1      -8.611   3.666  14.853  1.00  0.00     0.165 HD
HETATM   22  C8  UNL     1      -7.909   6.228  15.907  1.00  0.00     0.030 A 
HETATM   23  C12 UNL     1      -6.199   5.680  14.234  1.00  0.00    -0.002 A 
HETATM   24  C9  UNL     1      -7.254   7.439  16.147  1.00  0.00     0.002 A 
HETATM   25  C10 UNL     1      -6.095   7.776  15.455  1.00  0.00     0.001 A 
HETATM   26  C11 UNL     1      -5.558   6.908  14.497  1.00  0.00     0.014 A 
ENDBRANCH  16  17
ENDBRANCH  11  16
ENDBRANCH   8  11
ENDBRANCH   6   7
ENDBRANCH   5   6
ENDBRANCH   3   5
ENDBRANCH   2   3
ENDBRANCH   1   2
BRANCH   1  27
HETATM   27  C18 UNL     1       3.777   8.106  10.479  1.00  0.00     0.185 C 
HETATM   28  O6  UNL     1       3.810   8.500   9.303  1.00  0.00    -0.292 OA
BRANCH  27  29
HETATM   29  C19 UNL     1       5.095   7.696  11.163  1.00  0.00     0.128 C 
HETATM   30  C20 UNL     1       4.989   6.836  12.428  1.00  0.00     0.047 C 
HETATM   31  C21 UNL     1       6.261   7.122  13.239  1.00  0.00     0.009 C 
HETATM   32  C22 UNL     1       7.058   8.178  12.453  1.00  0.00     0.002 C 
HETATM   33  C23 UNL     1       7.936   9.121  13.302  1.00  0.00    -0.002 C 
HETATM   34  C36 UNL     1       5.994   8.899  11.594  1.00  0.00     0.001 C 
HETATM   35  C24 UNL     1       8.944   8.310  14.131  1.00  0.00     0.010 C 
HETATM   36  C33 UNL     1       7.123  10.132  14.173  1.00  0.00     0.035 C 
HETATM   37  C25 UNL     1       9.899   9.217  14.889  1.00  0.00     0.036 C 
HETATM   38  C26 UNL     1       9.108  10.152  15.764  1.00  0.00    -0.064 A 
HETATM   39  C27 UNL     1       9.295  10.127  17.096  1.00  0.00     0.058 A 
HETATM   40  C31 UNL     1       8.075  11.052  15.055  1.00  0.00     0.004 A 
HETATM   41  C28 UNL     1       8.506  10.970  18.014  1.00  0.00     0.172 A 
HETATM   42  O8  UNL     1       8.697  10.949  19.222  1.00  0.00    -0.289 OA
HETATM   43  C29 UNL     1       7.475  11.830  17.412  1.00  0.00     0.052 A 
HETATM   44  C30 UNL     1       7.289  11.858  16.086  1.00  0.00    -0.009 A 
HETATM   45  C32 UNL     1       8.831  12.088  14.192  1.00  0.00     0.025 C 
HETATM   46  C34 UNL     1       6.130  10.888  13.245  1.00  0.00     0.124 C 
HETATM   47  C35 UNL     1       5.230   9.926  12.458  1.00  0.00     0.045 C 
HETATM   48  C37 UNL     1       6.648   9.616  10.396  1.00  0.00     0.019 C 
BRANCH  29  49
HETATM   49  O7  UNL     1       5.805   6.897  10.196  1.00  0.00    -0.381 OA
HETATM   50  H20 UNL     1       5.626   7.296   9.320  1.00  0.00     0.211 HD
ENDBRANCH  29  49
BRANCH  46  51
HETATM   51  O9  UNL     1       5.253  11.723  13.996  1.00  0.00    -0.395 OA
HETATM   52  H39 UNL     1       4.740  12.261  13.367  1.00  0.00     0.210 HD
ENDBRANCH  46  51
ENDBRANCH  27  29
ENDBRANCH   1  27
TORSDOF 14
ENDMDL
MODEL 9
REMARK minimizedAffinity -8.43332672
REMARK CNNscore 0.259420127
REMARK CNNaffinity 7.23675299
REMARK  14 active torsions:
REMARK  status: ('A' for Active; 'I' for Inactive)
REMARK    1  A    between atoms: O1_2  and  C2_3 
REMARK    2  A    between atoms: C2_3  and  C3_5 
REMARK    3  A    between atoms: C3_5  and  C4_6 
REMARK    4  A    between atoms: C3_5  and  N2_16 
REMARK    5  A    between atoms: C4_6  and  C5_7 
REMARK       I    between atoms: N2_16  and  C13_17 
REMARK    6  A    between atoms: C13_17  and  C14_19 
REMARK    7  A    between atoms: C14_19  and  C15_20 
REMARK    8  A    between atoms: C15_20  and  C16_21 
REMARK    9  A    between atoms: C16_21  and  O5_23 
REMARK   10  A    between atoms: O5_23  and  C17_24 
REMARK   11  A    between atoms: C17_24  and  C18_25 
REMARK   12  A    between atoms: C18_25  and  C19_27 
REMARK   13  A    between atoms: C19_27  and  O7_28 
REMARK   14  A    between atoms: C34_44  and  O9_45 
ROOT
HETATM    1  C17 UNL     1     -10.179   7.237  14.778  1.00  0.00     0.260 C 
ENDROOT
BRANCH   1   2
HETATM    2  O5  UNL     1      -8.987   7.171  13.989  1.00  0.00    -0.314 OA
BRANCH   2   3
HETATM    3  C16 UNL     1      -8.490   5.909  13.854  1.00  0.00     0.259 C 
HETATM    4  O4  UNL     1      -8.781   5.143  12.945  1.00  0.00    -0.265 OA
BRANCH   3   5
HETATM    5  C15 UNL     1      -7.535   5.581  14.969  1.00  0.00     0.120 C 
BRANCH   5   6
HETATM    6  C14 UNL     1      -6.792   6.844  15.386  1.00  0.00     0.112 C 
BRANCH   6   7
HETATM    7  C13 UNL     1      -5.475   6.997  14.661  1.00  0.00     0.218 C 
HETATM    8  N2  UNL     1      -4.490   6.188  15.172  1.00  0.00    -0.347 N 
HETATM    9  H13 UNL     1      -4.676   5.606  15.985  1.00  0.00     0.163 HD
HETATM   10  O3  UNL     1      -5.298   7.757  13.716  1.00  0.00    -0.274 OA
BRANCH   8  11
HETATM   11  C3  UNL     1      -3.127   6.147  14.620  1.00  0.00     0.188 C 
BRANCH  11  12
HETATM   12  C2  UNL     1      -2.430   7.426  15.085  1.00  0.00     0.281 C 
HETATM   13  O2  UNL     1      -2.359   7.769  16.262  1.00  0.00    -0.263 OA
BRANCH  12  14
HETATM   14  O1  UNL     1      -1.904   8.114  14.035  1.00  0.00    -0.325 OA
HETATM   15  C1  UNL     1      -0.489   8.290  14.092  1.00  0.00     0.213 C 
ENDBRANCH  12  14
ENDBRANCH  11  12
BRANCH  11  16
HETATM   16  C4  UNL     1      -3.145   6.076  13.087  1.00  0.00     0.076 C 
BRANCH  16  17
HETATM   17  C5  UNL     1      -3.071   4.680  12.548  1.00  0.00    -0.028 A 
HETATM   18  C6  UNL     1      -1.919   4.001  12.200  1.00  0.00     0.096 A 
HETATM   19  N1  UNL     1      -2.271   2.766  11.730  1.00  0.00    -0.365 N 
HETATM   20  C7  UNL     1      -3.637   2.614  11.768  1.00  0.00     0.042 A 
HETATM   21  H8  UNL     1      -1.625   2.062  11.402  1.00  0.00     0.165 HD
HETATM   22  C8  UNL     1      -4.433   1.528  11.387  1.00  0.00     0.030 A 
HETATM   23  C12 UNL     1      -4.168   3.799  12.279  1.00  0.00    -0.002 A 
HETATM   24  C9  UNL     1      -5.817   1.656  11.531  1.00  0.00     0.002 A 
HETATM   25  C10 UNL     1      -6.380   2.824  12.039  1.00  0.00     0.001 A 
HETATM   26  C11 UNL     1      -5.569   3.901  12.415  1.00  0.00     0.014 A 
ENDBRANCH  16  17
ENDBRANCH  11  16
ENDBRANCH   8  11
ENDBRANCH   6   7
ENDBRANCH   5   6
ENDBRANCH   3   5
ENDBRANCH   2   3
ENDBRANCH   1   2
BRANCH   1  27
HETATM   27  C18 UNL     1     -11.088   8.375  14.321  1.00  0.00     0.185 C 
HETATM   28  O6  UNL     1     -12.069   8.165  13.591  1.00  0.00    -0.292 OA
BRANCH  27  29
HETATM   29  C19 UNL     1     -10.806   9.815  14.791  1.00  0.00     0.128 C 
HETATM   30  C20 UNL     1      -9.351  10.172  15.116  1.00  0.00     0.047 C 
HETATM   31  C21 UNL     1      -9.418  11.323  16.131  1.00  0.00     0.009 C 
HETATM   32  C22 UNL     1     -10.909  11.579  16.411  1.00  0.00     0.002 C 
HETATM   33  C23 UNL     1     -11.240  12.125  17.816  1.00  0.00    -0.002 C 
HETATM   34  C36 UNL     1     -11.598  10.238  16.069  1.00  0.00     0.001 C 
HETATM   35  C24 UNL     1     -10.494  13.445  18.066  1.00  0.00     0.010 C 
HETATM   36  C33 UNL     1     -11.025  11.089  18.966  1.00  0.00     0.035 C 
HETATM   37  C25 UNL     1     -10.891  14.064  19.396  1.00  0.00     0.036 C 
HETATM   38  C26 UNL     1     -10.631  13.078  20.502  1.00  0.00    -0.064 A 
HETATM   39  C27 UNL     1      -9.770  13.400  21.485  1.00  0.00     0.058 A 
HETATM   40  C31 UNL     1     -11.344  11.715  20.393  1.00  0.00     0.004 A 
HETATM   41  C28 UNL     1      -9.422  12.454  22.562  1.00  0.00     0.172 A 
HETATM   42  O8  UNL     1      -8.650  12.767  23.459  1.00  0.00    -0.289 OA
HETATM   43  C29 UNL     1     -10.037  11.119  22.505  1.00  0.00     0.052 A 
HETATM   44  C30 UNL     1     -10.896  10.797  21.528  1.00  0.00    -0.009 A 
HETATM   45  C32 UNL     1     -12.861  11.932  20.597  1.00  0.00     0.025 C 
HETATM   46  C34 UNL     1     -11.808   9.793  18.610  1.00  0.00     0.124 C 
HETATM   47  C35 UNL     1     -11.414   9.241  17.233  1.00  0.00     0.045 C 
HETATM   48  C37 UNL     1     -13.102  10.446  15.798  1.00  0.00     0.019 C 
BRANCH  29  49
HETATM   49  O7  UNL     1     -11.190  10.666  13.692  1.00  0.00    -0.381 OA
HETATM   50  H20 UNL     1     -11.984  10.260  13.289  1.00  0.00     0.211 HD
ENDBRANCH  29  49
BRANCH  46  51
HETATM   51  O9  UNL     1     -11.538   8.752  19.544  1.00  0.00    -0.395 OA
HETATM   52  H39 UNL     1     -12.139   8.012  19.350  1.00  0.00     0.210 HD
ENDBRANCH  46  51
ENDBRANCH  27  29
ENDBRANCH   1  27
TORSDOF 14
ENDMDL
