MODEL 1
REMARK minimizedAffinity -9.94835281
REMARK  4 active torsions:
REMARK  status: ('A' for Active; 'I' for Inactive)
REMARK    1  A    between atoms: C2_2  and  C4_4 
REMARK    2  A    between atoms: C7_7  and  C8_8 
REMARK    3  A    between atoms: C8_8  and  O1_9 
REMARK    4  A    between atoms: C10_11  and  O2_12 
ROOT
HETATM    1  C4  UNL     1       0.579  52.520 -22.978  1.00  0.00     0.018 C 
HETATM    2  C5  UNL     1       0.984  53.550 -24.069  1.00  0.00     0.010 C 
HETATM    3  C6  UNL     1      -0.194  53.631 -25.054  1.00  0.00     0.013 C 
HETATM    4  C7  UNL     1      -0.956  52.314 -24.844  1.00  0.00    -0.012 C 
HETATM    5  C9  UNL     1      -2.427  52.373 -25.273  1.00  0.00     0.044 C 
HETATM    6  C10 UNL     1      -3.209  51.129 -24.793  1.00  0.00     0.128 C 
HETATM    7  C11 UNL     1      -3.098  50.843 -23.239  1.00  0.00    -0.006 C 
HETATM    8  C12 UNL     1      -3.897  51.988 -22.521  1.00  0.00     0.019 C 
HETATM    9  C13 UNL     1      -1.566  50.908 -22.806  1.00  0.00     0.002 C 
HETATM   10  C14 UNL     1      -1.381  50.648 -21.307  1.00  0.00     0.006 C 
HETATM   11  C15 UNL     1      -2.005  49.327 -20.855  1.00  0.00     0.006 C 
HETATM   12  C16 UNL     1      -3.493  49.187 -21.251  1.00  0.00     0.003 C 
HETATM   13  C17 UNL     1      -4.226  47.974 -20.538  1.00  0.00    -0.035 C 
HETATM   14  C18 UNL     1      -3.496  46.620 -20.768  1.00  0.00     0.016 C 
HETATM   15  C19 UNL     1      -4.183  48.215 -18.991  1.00  0.00     0.017 C 
HETATM   16  C20 UNL     1      -5.315  47.529 -18.247  1.00  0.00     0.080 C 
HETATM   17  C21 UNL     1      -6.635  48.126 -18.662  1.00  0.00     0.135 C 
HETATM   18  O3  UNL     1      -7.536  48.259 -17.830  1.00  0.00    -0.297 OA
HETATM   19  C22 UNL     1      -6.813  48.535 -20.137  1.00  0.00     0.017 C 
HETATM   20  C23 UNL     1      -8.231  48.066 -20.549  1.00  0.00     0.023 C 
HETATM   21  C24 UNL     1      -6.799  50.068 -20.188  1.00  0.00     0.023 C 
HETATM   22  C25 UNL     1      -5.722  47.807 -21.013  1.00  0.00     0.009 C 
HETATM   23  C26 UNL     1      -5.863  47.985 -22.538  1.00  0.00     0.007 C 
HETATM   24  C27 UNL     1      -5.199  49.227 -23.126  1.00  0.00     0.011 C 
HETATM   25  C28 UNL     1      -3.689  49.371 -22.807  1.00  0.00    -0.030 C 
HETATM   26  C29 UNL     1      -2.952  48.261 -23.616  1.00  0.00     0.016 C 
HETATM   27  C30 UNL     1      -0.904  52.214 -23.298  1.00  0.00     0.009 C 
ENDROOT
BRANCH   1  28
HETATM   28  C2  UNL     1       0.896  53.028 -21.581  1.00  0.00    -0.089 C 
HETATM   29  C1  UNL     1       1.050  54.343 -21.342  1.00  0.00     0.014 C 
HETATM   30  C3  UNL     1       1.011  52.031 -20.457  1.00  0.00     0.043 C 
ENDBRANCH   1  28
BRANCH   4  31
HETATM   31  C8  UNL     1      -0.214  51.172 -25.600  1.00  0.00     0.174 C 
BRANCH  31  32
HETATM   32  O1  UNL     1      -0.381  51.331 -27.006  1.00  0.00    -0.400 OA
HETATM   33  H13 UNL     1       0.163  50.650 -27.439  1.00  0.00     0.209 HD
ENDBRANCH  31  32
ENDBRANCH   4  31
BRANCH   6  34
HETATM   34  O2  UNL     1      -4.572  51.301 -25.180  1.00  0.00    -0.395 OA
HETATM   35  H17 UNL     1      -4.586  51.471 -26.137  1.00  0.00     0.210 HD
ENDBRANCH   6  34
TORSDOF 4
ENDMDL
MODEL 2
REMARK minimizedAffinity -9.80621338
REMARK  4 active torsions:
REMARK  status: ('A' for Active; 'I' for Inactive)
REMARK    1  A    between atoms: C2_2  and  C4_4 
REMARK    2  A    between atoms: C7_7  and  C8_8 
REMARK    3  A    between atoms: C8_8  and  O1_9 
REMARK    4  A    between atoms: C10_11  and  O2_12 
ROOT
HETATM    1  C4  UNL     1      -0.423  51.345 -17.923  1.00  0.00     0.018 C 
HETATM    2  C5  UNL     1       0.010  50.579 -16.642  1.00  0.00     0.010 C 
HETATM    3  C6  UNL     1      -0.521  49.143 -16.789  1.00  0.00     0.013 C 
HETATM    4  C7  UNL     1      -1.662  49.264 -17.810  1.00  0.00    -0.012 C 
HETATM    5  C9  UNL     1      -1.984  47.952 -18.537  1.00  0.00     0.044 C 
HETATM    6  C10 UNL     1      -2.937  48.185 -19.732  1.00  0.00     0.128 C 
HETATM    7  C11 UNL     1      -2.441  49.281 -20.763  1.00  0.00    -0.006 C 
HETATM    8  C12 UNL     1      -1.195  48.667 -21.496  1.00  0.00     0.019 C 
HETATM    9  C13 UNL     1      -2.002  50.587 -19.963  1.00  0.00     0.002 C 
HETATM   10  C14 UNL     1      -1.500  51.693 -20.898  1.00  0.00     0.006 C 
HETATM   11  C15 UNL     1      -2.515  52.052 -21.986  1.00  0.00     0.006 C 
HETATM   12  C16 UNL     1      -2.997  50.830 -22.799  1.00  0.00     0.003 C 
HETATM   13  C17 UNL     1      -3.807  51.219 -24.107  1.00  0.00    -0.035 C 
HETATM   14  C18 UNL     1      -5.014  52.152 -23.803  1.00  0.00     0.016 C 
HETATM   15  C19 UNL     1      -2.862  52.048 -25.040  1.00  0.00     0.017 C 
HETATM   16  C20 UNL     1      -3.243  51.960 -26.508  1.00  0.00     0.080 C 
HETATM   17  C21 UNL     1      -3.071  50.544 -26.996  1.00  0.00     0.135 C 
HETATM   18  O3  UNL     1      -2.668  50.337 -28.143  1.00  0.00    -0.297 OA
HETATM   19  C22 UNL     1      -3.429  49.397 -26.032  1.00  0.00     0.017 C 
HETATM   20  C23 UNL     1      -4.200  48.348 -26.873  1.00  0.00     0.023 C 
HETATM   21  C24 UNL     1      -2.112  48.754 -25.582  1.00  0.00     0.023 C 
HETATM   22  C25 UNL     1      -4.351  49.956 -24.880  1.00  0.00     0.009 C 
HETATM   23  C26 UNL     1      -4.932  48.900 -23.918  1.00  0.00     0.007 C 
HETATM   24  C27 UNL     1      -4.046  48.522 -22.735  1.00  0.00     0.011 C 
HETATM   25  C28 UNL     1      -3.593  49.714 -21.853  1.00  0.00    -0.030 C 
HETATM   26  C29 UNL     1      -4.859  50.217 -21.095  1.00  0.00     0.016 C 
HETATM   27  C30 UNL     1      -1.014  50.238 -18.827  1.00  0.00     0.009 C 
ENDROOT
BRANCH   1  28
HETATM   28  C2  UNL     1       0.717  52.172 -18.495  1.00  0.00    -0.089 C 
HETATM   29  C1  UNL     1       0.656  52.657 -19.748  1.00  0.00     0.014 C 
HETATM   30  C3  UNL     1       1.911  52.461 -17.623  1.00  0.00     0.043 C 
ENDBRANCH   1  28
BRANCH   4  31
HETATM   31  C8  UNL     1      -2.930  49.814 -17.092  1.00  0.00     0.174 C 
BRANCH  31  32
HETATM   32  O1  UNL     1      -3.083  51.202 -17.369  1.00  0.00    -0.400 OA
HETATM   33  H13 UNL     1      -3.926  51.484 -16.972  1.00  0.00     0.209 HD
ENDBRANCH  31  32
ENDBRANCH   4  31
BRANCH   6  34
HETATM   34  O2  UNL     1      -3.129  46.929 -20.382  1.00  0.00    -0.395 OA
HETATM   35  H17 UNL     1      -3.433  46.295 -19.711  1.00  0.00     0.210 HD
ENDBRANCH   6  34
TORSDOF 4
ENDMDL
MODEL 3
REMARK minimizedAffinity -8.83910275
REMARK  4 active torsions:
REMARK  status: ('A' for Active; 'I' for Inactive)
REMARK    1  A    between atoms: C2_2  and  C4_4 
REMARK    2  A    between atoms: C7_7  and  C8_8 
REMARK    3  A    between atoms: C8_8  and  O1_9 
REMARK    4  A    between atoms: C10_11  and  O2_12 
ROOT
HETATM    1  C4  UNL     1       0.146  51.384 -21.047  1.00  0.00     0.018 C 
HETATM    2  C5  UNL     1      -0.484  50.976 -22.407  1.00  0.00     0.010 C 
HETATM    3  C6  UNL     1      -1.697  50.089 -22.082  1.00  0.00     0.013 C 
HETATM    4  C7  UNL     1      -1.415  49.568 -20.664  1.00  0.00    -0.012 C 
HETATM    5  C9  UNL     1      -2.673  49.132 -19.903  1.00  0.00     0.044 C 
HETATM    6  C10 UNL     1      -2.372  48.879 -18.408  1.00  0.00     0.128 C 
HETATM    7  C11 UNL     1      -1.669  50.090 -17.666  1.00  0.00    -0.006 C 
HETATM    8  C12 UNL     1      -2.745  51.229 -17.561  1.00  0.00     0.019 C 
HETATM    9  C13 UNL     1      -0.439  50.594 -18.544  1.00  0.00     0.002 C 
HETATM   10  C14 UNL     1       0.288  51.775 -17.890  1.00  0.00     0.006 C 
HETATM   11  C15 UNL     1       0.744  51.470 -16.462  1.00  0.00     0.006 C 
HETATM   12  C16 UNL     1      -0.397  50.964 -15.552  1.00  0.00     0.003 C 
HETATM   13  C17 UNL     1      -0.012  50.931 -14.013  1.00  0.00    -0.035 C 
HETATM   14  C18 UNL     1       1.278  50.106 -13.740  1.00  0.00     0.016 C 
HETATM   15  C19 UNL     1       0.322  52.392 -13.560  1.00  0.00     0.017 C 
HETATM   16  C20 UNL     1       0.103  52.624 -12.075  1.00  0.00     0.080 C 
HETATM   17  C21 UNL     1      -1.360  52.477 -11.746  1.00  0.00     0.135 C 
HETATM   18  O3  UNL     1      -1.872  53.205 -10.892  1.00  0.00    -0.297 OA
HETATM   19  C22 UNL     1      -2.164  51.392 -12.488  1.00  0.00     0.017 C 
HETATM   20  C23 UNL     1      -3.060  50.712 -11.423  1.00  0.00     0.023 C 
HETATM   21  C24 UNL     1      -3.087  52.110 -13.480  1.00  0.00     0.023 C 
HETATM   22  C25 UNL     1      -1.166  50.342 -13.112  1.00  0.00     0.009 C 
HETATM   23  C26 UNL     1      -1.817  49.101 -13.753  1.00  0.00     0.007 C 
HETATM   24  C27 UNL     1      -2.237  49.251 -15.214  1.00  0.00     0.011 C 
HETATM   25  C28 UNL     1      -1.103  49.696 -16.174  1.00  0.00    -0.030 C 
HETATM   26  C29 UNL     1      -0.122  48.491 -16.295  1.00  0.00     0.016 C 
HETATM   27  C30 UNL     1      -0.870  50.860 -20.004  1.00  0.00     0.009 C 
ENDROOT
BRANCH   1  28
HETATM   28  C2  UNL     1       0.482  52.865 -21.004  1.00  0.00    -0.089 C 
HETATM   29  C1  UNL     1       0.157  53.616 -19.936  1.00  0.00     0.014 C 
HETATM   30  C3  UNL     1       1.210  53.477 -22.172  1.00  0.00     0.043 C 
ENDBRANCH   1  28
BRANCH   4  31
HETATM   31  C8  UNL     1      -0.395  48.393 -20.748  1.00  0.00     0.174 C 
BRANCH  31  32
HETATM   32  O1  UNL     1      -1.046  47.217 -21.219  1.00  0.00    -0.400 OA
HETATM   33  H13 UNL     1      -0.360  46.536 -21.335  1.00  0.00     0.209 HD
ENDBRANCH  31  32
ENDBRANCH   4  31
BRANCH   6  34
HETATM   34  O2  UNL     1      -3.605  48.543 -17.771  1.00  0.00    -0.395 OA
HETATM   35  H17 UNL     1      -3.994  47.798 -18.259  1.00  0.00     0.210 HD
ENDBRANCH   6  34
TORSDOF 4
ENDMDL
MODEL 4
REMARK minimizedAffinity -8.72648716
REMARK  4 active torsions:
REMARK  status: ('A' for Active; 'I' for Inactive)
REMARK    1  A    between atoms: C2_2  and  C4_4 
REMARK    2  A    between atoms: C7_7  and  C8_8 
REMARK    3  A    between atoms: C8_8  and  O1_9 
REMARK    4  A    between atoms: C10_11  and  O2_12 
ROOT
HETATM    1  C4  UNL     1      -0.201  52.464 -22.858  1.00  0.00     0.018 C 
HETATM    2  C5  UNL     1       1.149  53.101 -22.429  1.00  0.00     0.010 C 
HETATM    3  C6  UNL     1       1.493  52.514 -21.050  1.00  0.00     0.013 C 
HETATM    4  C7  UNL     1       0.144  52.028 -20.498  1.00  0.00    -0.012 C 
HETATM    5  C9  UNL     1       0.270  50.938 -19.427  1.00  0.00     0.044 C 
HETATM    6  C10 UNL     1      -1.100  50.298 -19.106  1.00  0.00     0.128 C 
HETATM    7  C11 UNL     1      -1.878  49.743 -20.370  1.00  0.00    -0.006 C 
HETATM    8  C12 UNL     1      -1.075  48.488 -20.868  1.00  0.00     0.019 C 
HETATM    9  C13 UNL     1      -1.884  50.860 -21.507  1.00  0.00     0.002 C 
HETATM   10  C14 UNL     1      -2.615  50.389 -22.770  1.00  0.00     0.006 C 
HETATM   11  C15 UNL     1      -4.040  49.913 -22.485  1.00  0.00     0.006 C 
HETATM   12  C16 UNL     1      -4.114  48.834 -21.381  1.00  0.00     0.003 C 
HETATM   13  C17 UNL     1      -5.530  48.123 -21.286  1.00  0.00    -0.035 C 
HETATM   14  C18 UNL     1      -6.694  49.138 -21.102  1.00  0.00     0.016 C 
HETATM   15  C19 UNL     1      -5.811  47.405 -22.648  1.00  0.00     0.017 C 
HETATM   16  C20 UNL     1      -6.759  46.226 -22.519  1.00  0.00     0.080 C 
HETATM   17  C21 UNL     1      -6.125  45.150 -21.676  1.00  0.00     0.135 C 
HETATM   18  O3  UNL     1      -6.319  43.963 -21.950  1.00  0.00    -0.297 OA
HETATM   19  C22 UNL     1      -5.261  45.584 -20.477  1.00  0.00     0.017 C 
HETATM   20  C23 UNL     1      -5.637  44.641 -19.307  1.00  0.00     0.023 C 
HETATM   21  C24 UNL     1      -3.799  45.306 -20.845  1.00  0.00     0.023 C 
HETATM   22  C25 UNL     1      -5.604  47.079 -20.104  1.00  0.00     0.009 C 
HETATM   23  C26 UNL     1      -4.940  47.616 -18.821  1.00  0.00     0.007 C 
HETATM   24  C27 UNL     1      -3.542  48.204 -18.992  1.00  0.00     0.011 C 
HETATM   25  C28 UNL     1      -3.437  49.337 -20.046  1.00  0.00    -0.030 C 
HETATM   26  C29 UNL     1      -4.180  50.571 -19.451  1.00  0.00     0.016 C 
HETATM   27  C30 UNL     1      -0.458  51.389 -21.775  1.00  0.00     0.009 C 
ENDROOT
BRANCH   1  28
HETATM   28  C2  UNL     1      -0.169  51.997 -24.304  1.00  0.00    -0.089 C 
HETATM   29  C1  UNL     1       0.661  52.568 -25.195  1.00  0.00     0.014 C 
HETATM   30  C3  UNL     1      -1.067  50.861 -24.719  1.00  0.00     0.043 C 
ENDBRANCH   1  28
BRANCH   4  31
HETATM   31  C8  UNL     1      -0.645  53.250 -19.941  1.00  0.00     0.174 C 
BRANCH  31  32
HETATM   32  O1  UNL     1       0.197  54.031 -19.098  1.00  0.00    -0.400 OA
HETATM   33  H13 UNL     1      -0.307  54.822 -18.841  1.00  0.00     0.209 HD
ENDBRANCH  31  32
ENDBRANCH   4  31
BRANCH   6  34
HETATM   34  O2  UNL     1      -0.878  49.258 -18.153  1.00  0.00    -0.395 OA
HETATM   35  H17 UNL     1      -0.403  49.648 -17.400  1.00  0.00     0.210 HD
ENDBRANCH   6  34
TORSDOF 4
ENDMDL
MODEL 5
REMARK minimizedAffinity -8.45352268
REMARK  4 active torsions:
REMARK  status: ('A' for Active; 'I' for Inactive)
REMARK    1  A    between atoms: C2_2  and  C4_4 
REMARK    2  A    between atoms: C7_7  and  C8_8 
REMARK    3  A    between atoms: C8_8  and  O1_9 
REMARK    4  A    between atoms: C10_11  and  O2_12 
ROOT
HETATM    1  C4  UNL     1      -5.145  47.271 -19.656  1.00  0.00     0.018 C 
HETATM    2  C5  UNL     1      -6.488  46.576 -19.301  1.00  0.00     0.010 C 
HETATM    3  C6  UNL     1      -7.510  47.028 -20.357  1.00  0.00     0.013 C 
HETATM    4  C7  UNL     1      -6.923  48.333 -20.917  1.00  0.00    -0.012 C 
HETATM    5  C9  UNL     1      -7.429  48.688 -22.321  1.00  0.00     0.044 C 
HETATM    6  C10 UNL     1      -6.614  49.844 -22.943  1.00  0.00     0.128 C 
HETATM    7  C11 UNL     1      -5.047  49.606 -22.964  1.00  0.00    -0.006 C 
HETATM    8  C12 UNL     1      -4.788  48.466 -24.012  1.00  0.00     0.019 C 
HETATM    9  C13 UNL     1      -4.575  49.123 -21.520  1.00  0.00     0.002 C 
HETATM   10  C14 UNL     1      -3.066  48.864 -21.467  1.00  0.00     0.006 C 
HETATM   11  C15 UNL     1      -2.242  50.071 -21.919  1.00  0.00     0.006 C 
HETATM   12  C16 UNL     1      -2.652  50.603 -23.311  1.00  0.00     0.003 C 
HETATM   13  C17 UNL     1      -1.624  51.649 -23.916  1.00  0.00    -0.035 C 
HETATM   14  C18 UNL     1      -1.358  52.845 -22.958  1.00  0.00     0.016 C 
HETATM   15  C19 UNL     1      -0.241  50.936 -24.087  1.00  0.00     0.017 C 
HETATM   16  C20 UNL     1       0.622  51.555 -25.172  1.00  0.00     0.080 C 
HETATM   17  C21 UNL     1      -0.038  51.376 -26.515  1.00  0.00     0.135 C 
HETATM   18  O3  UNL     1       0.654  51.163 -27.514  1.00  0.00    -0.297 OA
HETATM   19  C22 UNL     1      -1.573  51.488 -26.589  1.00  0.00     0.017 C 
HETATM   20  C23 UNL     1      -1.887  52.320 -27.857  1.00  0.00     0.023 C 
HETATM   21  C24 UNL     1      -2.121  50.073 -26.814  1.00  0.00     0.023 C 
HETATM   22  C25 UNL     1      -2.101  52.234 -25.302  1.00  0.00     0.009 C 
HETATM   23  C26 UNL     1      -3.605  52.570 -25.296  1.00  0.00     0.007 C 
HETATM   24  C27 UNL     1      -4.529  51.471 -24.778  1.00  0.00     0.011 C 
HETATM   25  C28 UNL     1      -4.191  50.953 -23.356  1.00  0.00    -0.030 C 
HETATM   26  C29 UNL     1      -4.551  52.101 -22.365  1.00  0.00     0.016 C 
HETATM   27  C30 UNL     1      -5.429  47.935 -21.025  1.00  0.00     0.009 C 
ENDROOT
BRANCH   1  28
HETATM   28  C2  UNL     1      -3.975  46.304 -19.585  1.00  0.00    -0.089 C 
HETATM   29  C1  UNL     1      -3.041  46.419 -18.623  1.00  0.00     0.014 C 
HETATM   30  C3  UNL     1      -3.891  45.193 -20.599  1.00  0.00     0.043 C 
ENDBRANCH   1  28
BRANCH   4  31
HETATM   31  C8  UNL     1      -7.223  49.492 -19.921  1.00  0.00     0.174 C 
BRANCH  31  32
HETATM   32  O1  UNL     1      -6.481  50.652 -20.287  1.00  0.00    -0.400 OA
HETATM   33  H13 UNL     1      -6.759  51.371 -19.692  1.00  0.00     0.209 HD
ENDBRANCH  31  32
ENDBRANCH   4  31
BRANCH   6  34
HETATM   34  O2  UNL     1      -7.110  50.061 -24.264  1.00  0.00    -0.395 OA
HETATM   35  H17 UNL     1      -8.070  50.204 -24.196  1.00  0.00     0.210 HD
ENDBRANCH   6  34
TORSDOF 4
ENDMDL
MODEL 6
REMARK minimizedAffinity -8.42422676
REMARK  4 active torsions:
REMARK  status: ('A' for Active; 'I' for Inactive)
REMARK    1  A    between atoms: C2_2  and  C4_4 
REMARK    2  A    between atoms: C7_7  and  C8_8 
REMARK    3  A    between atoms: C8_8  and  O1_9 
REMARK    4  A    between atoms: C10_11  and  O2_12 
ROOT
HETATM    1  C4  UNL     1      -3.388  51.100 -25.321  1.00  0.00     0.018 C 
HETATM    2  C5  UNL     1      -2.288  52.133 -24.952  1.00  0.00     0.010 C 
HETATM    3  C6  UNL     1      -2.133  52.083 -23.423  1.00  0.00     0.013 C 
HETATM    4  C7  UNL     1      -3.458  51.483 -22.927  1.00  0.00    -0.012 C 
HETATM    5  C9  UNL     1      -3.362  50.823 -21.546  1.00  0.00     0.044 C 
HETATM    6  C10 UNL     1      -4.632  50.006 -21.218  1.00  0.00     0.128 C 
HETATM    7  C11 UNL     1      -5.025  48.934 -22.316  1.00  0.00    -0.006 C 
HETATM    8  C12 UNL     1      -3.928  47.812 -22.251  1.00  0.00     0.019 C 
HETATM    9  C13 UNL     1      -4.998  49.625 -23.751  1.00  0.00     0.002 C 
HETATM   10  C14 UNL     1      -5.361  48.642 -24.869  1.00  0.00     0.006 C 
HETATM   11  C15 UNL     1      -6.707  47.954 -24.637  1.00  0.00     0.006 C 
HETATM   12  C16 UNL     1      -6.811  47.268 -23.256  1.00  0.00     0.003 C 
HETATM   13  C17 UNL     1      -8.067  46.307 -23.120  1.00  0.00    -0.035 C 
HETATM   14  C18 UNL     1      -9.406  47.029 -23.446  1.00  0.00     0.016 C 
HETATM   15  C19 UNL     1      -7.934  45.170 -24.188  1.00  0.00     0.017 C 
HETATM   16  C20 UNL     1      -8.663  43.896 -23.801  1.00  0.00     0.080 C 
HETATM   17  C21 UNL     1      -8.032  43.301 -22.568  1.00  0.00     0.135 C 
HETATM   18  O3  UNL     1      -7.953  42.075 -22.453  1.00  0.00    -0.297 OA
HETATM   19  C22 UNL     1      -7.522  44.263 -21.479  1.00  0.00     0.017 C 
HETATM   20  C23 UNL     1      -7.955  43.651 -20.123  1.00  0.00     0.023 C 
HETATM   21  C24 UNL     1      -5.989  44.237 -21.532  1.00  0.00     0.023 C 
HETATM   22  C25 UNL     1      -8.193  45.676 -21.679  1.00  0.00     0.009 C 
HETATM   23  C26 UNL     1      -7.911  46.712 -20.572  1.00  0.00     0.007 C 
HETATM   24  C27 UNL     1      -6.634  47.532 -20.740  1.00  0.00     0.011 C 
HETATM   25  C28 UNL     1      -6.520  48.290 -22.088  1.00  0.00    -0.030 C 
HETATM   26  C29 UNL     1      -7.576  49.436 -22.048  1.00  0.00     0.016 C 
HETATM   27  C30 UNL     1      -3.664  50.369 -23.985  1.00  0.00     0.009 C 
ENDROOT
BRANCH   1  28
HETATM   28  C2  UNL     1      -2.980  50.244 -26.508  1.00  0.00    -0.089 C 
HETATM   29  C1  UNL     1      -3.064  50.719 -27.763  1.00  0.00     0.014 C 
HETATM   30  C3  UNL     1      -2.452  48.856 -26.252  1.00  0.00     0.043 C 
ENDBRANCH   1  28
BRANCH   4  31
HETATM   31  C8  UNL     1      -4.549  52.595 -22.924  1.00  0.00     0.174 C 
BRANCH  31  32
HETATM   32  O1  UNL     1      -5.684  52.165 -23.669  1.00  0.00    -0.400 OA
HETATM   33  H13 UNL     1      -6.368  52.850 -23.572  1.00  0.00     0.209 HD
ENDBRANCH  31  32
ENDBRANCH   4  31
BRANCH   6  34
HETATM   34  O2  UNL     1      -4.427  49.381 -19.951  1.00  0.00    -0.395 OA
HETATM   35  H17 UNL     1      -4.192  50.077 -19.315  1.00  0.00     0.210 HD
ENDBRANCH   6  34
TORSDOF 4
ENDMDL
MODEL 7
REMARK minimizedAffinity -8.41025829
REMARK  4 active torsions:
REMARK  status: ('A' for Active; 'I' for Inactive)
REMARK    1  A    between atoms: C2_2  and  C4_4 
REMARK    2  A    between atoms: C7_7  and  C8_8 
REMARK    3  A    between atoms: C8_8  and  O1_9 
REMARK    4  A    between atoms: C10_11  and  O2_12 
ROOT
HETATM    1  C4  UNL     1      -1.465  50.866 -22.566  1.00  0.00     0.018 C 
HETATM    2  C5  UNL     1      -1.229  52.075 -23.513  1.00  0.00     0.010 C 
HETATM    3  C6  UNL     1      -2.615  52.539 -23.989  1.00  0.00     0.013 C 
HETATM    4  C7  UNL     1      -3.518  51.313 -23.778  1.00  0.00    -0.012 C 
HETATM    5  C9  UNL     1      -5.007  51.654 -23.645  1.00  0.00     0.044 C 
HETATM    6  C10 UNL     1      -5.828  50.435 -23.167  1.00  0.00     0.128 C 
HETATM    7  C11 UNL     1      -5.294  49.765 -21.835  1.00  0.00    -0.006 C 
HETATM    8  C12 UNL     1      -5.584  50.788 -20.678  1.00  0.00     0.019 C 
HETATM    9  C13 UNL     1      -3.722  49.534 -21.963  1.00  0.00     0.002 C 
HETATM   10  C14 UNL     1      -3.131  48.894 -20.702  1.00  0.00     0.006 C 
HETATM   11  C15 UNL     1      -3.830  47.589 -20.318  1.00  0.00     0.006 C 
HETATM   12  C16 UNL     1      -5.363  47.733 -20.187  1.00  0.00     0.003 C 
HETATM   13  C17 UNL     1      -6.060  46.481 -19.506  1.00  0.00    -0.035 C 
HETATM   14  C18 UNL     1      -5.723  45.146 -20.229  1.00  0.00     0.016 C 
HETATM   15  C19 UNL     1      -5.488  46.328 -18.057  1.00  0.00     0.017 C 
HETATM   16  C20 UNL     1      -6.440  45.624 -17.107  1.00  0.00     0.080 C 
HETATM   17  C21 UNL     1      -7.679  46.461 -16.912  1.00  0.00     0.135 C 
HETATM   18  O3  UNL     1      -8.228  46.494 -15.808  1.00  0.00    -0.297 OA
HETATM   19  C22 UNL     1      -8.226  47.238 -18.125  1.00  0.00     0.017 C 
HETATM   20  C23 UNL     1      -9.765  47.060 -18.095  1.00  0.00     0.023 C 
HETATM   21  C24 UNL     1      -7.926  48.722 -17.886  1.00  0.00     0.023 C 
HETATM   22  C25 UNL     1      -7.631  46.619 -19.449  1.00  0.00     0.009 C 
HETATM   23  C26 UNL     1      -8.206  47.181 -20.765  1.00  0.00     0.007 C 
HETATM   24  C27 UNL     1      -7.529  48.440 -21.301  1.00  0.00     0.011 C 
HETATM   25  C28 UNL     1      -5.997  48.316 -21.510  1.00  0.00    -0.030 C 
HETATM   26  C29 UNL     1      -5.787  47.357 -22.721  1.00  0.00     0.016 C 
HETATM   27  C30 UNL     1      -3.003  50.831 -22.398  1.00  0.00     0.009 C 
ENDROOT
BRANCH   1  28
HETATM   28  C2  UNL     1      -0.632  50.973 -21.300  1.00  0.00    -0.089 C 
HETATM   29  C1  UNL     1      -0.138  49.873 -20.703  1.00  0.00     0.014 C 
HETATM   30  C3  UNL     1      -0.347  52.340 -20.733  1.00  0.00     0.043 C 
ENDBRANCH   1  28
BRANCH   4  31
HETATM   31  C8  UNL     1      -3.292  50.310 -24.949  1.00  0.00     0.174 C 
BRANCH  31  32
HETATM   32  O1  UNL     1      -3.870  50.821 -26.146  1.00  0.00    -0.400 OA
HETATM   33  H13 UNL     1      -3.636  50.207 -26.864  1.00  0.00     0.209 HD
ENDBRANCH  31  32
ENDBRANCH   4  31
BRANCH   6  34
HETATM   34  O2  UNL     1      -7.182  50.862 -23.011  1.00  0.00    -0.395 OA
HETATM   35  H17 UNL     1      -7.462  51.261 -23.852  1.00  0.00     0.210 HD
ENDBRANCH   6  34
TORSDOF 4
ENDMDL
MODEL 8
REMARK minimizedAffinity -8.33923912
REMARK  4 active torsions:
REMARK  status: ('A' for Active; 'I' for Inactive)
REMARK    1  A    between atoms: C2_2  and  C4_4 
REMARK    2  A    between atoms: C7_7  and  C8_8 
REMARK    3  A    between atoms: C8_8  and  O1_9 
REMARK    4  A    between atoms: C10_11  and  O2_12 
ROOT
HETATM    1  C4  UNL     1      -2.044  49.569 -17.568  1.00  0.00     0.018 C 
HETATM    2  C5  UNL     1      -1.940  48.558 -16.393  1.00  0.00     0.010 C 
HETATM    3  C6  UNL     1      -2.580  47.248 -16.882  1.00  0.00     0.013 C 
HETATM    4  C7  UNL     1      -3.493  47.682 -18.040  1.00  0.00    -0.012 C 
HETATM    5  C9  UNL     1      -3.809  46.559 -19.035  1.00  0.00     0.044 C 
HETATM    6  C10 UNL     1      -4.493  47.105 -20.309  1.00  0.00     0.128 C 
HETATM    7  C11 UNL     1      -3.703  48.275 -21.029  1.00  0.00    -0.006 C 
HETATM    8  C12 UNL     1      -2.413  47.624 -21.643  1.00  0.00     0.019 C 
HETATM    9  C13 UNL     1      -3.287  49.366 -19.944  1.00  0.00     0.002 C 
HETATM   10  C14 UNL     1      -2.508  50.528 -20.568  1.00  0.00     0.006 C 
HETATM   11  C15 UNL     1      -3.259  51.189 -21.725  1.00  0.00     0.006 C 
HETATM   12  C16 UNL     1      -3.706  50.188 -22.814  1.00  0.00     0.003 C 
HETATM   13  C17 UNL     1      -4.213  50.887 -24.146  1.00  0.00    -0.035 C 
HETATM   14  C18 UNL     1      -5.352  51.913 -23.882  1.00  0.00     0.016 C 
HETATM   15  C19 UNL     1      -3.030  51.719 -24.745  1.00  0.00     0.017 C 
HETATM   16  C20 UNL     1      -3.138  51.918 -26.247  1.00  0.00     0.080 C 
HETATM   17  C21 UNL     1      -3.027  50.588 -26.947  1.00  0.00     0.135 C 
HETATM   18  O3  UNL     1      -2.441  50.514 -28.030  1.00  0.00    -0.297 OA
HETATM   19  C22 UNL     1      -3.676  49.361 -26.280  1.00  0.00     0.017 C 
HETATM   20  C23 UNL     1      -4.381  48.573 -27.412  1.00  0.00     0.023 C 
HETATM   21  C24 UNL     1      -2.540  48.482 -25.741  1.00  0.00     0.023 C 
HETATM   22  C25 UNL     1      -4.733  49.848 -25.214  1.00  0.00     0.009 C 
HETATM   23  C26 UNL     1      -5.589  48.740 -24.569  1.00  0.00     0.007 C 
HETATM   24  C27 UNL     1      -4.983  48.062 -23.343  1.00  0.00     0.011 C 
HETATM   25  C28 UNL     1      -4.580  49.027 -22.198  1.00  0.00    -0.030 C 
HETATM   26  C29 UNL     1      -5.906  49.568 -21.581  1.00  0.00     0.016 C 
HETATM   27  C30 UNL     1      -2.570  48.710 -18.743  1.00  0.00     0.009 C 
ENDROOT
BRANCH   1  28
HETATM   28  C2  UNL     1      -0.739  50.316 -17.785  1.00  0.00    -0.089 C 
HETATM   29  C1  UNL     1      -0.084  50.236 -18.957  1.00  0.00     0.014 C 
HETATM   30  C3  UNL     1      -0.199  51.171 -16.668  1.00  0.00     0.043 C 
ENDBRANCH   1  28
BRANCH   4  31
HETATM   31  C8  UNL     1      -4.808  48.276 -17.454  1.00  0.00     0.174 C 
BRANCH  31  32
HETATM   32  O1  UNL     1      -5.599  47.238 -16.883  1.00  0.00    -0.400 OA
HETATM   33  H13 UNL     1      -6.366  47.661 -16.458  1.00  0.00     0.209 HD
ENDBRANCH  31  32
ENDBRANCH   4  31
BRANCH   6  34
HETATM   34  O2  UNL     1      -4.690  46.006 -21.198  1.00  0.00    -0.395 OA
HETATM   35  H17 UNL     1      -5.179  45.320 -20.712  1.00  0.00     0.210 HD
ENDBRANCH   6  34
TORSDOF 4
ENDMDL
MODEL 9
REMARK minimizedAffinity -8.21329498
REMARK  4 active torsions:
REMARK  status: ('A' for Active; 'I' for Inactive)
REMARK    1  A    between atoms: C2_2  and  C4_4 
REMARK    2  A    between atoms: C7_7  and  C8_8 
REMARK    3  A    between atoms: C8_8  and  O1_9 
REMARK    4  A    between atoms: C10_11  and  O2_12 
ROOT
HETATM    1  C4  UNL     1      -3.581  49.955 -25.962  1.00  0.00     0.018 C 
HETATM    2  C5  UNL     1      -2.440  50.580 -26.812  1.00  0.00     0.010 C 
HETATM    3  C6  UNL     1      -1.293  50.902 -25.839  1.00  0.00     0.013 C 
HETATM    4  C7  UNL     1      -1.975  50.984 -24.464  1.00  0.00    -0.012 C 
HETATM    5  C9  UNL     1      -1.023  50.744 -23.286  1.00  0.00     0.044 C 
HETATM    6  C10 UNL     1      -1.797  50.566 -21.959  1.00  0.00     0.128 C 
HETATM    7  C11 UNL     1      -2.920  49.450 -21.999  1.00  0.00    -0.006 C 
HETATM    8  C12 UNL     1      -2.171  48.072 -22.089  1.00  0.00     0.019 C 
HETATM    9  C13 UNL     1      -3.816  49.659 -23.300  1.00  0.00     0.002 C 
HETATM   10  C14 UNL     1      -4.923  48.605 -23.410  1.00  0.00     0.006 C 
HETATM   11  C15 UNL     1      -5.806  48.542 -22.162  1.00  0.00     0.006 C 
HETATM   12  C16 UNL     1      -5.003  48.352 -20.856  1.00  0.00     0.003 C 
HETATM   13  C17 UNL     1      -5.909  47.988 -19.604  1.00  0.00    -0.035 C 
HETATM   14  C18 UNL     1      -7.045  49.023 -19.372  1.00  0.00     0.016 C 
HETATM   15  C19 UNL     1      -6.632  46.632 -19.900  1.00  0.00     0.017 C 
HETATM   16  C20 UNL     1      -7.010  45.868 -18.644  1.00  0.00     0.080 C 
HETATM   17  C21 UNL     1      -5.764  45.451 -17.905  1.00  0.00     0.135 C 
HETATM   18  O3  UNL     1      -5.732  44.363 -17.324  1.00  0.00    -0.297 OA
HETATM   19  C22 UNL     1      -4.571  46.425 -17.890  1.00  0.00     0.017 C 
HETATM   20  C23 UNL     1      -4.018  46.412 -16.443  1.00  0.00     0.023 C 
HETATM   21  C24 UNL     1      -3.491  45.833 -18.805  1.00  0.00     0.023 C 
HETATM   22  C25 UNL     1      -5.076  47.870 -18.269  1.00  0.00     0.009 C 
HETATM   23  C26 UNL     1      -4.031  48.997 -18.143  1.00  0.00     0.007 C 
HETATM   24  C27 UNL     1      -3.144  49.219 -19.365  1.00  0.00     0.011 C 
HETATM   25  C28 UNL     1      -3.911  49.479 -20.687  1.00  0.00    -0.030 C 
HETATM   26  C29 UNL     1      -4.556  50.892 -20.560  1.00  0.00     0.016 C 
HETATM   27  C30 UNL     1      -2.938  49.774 -24.566  1.00  0.00     0.009 C 
ENDROOT
BRANCH   1  28
HETATM   28  C2  UNL     1      -4.161  48.717 -26.624  1.00  0.00    -0.089 C 
HETATM   29  C1  UNL     1      -3.483  48.067 -27.587  1.00  0.00     0.014 C 
HETATM   30  C3  UNL     1      -5.504  48.211 -26.164  1.00  0.00     0.043 C 
ENDBRANCH   1  28
BRANCH   4  31
HETATM   31  C8  UNL     1      -2.674  52.369 -24.327  1.00  0.00     0.174 C 
BRANCH  31  32
HETATM   32  O1  UNL     1      -1.791  53.404 -24.748  1.00  0.00    -0.400 OA
HETATM   33  H13 UNL     1      -2.292  54.238 -24.724  1.00  0.00     0.209 HD
ENDBRANCH  31  32
ENDBRANCH   4  31
BRANCH   6  34
HETATM   34  O2  UNL     1      -0.841  50.287 -20.937  1.00  0.00    -0.395 OA
HETATM   35  H17 UNL     1      -0.178  50.998 -20.952  1.00  0.00     0.210 HD
ENDBRANCH   6  34
TORSDOF 4
ENDMDL
