MODEL 1
REMARK minimizedAffinity -6.26746655
REMARK CNNscore 0.495297372
REMARK CNNaffinity 5.83294439
REMARK  13 active torsions:
REMARK  status: ('A' for Active; 'I' for Inactive)
REMARK    1  A    between atoms: C4_4  and  C5_5 
REMARK    2  A    between atoms: C5_5  and  C6_6 
REMARK    3  A    between atoms: C6_6  and  C7_7 
REMARK    4  A    between atoms: C9_9  and  C10_10 
REMARK    5  A    between atoms: C11_11  and  C12_12 
REMARK    6  A    between atoms: C14_14  and  C15_15 
REMARK    7  A    between atoms: C18_18  and  C19_19 
REMARK    8  A    between atoms: C19_19  and  C20_20 
REMARK    9  A    between atoms: C20_20  and  C21_21 
REMARK   10  A    between atoms: C21_21  and  O1_22 
REMARK   11  A    between atoms: C23_24  and  C25_26 
REMARK   12  A    between atoms: C28_30  and  O3_32 
REMARK   13  A    between atoms: C30_33  and  O4_34 
ROOT
HETATM    1  C15 UNL     1       0.204  11.956  19.276  1.00  0.00     0.149 C 
HETATM    2  C16 UNL     1       0.768  11.324  20.540  1.00  0.00     0.054 C 
HETATM    3  C17 UNL     1       2.284  11.647  20.512  1.00  0.00     0.050 C 
HETATM    4  C18 UNL     1       2.643  12.937  21.391  1.00  0.00     0.032 C 
HETATM    5  C22 UNL     1       4.175  13.164  21.557  1.00  0.00    -0.066 C 
HETATM    6  C23 UNL     1       4.713  14.124  22.361  1.00  0.00    -0.021 C 
HETATM    7  C24 UNL     1       3.968  14.954  23.372  1.00  0.00     0.052 C 
HETATM    8  C26 UNL     1       5.039  12.193  20.768  1.00  0.00     0.038 C 
HETATM    9  C27 UNL     1       4.654  10.722  20.961  1.00  0.00     0.042 C 
HETATM   10  C28 UNL     1       3.137  10.455  21.091  1.00  0.00     0.067 C 
HETATM   11  C29 UNL     1       2.808  10.124  22.562  1.00  0.00     0.047 C 
HETATM   12  C30 UNL     1       2.502  11.863  18.983  1.00  0.00     0.270 C 
HETATM   13  O5  UNL     1       1.256  11.996  18.316  1.00  0.00    -0.351 OA
ENDROOT
BRANCH   4  14
HETATM   14  C19 UNL     1       1.835  14.234  21.083  1.00  0.00     0.012 C 
BRANCH  14  15
HETATM   15  C20 UNL     1       2.275  15.101  19.896  1.00  0.00     0.027 C 
BRANCH  15  16
HETATM   16  C21 UNL     1       2.295  16.584  20.268  1.00  0.00     0.164 C 
BRANCH  16  17
HETATM   17  O1  UNL     1       3.633  16.986  20.519  1.00  0.00    -0.401 OA
HETATM   18  H32 UNL     1       3.612  17.911  20.823  1.00  0.00     0.209 HD
ENDBRANCH  16  17
ENDBRANCH  15  16
ENDBRANCH  14  15
ENDBRANCH   4  14
BRANCH  10  19
HETATM   19  O3  UNL     1       2.849   9.234  20.391  1.00  0.00    -0.389 OA
HETATM   20  H44 UNL     1       3.013   9.419  19.440  1.00  0.00     0.210 HD
ENDBRANCH  10  19
BRANCH  12  21
HETATM   21  O4  UNL     1       3.152  10.772  18.348  1.00  0.00    -0.370 OA
HETATM   22  H46 UNL     1       3.118  11.013  17.402  1.00  0.00     0.212 HD
ENDBRANCH  12  21
BRANCH   1  23
HETATM   23  C14 UNL     1      -1.035  11.334  18.696  1.00  0.00     0.011 C 
HETATM   24  C12 UNL     1      -1.180  10.449  17.686  1.00  0.00    -0.063 C 
HETATM   25  C13 UNL     1      -0.025   9.814  16.955  1.00  0.00     0.048 C 
BRANCH  24  26
HETATM   26  C11 UNL     1      -2.536  10.102  17.254  1.00  0.00     0.006 C 
HETATM   27  C10 UNL     1      -3.064  10.271  16.028  1.00  0.00     0.001 C 
BRANCH  27  28
HETATM   28  C9  UNL     1      -4.444   9.953  15.718  1.00  0.00     0.002 C 
HETATM   29  C7  UNL     1      -4.934   8.752  15.343  1.00  0.00    -0.084 C 
HETATM   30  C8  UNL     1      -4.139   7.473  15.252  1.00  0.00     0.043 C 
BRANCH  29  31
HETATM   31  C6  UNL     1      -6.415   8.608  15.016  1.00  0.00     0.037 C 
BRANCH  31  32
HETATM   32  C5  UNL     1      -7.024   7.232  15.341  1.00  0.00     0.031 C 
BRANCH  32  33
HETATM   33  C4  UNL     1      -7.785   6.624  14.192  1.00  0.00    -0.024 C 
HETATM   34  C2  UNL     1      -7.397   5.638  13.359  1.00  0.00    -0.091 C 
HETATM   35  C1  UNL     1      -8.324   5.154  12.271  1.00  0.00     0.042 C 
HETATM   36  C3  UNL     1      -6.070   4.931  13.389  1.00  0.00     0.042 C 
ENDBRANCH  32  33
ENDBRANCH  31  32
ENDBRANCH  29  31
ENDBRANCH  27  28
ENDBRANCH  24  26
ENDBRANCH   1  23
BRANCH   6  37
HETATM   37  C25 UNL     1       6.170  14.491  22.306  1.00  0.00     0.265 C 
HETATM   38  O2  UNL     1       6.961  14.242  23.213  1.00  0.00    -0.302 OA
ENDBRANCH   6  37
TORSDOF 13
ENDMDL
MODEL 2
REMARK minimizedAffinity -6.23253298
REMARK CNNscore 0.446519494
REMARK CNNaffinity 5.59860373
REMARK  13 active torsions:
REMARK  status: ('A' for Active; 'I' for Inactive)
REMARK    1  A    between atoms: C4_4  and  C5_5 
REMARK    2  A    between atoms: C5_5  and  C6_6 
REMARK    3  A    between atoms: C6_6  and  C7_7 
REMARK    4  A    between atoms: C9_9  and  C10_10 
REMARK    5  A    between atoms: C11_11  and  C12_12 
REMARK    6  A    between atoms: C14_14  and  C15_15 
REMARK    7  A    between atoms: C18_18  and  C19_19 
REMARK    8  A    between atoms: C19_19  and  C20_20 
REMARK    9  A    between atoms: C20_20  and  C21_21 
REMARK   10  A    between atoms: C21_21  and  O1_22 
REMARK   11  A    between atoms: C23_24  and  C25_26 
REMARK   12  A    between atoms: C28_30  and  O3_32 
REMARK   13  A    between atoms: C30_33  and  O4_34 
ROOT
HETATM    1  C15 UNL     1     -15.937   0.059  15.039  1.00  0.00     0.149 C 
HETATM    2  C16 UNL     1     -16.151  -0.939  13.911  1.00  0.00     0.054 C 
HETATM    3  C17 UNL     1     -15.795  -2.320  14.519  1.00  0.00     0.050 C 
HETATM    4  C18 UNL     1     -17.093  -3.110  15.024  1.00  0.00     0.032 C 
HETATM    5  C22 UNL     1     -16.797  -4.580  15.443  1.00  0.00    -0.066 C 
HETATM    6  C23 UNL     1     -17.763  -5.477  15.789  1.00  0.00    -0.021 C 
HETATM    7  C24 UNL     1     -19.247  -5.292  15.614  1.00  0.00     0.052 C 
HETATM    8  C26 UNL     1     -15.324  -4.955  15.403  1.00  0.00     0.038 C 
HETATM    9  C27 UNL     1     -14.624  -4.582  14.091  1.00  0.00     0.042 C 
HETATM   10  C28 UNL     1     -15.085  -3.249  13.462  1.00  0.00     0.067 C 
HETATM   11  C29 UNL     1     -15.959  -3.549  12.226  1.00  0.00     0.047 C 
HETATM   12  C30 UNL     1     -14.848  -1.886  15.679  1.00  0.00     0.270 C 
HETATM   13  O5  UNL     1     -14.947  -0.487  15.906  1.00  0.00    -0.351 OA
ENDROOT
BRANCH   4  14
HETATM   14  C19 UNL     1     -18.036  -2.345  16.002  1.00  0.00     0.012 C 
BRANCH  14  15
HETATM   15  C20 UNL     1     -17.443  -1.805  17.311  1.00  0.00     0.027 C 
BRANCH  15  16
HETATM   16  C21 UNL     1     -17.182  -2.933  18.310  1.00  0.00     0.164 C 
BRANCH  16  17
HETATM   17  O1  UNL     1     -16.229  -2.499  19.268  1.00  0.00    -0.401 OA
HETATM   18  H32 UNL     1     -16.027  -3.256  19.847  1.00  0.00     0.209 HD
ENDBRANCH  16  17
ENDBRANCH  15  16
ENDBRANCH  14  15
ENDBRANCH   4  14
BRANCH  10  19
HETATM   19  O3  UNL     1     -13.925  -2.602  12.913  1.00  0.00    -0.389 OA
HETATM   20  H44 UNL     1     -13.358  -2.361  13.679  1.00  0.00     0.210 HD
ENDBRANCH  10  19
BRANCH  12  21
HETATM   21  O4  UNL     1     -13.475  -2.124  15.404  1.00  0.00    -0.370 OA
HETATM   22  H46 UNL     1     -13.021  -1.711  16.164  1.00  0.00     0.212 HD
ENDBRANCH  12  21
BRANCH   1  23
HETATM   23  C14 UNL     1     -15.594   1.469  14.647  1.00  0.00     0.011 C 
HETATM   24  C12 UNL     1     -16.049   2.647  15.126  1.00  0.00    -0.063 C 
HETATM   25  C13 UNL     1     -16.999   2.767  16.290  1.00  0.00     0.048 C 
BRANCH  24  26
HETATM   26  C11 UNL     1     -15.618   3.880  14.463  1.00  0.00     0.006 C 
HETATM   27  C10 UNL     1     -15.570   5.114  15.000  1.00  0.00     0.001 C 
BRANCH  27  28
HETATM   28  C9  UNL     1     -15.188   6.286  14.238  1.00  0.00     0.002 C 
HETATM   29  C7  UNL     1     -13.932   6.710  13.980  1.00  0.00    -0.084 C 
HETATM   30  C8  UNL     1     -12.667   5.990  14.376  1.00  0.00     0.043 C 
BRANCH  29  31
HETATM   31  C6  UNL     1     -13.715   7.995  13.190  1.00  0.00     0.037 C 
BRANCH  31  32
HETATM   32  C5  UNL     1     -12.263   8.249  12.745  1.00  0.00     0.031 C 
BRANCH  32  33
HETATM   33  C4  UNL     1     -11.732   9.593  13.169  1.00  0.00    -0.024 C 
HETATM   34  C2  UNL     1     -11.278   9.969  14.381  1.00  0.00    -0.091 C 
HETATM   35  C1  UNL     1     -10.764  11.371  14.599  1.00  0.00     0.042 C 
HETATM   36  C3  UNL     1     -11.229   9.104  15.611  1.00  0.00     0.042 C 
ENDBRANCH  32  33
ENDBRANCH  31  32
ENDBRANCH  29  31
ENDBRANCH  27  28
ENDBRANCH  24  26
ENDBRANCH   1  23
BRANCH   6  37
HETATM   37  C25 UNL     1     -17.440  -6.796  16.433  1.00  0.00     0.265 C 
HETATM   38  O2  UNL     1     -18.119  -7.292  17.330  1.00  0.00    -0.302 OA
ENDBRANCH   6  37
TORSDOF 13
ENDMDL
MODEL 3
REMARK minimizedAffinity -8.12716103
REMARK CNNscore 0.414353907
REMARK CNNaffinity 6.15094614
REMARK  13 active torsions:
REMARK  status: ('A' for Active; 'I' for Inactive)
REMARK    1  A    between atoms: C4_4  and  C5_5 
REMARK    2  A    between atoms: C5_5  and  C6_6 
REMARK    3  A    between atoms: C6_6  and  C7_7 
REMARK    4  A    between atoms: C9_9  and  C10_10 
REMARK    5  A    between atoms: C11_11  and  C12_12 
REMARK    6  A    between atoms: C14_14  and  C15_15 
REMARK    7  A    between atoms: C18_18  and  C19_19 
REMARK    8  A    between atoms: C19_19  and  C20_20 
REMARK    9  A    between atoms: C20_20  and  C21_21 
REMARK   10  A    between atoms: C21_21  and  O1_22 
REMARK   11  A    between atoms: C23_24  and  C25_26 
REMARK   12  A    between atoms: C28_30  and  O3_32 
REMARK   13  A    between atoms: C30_33  and  O4_34 
ROOT
HETATM    1  C15 UNL     1      -6.183   6.302  15.484  1.00  0.00     0.149 C 
HETATM    2  C16 UNL     1      -5.591   7.095  14.329  1.00  0.00     0.054 C 
HETATM    3  C17 UNL     1      -4.138   6.577  14.184  1.00  0.00     0.050 C 
HETATM    4  C18 UNL     1      -4.008   5.454  13.049  1.00  0.00     0.032 C 
HETATM    5  C22 UNL     1      -2.533   5.065  12.731  1.00  0.00    -0.066 C 
HETATM    6  C23 UNL     1      -2.175   4.224  11.721  1.00  0.00    -0.021 C 
HETATM    7  C24 UNL     1      -3.076   3.720  10.625  1.00  0.00     0.052 C 
HETATM    8  C26 UNL     1      -1.505   5.735  13.629  1.00  0.00     0.038 C 
HETATM    9  C27 UNL     1      -1.683   7.253  13.751  1.00  0.00     0.042 C 
HETATM   10  C28 UNL     1      -3.149   7.738  13.785  1.00  0.00     0.067 C 
HETATM   11  C29 UNL     1      -3.494   8.398  12.433  1.00  0.00     0.047 C 
HETATM   12  C30 UNL     1      -3.885   6.030  15.622  1.00  0.00     0.270 C 
HETATM   13  O5  UNL     1      -5.106   5.931  16.339  1.00  0.00    -0.351 OA
ENDROOT
BRANCH   4  14
HETATM   14  C19 UNL     1      -4.979   4.239  13.158  1.00  0.00     0.012 C 
BRANCH  14  15
HETATM   15  C20 UNL     1      -6.420   4.412  12.660  1.00  0.00     0.027 C 
BRANCH  15  16
HETATM   16  C21 UNL     1      -7.388   3.522  13.440  1.00  0.00     0.164 C 
BRANCH  16  17
HETATM   17  O1  UNL     1      -8.683   3.623  12.866  1.00  0.00    -0.401 OA
HETATM   18  H32 UNL     1      -9.293   3.106  13.421  1.00  0.00     0.209 HD
ENDBRANCH  16  17
ENDBRANCH  15  16
ENDBRANCH  14  15
ENDBRANCH   4  14
BRANCH  10  19
HETATM   19  O3  UNL     1      -3.228   8.820  14.727  1.00  0.00    -0.389 OA
HETATM   20  H44 UNL     1      -3.050   8.428  15.610  1.00  0.00     0.210 HD
ENDBRANCH  10  19
BRANCH  12  21
HETATM   21  O4  UNL     1      -3.057   6.877  16.407  1.00  0.00    -0.370 OA
HETATM   22  H46 UNL     1      -3.083   6.456  17.289  1.00  0.00     0.212 HD
ENDBRANCH  12  21
BRANCH   1  23
HETATM   23  C14 UNL     1      -7.293   6.952  16.262  1.00  0.00     0.011 C 
HETATM   24  C12 UNL     1      -8.571   7.215  15.911  1.00  0.00    -0.063 C 
HETATM   25  C13 UNL     1      -9.184   6.795  14.601  1.00  0.00     0.048 C 
BRANCH  24  26
HETATM   26  C11 UNL     1      -9.405   7.975  16.846  1.00  0.00     0.006 C 
HETATM   27  C10 UNL     1     -10.190   9.029  16.556  1.00  0.00     0.001 C 
BRANCH  27  28
HETATM   28  C9  UNL     1     -10.931   9.756  17.569  1.00  0.00     0.002 C 
HETATM   29  C7  UNL     1     -10.896  11.086  17.798  1.00  0.00    -0.084 C 
HETATM   30  C8  UNL     1     -10.129  12.096  16.980  1.00  0.00     0.043 C 
BRANCH  29  31
HETATM   31  C6  UNL     1     -11.716  11.678  18.938  1.00  0.00     0.037 C 
BRANCH  31  32
HETATM   32  C5  UNL     1     -10.944  11.895  20.253  1.00  0.00     0.031 C 
BRANCH  32  33
HETATM   33  C4  UNL     1     -11.056  10.740  21.213  1.00  0.00    -0.024 C 
HETATM   34  C2  UNL     1     -10.680  10.687  22.506  1.00  0.00    -0.091 C 
HETATM   35  C1  UNL     1     -10.899   9.429  23.310  1.00  0.00     0.042 C 
HETATM   36  C3  UNL     1     -10.025  11.799  23.279  1.00  0.00     0.042 C 
ENDBRANCH  32  33
ENDBRANCH  31  32
ENDBRANCH  29  31
ENDBRANCH  27  28
ENDBRANCH  24  26
ENDBRANCH   1  23
BRANCH   6  37
HETATM   37  C25 UNL     1      -0.785   3.665  11.598  1.00  0.00     0.265 C 
HETATM   38  O2  UNL     1       0.105   4.211  10.950  1.00  0.00    -0.302 OA
ENDBRANCH   6  37
TORSDOF 13
ENDMDL
MODEL 4
REMARK minimizedAffinity -5.9180522
REMARK CNNscore 0.354979604
REMARK CNNaffinity 6.08665848
REMARK  13 active torsions:
REMARK  status: ('A' for Active; 'I' for Inactive)
REMARK    1  A    between atoms: C4_4  and  C5_5 
REMARK    2  A    between atoms: C5_5  and  C6_6 
REMARK    3  A    between atoms: C6_6  and  C7_7 
REMARK    4  A    between atoms: C9_9  and  C10_10 
REMARK    5  A    between atoms: C11_11  and  C12_12 
REMARK    6  A    between atoms: C14_14  and  C15_15 
REMARK    7  A    between atoms: C18_18  and  C19_19 
REMARK    8  A    between atoms: C19_19  and  C20_20 
REMARK    9  A    between atoms: C20_20  and  C21_21 
REMARK   10  A    between atoms: C21_21  and  O1_22 
REMARK   11  A    between atoms: C23_24  and  C25_26 
REMARK   12  A    between atoms: C28_30  and  O3_32 
REMARK   13  A    between atoms: C30_33  and  O4_34 
ROOT
HETATM    1  C15 UNL     1     -15.308   7.949  12.773  1.00  0.00     0.149 C 
HETATM    2  C16 UNL     1     -15.899   9.186  13.432  1.00  0.00     0.054 C 
HETATM    3  C17 UNL     1     -17.261   9.409  12.726  1.00  0.00     0.050 C 
HETATM    4  C18 UNL     1     -18.481   8.785  13.556  1.00  0.00     0.032 C 
HETATM    5  C22 UNL     1     -19.878   9.173  12.987  1.00  0.00    -0.066 C 
HETATM    6  C23 UNL     1     -21.055   8.860  13.597  1.00  0.00    -0.021 C 
HETATM    7  C24 UNL     1     -21.214   8.312  14.989  1.00  0.00     0.052 C 
HETATM    8  C26 UNL     1     -19.824   9.971  11.693  1.00  0.00     0.038 C 
HETATM    9  C27 UNL     1     -18.873  11.173  11.745  1.00  0.00     0.042 C 
HETATM   10  C28 UNL     1     -17.574  10.944  12.549  1.00  0.00     0.067 C 
HETATM   11  C29 UNL     1     -17.667  11.708  13.887  1.00  0.00     0.047 C 
HETATM   12  C30 UNL     1     -17.003   8.681  11.371  1.00  0.00     0.270 C 
HETATM   13  O5  UNL     1     -15.833   7.881  11.451  1.00  0.00    -0.351 OA
ENDROOT
BRANCH   4  14
HETATM   14  C19 UNL     1     -18.351   7.286  13.962  1.00  0.00     0.012 C 
BRANCH  14  15
HETATM   15  C20 UNL     1     -18.836   6.219  12.971  1.00  0.00     0.027 C 
BRANCH  15  16
HETATM   16  C21 UNL     1     -17.749   5.179  12.698  1.00  0.00     0.164 C 
BRANCH  16  17
HETATM   17  O1  UNL     1     -16.971   4.995  13.871  1.00  0.00    -0.401 OA
HETATM   18  H32 UNL     1     -16.245   4.385  13.652  1.00  0.00     0.209 HD
ENDBRANCH  16  17
ENDBRANCH  15  16
ENDBRANCH  14  15
ENDBRANCH   4  14
BRANCH  10  19
HETATM   19  O3  UNL     1     -16.506  11.604  11.850  1.00  0.00    -0.389 OA
HETATM   20  H44 UNL     1     -16.393  11.118  11.003  1.00  0.00     0.210 HD
ENDBRANCH  10  19
BRANCH  12  21
HETATM   21  O4  UNL     1     -16.773   9.573  10.289  1.00  0.00    -0.370 OA
HETATM   22  H46 UNL     1     -16.530   8.974   9.556  1.00  0.00     0.212 HD
ENDBRANCH  12  21
BRANCH   1  23
HETATM   23  C14 UNL     1     -13.809   7.829  12.768  1.00  0.00     0.011 C 
HETATM   24  C12 UNL     1     -12.993   7.010  13.466  1.00  0.00    -0.063 C 
HETATM   25  C13 UNL     1     -13.485   5.927  14.391  1.00  0.00     0.048 C 
BRANCH  24  26
HETATM   26  C11 UNL     1     -11.546   7.199  13.341  1.00  0.00     0.006 C 
HETATM   27  C10 UNL     1     -10.580   6.405  13.837  1.00  0.00     0.001 C 
BRANCH  27  28
HETATM   28  C9  UNL     1      -9.169   6.715  13.713  1.00  0.00     0.002 C 
HETATM   29  C7  UNL     1      -8.304   6.964  14.719  1.00  0.00    -0.084 C 
HETATM   30  C8  UNL     1      -8.627   6.889  16.190  1.00  0.00     0.043 C 
BRANCH  29  31
HETATM   31  C6  UNL     1      -6.855   7.314  14.400  1.00  0.00     0.037 C 
BRANCH  31  32
HETATM   32  C5  UNL     1      -5.851   6.160  14.582  1.00  0.00     0.031 C 
BRANCH  32  33
HETATM   33  C4  UNL     1      -5.700   5.296  13.358  1.00  0.00    -0.024 C 
HETATM   34  C2  UNL     1      -6.360   4.163  13.047  1.00  0.00    -0.091 C 
HETATM   35  C1  UNL     1      -6.073   3.449  11.749  1.00  0.00     0.042 C 
HETATM   36  C3  UNL     1      -7.402   3.489  13.897  1.00  0.00     0.042 C 
ENDBRANCH  32  33
ENDBRANCH  31  32
ENDBRANCH  29  31
ENDBRANCH  27  28
ENDBRANCH  24  26
ENDBRANCH   1  23
BRANCH   6  37
HETATM   37  C25 UNL     1     -22.382   9.015  12.906  1.00  0.00     0.265 C 
HETATM   38  O2  UNL     1     -23.438   8.602  13.378  1.00  0.00    -0.302 OA
ENDBRANCH   6  37
TORSDOF 13
ENDMDL
MODEL 5
REMARK minimizedAffinity -6.28940201
REMARK CNNscore 0.301738113
REMARK CNNaffinity 5.60576582
REMARK  13 active torsions:
REMARK  status: ('A' for Active; 'I' for Inactive)
REMARK    1  A    between atoms: C4_4  and  C5_5 
REMARK    2  A    between atoms: C5_5  and  C6_6 
REMARK    3  A    between atoms: C6_6  and  C7_7 
REMARK    4  A    between atoms: C9_9  and  C10_10 
REMARK    5  A    between atoms: C11_11  and  C12_12 
REMARK    6  A    between atoms: C14_14  and  C15_15 
REMARK    7  A    between atoms: C18_18  and  C19_19 
REMARK    8  A    between atoms: C19_19  and  C20_20 
REMARK    9  A    between atoms: C20_20  and  C21_21 
REMARK   10  A    between atoms: C21_21  and  O1_22 
REMARK   11  A    between atoms: C23_24  and  C25_26 
REMARK   12  A    between atoms: C28_30  and  O3_32 
REMARK   13  A    between atoms: C30_33  and  O4_34 
ROOT
HETATM    1  C15 UNL     1       0.631   8.047  15.503  1.00  0.00     0.149 C 
HETATM    2  C16 UNL     1      -0.075   8.560  14.257  1.00  0.00     0.054 C 
HETATM    3  C17 UNL     1      -0.025   7.382  13.251  1.00  0.00     0.050 C 
HETATM    4  C18 UNL     1      -1.376   6.521  13.263  1.00  0.00     0.032 C 
HETATM    5  C22 UNL     1      -1.445   5.465  12.120  1.00  0.00    -0.066 C 
HETATM    6  C23 UNL     1      -2.545   4.704  11.860  1.00  0.00    -0.021 C 
HETATM    7  C24 UNL     1      -3.917   4.898  12.450  1.00  0.00     0.052 C 
HETATM    8  C26 UNL     1      -0.180   5.370  11.281  1.00  0.00     0.038 C 
HETATM    9  C27 UNL     1       0.334   6.724  10.779  1.00  0.00     0.042 C 
HETATM   10  C28 UNL     1       0.169   7.895  11.773  1.00  0.00     0.067 C 
HETATM   11  C29 UNL     1      -0.974   8.812  11.288  1.00  0.00     0.047 C 
HETATM   12  C30 UNL     1       1.210   6.597  13.789  1.00  0.00     0.270 C 
HETATM   13  O5  UNL     1       1.566   7.057  15.084  1.00  0.00    -0.351 OA
ENDROOT
BRANCH   4  14
HETATM   14  C19 UNL     1      -1.851   5.992  14.650  1.00  0.00     0.012 C 
BRANCH  14  15
HETATM   15  C20 UNL     1      -2.789   6.876  15.483  1.00  0.00     0.027 C 
BRANCH  15  16
HETATM   16  C21 UNL     1      -4.171   6.237  15.628  1.00  0.00     0.164 C 
BRANCH  16  17
HETATM   17  O1  UNL     1      -5.112   7.235  15.994  1.00  0.00    -0.401 OA
HETATM   18  H32 UNL     1      -5.966   6.793  16.150  1.00  0.00     0.209 HD
ENDBRANCH  16  17
ENDBRANCH  15  16
ENDBRANCH  14  15
ENDBRANCH   4  14
BRANCH  10  19
HETATM   19  O3  UNL     1       1.340   8.721  11.671  1.00  0.00    -0.389 OA
HETATM   20  H44 UNL     1       2.087   8.180  12.008  1.00  0.00     0.210 HD
ENDBRANCH  10  19
BRANCH  12  21
HETATM   21  O4  UNL     1       2.375   6.772  12.996  1.00  0.00    -0.370 OA
HETATM   22  H46 UNL     1       3.066   6.313  13.513  1.00  0.00     0.212 HD
ENDBRANCH  12  21
BRANCH   1  23
HETATM   23  C14 UNL     1       1.287   9.071  16.387  1.00  0.00     0.011 C 
HETATM   24  C12 UNL     1       2.356   9.867  16.161  1.00  0.00    -0.063 C 
HETATM   25  C13 UNL     1       3.090   9.932  14.847  1.00  0.00     0.048 C 
BRANCH  24  26
HETATM   26  C11 UNL     1       2.849  10.697  17.263  1.00  0.00     0.006 C 
HETATM   27  C10 UNL     1       2.258  10.894  18.456  1.00  0.00     0.001 C 
BRANCH  27  28
HETATM   28  C9  UNL     1       2.798  11.789  19.460  1.00  0.00     0.002 C 
HETATM   29  C7  UNL     1       2.127  12.747  20.135  1.00  0.00    -0.084 C 
HETATM   30  C8  UNL     1       0.647  13.019  20.029  1.00  0.00     0.043 C 
BRANCH  29  31
HETATM   31  C6  UNL     1       2.869  13.628  21.133  1.00  0.00     0.037 C 
BRANCH  31  32
HETATM   32  C5  UNL     1       2.560  13.337  22.614  1.00  0.00     0.031 C 
BRANCH  32  33
HETATM   33  C4  UNL     1       3.205  14.310  23.565  1.00  0.00    -0.024 C 
HETATM   34  C2  UNL     1       2.849  15.583  23.830  1.00  0.00    -0.091 C 
HETATM   35  C1  UNL     1       3.622  16.393  24.841  1.00  0.00     0.042 C 
HETATM   36  C3  UNL     1       1.710  16.329  23.191  1.00  0.00     0.042 C 
ENDBRANCH  32  33
ENDBRANCH  31  32
ENDBRANCH  29  31
ENDBRANCH  27  28
ENDBRANCH  24  26
ENDBRANCH   1  23
BRANCH   6  37
HETATM   37  C25 UNL     1      -2.502   3.523  10.931  1.00  0.00     0.265 C 
HETATM   38  O2  UNL     1      -2.900   3.565   9.769  1.00  0.00    -0.302 OA
ENDBRANCH   6  37
TORSDOF 13
ENDMDL
MODEL 6
REMARK minimizedAffinity -7.41495323
REMARK CNNscore 0.299144089
REMARK CNNaffinity 5.81947947
REMARK  13 active torsions:
REMARK  status: ('A' for Active; 'I' for Inactive)
REMARK    1  A    between atoms: C4_4  and  C5_5 
REMARK    2  A    between atoms: C5_5  and  C6_6 
REMARK    3  A    between atoms: C6_6  and  C7_7 
REMARK    4  A    between atoms: C9_9  and  C10_10 
REMARK    5  A    between atoms: C11_11  and  C12_12 
REMARK    6  A    between atoms: C14_14  and  C15_15 
REMARK    7  A    between atoms: C18_18  and  C19_19 
REMARK    8  A    between atoms: C19_19  and  C20_20 
REMARK    9  A    between atoms: C20_20  and  C21_21 
REMARK   10  A    between atoms: C21_21  and  O1_22 
REMARK   11  A    between atoms: C23_24  and  C25_26 
REMARK   12  A    between atoms: C28_30  and  O3_32 
REMARK   13  A    between atoms: C30_33  and  O4_34 
ROOT
HETATM    1  C15 UNL     1       2.966   9.059  15.079  1.00  0.00     0.149 C 
HETATM    2  C16 UNL     1       3.643   9.814  13.945  1.00  0.00     0.054 C 
HETATM    3  C17 UNL     1       4.010   8.731  12.900  1.00  0.00     0.050 C 
HETATM    4  C18 UNL     1       2.916   8.621  11.735  1.00  0.00     0.032 C 
HETATM    5  C22 UNL     1       3.356   7.697  10.560  1.00  0.00    -0.066 C 
HETATM    6  C23 UNL     1       2.643   7.548   9.408  1.00  0.00    -0.021 C 
HETATM    7  C24 UNL     1       1.471   8.389   8.976  1.00  0.00     0.052 C 
HETATM    8  C26 UNL     1       4.682   6.988  10.788  1.00  0.00     0.038 C 
HETATM    9  C27 UNL     1       5.814   7.918  11.238  1.00  0.00     0.042 C 
HETATM   10  C28 UNL     1       5.385   9.051  12.198  1.00  0.00     0.067 C 
HETATM   11  C29 UNL     1       5.384  10.389  11.430  1.00  0.00     0.047 C 
HETATM   12  C30 UNL     1       4.072   7.465  13.808  1.00  0.00     0.270 C 
HETATM   13  O5  UNL     1       3.485   7.732  15.074  1.00  0.00    -0.351 OA
ENDROOT
BRANCH   4  14
HETATM   14  C19 UNL     1       1.438   8.419  12.187  1.00  0.00     0.012 C 
BRANCH  14  15
HETATM   15  C20 UNL     1       0.905   6.985  12.314  1.00  0.00     0.027 C 
BRANCH  15  16
HETATM   16  C21 UNL     1       0.409   6.701  13.732  1.00  0.00     0.164 C 
BRANCH  16  17
HETATM   17  O1  UNL     1       1.281   5.772  14.357  1.00  0.00    -0.401 OA
HETATM   18  H32 UNL     1       0.905   5.553  15.228  1.00  0.00     0.209 HD
ENDBRANCH  16  17
ENDBRANCH  15  16
ENDBRANCH  14  15
ENDBRANCH   4  14
BRANCH  10  19
HETATM   19  O3  UNL     1       6.428   9.214  13.172  1.00  0.00    -0.389 OA
HETATM   20  H44 UNL     1       6.434   8.390  13.708  1.00  0.00     0.210 HD
ENDBRANCH  10  19
BRANCH  12  21
HETATM   21  O4  UNL     1       5.397   7.041  14.092  1.00  0.00    -0.370 OA
HETATM   22  H46 UNL     1       5.266   6.322  14.740  1.00  0.00     0.212 HD
ENDBRANCH  12  21
BRANCH   1  23
HETATM   23  C14 UNL     1       3.051   9.667  16.451  1.00  0.00     0.011 C 
HETATM   24  C12 UNL     1       2.075  10.091  17.283  1.00  0.00    -0.063 C 
HETATM   25  C13 UNL     1       0.603   9.942  16.994  1.00  0.00     0.048 C 
BRANCH  24  26
HETATM   26  C11 UNL     1       2.464  10.758  18.528  1.00  0.00     0.006 C 
HETATM   27  C10 UNL     1       1.819  10.709  19.709  1.00  0.00     0.001 C 
BRANCH  27  28
HETATM   28  C9  UNL     1       2.253  11.460  20.870  1.00  0.00     0.002 C 
HETATM   29  C7  UNL     1       2.915  10.980  21.944  1.00  0.00    -0.084 C 
HETATM   30  C8  UNL     1       3.408   9.564  22.106  1.00  0.00     0.043 C 
BRANCH  29  31
HETATM   31  C6  UNL     1       3.258  11.912  23.100  1.00  0.00     0.037 C 
BRANCH  31  32
HETATM   32  C5  UNL     1       4.434  12.871  22.836  1.00  0.00     0.031 C 
BRANCH  32  33
HETATM   33  C4  UNL     1       5.784  12.209  22.935  1.00  0.00    -0.024 C 
HETATM   34  C2  UNL     1       6.991  12.788  23.083  1.00  0.00    -0.091 C 
HETATM   35  C1  UNL     1       8.235  11.939  23.182  1.00  0.00     0.042 C 
HETATM   36  C3  UNL     1       7.255  14.267  23.159  1.00  0.00     0.042 C 
ENDBRANCH  32  33
ENDBRANCH  31  32
ENDBRANCH  29  31
ENDBRANCH  27  28
ENDBRANCH  24  26
ENDBRANCH   1  23
BRANCH   6  37
HETATM   37  C25 UNL     1       2.948   6.467   8.410  1.00  0.00     0.265 C 
HETATM   38  O2  UNL     1       2.666   5.284   8.591  1.00  0.00    -0.302 OA
ENDBRANCH   6  37
TORSDOF 13
ENDMDL
MODEL 7
REMARK minimizedAffinity -7.56477499
REMARK CNNscore 0.247785047
REMARK CNNaffinity 5.93106222
REMARK  13 active torsions:
REMARK  status: ('A' for Active; 'I' for Inactive)
REMARK    1  A    between atoms: C4_4  and  C5_5 
REMARK    2  A    between atoms: C5_5  and  C6_6 
REMARK    3  A    between atoms: C6_6  and  C7_7 
REMARK    4  A    between atoms: C9_9  and  C10_10 
REMARK    5  A    between atoms: C11_11  and  C12_12 
REMARK    6  A    between atoms: C14_14  and  C15_15 
REMARK    7  A    between atoms: C18_18  and  C19_19 
REMARK    8  A    between atoms: C19_19  and  C20_20 
REMARK    9  A    between atoms: C20_20  and  C21_21 
REMARK   10  A    between atoms: C21_21  and  O1_22 
REMARK   11  A    between atoms: C23_24  and  C25_26 
REMARK   12  A    between atoms: C28_30  and  O3_32 
REMARK   13  A    between atoms: C30_33  and  O4_34 
ROOT
HETATM    1  C15 UNL     1      -3.282   7.992  14.960  1.00  0.00     0.149 C 
HETATM    2  C16 UNL     1      -2.378   8.165  13.749  1.00  0.00     0.054 C 
HETATM    3  C17 UNL     1      -1.624   6.817  13.611  1.00  0.00     0.050 C 
HETATM    4  C18 UNL     1      -2.318   5.845  12.543  1.00  0.00     0.032 C 
HETATM    5  C22 UNL     1      -1.473   4.575  12.225  1.00  0.00    -0.066 C 
HETATM    6  C23 UNL     1      -1.805   3.670  11.261  1.00  0.00    -0.021 C 
HETATM    7  C24 UNL     1      -2.872   3.841  10.213  1.00  0.00     0.052 C 
HETATM    8  C26 UNL     1      -0.211   4.439  13.062  1.00  0.00     0.038 C 
HETATM    9  C27 UNL     1       0.650   5.707  13.095  1.00  0.00     0.042 C 
HETATM   10  C28 UNL     1      -0.140   7.034  13.125  1.00  0.00     0.067 C 
HETATM   11  C29 UNL     1      -0.041   7.712  11.742  1.00  0.00     0.047 C 
HETATM   12  C30 UNL     1      -1.714   6.288  15.075  1.00  0.00     0.270 C 
HETATM   13  O5  UNL     1      -2.664   7.037  15.818  1.00  0.00    -0.351 OA
ENDROOT
BRANCH   4  14
HETATM   14  C19 UNL     1      -3.839   5.566  12.743  1.00  0.00     0.012 C 
BRANCH  14  15
HETATM   15  C20 UNL     1      -4.266   4.172  13.220  1.00  0.00     0.027 C 
BRANCH  15  16
HETATM   16  C21 UNL     1      -5.742   3.909  12.916  1.00  0.00     0.164 C 
BRANCH  16  17
HETATM   17  O1  UNL     1      -5.860   2.709  12.166  1.00  0.00    -0.401 OA
HETATM   18  H32 UNL     1      -6.797   2.602  11.925  1.00  0.00     0.209 HD
ENDBRANCH  16  17
ENDBRANCH  15  16
ENDBRANCH  14  15
ENDBRANCH   4  14
BRANCH  10  19
HETATM   19  O3  UNL     1       0.555   7.936  14.001  1.00  0.00    -0.389 OA
HETATM   20  H44 UNL     1       0.481   7.553  14.903  1.00  0.00     0.210 HD
ENDBRANCH  10  19
BRANCH  12  21
HETATM   21  O4  UNL     1      -0.495   6.413  15.793  1.00  0.00    -0.370 OA
HETATM   22  H46 UNL     1      -0.742   6.143  16.699  1.00  0.00     0.212 HD
ENDBRANCH  12  21
BRANCH   1  23
HETATM   23  C14 UNL     1      -3.655   9.237  15.716  1.00  0.00     0.011 C 
HETATM   24  C12 UNL     1      -2.886  10.105  16.409  1.00  0.00    -0.063 C 
HETATM   25  C13 UNL     1      -1.384  10.017  16.485  1.00  0.00     0.048 C 
BRANCH  24  26
HETATM   26  C11 UNL     1      -3.549  11.180  17.152  1.00  0.00     0.006 C 
HETATM   27  C10 UNL     1      -3.604  11.325  18.489  1.00  0.00     0.001 C 
BRANCH  27  28
HETATM   28  C9  UNL     1      -4.342  12.394  19.132  1.00  0.00     0.002 C 
HETATM   29  C7  UNL     1      -3.876  13.617  19.458  1.00  0.00    -0.084 C 
HETATM   30  C8  UNL     1      -2.497  14.142  19.140  1.00  0.00     0.043 C 
BRANCH  29  31
HETATM   31  C6  UNL     1      -4.788  14.610  20.170  1.00  0.00     0.037 C 
BRANCH  31  32
HETATM   32  C5  UNL     1      -5.005  14.335  21.670  1.00  0.00     0.031 C 
BRANCH  32  33
HETATM   33  C4  UNL     1      -6.214  13.483  21.956  1.00  0.00    -0.024 C 
HETATM   34  C2  UNL     1      -7.244  13.743  22.785  1.00  0.00    -0.091 C 
HETATM   35  C1  UNL     1      -8.380  12.759  22.918  1.00  0.00     0.042 C 
HETATM   36  C3  UNL     1      -7.394  14.968  23.646  1.00  0.00     0.042 C 
ENDBRANCH  32  33
ENDBRANCH  31  32
ENDBRANCH  29  31
ENDBRANCH  27  28
ENDBRANCH  24  26
ENDBRANCH   1  23
BRANCH   6  37
HETATM   37  C25 UNL     1      -1.125   2.335  11.148  1.00  0.00     0.265 C 
HETATM   38  O2  UNL     1       0.079   2.208  10.935  1.00  0.00    -0.302 OA
ENDBRANCH   6  37
TORSDOF 13
ENDMDL
MODEL 8
REMARK minimizedAffinity -7.93353844
REMARK CNNscore 0.239128992
REMARK CNNaffinity 5.58641481
REMARK  13 active torsions:
REMARK  status: ('A' for Active; 'I' for Inactive)
REMARK    1  A    between atoms: C4_4  and  C5_5 
REMARK    2  A    between atoms: C5_5  and  C6_6 
REMARK    3  A    between atoms: C6_6  and  C7_7 
REMARK    4  A    between atoms: C9_9  and  C10_10 
REMARK    5  A    between atoms: C11_11  and  C12_12 
REMARK    6  A    between atoms: C14_14  and  C15_15 
REMARK    7  A    between atoms: C18_18  and  C19_19 
REMARK    8  A    between atoms: C19_19  and  C20_20 
REMARK    9  A    between atoms: C20_20  and  C21_21 
REMARK   10  A    between atoms: C21_21  and  O1_22 
REMARK   11  A    between atoms: C23_24  and  C25_26 
REMARK   12  A    between atoms: C28_30  and  O3_32 
REMARK   13  A    between atoms: C30_33  and  O4_34 
ROOT
HETATM    1  C15 UNL     1       0.685   7.780  15.449  1.00  0.00     0.149 C 
HETATM    2  C16 UNL     1      -0.112   8.345  14.283  1.00  0.00     0.054 C 
HETATM    3  C17 UNL     1      -0.059   7.250  13.187  1.00  0.00     0.050 C 
HETATM    4  C18 UNL     1      -1.363   6.320  13.201  1.00  0.00     0.032 C 
HETATM    5  C22 UNL     1      -1.441   5.349  11.985  1.00  0.00    -0.066 C 
HETATM    6  C23 UNL     1      -2.516   4.552  11.723  1.00  0.00    -0.021 C 
HETATM    7  C24 UNL     1      -3.861   4.628  12.395  1.00  0.00     0.052 C 
HETATM    8  C26 UNL     1      -0.221   5.384  11.079  1.00  0.00     0.038 C 
HETATM    9  C27 UNL     1       0.197   6.798  10.657  1.00  0.00     0.042 C 
HETATM   10  C28 UNL     1       0.029   7.881  11.746  1.00  0.00     0.067 C 
HETATM   11  C29 UNL     1      -1.182   8.769  11.391  1.00  0.00     0.047 C 
HETATM   12  C30 UNL     1       1.241   6.494  13.601  1.00  0.00     0.270 C 
HETATM   13  O5  UNL     1       1.644   6.875  14.908  1.00  0.00    -0.351 OA
ENDROOT
BRANCH   4  14
HETATM   14  C19 UNL     1      -1.735   5.664  14.566  1.00  0.00     0.012 C 
BRANCH  14  15
HETATM   15  C20 UNL     1      -3.070   6.050  15.218  1.00  0.00     0.027 C 
BRANCH  15  16
HETATM   16  C21 UNL     1      -3.371   7.537  15.029  1.00  0.00     0.164 C 
BRANCH  16  17
HETATM   17  O1  UNL     1      -3.231   8.205  16.274  1.00  0.00    -0.401 OA
HETATM   18  H32 UNL     1      -3.497   9.133  16.143  1.00  0.00     0.209 HD
ENDBRANCH  16  17
ENDBRANCH  15  16
ENDBRANCH  14  15
ENDBRANCH   4  14
BRANCH  10  19
HETATM   19  O3  UNL     1       1.151   8.774  11.648  1.00  0.00    -0.389 OA
HETATM   20  H44 UNL     1       1.941   8.249  11.905  1.00  0.00     0.210 HD
ENDBRANCH  10  19
BRANCH  12  21
HETATM   21  O4  UNL     1       2.352   6.789  12.766  1.00  0.00    -0.370 OA
HETATM   22  H46 UNL     1       3.091   6.331  13.210  1.00  0.00     0.212 HD
ENDBRANCH  12  21
BRANCH   1  23
HETATM   23  C14 UNL     1       1.337   8.769  16.374  1.00  0.00     0.011 C 
HETATM   24  C12 UNL     1       2.267   9.718  16.128  1.00  0.00    -0.063 C 
HETATM   25  C13 UNL     1       2.800  10.033  14.754  1.00  0.00     0.048 C 
BRANCH  24  26
HETATM   26  C11 UNL     1       2.811  10.468  17.262  1.00  0.00     0.006 C 
HETATM   27  C10 UNL     1       2.298  10.545  18.503  1.00  0.00     0.001 C 
BRANCH  27  28
HETATM   28  C9  UNL     1       2.880  11.371  19.543  1.00  0.00     0.002 C 
HETATM   29  C7  UNL     1       3.015  11.054  20.848  1.00  0.00    -0.084 C 
HETATM   30  C8  UNL     1       2.654   9.726  21.468  1.00  0.00     0.043 C 
BRANCH  29  31
HETATM   31  C6  UNL     1       3.619  12.066  21.813  1.00  0.00     0.037 C 
BRANCH  31  32
HETATM   32  C5  UNL     1       4.258  11.462  23.077  1.00  0.00     0.031 C 
BRANCH  32  33
HETATM   33  C4  UNL     1       5.763  11.429  23.032  1.00  0.00    -0.024 C 
HETATM   34  C2  UNL     1       6.624  12.465  23.061  1.00  0.00    -0.091 C 
HETATM   35  C1  UNL     1       8.112  12.218  23.026  1.00  0.00     0.042 C 
HETATM   36  C3  UNL     1       6.249  13.921  23.122  1.00  0.00     0.042 C 
ENDBRANCH  32  33
ENDBRANCH  31  32
ENDBRANCH  29  31
ENDBRANCH  27  28
ENDBRANCH  24  26
ENDBRANCH   1  23
BRANCH   6  37
HETATM   37  C25 UNL     1      -2.465   3.447  10.705  1.00  0.00     0.265 C 
HETATM   38  O2  UNL     1      -1.448   2.801  10.464  1.00  0.00    -0.302 OA
ENDBRANCH   6  37
TORSDOF 13
ENDMDL
MODEL 9
REMARK minimizedAffinity -7.38981771
REMARK CNNscore 0.235351354
REMARK CNNaffinity 5.67437315
REMARK  13 active torsions:
REMARK  status: ('A' for Active; 'I' for Inactive)
REMARK    1  A    between atoms: C4_4  and  C5_5 
REMARK    2  A    between atoms: C5_5  and  C6_6 
REMARK    3  A    between atoms: C6_6  and  C7_7 
REMARK    4  A    between atoms: C9_9  and  C10_10 
REMARK    5  A    between atoms: C11_11  and  C12_12 
REMARK    6  A    between atoms: C14_14  and  C15_15 
REMARK    7  A    between atoms: C18_18  and  C19_19 
REMARK    8  A    between atoms: C19_19  and  C20_20 
REMARK    9  A    between atoms: C20_20  and  C21_21 
REMARK   10  A    between atoms: C21_21  and  O1_22 
REMARK   11  A    between atoms: C23_24  and  C25_26 
REMARK   12  A    between atoms: C28_30  and  O3_32 
REMARK   13  A    between atoms: C30_33  and  O4_34 
ROOT
HETATM    1  C15 UNL     1      -0.274   8.647  16.273  1.00  0.00     0.149 C 
HETATM    2  C16 UNL     1      -0.670   9.025  14.854  1.00  0.00     0.054 C 
HETATM    3  C17 UNL     1      -0.949   7.678  14.139  1.00  0.00     0.050 C 
HETATM    4  C18 UNL     1      -2.509   7.314  14.127  1.00  0.00     0.032 C 
HETATM    5  C22 UNL     1      -2.848   6.081  13.237  1.00  0.00    -0.066 C 
HETATM    6  C23 UNL     1      -4.118   5.662  12.978  1.00  0.00    -0.021 C 
HETATM    7  C24 UNL     1      -5.382   6.415  13.298  1.00  0.00     0.052 C 
HETATM    8  C26 UNL     1      -1.632   5.389  12.640  1.00  0.00     0.038 C 
HETATM    9  C27 UNL     1      -0.653   6.345  11.947  1.00  0.00     0.042 C 
HETATM   10  C28 UNL     1      -0.484   7.718  12.634  1.00  0.00     0.067 C 
HETATM   11  C29 UNL     1      -1.209   8.794  11.797  1.00  0.00     0.047 C 
HETATM   12  C30 UNL     1      -0.097   6.708  15.013  1.00  0.00     0.270 C 
HETATM   13  O5  UNL     1       0.297   7.343  16.221  1.00  0.00    -0.351 OA
ENDROOT
BRANCH   4  14
HETATM   14  C19 UNL     1      -3.236   7.324  15.506  1.00  0.00     0.012 C 
BRANCH  14  15
HETATM   15  C20 UNL     1      -3.800   8.655  16.021  1.00  0.00     0.027 C 
BRANCH  15  16
HETATM   16  C21 UNL     1      -4.501   9.430  14.904  1.00  0.00     0.164 C 
BRANCH  16  17
HETATM   17  O1  UNL     1      -5.900   9.439  15.147  1.00  0.00    -0.401 OA
HETATM   18  H32 UNL     1      -6.329   9.874  14.388  1.00  0.00     0.209 HD
ENDBRANCH  16  17
ENDBRANCH  15  16
ENDBRANCH  14  15
ENDBRANCH   4  14
BRANCH  10  19
HETATM   19  O3  UNL     1       0.902   8.085  12.539  1.00  0.00    -0.389 OA
HETATM   20  H44 UNL     1       1.394   7.440  13.093  1.00  0.00     0.210 HD
ENDBRANCH  10  19
BRANCH  12  21
HETATM   21  O4  UNL     1       1.114   6.306  14.389  1.00  0.00    -0.370 OA
HETATM   22  H46 UNL     1       1.568   5.800  15.090  1.00  0.00     0.212 HD
ENDBRANCH  12  21
BRANCH   1  23
HETATM   23  C14 UNL     1       0.624   9.602  17.009  1.00  0.00     0.011 C 
HETATM   24  C12 UNL     1       0.323  10.607  17.860  1.00  0.00    -0.063 C 
HETATM   25  C13 UNL     1      -1.075  10.923  18.324  1.00  0.00     0.048 C 
BRANCH  24  26
HETATM   26  C11 UNL     1       1.414  11.459  18.342  1.00  0.00     0.006 C 
HETATM   27  C10 UNL     1       2.247  11.205  19.368  1.00  0.00     0.001 C 
BRANCH  27  28
HETATM   28  C9  UNL     1       3.257  12.146  19.809  1.00  0.00     0.002 C 
HETATM   29  C7  UNL     1       3.472  12.569  21.072  1.00  0.00    -0.084 C 
HETATM   30  C8  UNL     1       2.743  12.075  22.297  1.00  0.00     0.043 C 
BRANCH  29  31
HETATM   31  C6  UNL     1       4.562  13.599  21.349  1.00  0.00     0.037 C 
BRANCH  31  32
HETATM   32  C5  UNL     1       5.176  13.534  22.760  1.00  0.00     0.031 C 
BRANCH  32  33
HETATM   33  C4  UNL     1       6.371  12.623  22.854  1.00  0.00    -0.024 C 
HETATM   34  C2  UNL     1       7.649  12.945  23.139  1.00  0.00    -0.091 C 
HETATM   35  C1  UNL     1       8.707  11.871  23.205  1.00  0.00     0.042 C 
HETATM   36  C3  UNL     1       8.169  14.331  23.407  1.00  0.00     0.042 C 
ENDBRANCH  32  33
ENDBRANCH  31  32
ENDBRANCH  29  31
ENDBRANCH  27  28
ENDBRANCH  24  26
ENDBRANCH   1  23
BRANCH   6  37
HETATM   37  C25 UNL     1      -4.410   4.333  12.339  1.00  0.00     0.265 C 
HETATM   38  O2  UNL     1      -5.473   3.734  12.486  1.00  0.00    -0.302 OA
ENDBRANCH   6  37
TORSDOF 13
ENDMDL
