MODEL 1
REMARK minimizedAffinity -9.0939827
REMARK CNNscore 0.51839751
REMARK CNNaffinity 7.60201216
REMARK  11 active torsions:
REMARK  status: ('A' for Active; 'I' for Inactive)
REMARK    1  A    between atoms: C2_2  and  O1_3 
REMARK    2  A    between atoms: O1_3  and  C3_4 
REMARK    3  A    between atoms: C3_4  and  C4_6 
REMARK    4  A    between atoms: C5_7  and  C6_8 
REMARK    5  A    between atoms: C10_13  and  C11_14 
REMARK    6  A    between atoms: C11_14  and  O4_15 
REMARK    7  A    between atoms: C13_18  and  C14_19 
REMARK    8  A    between atoms: C25_32  and  C26_33 
REMARK    9  A    between atoms: C26_33  and  O7_34 
REMARK   10  A    between atoms: C33_42  and  O9_44 
REMARK   11  A    between atoms: C36_46  and  O10_47 
ROOT
HETATM    1  C4  UNL     1      -3.948   6.134  13.417  1.00  0.00     0.165 C 
HETATM    2  C5  UNL     1      -3.793   7.463  13.594  1.00  0.00     0.053 C 
HETATM    3  C7  UNL     1      -2.422   7.974  13.745  1.00  0.00    -0.002 C 
HETATM    4  C8  UNL     1      -2.065   8.949  14.629  1.00  0.00    -0.066 C 
HETATM    5  C9  UNL     1      -0.626   9.229  15.064  1.00  0.00     0.049 C 
HETATM    6  C10 UNL     1      -0.508   9.359  16.591  1.00  0.00     0.084 C 
HETATM    7  C12 UNL     1      -1.407  10.473  17.112  1.00  0.00     0.142 C 
HETATM    8  O5  UNL     1      -1.290  10.887  18.269  1.00  0.00    -0.297 OA
HETATM    9  C13 UNL     1      -2.438  11.017  16.128  1.00  0.00     0.092 C 
HETATM   10  C22 UNL     1      -3.070   9.826  15.379  1.00  0.00     0.052 C 
HETATM   11  C23 UNL     1      -1.410   7.177  12.980  1.00  0.00     0.044 C 
HETATM   12  C24 UNL     1      -1.653   5.777  12.935  1.00  0.00     0.101 C 
HETATM   13  O6  UNL     1      -2.850   5.265  13.407  1.00  0.00    -0.302 OA
HETATM   14  C25 UNL     1      -0.749   4.876  12.355  1.00  0.00     0.034 C 
HETATM   15  C27 UNL     1       0.358   5.437  11.744  1.00  0.00     0.090 C 
HETATM   16  O8  UNL     1       1.324   4.706  11.065  1.00  0.00    -0.341 OA
HETATM   17  C28 UNL     1       1.869   5.728  10.205  1.00  0.00     0.175 C 
HETATM   18  C29 UNL     1       1.914   7.015  11.044  1.00  0.00     0.079 C 
HETATM   19  C30 UNL     1       2.264   8.175  10.172  1.00  0.00    -0.019 C 
HETATM   20  C31 UNL     1       3.013   8.003   9.067  1.00  0.00    -0.027 C 
HETATM   21  C32 UNL     1       3.525   6.653   8.585  1.00  0.00     0.067 C 
HETATM   22  C33 UNL     1       3.238   5.470   9.557  1.00  0.00     0.085 C 
HETATM   23  C34 UNL     1       3.260   4.136   8.814  1.00  0.00     0.049 C 
HETATM   24  C35 UNL     1       0.585   6.821  11.688  1.00  0.00     0.021 C 
HETATM   25  C36 UNL     1      -0.314   7.700  12.266  1.00  0.00     0.091 C 
ENDROOT
BRANCH   2  26
HETATM   26  C6  UNL     1      -4.989   8.331  13.618  1.00  0.00     0.273 C 
HETATM   27  O3  UNL     1      -5.603   8.559  14.652  1.00  0.00    -0.301 OA
ENDBRANCH   2  26
BRANCH   1  28
HETATM   28  C3  UNL     1      -5.285   5.512  13.190  1.00  0.00     0.318 C 
HETATM   29  O2  UNL     1      -6.340   6.127  13.128  1.00  0.00    -0.257 OA
BRANCH  28  30
HETATM   30  O1  UNL     1      -5.132   4.175  13.011  1.00  0.00    -0.316 OA
BRANCH  30  31
HETATM   31  C2  UNL     1      -6.077   3.589  12.107  1.00  0.00     0.175 C 
HETATM   32  C1  UNL     1      -7.148   2.895  12.929  1.00  0.00     0.034 C 
ENDBRANCH  30  31
ENDBRANCH  28  30
ENDBRANCH   1  28
BRANCH  25  33
HETATM   33  O10 UNL     1      -0.089   9.044  12.155  1.00  0.00    -0.354 OA
HETATM   34  C37 UNL     1       1.079   9.420  12.888  1.00  0.00     0.210 C 
ENDBRANCH  25  33
BRANCH   6  35
HETATM   35  C11 UNL     1       0.934   9.608  17.031  1.00  0.00     0.176 C 
BRANCH  35  36
HETATM   36  O4  UNL     1       1.743   8.461  16.777  1.00  0.00    -0.400 OA
HETATM   37  H12 UNL     1       2.671   8.748  16.854  1.00  0.00     0.209 HD
ENDBRANCH  35  36
ENDBRANCH   6  35
BRANCH   9  38
HETATM   38  C14 UNL     1      -3.513  11.899  16.748  1.00  0.00    -0.046 A 
HETATM   39  C15 UNL     1      -4.338  12.714  15.960  1.00  0.00     0.010 A 
HETATM   40  C16 UNL     1      -5.301  13.556  16.529  1.00  0.00     0.031 A 
HETATM   41  C17 UNL     1      -5.414  13.563  17.922  1.00  0.00     0.042 A 
HETATM   42  N1  UNL     1      -6.254  14.281  18.741  1.00  0.00    -0.365 N 
HETATM   43  C20 UNL     1      -4.617  12.769  18.745  1.00  0.00    -0.008 A 
HETATM   44  C18 UNL     1      -6.014  13.970  20.056  1.00  0.00     0.089 A 
HETATM   45  H16 UNL     1      -6.947  14.942  18.415  1.00  0.00     0.165 HD
HETATM   46  C19 UNL     1      -5.006  13.034  20.088  1.00  0.00     0.030 A 
HETATM   47  C21 UNL     1      -3.655  11.929  18.150  1.00  0.00     0.021 A 
ENDBRANCH   9  38
BRANCH  14  48
HETATM   48  C26 UNL     1      -0.980   3.397  12.321  1.00  0.00     0.208 C 
BRANCH  48  49
HETATM   49  O7  UNL     1      -0.949   2.938  10.974  1.00  0.00    -0.396 OA
HETATM   50  H24 UNL     1      -0.060   3.158  10.639  1.00  0.00     0.209 HD
ENDBRANCH  48  49
ENDBRANCH  14  48
BRANCH  22  51
HETATM   51  O9  UNL     1       4.281   5.396  10.538  1.00  0.00    -0.387 OA
HETATM   52  H34 UNL     1       4.535   6.301  10.790  1.00  0.00     0.210 HD
ENDBRANCH  22  51
TORSDOF 11
ENDMDL
MODEL 2
REMARK minimizedAffinity -6.43831778
REMARK CNNscore 0.445091903
REMARK CNNaffinity 6.32837629
REMARK  11 active torsions:
REMARK  status: ('A' for Active; 'I' for Inactive)
REMARK    1  A    between atoms: C2_2  and  O1_3 
REMARK    2  A    between atoms: O1_3  and  C3_4 
REMARK    3  A    between atoms: C3_4  and  C4_6 
REMARK    4  A    between atoms: C5_7  and  C6_8 
REMARK    5  A    between atoms: C10_13  and  C11_14 
REMARK    6  A    between atoms: C11_14  and  O4_15 
REMARK    7  A    between atoms: C13_18  and  C14_19 
REMARK    8  A    between atoms: C25_32  and  C26_33 
REMARK    9  A    between atoms: C26_33  and  O7_34 
REMARK   10  A    between atoms: C33_42  and  O9_44 
REMARK   11  A    between atoms: C36_46  and  O10_47 
ROOT
HETATM    1  C4  UNL     1     -20.056  -2.486  11.345  1.00  0.00     0.165 C 
HETATM    2  C5  UNL     1     -19.076  -1.584  11.565  1.00  0.00     0.053 C 
HETATM    3  C7  UNL     1     -17.713  -2.096  11.770  1.00  0.00    -0.002 C 
HETATM    4  C8  UNL     1     -16.842  -1.598  12.693  1.00  0.00    -0.066 C 
HETATM    5  C9  UNL     1     -15.590  -2.331  13.176  1.00  0.00     0.049 C 
HETATM    6  C10 UNL     1     -15.478  -2.317  14.710  1.00  0.00     0.084 C 
HETATM    7  C12 UNL     1     -15.449  -0.888  15.239  1.00  0.00     0.142 C 
HETATM    8  O5  UNL     1     -15.137  -0.658  16.411  1.00  0.00    -0.297 OA
HETATM    9  C13 UNL     1     -15.831   0.202  14.244  1.00  0.00     0.092 C 
HETATM   10  C22 UNL     1     -17.057  -0.280  13.441  1.00  0.00     0.052 C 
HETATM   11  C23 UNL     1     -17.439  -3.358  11.010  1.00  0.00     0.044 C 
HETATM   12  C24 UNL     1     -18.537  -4.256  10.916  1.00  0.00     0.101 C 
HETATM   13  O6  UNL     1     -19.795  -3.862  11.339  1.00  0.00    -0.302 OA
HETATM   14  C25 UNL     1     -18.419  -5.527  10.335  1.00  0.00     0.034 C 
HETATM   15  C27 UNL     1     -17.191  -5.825   9.772  1.00  0.00     0.090 C 
HETATM   16  O8  UNL     1     -16.913  -7.008   9.099  1.00  0.00    -0.341 OA
HETATM   17  C28 UNL     1     -15.797  -6.588   8.285  1.00  0.00     0.175 C 
HETATM   18  C29 UNL     1     -14.955  -5.649   9.164  1.00  0.00     0.079 C 
HETATM   19  C30 UNL     1     -13.897  -4.998   8.338  1.00  0.00    -0.019 C 
HETATM   20  C31 UNL     1     -13.398  -5.614   7.250  1.00  0.00    -0.027 C 
HETATM   21  C32 UNL     1     -13.875  -6.966   6.742  1.00  0.00     0.067 C 
HETATM   22  C33 UNL     1     -14.905  -7.677   7.668  1.00  0.00     0.085 C 
HETATM   23  C34 UNL     1     -15.731  -8.696   6.887  1.00  0.00     0.049 C 
HETATM   24  C35 UNL     1     -16.112  -4.928   9.764  1.00  0.00     0.021 C 
HETATM   25  C36 UNL     1     -16.239  -3.678  10.344  1.00  0.00     0.091 C 
ENDROOT
BRANCH   2  26
HETATM   26  C6  UNL     1     -19.412  -0.145  11.582  1.00  0.00     0.273 C 
HETATM   27  O3  UNL     1     -19.066   0.612  10.685  1.00  0.00    -0.301 OA
ENDBRANCH   2  26
BRANCH   1  28
HETATM   28  C3  UNL     1     -21.463  -2.079  11.061  1.00  0.00     0.318 C 
HETATM   29  O2  UNL     1     -22.391  -2.177  11.851  1.00  0.00    -0.257 OA
BRANCH  28  30
HETATM   30  O1  UNL     1     -21.531  -1.538   9.819  1.00  0.00    -0.316 OA
BRANCH  30  31
HETATM   31  C2  UNL     1     -22.506  -0.497   9.680  1.00  0.00     0.175 C 
HETATM   32  C1  UNL     1     -21.949   0.547   8.729  1.00  0.00     0.034 C 
ENDBRANCH  30  31
ENDBRANCH  28  30
ENDBRANCH   1  28
BRANCH  25  33
HETATM   33  O10 UNL     1     -15.186  -2.809  10.279  1.00  0.00    -0.354 OA
HETATM   34  C37 UNL     1     -14.073  -3.314  11.021  1.00  0.00     0.210 C 
ENDBRANCH  25  33
BRANCH   6  35
HETATM   35  C11 UNL     1     -14.244  -3.075  15.197  1.00  0.00     0.176 C 
BRANCH  35  36
HETATM   36  O4  UNL     1     -13.119  -2.794  14.367  1.00  0.00    -0.400 OA
HETATM   37  H12 UNL     1     -12.330  -3.106  14.846  1.00  0.00     0.209 HD
ENDBRANCH  35  36
ENDBRANCH   6  35
BRANCH   9  38
HETATM   38  C14 UNL     1     -16.091   1.570  14.859  1.00  0.00    -0.046 A 
HETATM   39  C15 UNL     1     -17.110   1.770  15.802  1.00  0.00     0.010 A 
HETATM   40  C16 UNL     1     -17.378   3.033  16.340  1.00  0.00     0.031 A 
HETATM   41  C17 UNL     1     -16.593   4.104  15.903  1.00  0.00     0.042 A 
HETATM   42  N1  UNL     1     -16.633   5.435  16.250  1.00  0.00    -0.365 N 
HETATM   43  C20 UNL     1     -15.569   3.953  14.970  1.00  0.00    -0.008 A 
HETATM   44  C18 UNL     1     -15.669   6.131  15.566  1.00  0.00     0.089 A 
HETATM   45  H16 UNL     1     -17.281   5.834  16.915  1.00  0.00     0.165 HD
HETATM   46  C19 UNL     1     -14.994   5.239  14.766  1.00  0.00     0.030 A 
HETATM   47  C21 UNL     1     -15.317   2.672  14.441  1.00  0.00     0.021 A 
ENDBRANCH   9  38
BRANCH  14  48
HETATM   48  C26 UNL     1     -19.560  -6.493  10.250  1.00  0.00     0.208 C 
BRANCH  48  49
HETATM   49  O7  UNL     1     -19.167  -7.749  10.795  1.00  0.00    -0.396 OA
HETATM   50  H24 UNL     1     -18.932  -7.571  11.724  1.00  0.00     0.209 HD
ENDBRANCH  48  49
ENDBRANCH  14  48
BRANCH  22  51
HETATM   51  O9  UNL     1     -14.207  -8.421   8.676  1.00  0.00    -0.387 OA
HETATM   52  H34 UNL     1     -13.433  -7.904   8.963  1.00  0.00     0.210 HD
ENDBRANCH  22  51
TORSDOF 11
ENDMDL
MODEL 3
REMARK minimizedAffinity -6.45931387
REMARK CNNscore 0.349927664
REMARK CNNaffinity 6.56205606
REMARK  11 active torsions:
REMARK  status: ('A' for Active; 'I' for Inactive)
REMARK    1  A    between atoms: C2_2  and  O1_3 
REMARK    2  A    between atoms: O1_3  and  C3_4 
REMARK    3  A    between atoms: C3_4  and  C4_6 
REMARK    4  A    between atoms: C5_7  and  C6_8 
REMARK    5  A    between atoms: C10_13  and  C11_14 
REMARK    6  A    between atoms: C11_14  and  O4_15 
REMARK    7  A    between atoms: C13_18  and  C14_19 
REMARK    8  A    between atoms: C25_32  and  C26_33 
REMARK    9  A    between atoms: C26_33  and  O7_34 
REMARK   10  A    between atoms: C33_42  and  O9_44 
REMARK   11  A    between atoms: C36_46  and  O10_47 
ROOT
HETATM    1  C4  UNL     1       1.226  11.397  17.156  1.00  0.00     0.165 C 
HETATM    2  C5  UNL     1       1.083  11.159  15.835  1.00  0.00     0.053 C 
HETATM    3  C7  UNL     1      -0.268  11.283  15.264  1.00  0.00    -0.002 C 
HETATM    4  C8  UNL     1      -0.782  10.431  14.333  1.00  0.00    -0.066 C 
HETATM    5  C9  UNL     1      -2.272  10.312  14.008  1.00  0.00     0.049 C 
HETATM    6  C10 UNL     1      -2.732   8.845  13.972  1.00  0.00     0.084 C 
HETATM    7  C12 UNL     1      -1.936   8.052  12.943  1.00  0.00     0.142 C 
HETATM    8  O5  UNL     1      -2.301   6.923  12.601  1.00  0.00    -0.297 OA
HETATM    9  C13 UNL     1      -0.689   8.734  12.390  1.00  0.00     0.092 C 
HETATM   10  C22 UNL     1       0.054   9.409  13.560  1.00  0.00     0.052 C 
HETATM   11  C23 UNL     1      -1.105  12.315  15.956  1.00  0.00     0.044 C 
HETATM   12  C24 UNL     1      -0.908  12.410  17.361  1.00  0.00     0.101 C 
HETATM   13  O6  UNL     1       0.130  11.720  17.964  1.00  0.00    -0.302 OA
HETATM   14  C25 UNL     1      -1.688  13.245  18.174  1.00  0.00     0.034 C 
HETATM   15  C27 UNL     1      -2.605  14.047  17.516  1.00  0.00     0.090 C 
HETATM   16  O8  UNL     1      -3.415  14.979  18.151  1.00  0.00    -0.341 OA
HETATM   17  C28 UNL     1      -3.712  15.860  17.047  1.00  0.00     0.175 C 
HETATM   18  C29 UNL     1      -3.903  14.957  15.817  1.00  0.00     0.079 C 
HETATM   19  C30 UNL     1      -4.002  15.795  14.587  1.00  0.00    -0.019 C 
HETATM   20  C31 UNL     1      -4.484  17.050  14.646  1.00  0.00    -0.027 C 
HETATM   21  C32 UNL     1      -4.920  17.736  15.933  1.00  0.00     0.067 C 
HETATM   22  C33 UNL     1      -4.905  16.818  17.190  1.00  0.00     0.085 C 
HETATM   23  C34 UNL     1      -4.804  17.645  18.470  1.00  0.00     0.049 C 
HETATM   24  C35 UNL     1      -2.764  14.047  16.122  1.00  0.00     0.021 C 
HETATM   25  C36 UNL     1      -1.990  13.216  15.331  1.00  0.00     0.091 C 
ENDROOT
BRANCH   2  26
HETATM   26  C6  UNL     1       2.271  10.800  15.034  1.00  0.00     0.273 C 
HETATM   27  O3  UNL     1       2.787   9.692  15.100  1.00  0.00    -0.301 OA
ENDBRANCH   2  26
BRANCH   1  28
HETATM   28  C3  UNL     1       2.557  11.363  17.830  1.00  0.00     0.318 C 
HETATM   29  O2  UNL     1       3.065  10.366  18.323  1.00  0.00    -0.257 OA
BRANCH  28  30
HETATM   30  O1  UNL     1       3.127  12.592  17.757  1.00  0.00    -0.316 OA
BRANCH  30  31
HETATM   31  C2  UNL     1       3.110  13.325  18.988  1.00  0.00     0.175 C 
HETATM   32  C1  UNL     1       2.194  14.523  18.811  1.00  0.00     0.034 C 
ENDBRANCH  30  31
ENDBRANCH  28  30
ENDBRANCH   1  28
BRANCH  25  33
HETATM   33  O10 UNL     1      -2.136  13.273  13.973  1.00  0.00    -0.354 OA
HETATM   34  C37 UNL     1      -1.254  14.249  13.414  1.00  0.00     0.210 C 
ENDBRANCH  25  33
BRANCH   6  35
HETATM   35  C11 UNL     1      -4.226   8.724  13.679  1.00  0.00     0.176 C 
BRANCH  35  36
HETATM   36  O4  UNL     1      -4.987   9.479  14.620  1.00  0.00    -0.400 OA
HETATM   37  H12 UNL     1      -5.888   9.557  14.257  1.00  0.00     0.209 HD
ENDBRANCH  35  36
ENDBRANCH   6  35
BRANCH   9  38
HETATM   38  C14 UNL     1       0.246   7.822  11.608  1.00  0.00    -0.046 A 
HETATM   39  C15 UNL     1       0.932   6.768  12.227  1.00  0.00     0.010 A 
HETATM   40  C16 UNL     1       1.824   5.953  11.520  1.00  0.00     0.031 A 
HETATM   41  C17 UNL     1       2.014   6.227  10.162  1.00  0.00     0.042 A 
HETATM   42  N1  UNL     1       2.818   5.605   9.235  1.00  0.00    -0.365 N 
HETATM   43  C20 UNL     1       1.353   7.262   9.504  1.00  0.00    -0.008 A 
HETATM   44  C18 UNL     1       2.690   6.213   8.012  1.00  0.00     0.089 A 
HETATM   45  H16 UNL     1       3.415   4.813   9.433  1.00  0.00     0.165 HD
HETATM   46  C19 UNL     1       1.787   7.243   8.149  1.00  0.00     0.030 A 
HETATM   47  C21 UNL     1       0.461   8.070  10.236  1.00  0.00     0.021 A 
ENDBRANCH   9  38
BRANCH  14  48
HETATM   48  C26 UNL     1      -1.508  13.339  19.657  1.00  0.00     0.208 C 
BRANCH  48  49
HETATM   49  O7  UNL     1      -1.203  14.681  20.020  1.00  0.00    -0.396 OA
HETATM   50  H24 UNL     1      -1.967  15.213  19.729  1.00  0.00     0.209 HD
ENDBRANCH  48  49
ENDBRANCH  14  48
BRANCH  22  51
HETATM   51  O9  UNL     1      -6.147  16.105  17.275  1.00  0.00    -0.387 OA
HETATM   52  H34 UNL     1      -6.419  15.849  16.376  1.00  0.00     0.210 HD
ENDBRANCH  22  51
TORSDOF 11
ENDMDL
MODEL 4
REMARK minimizedAffinity -8.68318081
REMARK CNNscore 0.342137069
REMARK CNNaffinity 6.70450735
REMARK  11 active torsions:
REMARK  status: ('A' for Active; 'I' for Inactive)
REMARK    1  A    between atoms: C2_2  and  O1_3 
REMARK    2  A    between atoms: O1_3  and  C3_4 
REMARK    3  A    between atoms: C3_4  and  C4_6 
REMARK    4  A    between atoms: C5_7  and  C6_8 
REMARK    5  A    between atoms: C10_13  and  C11_14 
REMARK    6  A    between atoms: C11_14  and  O4_15 
REMARK    7  A    between atoms: C13_18  and  C14_19 
REMARK    8  A    between atoms: C25_32  and  C26_33 
REMARK    9  A    between atoms: C26_33  and  O7_34 
REMARK   10  A    between atoms: C33_42  and  O9_44 
REMARK   11  A    between atoms: C36_46  and  O10_47 
ROOT
HETATM    1  C4  UNL     1       2.958   7.189  10.277  1.00  0.00     0.165 C 
HETATM    2  C5  UNL     1       3.717   7.380  11.377  1.00  0.00     0.053 C 
HETATM    3  C7  UNL     1       3.253   8.371  12.360  1.00  0.00    -0.002 C 
HETATM    4  C8  UNL     1       4.077   9.241  13.011  1.00  0.00    -0.066 C 
HETATM    5  C9  UNL     1       3.596  10.499  13.736  1.00  0.00     0.049 C 
HETATM    6  C10 UNL     1       4.437  11.729  13.361  1.00  0.00     0.084 C 
HETATM    7  C12 UNL     1       5.907  11.501  13.689  1.00  0.00     0.142 C 
HETATM    8  O5  UNL     1       6.708  12.441  13.676  1.00  0.00    -0.297 OA
HETATM    9  C13 UNL     1       6.306  10.066  14.017  1.00  0.00     0.092 C 
HETATM   10  C22 UNL     1       5.602   9.126  13.017  1.00  0.00     0.052 C 
HETATM   11  C23 UNL     1       1.760   8.476  12.428  1.00  0.00     0.044 C 
HETATM   12  C24 UNL     1       1.087   8.330  11.185  1.00  0.00     0.101 C 
HETATM   13  O6  UNL     1       1.786   7.925  10.061  1.00  0.00    -0.302 OA
HETATM   14  C25 UNL     1      -0.298   8.510  11.055  1.00  0.00     0.034 C 
HETATM   15  C27 UNL     1      -0.990   8.748  12.229  1.00  0.00     0.090 C 
HETATM   16  O8  UNL     1      -2.370   8.888  12.299  1.00  0.00    -0.341 OA
HETATM   17  C28 UNL     1      -2.594   8.557  13.687  1.00  0.00     0.175 C 
HETATM   18  C29 UNL     1      -1.428   9.180  14.470  1.00  0.00     0.079 C 
HETATM   19  C30 UNL     1      -1.461   8.708  15.885  1.00  0.00    -0.019 C 
HETATM   20  C31 UNL     1      -2.624   8.365  16.468  1.00  0.00    -0.027 C 
HETATM   21  C32 UNL     1      -3.970   8.377  15.759  1.00  0.00     0.067 C 
HETATM   22  C33 UNL     1      -3.934   8.966  14.318  1.00  0.00     0.085 C 
HETATM   23  C34 UNL     1      -5.116   8.461  13.492  1.00  0.00     0.049 C 
HETATM   24  C35 UNL     1      -0.372   8.809  13.487  1.00  0.00     0.021 C 
HETATM   25  C36 UNL     1       0.996   8.632  13.602  1.00  0.00     0.091 C 
ENDROOT
BRANCH   2  26
HETATM   26  C6  UNL     1       4.955   6.591  11.543  1.00  0.00     0.273 C 
HETATM   27  O3  UNL     1       6.018   6.940  11.047  1.00  0.00    -0.301 OA
ENDBRANCH   2  26
BRANCH   1  28
HETATM   28  C3  UNL     1       3.296   6.167   9.245  1.00  0.00     0.318 C 
HETATM   29  O2  UNL     1       4.203   5.352   9.339  1.00  0.00    -0.257 OA
BRANCH  28  30
HETATM   30  O1  UNL     1       2.408   6.252   8.222  1.00  0.00    -0.316 OA
BRANCH  30  31
HETATM   31  C2  UNL     1       2.521   7.447   7.440  1.00  0.00     0.175 C 
HETATM   32  C1  UNL     1       1.559   7.338   6.271  1.00  0.00     0.034 C 
ENDBRANCH  30  31
ENDBRANCH  28  30
ENDBRANCH   1  28
BRANCH  25  33
HETATM   33  O10 UNL     1       1.562   8.650  14.846  1.00  0.00    -0.354 OA
HETATM   34  C37 UNL     1       1.794   7.319  15.311  1.00  0.00     0.210 C 
ENDBRANCH  25  33
BRANCH   6  35
HETATM   35  C11 UNL     1       3.940  12.994  14.059  1.00  0.00     0.176 C 
BRANCH  35  36
HETATM   36  O4  UNL     1       2.854  13.573  13.338  1.00  0.00    -0.400 OA
HETATM   37  H12 UNL     1       2.434  14.221  13.933  1.00  0.00     0.209 HD
ENDBRANCH  35  36
ENDBRANCH   6  35
BRANCH   9  38
HETATM   38  C14 UNL     1       7.806   9.807  14.041  1.00  0.00    -0.046 A 
HETATM   39  C15 UNL     1       8.355   8.742  14.769  1.00  0.00     0.010 A 
HETATM   40  C16 UNL     1       9.737   8.523  14.825  1.00  0.00     0.031 A 
HETATM   41  C17 UNL     1      10.562   9.411  14.129  1.00  0.00     0.042 A 
HETATM   42  N1  UNL     1      11.933   9.443  14.012  1.00  0.00    -0.365 N 
HETATM   43  C20 UNL     1      10.061  10.482  13.391  1.00  0.00    -0.008 A 
HETATM   44  C18 UNL     1      12.316  10.500  13.226  1.00  0.00     0.089 A 
HETATM   45  H16 UNL     1      12.561   8.780  14.445  1.00  0.00     0.165 HD
HETATM   46  C19 UNL     1      11.177  11.161  12.826  1.00  0.00     0.030 A 
HETATM   47  C21 UNL     1       8.667  10.683  13.349  1.00  0.00     0.021 A 
ENDBRANCH   9  38
BRANCH  14  48
HETATM   48  C26 UNL     1      -1.017   8.382   9.748  1.00  0.00     0.208 C 
BRANCH  48  49
HETATM   49  O7  UNL     1      -0.393   9.212   8.774  1.00  0.00    -0.396 OA
HETATM   50  H24 UNL     1       0.524   8.888   8.699  1.00  0.00     0.209 HD
ENDBRANCH  48  49
ENDBRANCH  14  48
BRANCH  22  51
HETATM   51  O9  UNL     1      -4.075  10.392  14.381  1.00  0.00    -0.387 OA
HETATM   52  H34 UNL     1      -3.575  10.718  15.151  1.00  0.00     0.210 HD
ENDBRANCH  22  51
TORSDOF 11
ENDMDL
MODEL 5
REMARK minimizedAffinity -8.50147057
REMARK CNNscore 0.308280826
REMARK CNNaffinity 6.39067316
REMARK  11 active torsions:
REMARK  status: ('A' for Active; 'I' for Inactive)
REMARK    1  A    between atoms: C2_2  and  O1_3 
REMARK    2  A    between atoms: O1_3  and  C3_4 
REMARK    3  A    between atoms: C3_4  and  C4_6 
REMARK    4  A    between atoms: C5_7  and  C6_8 
REMARK    5  A    between atoms: C10_13  and  C11_14 
REMARK    6  A    between atoms: C11_14  and  O4_15 
REMARK    7  A    between atoms: C13_18  and  C14_19 
REMARK    8  A    between atoms: C25_32  and  C26_33 
REMARK    9  A    between atoms: C26_33  and  O7_34 
REMARK   10  A    between atoms: C33_42  and  O9_44 
REMARK   11  A    between atoms: C36_46  and  O10_47 
ROOT
HETATM    1  C4  UNL     1       2.041  10.651  18.202  1.00  0.00     0.165 C 
HETATM    2  C5  UNL     1       0.713  10.752  18.421  1.00  0.00     0.053 C 
HETATM    3  C7  UNL     1      -0.169  10.800  17.245  1.00  0.00    -0.002 C 
HETATM    4  C8  UNL     1      -1.259  11.613  17.141  1.00  0.00    -0.066 C 
HETATM    5  C9  UNL     1      -1.956  11.950  15.823  1.00  0.00     0.049 C 
HETATM    6  C10 UNL     1      -2.211  13.460  15.683  1.00  0.00     0.084 C 
HETATM    7  C12 UNL     1      -3.059  13.976  16.838  1.00  0.00     0.142 C 
HETATM    8  O5  UNL     1      -3.562  15.103  16.794  1.00  0.00    -0.297 OA
HETATM    9  C13 UNL     1      -3.231  13.028  18.020  1.00  0.00     0.092 C 
HETATM   10  C22 UNL     1      -1.866  12.375  18.320  1.00  0.00     0.052 C 
HETATM   11  C23 UNL     1       0.361  10.018  16.082  1.00  0.00     0.044 C 
HETATM   12  C24 UNL     1       1.773  10.056  15.922  1.00  0.00     0.101 C 
HETATM   13  O6  UNL     1       2.568  10.620  16.905  1.00  0.00    -0.302 OA
HETATM   14  C25 UNL     1       2.420   9.470  14.824  1.00  0.00     0.034 C 
HETATM   15  C27 UNL     1       1.612   8.769  13.947  1.00  0.00     0.090 C 
HETATM   16  O8  UNL     1       2.087   8.074  12.843  1.00  0.00    -0.341 OA
HETATM   17  C28 UNL     1       1.009   7.134  12.644  1.00  0.00     0.175 C 
HETATM   18  C29 UNL     1      -0.290   7.905  12.929  1.00  0.00     0.079 C 
HETATM   19  C30 UNL     1      -1.443   6.959  12.957  1.00  0.00    -0.019 C 
HETATM   20  C31 UNL     1      -1.417   5.823  12.235  1.00  0.00    -0.027 C 
HETATM   21  C32 UNL     1      -0.237   5.379  11.384  1.00  0.00     0.067 C 
HETATM   22  C33 UNL     1       0.915   6.422  11.286  1.00  0.00     0.085 C 
HETATM   23  C34 UNL     1       2.234   5.746  10.919  1.00  0.00     0.049 C 
HETATM   24  C35 UNL     1       0.227   8.633  14.121  1.00  0.00     0.021 C 
HETATM   25  C36 UNL     1      -0.401   9.218  15.207  1.00  0.00     0.091 C 
ENDROOT
BRANCH   2  26
HETATM   26  C6  UNL     1       0.214  10.803  19.811  1.00  0.00     0.273 C 
HETATM   27  O3  UNL     1       0.440  11.754  20.547  1.00  0.00    -0.301 OA
ENDBRANCH   2  26
BRANCH   1  28
HETATM   28  C3  UNL     1       3.024  10.532  19.318  1.00  0.00     0.318 C 
HETATM   29  O2  UNL     1       3.952  11.303  19.517  1.00  0.00    -0.257 OA
BRANCH  28  30
HETATM   30  O1  UNL     1       2.691   9.472  20.097  1.00  0.00    -0.316 OA
BRANCH  30  31
HETATM   31  C2  UNL     1       3.104   9.590  21.464  1.00  0.00     0.175 C 
HETATM   32  C1  UNL     1       2.314   8.587  22.284  1.00  0.00     0.034 C 
ENDBRANCH  30  31
ENDBRANCH  28  30
ENDBRANCH   1  28
BRANCH  25  33
HETATM   33  O10 UNL     1      -1.745   9.028  15.375  1.00  0.00    -0.354 OA
HETATM   34  C37 UNL     1      -1.990   7.978  16.314  1.00  0.00     0.210 C 
ENDBRANCH  25  33
BRANCH   6  35
HETATM   35  C11 UNL     1      -2.879  13.804  14.353  1.00  0.00     0.176 C 
BRANCH  35  36
HETATM   36  O4  UNL     1      -1.900  14.095  13.358  1.00  0.00    -0.400 OA
HETATM   37  H12 UNL     1      -2.357  14.076  12.498  1.00  0.00     0.209 HD
ENDBRANCH  35  36
ENDBRANCH   6  35
BRANCH   9  38
HETATM   38  C14 UNL     1      -3.815  13.664  19.273  1.00  0.00    -0.046 A 
HETATM   39  C15 UNL     1      -3.207  14.767  19.888  1.00  0.00     0.010 A 
HETATM   40  C16 UNL     1      -3.719  15.330  21.063  1.00  0.00     0.031 A 
HETATM   41  C17 UNL     1      -4.866  14.750  21.613  1.00  0.00     0.042 A 
HETATM   42  N1  UNL     1      -5.575  15.084  22.745  1.00  0.00    -0.365 N 
HETATM   43  C20 UNL     1      -5.505  13.654  21.037  1.00  0.00    -0.008 A 
HETATM   44  C18 UNL     1      -6.640  14.235  22.904  1.00  0.00     0.089 A 
HETATM   45  H16 UNL     1      -5.339  15.847  23.364  1.00  0.00     0.165 HD
HETATM   46  C19 UNL     1      -6.622  13.339  21.860  1.00  0.00     0.030 A 
HETATM   47  C21 UNL     1      -4.971  13.104  19.854  1.00  0.00     0.021 A 
ENDBRANCH   9  38
BRANCH  14  48
HETATM   48  C26 UNL     1       3.904   9.522  14.630  1.00  0.00     0.208 C 
BRANCH  48  49
HETATM   49  O7  UNL     1       4.549   8.784  15.663  1.00  0.00    -0.396 OA
HETATM   50  H24 UNL     1       4.220   7.870  15.580  1.00  0.00     0.209 HD
ENDBRANCH  48  49
ENDBRANCH  14  48
BRANCH  22  51
HETATM   51  O9  UNL     1       0.634   7.345  10.224  1.00  0.00    -0.387 OA
HETATM   52  H34 UNL     1      -0.321   7.537  10.226  1.00  0.00     0.210 HD
ENDBRANCH  22  51
TORSDOF 11
ENDMDL
MODEL 6
REMARK minimizedAffinity -7.56390953
REMARK CNNscore 0.288666844
REMARK CNNaffinity 5.90796137
REMARK  11 active torsions:
REMARK  status: ('A' for Active; 'I' for Inactive)
REMARK    1  A    between atoms: C2_2  and  O1_3 
REMARK    2  A    between atoms: O1_3  and  C3_4 
REMARK    3  A    between atoms: C3_4  and  C4_6 
REMARK    4  A    between atoms: C5_7  and  C6_8 
REMARK    5  A    between atoms: C10_13  and  C11_14 
REMARK    6  A    between atoms: C11_14  and  O4_15 
REMARK    7  A    between atoms: C13_18  and  C14_19 
REMARK    8  A    between atoms: C25_32  and  C26_33 
REMARK    9  A    between atoms: C26_33  and  O7_34 
REMARK   10  A    between atoms: C33_42  and  O9_44 
REMARK   11  A    between atoms: C36_46  and  O10_47 
ROOT
HETATM    1  C4  UNL     1       2.631  11.149  18.500  1.00  0.00     0.165 C 
HETATM    2  C5  UNL     1       1.285  11.097  18.581  1.00  0.00     0.053 C 
HETATM    3  C7  UNL     1       0.527  11.085  17.320  1.00  0.00    -0.002 C 
HETATM    4  C8  UNL     1      -0.631  11.777  17.120  1.00  0.00    -0.066 C 
HETATM    5  C9  UNL     1      -1.225  12.077  15.744  1.00  0.00     0.049 C 
HETATM    6  C10 UNL     1      -1.632  13.553  15.609  1.00  0.00     0.084 C 
HETATM    7  C12 UNL     1      -2.646  13.936  16.679  1.00  0.00     0.142 C 
HETATM    8  O5  UNL     1      -3.265  15.002  16.606  1.00  0.00    -0.297 OA
HETATM    9  C13 UNL     1      -2.829  12.938  17.817  1.00  0.00     0.092 C 
HETATM   10  C22 UNL     1      -1.437  12.430  18.245  1.00  0.00     0.052 C 
HETATM   11  C23 UNL     1       1.257  10.403  16.203  1.00  0.00     0.044 C 
HETATM   12  C24 UNL     1       2.664  10.601  16.193  1.00  0.00     0.101 C 
HETATM   13  O6  UNL     1       3.287  11.218  17.265  1.00  0.00    -0.302 OA
HETATM   14  C25 UNL     1       3.481  10.125  15.157  1.00  0.00     0.034 C 
HETATM   15  C27 UNL     1       2.850   9.368  14.186  1.00  0.00     0.090 C 
HETATM   16  O8  UNL     1       3.509   8.764  13.124  1.00  0.00    -0.341 OA
HETATM   17  C28 UNL     1       2.570   7.719  12.795  1.00  0.00     0.175 C 
HETATM   18  C29 UNL     1       1.171   8.333  12.958  1.00  0.00     0.079 C 
HETATM   19  C30 UNL     1       0.134   7.265  12.846  1.00  0.00    -0.019 C 
HETATM   20  C31 UNL     1       0.360   6.163  12.109  1.00  0.00    -0.027 C 
HETATM   21  C32 UNL     1       1.663   5.878  11.377  1.00  0.00     0.067 C 
HETATM   22  C33 UNL     1       2.695   7.044  11.420  1.00  0.00     0.085 C 
HETATM   23  C34 UNL     1       4.112   6.529  11.179  1.00  0.00     0.049 C 
HETATM   24  C35 UNL     1       1.478   9.075  14.212  1.00  0.00     0.021 C 
HETATM   25  C36 UNL     1       0.681   9.553  15.238  1.00  0.00     0.091 C 
ENDROOT
BRANCH   2  26
HETATM   26  C6  UNL     1       0.645  11.048  19.912  1.00  0.00     0.273 C 
HETATM   27  O3  UNL     1       0.760  11.960  20.721  1.00  0.00    -0.301 OA
ENDBRANCH   2  26
BRANCH   1  28
HETATM   28  C3  UNL     1       3.503  11.103  19.709  1.00  0.00     0.318 C 
HETATM   29  O2  UNL     1       4.112  12.059  20.168  1.00  0.00    -0.257 OA
BRANCH  28  30
HETATM   30  O1  UNL     1       3.465   9.855  20.241  1.00  0.00    -0.316 OA
BRANCH  30  31
HETATM   31  C2  UNL     1       3.652   9.812  21.661  1.00  0.00     0.175 C 
HETATM   32  C1  UNL     1       2.553   8.950  22.255  1.00  0.00     0.034 C 
ENDBRANCH  30  31
ENDBRANCH  28  30
ENDBRANCH   1  28
BRANCH  25  33
HETATM   33  O10 UNL     1      -0.642   9.211  15.261  1.00  0.00    -0.354 OA
HETATM   34  C37 UNL     1      -0.855   8.082  16.111  1.00  0.00     0.210 C 
ENDBRANCH  25  33
BRANCH   6  35
HETATM   35  C11 UNL     1      -2.197  13.864  14.224  1.00  0.00     0.176 C 
BRANCH  35  36
HETATM   36  O4  UNL     1      -1.159  13.861  13.245  1.00  0.00    -0.400 OA
HETATM   37  H12 UNL     1      -1.594  13.830  12.373  1.00  0.00     0.209 HD
ENDBRANCH  35  36
ENDBRANCH   6  35
BRANCH   9  38
HETATM   38  C14 UNL     1      -3.605  13.466  19.015  1.00  0.00    -0.046 A 
HETATM   39  C15 UNL     1      -4.876  12.973  19.342  1.00  0.00     0.010 A 
HETATM   40  C16 UNL     1      -5.610  13.483  20.419  1.00  0.00     0.031 A 
HETATM   41  C17 UNL     1      -5.032  14.513  21.166  1.00  0.00     0.042 A 
HETATM   42  N1  UNL     1      -5.516  15.199  22.258  1.00  0.00    -0.365 N 
HETATM   43  C20 UNL     1      -3.771  15.034  20.880  1.00  0.00    -0.008 A 
HETATM   44  C18 UNL     1      -4.603  16.136  22.670  1.00  0.00     0.089 A 
HETATM   45  H16 UNL     1      -6.414  15.029  22.688  1.00  0.00     0.165 HD
HETATM   46  C19 UNL     1      -3.512  16.057  21.836  1.00  0.00     0.030 A 
HETATM   47  C21 UNL     1      -3.051  14.505  19.790  1.00  0.00     0.021 A 
ENDBRANCH   9  38
BRANCH  14  48
HETATM   48  C26 UNL     1       4.962  10.346  15.120  1.00  0.00     0.208 C 
BRANCH  48  49
HETATM   49  O7  UNL     1       5.633   9.091  15.089  1.00  0.00    -0.396 OA
HETATM   50  H24 UNL     1       5.328   8.648  14.275  1.00  0.00     0.209 HD
ENDBRANCH  48  49
ENDBRANCH  14  48
BRANCH  22  51
HETATM   51  O9  UNL     1       2.420   7.964  10.353  1.00  0.00    -0.387 OA
HETATM   52  H34 UNL     1       1.455   8.050  10.260  1.00  0.00     0.210 HD
ENDBRANCH  22  51
TORSDOF 11
ENDMDL
MODEL 7
REMARK minimizedAffinity -7.05393314
REMARK CNNscore 0.28154242
REMARK CNNaffinity 6.39107513
REMARK  11 active torsions:
REMARK  status: ('A' for Active; 'I' for Inactive)
REMARK    1  A    between atoms: C2_2  and  O1_3 
REMARK    2  A    between atoms: O1_3  and  C3_4 
REMARK    3  A    between atoms: C3_4  and  C4_6 
REMARK    4  A    between atoms: C5_7  and  C6_8 
REMARK    5  A    between atoms: C10_13  and  C11_14 
REMARK    6  A    between atoms: C11_14  and  O4_15 
REMARK    7  A    between atoms: C13_18  and  C14_19 
REMARK    8  A    between atoms: C25_32  and  C26_33 
REMARK    9  A    between atoms: C26_33  and  O7_34 
REMARK   10  A    between atoms: C33_42  and  O9_44 
REMARK   11  A    between atoms: C36_46  and  O10_47 
ROOT
HETATM    1  C4  UNL     1       1.789  10.387  18.439  1.00  0.00     0.165 C 
HETATM    2  C5  UNL     1       0.580  10.848  18.822  1.00  0.00     0.053 C 
HETATM    3  C7  UNL     1      -0.486  10.885  17.809  1.00  0.00    -0.002 C 
HETATM    4  C8  UNL     1      -1.383  11.905  17.683  1.00  0.00    -0.066 C 
HETATM    5  C9  UNL     1      -2.240  12.146  16.440  1.00  0.00     0.049 C 
HETATM    6  C10 UNL     1      -2.200  13.617  15.997  1.00  0.00     0.084 C 
HETATM    7  C12 UNL     1      -2.681  14.534  17.115  1.00  0.00     0.142 C 
HETATM    8  O5  UNL     1      -2.939  15.720  16.888  1.00  0.00    -0.297 OA
HETATM    9  C13 UNL     1      -2.810  13.897  18.495  1.00  0.00     0.092 C 
HETATM   10  C22 UNL     1      -1.577  13.001  18.733  1.00  0.00     0.052 C 
HETATM   11  C23 UNL     1      -0.367   9.792  16.791  1.00  0.00     0.044 C 
HETATM   12  C24 UNL     1       0.963   9.455  16.421  1.00  0.00     0.101 C 
HETATM   13  O6  UNL     1       2.034   9.984  17.120  1.00  0.00    -0.302 OA
HETATM   14  C25 UNL     1       1.248   8.532  15.404  1.00  0.00     0.034 C 
HETATM   15  C27 UNL     1       0.157   7.896  14.839  1.00  0.00     0.090 C 
HETATM   16  O8  UNL     1       0.252   6.910  13.867  1.00  0.00    -0.341 OA
HETATM   17  C28 UNL     1      -1.014   6.240  14.049  1.00  0.00     0.175 C 
HETATM   18  C29 UNL     1      -2.044   7.344  14.338  1.00  0.00     0.079 C 
HETATM   19  C30 UNL     1      -3.339   6.730  14.751  1.00  0.00    -0.019 C 
HETATM   20  C31 UNL     1      -3.691   5.507  14.314  1.00  0.00    -0.027 C 
HETATM   21  C32 UNL     1      -2.817   4.636  13.423  1.00  0.00     0.067 C 
HETATM   22  C33 UNL     1      -1.517   5.329  12.919  1.00  0.00     0.085 C 
HETATM   23  C34 UNL     1      -0.463   4.295  12.527  1.00  0.00     0.049 C 
HETATM   24  C35 UNL     1      -1.165   8.136  15.242  1.00  0.00     0.021 C 
HETATM   25  C36 UNL     1      -1.434   9.052  16.246  1.00  0.00     0.091 C 
ENDROOT
BRANCH   2  26
HETATM   26  C6  UNL     1       0.384  11.281  20.221  1.00  0.00     0.273 C 
HETATM   27  O3  UNL     1       0.710  12.396  20.607  1.00  0.00    -0.301 OA
ENDBRANCH   2  26
BRANCH   1  28
HETATM   28  C3  UNL     1       2.926  10.246  19.395  1.00  0.00     0.318 C 
HETATM   29  O2  UNL     1       2.913   9.544  20.396  1.00  0.00    -0.257 OA
BRANCH  28  30
HETATM   30  O1  UNL     1       3.981  10.971  18.946  1.00  0.00    -0.316 OA
BRANCH  30  31
HETATM   31  C2  UNL     1       4.793  11.537  19.983  1.00  0.00     0.175 C 
HETATM   32  C1  UNL     1       3.958  11.608  21.248  1.00  0.00     0.034 C 
ENDBRANCH  30  31
ENDBRANCH  28  30
ENDBRANCH   1  28
BRANCH  25  33
HETATM   33  O10 UNL     1      -2.728   9.230  16.648  1.00  0.00    -0.354 OA
HETATM   34  C37 UNL     1      -3.492   9.860  15.618  1.00  0.00     0.210 C 
ENDBRANCH  25  33
BRANCH   6  35
HETATM   35  C11 UNL     1      -3.030  13.855  14.737  1.00  0.00     0.176 C 
BRANCH  35  36
HETATM   36  O4  UNL     1      -4.385  13.461  14.944  1.00  0.00    -0.400 OA
HETATM   37  H12 UNL     1      -4.905  13.842  14.214  1.00  0.00     0.209 HD
ENDBRANCH  35  36
ENDBRANCH   6  35
BRANCH   9  38
HETATM   38  C14 UNL     1      -2.993  14.882  19.641  1.00  0.00    -0.046 A 
HETATM   39  C15 UNL     1      -1.908  15.579  20.191  1.00  0.00     0.010 A 
HETATM   40  C16 UNL     1      -2.067  16.455  21.271  1.00  0.00     0.031 A 
HETATM   41  C17 UNL     1      -3.354  16.613  21.793  1.00  0.00     0.042 A 
HETATM   42  N1  UNL     1      -3.799  17.391  22.837  1.00  0.00    -0.365 N 
HETATM   43  C20 UNL     1      -4.462  15.944  21.278  1.00  0.00    -0.008 A 
HETATM   44  C18 UNL     1      -5.152  17.234  23.001  1.00  0.00     0.089 A 
HETATM   45  H16 UNL     1      -3.209  17.990  23.398  1.00  0.00     0.165 HD
HETATM   46  C19 UNL     1      -5.590  16.344  22.048  1.00  0.00     0.030 A 
HETATM   47  C21 UNL     1      -4.278  15.066  20.191  1.00  0.00     0.021 A 
ENDBRANCH   9  38
BRANCH  14  48
HETATM   48  C26 UNL     1       2.643   8.183  14.987  1.00  0.00     0.208 C 
BRANCH  48  49
HETATM   49  O7  UNL     1       2.919   6.827  15.322  1.00  0.00    -0.396 OA
HETATM   50  H24 UNL     1       2.267   6.296  14.830  1.00  0.00     0.209 HD
ENDBRANCH  48  49
ENDBRANCH  14  48
BRANCH  22  51
HETATM   51  O9  UNL     1      -1.804   6.074  11.728  1.00  0.00    -0.387 OA
HETATM   52  H34 UNL     1      -2.679   6.490  11.826  1.00  0.00     0.210 HD
ENDBRANCH  22  51
TORSDOF 11
ENDMDL
MODEL 8
REMARK minimizedAffinity -6.95232153
REMARK CNNscore 0.271526754
REMARK CNNaffinity 5.92554617
REMARK  11 active torsions:
REMARK  status: ('A' for Active; 'I' for Inactive)
REMARK    1  A    between atoms: C2_2  and  O1_3 
REMARK    2  A    between atoms: O1_3  and  C3_4 
REMARK    3  A    between atoms: C3_4  and  C4_6 
REMARK    4  A    between atoms: C5_7  and  C6_8 
REMARK    5  A    between atoms: C10_13  and  C11_14 
REMARK    6  A    between atoms: C11_14  and  O4_15 
REMARK    7  A    between atoms: C13_18  and  C14_19 
REMARK    8  A    between atoms: C25_32  and  C26_33 
REMARK    9  A    between atoms: C26_33  and  O7_34 
REMARK   10  A    between atoms: C33_42  and  O9_44 
REMARK   11  A    between atoms: C36_46  and  O10_47 
ROOT
HETATM    1  C4  UNL     1     -15.857  -4.978  11.598  1.00  0.00     0.165 C 
HETATM    2  C5  UNL     1     -15.361  -3.889  12.222  1.00  0.00     0.053 C 
HETATM    3  C7  UNL     1     -15.127  -3.983  13.672  1.00  0.00    -0.002 C 
HETATM    4  C8  UNL     1     -15.402  -2.980  14.554  1.00  0.00    -0.066 C 
HETATM    5  C9  UNL     1     -15.520  -3.175  16.066  1.00  0.00     0.049 C 
HETATM    6  C10 UNL     1     -16.782  -2.501  16.630  1.00  0.00     0.084 C 
HETATM    7  C12 UNL     1     -16.783  -1.009  16.323  1.00  0.00     0.142 C 
HETATM    8  O5  UNL     1     -17.585  -0.253  16.879  1.00  0.00    -0.297 OA
HETATM    9  C13 UNL     1     -15.754  -0.535  15.302  1.00  0.00     0.092 C 
HETATM   10  C22 UNL     1     -15.725  -1.544  14.136  1.00  0.00     0.052 C 
HETATM   11  C23 UNL     1     -14.752  -5.363  14.118  1.00  0.00     0.044 C 
HETATM   12  C24 UNL     1     -15.404  -6.419  13.426  1.00  0.00     0.101 C 
HETATM   13  O6  UNL     1     -16.167  -6.147  12.303  1.00  0.00    -0.302 OA
HETATM   14  C25 UNL     1     -15.250  -7.764  13.792  1.00  0.00     0.034 C 
HETATM   15  C27 UNL     1     -14.349  -8.015  14.812  1.00  0.00     0.090 C 
HETATM   16  O8  UNL     1     -14.022  -9.288  15.262  1.00  0.00    -0.341 OA
HETATM   17  C28 UNL     1     -12.733  -9.030  15.857  1.00  0.00     0.175 C 
HETATM   18  C29 UNL     1     -12.846  -7.662  16.548  1.00  0.00     0.079 C 
HETATM   19  C30 UNL     1     -11.498  -7.216  17.009  1.00  0.00    -0.019 C 
HETATM   20  C31 UNL     1     -10.550  -8.115  17.331  1.00  0.00    -0.027 C 
HETATM   21  C32 UNL     1     -10.729  -9.621  17.220  1.00  0.00     0.067 C 
HETATM   22  C33 UNL     1     -12.170 -10.072  16.836  1.00  0.00     0.085 C 
HETATM   23  C34 UNL     1     -12.158 -11.468  16.217  1.00  0.00     0.049 C 
HETATM   24  C35 UNL     1     -13.618  -7.006  15.457  1.00  0.00     0.021 C 
HETATM   25  C36 UNL     1     -13.781  -5.682  15.088  1.00  0.00     0.091 C 
ENDROOT
BRANCH   2  26
HETATM   26  C6  UNL     1     -15.072  -2.674  11.432  1.00  0.00     0.273 C 
HETATM   27  O3  UNL     1     -13.947  -2.196  11.366  1.00  0.00    -0.301 OA
ENDBRANCH   2  26
BRANCH   1  28
HETATM   28  C3  UNL     1     -16.074  -5.019  10.122  1.00  0.00     0.318 C 
HETATM   29  O2  UNL     1     -17.166  -4.973   9.575  1.00  0.00    -0.257 OA
BRANCH  28  30
HETATM   30  O1  UNL     1     -14.872  -5.060   9.494  1.00  0.00    -0.316 OA
BRANCH  30  31
HETATM   31  C2  UNL     1     -14.928  -4.768   8.092  1.00  0.00     0.175 C 
HETATM   32  C1  UNL     1     -13.557  -4.284   7.656  1.00  0.00     0.034 C 
ENDBRANCH  30  31
ENDBRANCH  28  30
ENDBRANCH   1  28
BRANCH  25  33
HETATM   33  O10 UNL     1     -13.021  -4.726  15.703  1.00  0.00    -0.354 OA
HETATM   34  C37 UNL     1     -11.913  -4.359  14.878  1.00  0.00     0.210 C 
ENDBRANCH  25  33
BRANCH   6  35
HETATM   35  C11 UNL     1     -16.920  -2.721  18.135  1.00  0.00     0.176 C 
BRANCH  35  36
HETATM   36  O4  UNL     1     -16.435  -4.011  18.503  1.00  0.00    -0.400 OA
HETATM   37  H12 UNL     1     -16.330  -4.008  19.471  1.00  0.00     0.209 HD
ENDBRANCH  35  36
ENDBRANCH   6  35
BRANCH   9  38
HETATM   38  C14 UNL     1     -15.967   0.882  14.787  1.00  0.00    -0.046 A 
HETATM   39  C15 UNL     1     -15.153   1.945  15.202  1.00  0.00     0.010 A 
HETATM   40  C16 UNL     1     -15.371   3.255  14.762  1.00  0.00     0.031 A 
HETATM   41  C17 UNL     1     -16.439   3.476  13.888  1.00  0.00     0.042 A 
HETATM   42  N1  UNL     1     -16.885   4.641  13.306  1.00  0.00    -0.365 N 
HETATM   43  C20 UNL     1     -17.274   2.451  13.446  1.00  0.00    -0.008 A 
HETATM   44  C18 UNL     1     -17.975   4.386  12.513  1.00  0.00     0.089 A 
HETATM   45  H16 UNL     1     -16.465   5.549  13.447  1.00  0.00     0.165 HD
HETATM   46  C19 UNL     1     -18.238   3.038  12.579  1.00  0.00     0.030 A 
HETATM   47  C21 UNL     1     -17.036   1.139  13.903  1.00  0.00     0.021 A 
ENDBRANCH   9  38
BRANCH  14  48
HETATM   48  C26 UNL     1     -15.948  -8.886  13.088  1.00  0.00     0.208 C 
BRANCH  48  49
HETATM   49  O7  UNL     1     -16.665  -9.673  14.034  1.00  0.00    -0.396 OA
HETATM   50  H24 UNL     1     -17.308  -9.069  14.448  1.00  0.00     0.209 HD
ENDBRANCH  48  49
ENDBRANCH  14  48
BRANCH  22  51
HETATM   51  O9  UNL     1     -12.971 -10.171  18.022  1.00  0.00    -0.387 OA
HETATM   52  H34 UNL     1     -12.735  -9.437  18.616  1.00  0.00     0.210 HD
ENDBRANCH  22  51
TORSDOF 11
ENDMDL
MODEL 9
REMARK minimizedAffinity -8.12847614
REMARK CNNscore 0.240534544
REMARK CNNaffinity 6.21649694
REMARK  11 active torsions:
REMARK  status: ('A' for Active; 'I' for Inactive)
REMARK    1  A    between atoms: C2_2  and  O1_3 
REMARK    2  A    between atoms: O1_3  and  C3_4 
REMARK    3  A    between atoms: C3_4  and  C4_6 
REMARK    4  A    between atoms: C5_7  and  C6_8 
REMARK    5  A    between atoms: C10_13  and  C11_14 
REMARK    6  A    between atoms: C11_14  and  O4_15 
REMARK    7  A    between atoms: C13_18  and  C14_19 
REMARK    8  A    between atoms: C25_32  and  C26_33 
REMARK    9  A    between atoms: C26_33  and  O7_34 
REMARK   10  A    between atoms: C33_42  and  O9_44 
REMARK   11  A    between atoms: C36_46  and  O10_47 
ROOT
HETATM    1  C4  UNL     1      -1.130  13.309  18.639  1.00  0.00     0.165 C 
HETATM    2  C5  UNL     1       0.197  13.319  18.887  1.00  0.00     0.053 C 
HETATM    3  C7  UNL     1       0.882  12.020  18.971  1.00  0.00    -0.002 C 
HETATM    4  C8  UNL     1       1.849  11.726  19.887  1.00  0.00    -0.066 C 
HETATM    5  C9  UNL     1       2.301  10.307  20.233  1.00  0.00     0.049 C 
HETATM    6  C10 UNL     1       2.366  10.086  21.754  1.00  0.00     0.084 C 
HETATM    7  C12 UNL     1       3.317  11.081  22.406  1.00  0.00     0.142 C 
HETATM    8  O5  UNL     1       3.683  10.927  23.575  1.00  0.00    -0.297 OA
HETATM    9  C13 UNL     1       3.766  12.249  21.535  1.00  0.00     0.092 C 
HETATM   10  C22 UNL     1       2.540  12.775  20.760  1.00  0.00     0.052 C 
HETATM   11  C23 UNL     1       0.272  10.975  18.087  1.00  0.00     0.044 C 
HETATM   12  C24 UNL     1      -1.143  11.033  17.972  1.00  0.00     0.101 C 
HETATM   13  O6  UNL     1      -1.839  12.110  18.496  1.00  0.00    -0.302 OA
HETATM   14  C25 UNL     1      -1.881  10.066  17.274  1.00  0.00     0.034 C 
HETATM   15  C27 UNL     1      -1.142   9.096  16.621  1.00  0.00     0.090 C 
HETATM   16  O8  UNL     1      -1.698   8.099  15.831  1.00  0.00    -0.341 OA
HETATM   17  C28 UNL     1      -0.567   7.764  14.999  1.00  0.00     0.175 C 
HETATM   18  C29 UNL     1       0.668   7.823  15.912  1.00  0.00     0.079 C 
HETATM   19  C30 UNL     1       1.908   7.701  15.091  1.00  0.00    -0.019 C 
HETATM   20  C31 UNL     1       1.898   7.025  13.927  1.00  0.00    -0.027 C 
HETATM   21  C32 UNL     1       0.659   6.379  13.326  1.00  0.00     0.067 C 
HETATM   22  C33 UNL     1      -0.601   6.429  14.240  1.00  0.00     0.085 C 
HETATM   23  C34 UNL     1      -1.879   6.289  13.415  1.00  0.00     0.049 C 
HETATM   24  C35 UNL     1       0.261   9.059  16.636  1.00  0.00     0.021 C 
HETATM   25  C36 UNL     1       0.977  10.018  17.331  1.00  0.00     0.091 C 
ENDROOT
BRANCH   2  26
HETATM   26  C6  UNL     1       0.890  14.613  19.051  1.00  0.00     0.273 C 
HETATM   27  O3  UNL     1       1.613  15.076  18.178  1.00  0.00    -0.301 OA
ENDBRANCH   2  26
BRANCH   1  28
HETATM   28  C3  UNL     1      -1.916  14.566  18.471  1.00  0.00     0.318 C 
HETATM   29  O2  UNL     1      -1.914  15.262  17.465  1.00  0.00    -0.257 OA
BRANCH  28  30
HETATM   30  O1  UNL     1      -2.667  14.777  19.581  1.00  0.00    -0.316 OA
BRANCH  30  31
HETATM   31  C2  UNL     1      -4.078  14.840  19.337  1.00  0.00     0.175 C 
HETATM   32  C1  UNL     1      -4.711  13.582  19.901  1.00  0.00     0.034 C 
ENDBRANCH  30  31
ENDBRANCH  28  30
ENDBRANCH   1  28
BRANCH  25  33
HETATM   33  O10 UNL     1       2.343   9.983  17.288  1.00  0.00    -0.354 OA
HETATM   34  C37 UNL     1       2.839  10.910  16.320  1.00  0.00     0.210 C 
ENDBRANCH  25  33
BRANCH   6  35
HETATM   35  C11 UNL     1       2.786   8.659  22.104  1.00  0.00     0.176 C 
BRANCH  35  36
HETATM   36  O4  UNL     1       1.642   7.828  22.290  1.00  0.00    -0.400 OA
HETATM   37  H12 UNL     1       1.957   6.907  22.278  1.00  0.00     0.209 HD
ENDBRANCH  35  36
ENDBRANCH   6  35
BRANCH   9  38
HETATM   38  C14 UNL     1       4.459  13.379  22.284  1.00  0.00    -0.046 A 
HETATM   39  C15 UNL     1       3.741  14.466  22.801  1.00  0.00     0.010 A 
HETATM   40  C16 UNL     1       4.378  15.526  23.455  1.00  0.00     0.031 A 
HETATM   41  C17 UNL     1       5.770  15.469  23.576  1.00  0.00     0.042 A 
HETATM   42  N1  UNL     1       6.648  16.356  24.156  1.00  0.00    -0.365 N 
HETATM   43  C20 UNL     1       6.525  14.409  23.080  1.00  0.00    -0.008 A 
HETATM   44  C18 UNL     1       7.934  15.892  24.041  1.00  0.00     0.089 A 
HETATM   45  H16 UNL     1       6.377  17.222  24.602  1.00  0.00     0.165 HD
HETATM   46  C19 UNL     1       7.889  14.687  23.380  1.00  0.00     0.030 A 
HETATM   47  C21 UNL     1       5.861  13.353  22.424  1.00  0.00     0.021 A 
ENDBRANCH   9  38
BRANCH  14  48
HETATM   48  C26 UNL     1      -3.374  10.101  17.164  1.00  0.00     0.208 C 
BRANCH  48  49
HETATM   49  O7  UNL     1      -3.949  10.160  18.466  1.00  0.00    -0.396 OA
HETATM   50  H24 UNL     1      -3.611  10.983  18.867  1.00  0.00     0.209 HD
ENDBRANCH  48  49
ENDBRANCH  14  48
BRANCH  22  51
HETATM   51  O9  UNL     1      -0.584   5.310  15.137  1.00  0.00    -0.387 OA
HETATM   52  H34 UNL     1       0.334   5.160  15.426  1.00  0.00     0.210 HD
ENDBRANCH  22  51
TORSDOF 11
ENDMDL
