MODEL 1
REMARK minimizedAffinity -9.51176071
REMARK CNNscore 0.520362318
REMARK CNNaffinity 7.18141127
REMARK  15 active torsions:
REMARK  status: ('A' for Active; 'I' for Inactive)
REMARK    1  A    between atoms: C14_14  and  C15_15 
REMARK    2  A    between atoms: C15_15  and  C16_16 
REMARK    3  A    between atoms: C16_16  and  O1_17 
REMARK    4  A    between atoms: C16_16  and  C23_29 
REMARK    5  A    between atoms: O1_17  and  C17_18 
REMARK    6  A    between atoms: C18_20  and  C19_21 
REMARK    7  A    between atoms: C19_21  and  O3_22 
REMARK    8  A    between atoms: C20_23  and  O4_24 
REMARK    9  A    between atoms: C21_25  and  O5_26 
REMARK   10  A    between atoms: C22_27  and  O6_28 
REMARK   11  A    between atoms: C25_31  and  C26_32 
REMARK   12  A    between atoms: C26_32  and  O7_33 
REMARK   13  A    between atoms: O7_33  and  C27_34 
REMARK   14  A    between atoms: C27_34  and  C28_36 
REMARK   15  A    between atoms: C28_36  and  C29_37 
ROOT
HETATM    1  C16 UNL     1      -1.363  51.932 -22.608  1.00  0.00     0.153 C 
ENDROOT
BRANCH   1   2
HETATM    2  C15 UNL     1      -1.348  50.404 -22.841  1.00  0.00     0.046 C 
BRANCH   2   3
HETATM    3  C14 UNL     1      -2.658  49.674 -22.405  1.00  0.00     0.025 C 
HETATM    4  C2  UNL     1      -3.430  48.970 -23.532  1.00  0.00    -0.084 C 
HETATM    5  C1  UNL     1      -3.004  48.728 -24.781  1.00  0.00     0.014 C 
HETATM    6  C3  UNL     1      -4.802  48.494 -23.115  1.00  0.00     0.034 C 
HETATM    7  C4  UNL     1      -4.719  47.559 -21.908  1.00  0.00     0.010 C 
HETATM    8  C5  UNL     1      -3.938  48.205 -20.743  1.00  0.00     0.002 C 
HETATM    9  C6  UNL     1      -4.054  47.425 -19.386  1.00  0.00    -0.043 C 
HETATM   10  C12 UNL     1      -2.481  48.653 -21.187  1.00  0.00    -0.032 C 
HETATM   11  C7  UNL     1      -3.583  45.960 -19.453  1.00  0.00     0.015 C 
HETATM   12  C8  UNL     1      -5.536  47.383 -18.923  1.00  0.00     0.015 C 
HETATM   13  C9  UNL     1      -3.276  48.191 -18.288  1.00  0.00     0.009 C 
HETATM   14  C10 UNL     1      -1.851  48.550 -18.678  1.00  0.00     0.002 C 
HETATM   15  C11 UNL     1      -1.807  49.356 -19.974  1.00  0.00     0.010 C 
HETATM   16  C13 UNL     1      -1.571  47.488 -21.653  1.00  0.00     0.016 C 
ENDBRANCH   2   3
ENDBRANCH   1   2
BRANCH   1  17
HETATM   17  O1  UNL     1      -1.122  52.562 -23.878  1.00  0.00    -0.349 OA
BRANCH  17  18
HETATM   18  C17 UNL     1      -0.852  51.649 -24.940  1.00  0.00     0.292 C 
HETATM   19  O2  UNL     1       0.581  51.674 -25.101  1.00  0.00    -0.348 OA
HETATM   20  C18 UNL     1       0.996  51.313 -26.412  1.00  0.00     0.179 C 
HETATM   21  C20 UNL     1       0.582  52.394 -27.435  1.00  0.00     0.180 C 
HETATM   22  C21 UNL     1      -0.750  53.063 -27.040  1.00  0.00     0.183 C 
HETATM   23  C22 UNL     1      -1.616  52.079 -26.230  1.00  0.00     0.204 C 
BRANCH  20  24
HETATM   24  C19 UNL     1       2.514  51.106 -26.433  1.00  0.00     0.198 C 
BRANCH  24  25
HETATM   25  O3  UNL     1       3.141  52.046 -27.305  1.00  0.00    -0.398 OA
HETATM   26  H31 UNL     1       2.991  51.731 -28.220  1.00  0.00     0.209 HD
ENDBRANCH  24  25
ENDBRANCH  20  24
BRANCH  21  27
HETATM   27  O4  UNL     1       0.430  51.764 -28.716  1.00  0.00    -0.390 OA
HETATM   28  H33 UNL     1       1.342  51.528 -28.992  1.00  0.00     0.210 HD
ENDBRANCH  21  27
BRANCH  22  29
HETATM   29  O5  UNL     1      -0.510  54.276 -26.318  1.00  0.00    -0.390 OA
HETATM   30  H35 UNL     1      -0.177  54.036 -25.427  1.00  0.00     0.210 HD
ENDBRANCH  22  29
BRANCH  23  31
HETATM   31  O6  UNL     1      -1.949  50.915 -27.011  1.00  0.00    -0.388 OA
HETATM   32  H37 UNL     1      -1.619  51.058 -27.924  1.00  0.00     0.210 HD
ENDBRANCH  23  31
ENDBRANCH  17  18
ENDBRANCH   1  17
BRANCH   1  33
HETATM   33  C23 UNL     1      -0.367  52.436 -21.567  1.00  0.00    -0.057 C 
HETATM   34  C24 UNL     1       0.803  53.192 -22.147  1.00  0.00     0.046 C 
HETATM   35  C25 UNL     1      -0.488  52.139 -20.254  1.00  0.00     0.005 C 
BRANCH  35  36
HETATM   36  C26 UNL     1       0.427  52.489 -19.125  1.00  0.00     0.206 C 
BRANCH  36  37
HETATM   37  O7  UNL     1      -0.191  52.025 -17.920  1.00  0.00    -0.318 OA
BRANCH  37  38
HETATM   38  C27 UNL     1       0.623  51.399 -17.026  1.00  0.00     0.259 C 
HETATM   39  O8  UNL     1       0.652  50.196 -16.811  1.00  0.00    -0.265 OA
BRANCH  38  40
HETATM   40  C28 UNL     1       1.511  52.429 -16.359  1.00  0.00     0.115 C 
BRANCH  40  41
HETATM   41  C29 UNL     1       2.781  51.827 -15.740  1.00  0.00    -0.013 C 
HETATM   42  C30 UNL     1       3.984  52.719 -16.047  1.00  0.00     0.010 C 
HETATM   43  C31 UNL     1       2.639  51.650 -14.228  1.00  0.00     0.010 C 
ENDBRANCH  40  41
ENDBRANCH  38  40
ENDBRANCH  37  38
ENDBRANCH  36  37
ENDBRANCH  35  36
ENDBRANCH   1  33
TORSDOF 15
ENDMDL
MODEL 2
REMARK minimizedAffinity -9.15173912
REMARK CNNscore 0.504015207
REMARK CNNaffinity 7.14595556
REMARK  15 active torsions:
REMARK  status: ('A' for Active; 'I' for Inactive)
REMARK    1  A    between atoms: C14_14  and  C15_15 
REMARK    2  A    between atoms: C15_15  and  C16_16 
REMARK    3  A    between atoms: C16_16  and  O1_17 
REMARK    4  A    between atoms: C16_16  and  C23_29 
REMARK    5  A    between atoms: O1_17  and  C17_18 
REMARK    6  A    between atoms: C18_20  and  C19_21 
REMARK    7  A    between atoms: C19_21  and  O3_22 
REMARK    8  A    between atoms: C20_23  and  O4_24 
REMARK    9  A    between atoms: C21_25  and  O5_26 
REMARK   10  A    between atoms: C22_27  and  O6_28 
REMARK   11  A    between atoms: C25_31  and  C26_32 
REMARK   12  A    between atoms: C26_32  and  O7_33 
REMARK   13  A    between atoms: O7_33  and  C27_34 
REMARK   14  A    between atoms: C27_34  and  C28_36 
REMARK   15  A    between atoms: C28_36  and  C29_37 
ROOT
HETATM    1  C16 UNL     1      -0.228  51.371 -19.397  1.00  0.00     0.153 C 
ENDROOT
BRANCH   1   2
HETATM    2  C15 UNL     1      -1.678  51.012 -19.793  1.00  0.00     0.046 C 
BRANCH   2   3
HETATM    3  C14 UNL     1      -1.790  49.942 -20.925  1.00  0.00     0.025 C 
HETATM    4  C2  UNL     1      -1.827  48.480 -20.453  1.00  0.00    -0.084 C 
HETATM    5  C1  UNL     1      -1.994  48.035 -19.198  1.00  0.00     0.014 C 
HETATM    6  C3  UNL     1      -1.686  47.481 -21.577  1.00  0.00     0.034 C 
HETATM    7  C4  UNL     1      -2.765  47.689 -22.639  1.00  0.00     0.010 C 
HETATM    8  C5  UNL     1      -2.790  49.149 -23.145  1.00  0.00     0.002 C 
HETATM    9  C6  UNL     1      -3.673  49.366 -24.424  1.00  0.00    -0.043 C 
HETATM   10  C12 UNL     1      -2.990  50.180 -21.955  1.00  0.00    -0.032 C 
HETATM   11  C7  UNL     1      -5.146  48.948 -24.258  1.00  0.00     0.015 C 
HETATM   12  C8  UNL     1      -3.114  48.525 -25.604  1.00  0.00     0.015 C 
HETATM   13  C9  UNL     1      -3.579  50.849 -24.863  1.00  0.00     0.009 C 
HETATM   14  C10 UNL     1      -3.851  51.841 -23.744  1.00  0.00     0.002 C 
HETATM   15  C11 UNL     1      -2.925  51.616 -22.552  1.00  0.00     0.010 C 
HETATM   16  C13 UNL     1      -4.329  50.021 -21.192  1.00  0.00     0.016 C 
ENDBRANCH   2   3
ENDBRANCH   1   2
BRANCH   1  17
HETATM   17  O1  UNL     1      -0.259  51.843 -18.038  1.00  0.00    -0.349 OA
BRANCH  17  18
HETATM   18  C17 UNL     1      -0.472  50.818 -17.070  1.00  0.00     0.292 C 
HETATM   19  O2  UNL     1      -1.530  51.315 -16.225  1.00  0.00    -0.348 OA
HETATM   20  C18 UNL     1      -1.503  50.755 -14.918  1.00  0.00     0.179 C 
HETATM   21  C20 UNL     1      -0.265  51.249 -14.136  1.00  0.00     0.180 C 
HETATM   22  C21 UNL     1       0.941  51.471 -15.071  1.00  0.00     0.183 C 
HETATM   23  C22 UNL     1       0.846  50.530 -16.289  1.00  0.00     0.204 C 
BRANCH  20  24
HETATM   24  C19 UNL     1      -2.791  51.121 -14.174  1.00  0.00     0.198 C 
BRANCH  24  25
HETATM   25  O3  UNL     1      -3.759  51.663 -15.072  1.00  0.00    -0.398 OA
HETATM   26  H31 UNL     1      -3.491  52.588 -15.255  1.00  0.00     0.209 HD
ENDBRANCH  24  25
ENDBRANCH  20  24
BRANCH  21  27
HETATM   27  O4  UNL     1       0.074  50.254 -13.158  1.00  0.00    -0.390 OA
HETATM   28  H33 UNL     1      -0.646  50.296 -12.493  1.00  0.00     0.210 HD
ENDBRANCH  21  27
BRANCH  22  29
HETATM   29  O5  UNL     1       1.025  52.844 -15.467  1.00  0.00    -0.390 OA
HETATM   30  H35 UNL     1       0.295  53.022 -16.097  1.00  0.00     0.210 HD
ENDBRANCH  22  29
BRANCH  23  31
HETATM   31  O6  UNL     1       0.881  49.148 -15.882  1.00  0.00    -0.388 OA
HETATM   32  H37 UNL     1       1.051  49.121 -14.915  1.00  0.00     0.210 HD
ENDBRANCH  23  31
ENDBRANCH  17  18
ENDBRANCH   1  17
BRANCH   1  33
HETATM   33  C23 UNL     1       0.454  52.395 -20.301  1.00  0.00    -0.057 C 
HETATM   34  C24 UNL     1       1.172  53.494 -19.557  1.00  0.00     0.046 C 
HETATM   35  C25 UNL     1       0.333  52.359 -21.646  1.00  0.00     0.005 C 
BRANCH  35  36
HETATM   36  C26 UNL     1       0.870  53.315 -22.662  1.00  0.00     0.206 C 
BRANCH  36  37
HETATM   37  O7  UNL     1       0.116  53.123 -23.864  1.00  0.00    -0.318 OA
BRANCH  37  38
HETATM   38  C27 UNL     1       0.410  53.956 -24.901  1.00  0.00     0.259 C 
HETATM   39  O8  UNL     1       0.729  55.131 -24.801  1.00  0.00    -0.265 OA
BRANCH  38  40
HETATM   40  C28 UNL     1       0.307  53.183 -26.199  1.00  0.00     0.115 C 
BRANCH  40  41
HETATM   41  C29 UNL     1       1.002  51.815 -26.148  1.00  0.00    -0.013 C 
HETATM   42  C30 UNL     1      -0.017  50.703 -26.397  1.00  0.00     0.010 C 
HETATM   43  C31 UNL     1       2.133  51.720 -27.173  1.00  0.00     0.010 C 
ENDBRANCH  40  41
ENDBRANCH  38  40
ENDBRANCH  37  38
ENDBRANCH  36  37
ENDBRANCH  35  36
ENDBRANCH   1  33
TORSDOF 15
ENDMDL
MODEL 3
REMARK minimizedAffinity -8.81612873
REMARK CNNscore 0.471514046
REMARK CNNaffinity 7.12867975
REMARK  15 active torsions:
REMARK  status: ('A' for Active; 'I' for Inactive)
REMARK    1  A    between atoms: C14_14  and  C15_15 
REMARK    2  A    between atoms: C15_15  and  C16_16 
REMARK    3  A    between atoms: C16_16  and  O1_17 
REMARK    4  A    between atoms: C16_16  and  C23_29 
REMARK    5  A    between atoms: O1_17  and  C17_18 
REMARK    6  A    between atoms: C18_20  and  C19_21 
REMARK    7  A    between atoms: C19_21  and  O3_22 
REMARK    8  A    between atoms: C20_23  and  O4_24 
REMARK    9  A    between atoms: C21_25  and  O5_26 
REMARK   10  A    between atoms: C22_27  and  O6_28 
REMARK   11  A    between atoms: C25_31  and  C26_32 
REMARK   12  A    between atoms: C26_32  and  O7_33 
REMARK   13  A    between atoms: O7_33  and  C27_34 
REMARK   14  A    between atoms: C27_34  and  C28_36 
REMARK   15  A    between atoms: C28_36  and  C29_37 
ROOT
HETATM    1  C16 UNL     1      -3.511  48.006 -21.976  1.00  0.00     0.153 C 
ENDROOT
BRANCH   1   2
HETATM    2  C15 UNL     1      -3.823  49.240 -22.852  1.00  0.00     0.046 C 
BRANCH   2   3
HETATM    3  C14 UNL     1      -3.061  49.271 -24.215  1.00  0.00     0.025 C 
HETATM    4  C2  UNL     1      -3.824  48.684 -25.413  1.00  0.00    -0.084 C 
HETATM    5  C1  UNL     1      -5.125  48.359 -25.468  1.00  0.00     0.014 C 
HETATM    6  C3  UNL     1      -2.967  48.507 -26.644  1.00  0.00     0.034 C 
HETATM    7  C4  UNL     1      -2.322  49.829 -27.063  1.00  0.00     0.010 C 
HETATM    8  C5  UNL     1      -1.550  50.479 -25.893  1.00  0.00     0.002 C 
HETATM    9  C6  UNL     1      -0.638  51.681 -26.321  1.00  0.00    -0.043 C 
HETATM   10  C12 UNL     1      -2.480  50.702 -24.626  1.00  0.00    -0.032 C 
HETATM   11  C7  UNL     1      -1.386  52.828 -27.025  1.00  0.00     0.015 C 
HETATM   12  C8  UNL     1       0.449  51.195 -27.319  1.00  0.00     0.015 C 
HETATM   13  C9  UNL     1       0.120  52.215 -25.079  1.00  0.00     0.009 C 
HETATM   14  C10 UNL     1      -0.779  52.509 -23.889  1.00  0.00     0.002 C 
HETATM   15  C11 UNL     1      -1.599  51.287 -23.484  1.00  0.00     0.010 C 
HETATM   16  C13 UNL     1      -3.672  51.661 -24.873  1.00  0.00     0.016 C 
ENDBRANCH   2   3
ENDBRANCH   1   2
BRANCH   1  17
HETATM   17  O1  UNL     1      -4.766  47.502 -21.484  1.00  0.00    -0.349 OA
BRANCH  17  18
HETATM   18  C17 UNL     1      -5.394  48.344 -20.519  1.00  0.00     0.292 C 
HETATM   19  O2  UNL     1      -5.768  47.464 -19.440  1.00  0.00    -0.348 OA
HETATM   20  C18 UNL     1      -6.867  47.955 -18.683  1.00  0.00     0.179 C 
HETATM   21  C20 UNL     1      -8.164  47.933 -19.522  1.00  0.00     0.180 C 
HETATM   22  C21 UNL     1      -7.875  48.204 -21.013  1.00  0.00     0.183 C 
HETATM   23  C22 UNL     1      -6.614  49.078 -21.156  1.00  0.00     0.204 C 
BRANCH  20  24
HETATM   24  C19 UNL     1      -7.035  47.114 -17.413  1.00  0.00     0.198 C 
BRANCH  24  25
HETATM   25  O3  UNL     1      -8.011  47.693 -16.547  1.00  0.00    -0.398 OA
HETATM   26  H31 UNL     1      -7.581  48.452 -16.101  1.00  0.00     0.209 HD
ENDBRANCH  24  25
ENDBRANCH  20  24
BRANCH  21  27
HETATM   27  O4  UNL     1      -9.041  48.953 -19.020  1.00  0.00    -0.390 OA
HETATM   28  H33 UNL     1      -9.334  48.626 -18.143  1.00  0.00     0.210 HD
ENDBRANCH  21  27
BRANCH  22  29
HETATM   29  O5  UNL     1      -7.752  46.973 -21.734  1.00  0.00    -0.390 OA
HETATM   30  H35 UNL     1      -6.903  46.556 -21.476  1.00  0.00     0.210 HD
ENDBRANCH  22  29
BRANCH  23  31
HETATM   31  O6  UNL     1      -6.796  50.361 -20.526  1.00  0.00    -0.388 OA
HETATM   32  H37 UNL     1      -7.728  50.420 -20.223  1.00  0.00     0.210 HD
ENDBRANCH  23  31
ENDBRANCH  17  18
ENDBRANCH   1  17
BRANCH   1  33
HETATM   33  C23 UNL     1      -2.550  48.263 -20.818  1.00  0.00    -0.057 C 
HETATM   34  C24 UNL     1      -1.208  47.589 -20.968  1.00  0.00     0.046 C 
HETATM   35  C25 UNL     1      -2.919  48.955 -19.718  1.00  0.00     0.005 C 
BRANCH  35  36
HETATM   36  C26 UNL     1      -2.135  49.233 -18.476  1.00  0.00     0.206 C 
BRANCH  36  37
HETATM   37  O7  UNL     1      -1.146  50.212 -18.809  1.00  0.00    -0.318 OA
BRANCH  37  38
HETATM   38  C27 UNL     1      -1.601  51.473 -19.050  1.00  0.00     0.259 C 
HETATM   39  O8  UNL     1      -2.539  52.010 -18.483  1.00  0.00    -0.265 OA
BRANCH  38  40
HETATM   40  C28 UNL     1      -0.736  52.115 -20.115  1.00  0.00     0.115 C 
BRANCH  40  41
HETATM   41  C29 UNL     1       0.134  53.261 -19.580  1.00  0.00    -0.013 C 
HETATM   42  C30 UNL     1       0.982  52.768 -18.407  1.00  0.00     0.010 C 
HETATM   43  C31 UNL     1       1.042  53.833 -20.670  1.00  0.00     0.010 C 
ENDBRANCH  40  41
ENDBRANCH  38  40
ENDBRANCH  37  38
ENDBRANCH  36  37
ENDBRANCH  35  36
ENDBRANCH   1  33
TORSDOF 15
ENDMDL
MODEL 4
REMARK minimizedAffinity -8.48824501
REMARK CNNscore 0.454936296
REMARK CNNaffinity 7.07779884
REMARK  15 active torsions:
REMARK  status: ('A' for Active; 'I' for Inactive)
REMARK    1  A    between atoms: C14_14  and  C15_15 
REMARK    2  A    between atoms: C15_15  and  C16_16 
REMARK    3  A    between atoms: C16_16  and  O1_17 
REMARK    4  A    between atoms: C16_16  and  C23_29 
REMARK    5  A    between atoms: O1_17  and  C17_18 
REMARK    6  A    between atoms: C18_20  and  C19_21 
REMARK    7  A    between atoms: C19_21  and  O3_22 
REMARK    8  A    between atoms: C20_23  and  O4_24 
REMARK    9  A    between atoms: C21_25  and  O5_26 
REMARK   10  A    between atoms: C22_27  and  O6_28 
REMARK   11  A    between atoms: C25_31  and  C26_32 
REMARK   12  A    between atoms: C26_32  and  O7_33 
REMARK   13  A    between atoms: O7_33  and  C27_34 
REMARK   14  A    between atoms: C27_34  and  C28_36 
REMARK   15  A    between atoms: C28_36  and  C29_37 
ROOT
HETATM    1  C16 UNL     1      -4.137  49.773 -24.115  1.00  0.00     0.153 C 
ENDROOT
BRANCH   1   2
HETATM    2  C15 UNL     1      -3.672  48.565 -23.271  1.00  0.00     0.046 C 
BRANCH   2   3
HETATM    3  C14 UNL     1      -3.747  48.792 -21.727  1.00  0.00     0.025 C 
HETATM    4  C2  UNL     1      -4.438  47.676 -20.928  1.00  0.00    -0.084 C 
HETATM    5  C1  UNL     1      -4.779  46.454 -21.366  1.00  0.00     0.014 C 
HETATM    6  C3  UNL     1      -4.707  48.045 -19.488  1.00  0.00     0.034 C 
HETATM    7  C4  UNL     1      -3.419  48.448 -18.771  1.00  0.00     0.010 C 
HETATM    8  C5  UNL     1      -2.667  49.560 -19.536  1.00  0.00     0.002 C 
HETATM    9  C6  UNL     1      -1.495  50.214 -18.724  1.00  0.00    -0.043 C 
HETATM   10  C12 UNL     1      -2.349  49.133 -21.032  1.00  0.00    -0.032 C 
HETATM   11  C7  UNL     1      -0.417  49.220 -18.251  1.00  0.00     0.015 C 
HETATM   12  C8  UNL     1      -2.051  50.892 -17.442  1.00  0.00     0.015 C 
HETATM   13  C9  UNL     1      -0.853  51.342 -19.570  1.00  0.00     0.009 C 
HETATM   14  C10 UNL     1      -0.471  50.914 -20.977  1.00  0.00     0.002 C 
HETATM   15  C11 UNL     1      -1.664  50.339 -21.737  1.00  0.00     0.010 C 
HETATM   16  C13 UNL     1      -1.425  47.895 -21.157  1.00  0.00     0.016 C 
ENDBRANCH   2   3
ENDBRANCH   1   2
BRANCH   1  17
HETATM   17  O1  UNL     1      -5.550  49.618 -24.343  1.00  0.00    -0.349 OA
BRANCH  17  18
HETATM   18  C17 UNL     1      -5.942  48.289 -24.682  1.00  0.00     0.292 C 
HETATM   19  O2  UNL     1      -6.108  48.300 -26.114  1.00  0.00    -0.348 OA
HETATM   20  C18 UNL     1      -7.013  47.304 -26.573  1.00  0.00     0.179 C 
HETATM   21  C20 UNL     1      -8.456  47.625 -26.122  1.00  0.00     0.180 C 
HETATM   22  C21 UNL     1      -8.475  48.327 -24.749  1.00  0.00     0.183 C 
HETATM   23  C22 UNL     1      -7.247  47.901 -23.921  1.00  0.00     0.204 C 
BRANCH  20  24
HETATM   24  C19 UNL     1      -6.937  47.203 -28.100  1.00  0.00     0.198 C 
BRANCH  24  25
HETATM   25  O3  UNL     1      -6.423  48.410 -28.663  1.00  0.00    -0.398 OA
HETATM   26  H31 UNL     1      -7.151  49.064 -28.649  1.00  0.00     0.209 HD
ENDBRANCH  24  25
ENDBRANCH  20  24
BRANCH  21  27
HETATM   27  O4  UNL     1      -9.182  46.390 -26.029  1.00  0.00    -0.390 OA
HETATM   28  H33 UNL     1      -9.296  46.092 -26.957  1.00  0.00     0.210 HD
ENDBRANCH  21  27
BRANCH  22  29
HETATM   29  O5  UNL     1      -8.537  49.749 -24.912  1.00  0.00    -0.390 OA
HETATM   30  H35 UNL     1      -7.664  50.054 -25.240  1.00  0.00     0.210 HD
ENDBRANCH  22  29
BRANCH  23  31
HETATM   31  O6  UNL     1      -7.260  46.483 -23.665  1.00  0.00    -0.388 OA
HETATM   32  H37 UNL     1      -8.107  46.122 -24.005  1.00  0.00     0.210 HD
ENDBRANCH  23  31
ENDBRANCH  17  18
ENDBRANCH   1  17
BRANCH   1  33
HETATM   33  C23 UNL     1      -3.402  49.959 -25.439  1.00  0.00    -0.057 C 
HETATM   34  C24 UNL     1      -2.621  48.748 -25.887  1.00  0.00     0.046 C 
HETATM   35  C25 UNL     1      -3.384  51.141 -26.091  1.00  0.00     0.005 C 
BRANCH  35  36
HETATM   36  C26 UNL     1      -2.663  51.510 -27.348  1.00  0.00     0.206 C 
BRANCH  36  37
HETATM   37  O7  UNL     1      -2.340  52.902 -27.259  1.00  0.00    -0.318 OA
BRANCH  37  38
HETATM   38  C27 UNL     1      -1.050  53.242 -27.531  1.00  0.00     0.259 C 
HETATM   39  O8  UNL     1      -0.661  54.352 -27.859  1.00  0.00    -0.265 OA
BRANCH  38  40
HETATM   40  C28 UNL     1      -0.167  52.027 -27.333  1.00  0.00     0.115 C 
BRANCH  40  41
HETATM   41  C29 UNL     1       0.811  52.173 -26.158  1.00  0.00    -0.013 C 
HETATM   42  C30 UNL     1       0.127  51.757 -24.856  1.00  0.00     0.010 C 
HETATM   43  C31 UNL     1       2.073  51.336 -26.370  1.00  0.00     0.010 C 
ENDBRANCH  40  41
ENDBRANCH  38  40
ENDBRANCH  37  38
ENDBRANCH  36  37
ENDBRANCH  35  36
ENDBRANCH   1  33
TORSDOF 15
ENDMDL
MODEL 5
REMARK minimizedAffinity -7.89840031
REMARK CNNscore 0.449823231
REMARK CNNaffinity 6.94462967
REMARK  15 active torsions:
REMARK  status: ('A' for Active; 'I' for Inactive)
REMARK    1  A    between atoms: C14_14  and  C15_15 
REMARK    2  A    between atoms: C15_15  and  C16_16 
REMARK    3  A    between atoms: C16_16  and  O1_17 
REMARK    4  A    between atoms: C16_16  and  C23_29 
REMARK    5  A    between atoms: O1_17  and  C17_18 
REMARK    6  A    between atoms: C18_20  and  C19_21 
REMARK    7  A    between atoms: C19_21  and  O3_22 
REMARK    8  A    between atoms: C20_23  and  O4_24 
REMARK    9  A    between atoms: C21_25  and  O5_26 
REMARK   10  A    between atoms: C22_27  and  O6_28 
REMARK   11  A    between atoms: C25_31  and  C26_32 
REMARK   12  A    between atoms: C26_32  and  O7_33 
REMARK   13  A    between atoms: O7_33  and  C27_34 
REMARK   14  A    between atoms: C27_34  and  C28_36 
REMARK   15  A    between atoms: C28_36  and  C29_37 
ROOT
HETATM    1  C16 UNL     1      -4.034  49.062 -23.596  1.00  0.00     0.153 C 
ENDROOT
BRANCH   1   2
HETATM    2  C15 UNL     1      -2.895  48.486 -22.725  1.00  0.00     0.046 C 
BRANCH   2   3
HETATM    3  C14 UNL     1      -3.137  48.609 -21.187  1.00  0.00     0.025 C 
HETATM    4  C2  UNL     1      -3.569  47.315 -20.479  1.00  0.00    -0.084 C 
HETATM    5  C1  UNL     1      -3.547  46.070 -20.979  1.00  0.00     0.014 C 
HETATM    6  C3  UNL     1      -4.027  47.531 -19.057  1.00  0.00     0.034 C 
HETATM    7  C4  UNL     1      -2.943  48.216 -18.225  1.00  0.00     0.010 C 
HETATM    8  C5  UNL     1      -2.454  49.520 -18.893  1.00  0.00     0.002 C 
HETATM    9  C6  UNL     1      -1.554  50.413 -17.969  1.00  0.00    -0.043 C 
HETATM   10  C12 UNL     1      -1.930  49.264 -20.369  1.00  0.00    -0.032 C 
HETATM   11  C7  UNL     1      -0.292  49.709 -17.438  1.00  0.00     0.015 C 
HETATM   12  C8  UNL     1      -2.359  50.862 -16.718  1.00  0.00     0.015 C 
HETATM   13  C9  UNL     1      -1.170  51.709 -18.726  1.00  0.00     0.009 C 
HETATM   14  C10 UNL     1      -0.590  51.464 -20.109  1.00  0.00     0.002 C 
HETATM   15  C11 UNL     1      -1.533  50.640 -20.981  1.00  0.00     0.010 C 
HETATM   16  C13 UNL     1      -0.708  48.314 -20.455  1.00  0.00     0.016 C 
ENDBRANCH   2   3
ENDBRANCH   1   2
BRANCH   1  17
HETATM   17  O1  UNL     1      -4.970  47.996 -23.838  1.00  0.00    -0.349 OA
BRANCH  17  18
HETATM   18  C17 UNL     1      -6.273  48.234 -23.309  1.00  0.00     0.292 C 
HETATM   19  O2  UNL     1      -6.809  46.925 -23.030  1.00  0.00    -0.348 OA
HETATM   20  C18 UNL     1      -8.231  46.894 -23.051  1.00  0.00     0.179 C 
HETATM   21  C20 UNL     1      -8.762  47.114 -24.486  1.00  0.00     0.180 C 
HETATM   22  C21 UNL     1      -7.847  48.061 -25.287  1.00  0.00     0.183 C 
HETATM   23  C22 UNL     1      -7.132  49.038 -24.333  1.00  0.00     0.204 C 
BRANCH  20  24
HETATM   24  C19 UNL     1      -8.726  45.556 -22.493  1.00  0.00     0.198 C 
BRANCH  24  25
HETATM   25  O3  UNL     1      -8.288  44.472 -23.313  1.00  0.00    -0.398 OA
HETATM   26  H31 UNL     1      -8.865  44.463 -24.104  1.00  0.00     0.209 HD
ENDBRANCH  24  25
ENDBRANCH  20  24
BRANCH  21  27
HETATM   27  O4  UNL     1     -10.073  47.691 -24.395  1.00  0.00    -0.390 OA
HETATM   28  H33 UNL     1     -10.644  46.971 -24.049  1.00  0.00     0.210 HD
ENDBRANCH  21  27
BRANCH  22  29
HETATM   29  O5  UNL     1      -6.915  47.313 -26.076  1.00  0.00    -0.390 OA
HETATM   30  H35 UNL     1      -6.253  46.921 -25.469  1.00  0.00     0.210 HD
ENDBRANCH  22  29
BRANCH  23  31
HETATM   31  O6  UNL     1      -8.079  49.867 -23.632  1.00  0.00    -0.388 OA
HETATM   32  H37 UNL     1      -8.972  49.678 -23.994  1.00  0.00     0.210 HD
ENDBRANCH  23  31
ENDBRANCH  17  18
ENDBRANCH   1  17
BRANCH   1  33
HETATM   33  C23 UNL     1      -3.586  49.685 -24.916  1.00  0.00    -0.057 C 
HETATM   34  C24 UNL     1      -2.947  48.710 -25.874  1.00  0.00     0.046 C 
HETATM   35  C25 UNL     1      -3.675  51.013 -25.150  1.00  0.00     0.005 C 
BRANCH  35  36
HETATM   36  C26 UNL     1      -3.222  51.788 -26.346  1.00  0.00     0.206 C 
BRANCH  36  37
HETATM   37  O7  UNL     1      -2.061  52.529 -25.956  1.00  0.00    -0.318 OA
BRANCH  37  38
HETATM   38  C27 UNL     1      -1.142  52.767 -26.932  1.00  0.00     0.259 C 
HETATM   39  O8  UNL     1      -0.882  53.860 -27.412  1.00  0.00    -0.265 OA
BRANCH  38  40
HETATM   40  C28 UNL     1      -0.470  51.463 -27.307  1.00  0.00     0.115 C 
BRANCH  40  41
HETATM   41  C29 UNL     1       0.893  51.265 -26.626  1.00  0.00    -0.013 C 
HETATM   42  C30 UNL     1       2.012  51.743 -27.551  1.00  0.00     0.010 C 
HETATM   43  C31 UNL     1       0.969  52.010 -25.293  1.00  0.00     0.010 C 
ENDBRANCH  40  41
ENDBRANCH  38  40
ENDBRANCH  37  38
ENDBRANCH  36  37
ENDBRANCH  35  36
ENDBRANCH   1  33
TORSDOF 15
ENDMDL
MODEL 6
REMARK minimizedAffinity -8.28492069
REMARK CNNscore 0.448281705
REMARK CNNaffinity 6.99105263
REMARK  15 active torsions:
REMARK  status: ('A' for Active; 'I' for Inactive)
REMARK    1  A    between atoms: C14_14  and  C15_15 
REMARK    2  A    between atoms: C15_15  and  C16_16 
REMARK    3  A    between atoms: C16_16  and  O1_17 
REMARK    4  A    between atoms: C16_16  and  C23_29 
REMARK    5  A    between atoms: O1_17  and  C17_18 
REMARK    6  A    between atoms: C18_20  and  C19_21 
REMARK    7  A    between atoms: C19_21  and  O3_22 
REMARK    8  A    between atoms: C20_23  and  O4_24 
REMARK    9  A    between atoms: C21_25  and  O5_26 
REMARK   10  A    between atoms: C22_27  and  O6_28 
REMARK   11  A    between atoms: C25_31  and  C26_32 
REMARK   12  A    between atoms: C26_32  and  O7_33 
REMARK   13  A    between atoms: O7_33  and  C27_34 
REMARK   14  A    between atoms: C27_34  and  C28_36 
REMARK   15  A    between atoms: C28_36  and  C29_37 
ROOT
HETATM    1  C16 UNL     1      -4.157  48.624 -21.795  1.00  0.00     0.153 C 
ENDROOT
BRANCH   1   2
HETATM    2  C15 UNL     1      -4.413  49.607 -22.960  1.00  0.00     0.046 C 
BRANCH   2   3
HETATM    3  C14 UNL     1      -3.407  49.473 -24.147  1.00  0.00     0.025 C 
HETATM    4  C2  UNL     1      -3.932  48.719 -25.379  1.00  0.00    -0.084 C 
HETATM    5  C1  UNL     1      -5.201  48.364 -25.634  1.00  0.00     0.014 C 
HETATM    6  C3  UNL     1      -2.859  48.400 -26.392  1.00  0.00     0.034 C 
HETATM    7  C4  UNL     1      -2.140  49.668 -26.854  1.00  0.00     0.010 C 
HETATM    8  C5  UNL     1      -1.600  50.481 -25.656  1.00  0.00     0.002 C 
HETATM    9  C6  UNL     1      -0.617  51.635 -26.060  1.00  0.00    -0.043 C 
HETATM   10  C12 UNL     1      -2.752  50.849 -24.628  1.00  0.00    -0.032 C 
HETATM   11  C7  UNL     1      -1.213  52.665 -27.038  1.00  0.00     0.015 C 
HETATM   12  C8  UNL     1       0.636  51.044 -26.762  1.00  0.00     0.015 C 
HETATM   13  C9  UNL     1      -0.105  52.342 -24.780  1.00  0.00     0.009 C 
HETATM   14  C10 UNL     1      -1.211  52.771 -23.830  1.00  0.00     0.002 C 
HETATM   15  C11 UNL     1      -2.099  51.596 -23.428  1.00  0.00     0.010 C 
HETATM   16  C13 UNL     1      -3.870  51.744 -25.219  1.00  0.00     0.016 C 
ENDBRANCH   2   3
ENDBRANCH   1   2
BRANCH   1  17
HETATM   17  O1  UNL     1      -4.970  49.051 -20.688  1.00  0.00    -0.349 OA
BRANCH  17  18
HETATM   18  C17 UNL     1      -5.252  48.022 -19.741  1.00  0.00     0.292 C 
HETATM   19  O2  UNL     1      -5.582  46.863 -20.535  1.00  0.00    -0.348 OA
HETATM   20  C18 UNL     1      -6.421  45.944 -19.848  1.00  0.00     0.179 C 
HETATM   21  C20 UNL     1      -7.829  46.542 -19.630  1.00  0.00     0.180 C 
HETATM   22  C21 UNL     1      -7.766  48.069 -19.420  1.00  0.00     0.183 C 
HETATM   23  C22 UNL     1      -6.412  48.461 -18.796  1.00  0.00     0.204 C 
BRANCH  20  24
HETATM   24  C19 UNL     1      -6.509  44.636 -20.640  1.00  0.00     0.198 C 
BRANCH  24  25
HETATM   25  O3  UNL     1      -5.244  44.303 -21.213  1.00  0.00    -0.398 OA
HETATM   26  H31 UNL     1      -5.126  44.879 -21.996  1.00  0.00     0.209 HD
ENDBRANCH  24  25
ENDBRANCH  20  24
BRANCH  21  27
HETATM   27  O4  UNL     1      -8.402  45.930 -18.464  1.00  0.00    -0.390 OA
HETATM   28  H33 UNL     1      -8.587  45.004 -18.730  1.00  0.00     0.210 HD
ENDBRANCH  21  27
BRANCH  22  29
HETATM   29  O5  UNL     1      -8.000  48.757 -20.654  1.00  0.00    -0.390 OA
HETATM   30  H35 UNL     1      -7.208  48.637 -21.221  1.00  0.00     0.210 HD
ENDBRANCH  22  29
BRANCH  23  31
HETATM   31  O6  UNL     1      -6.242  47.854 -17.500  1.00  0.00    -0.388 OA
HETATM   32  H37 UNL     1      -7.079  47.395 -17.269  1.00  0.00     0.210 HD
ENDBRANCH  23  31
ENDBRANCH  17  18
ENDBRANCH   1  17
BRANCH   1  33
HETATM   33  C23 UNL     1      -2.698  48.497 -21.365  1.00  0.00    -0.057 C 
HETATM   34  C24 UNL     1      -2.073  47.162 -21.687  1.00  0.00     0.046 C 
HETATM   35  C25 UNL     1      -2.066  49.470 -20.673  1.00  0.00     0.005 C 
BRANCH  35  36
HETATM   36  C26 UNL     1      -0.678  49.478 -20.118  1.00  0.00     0.206 C 
BRANCH  36  37
HETATM   37  O7  UNL     1      -0.680  50.345 -18.980  1.00  0.00    -0.318 OA
BRANCH  37  38
HETATM   38  C27 UNL     1      -1.161  51.603 -19.180  1.00  0.00     0.259 C 
HETATM   39  O8  UNL     1      -2.070  52.125 -18.553  1.00  0.00    -0.265 OA
BRANCH  38  40
HETATM   40  C28 UNL     1      -0.366  52.265 -20.286  1.00  0.00     0.115 C 
BRANCH  40  41
HETATM   41  C29 UNL     1       0.452  53.473 -19.807  1.00  0.00    -0.013 C 
HETATM   42  C30 UNL     1       1.378  53.055 -18.664  1.00  0.00     0.010 C 
HETATM   43  C31 UNL     1       1.275  54.081 -20.943  1.00  0.00     0.010 C 
ENDBRANCH  40  41
ENDBRANCH  38  40
ENDBRANCH  37  38
ENDBRANCH  36  37
ENDBRANCH  35  36
ENDBRANCH   1  33
TORSDOF 15
ENDMDL
MODEL 7
REMARK minimizedAffinity -7.7763505
REMARK CNNscore 0.429694921
REMARK CNNaffinity 6.97442389
REMARK  15 active torsions:
REMARK  status: ('A' for Active; 'I' for Inactive)
REMARK    1  A    between atoms: C14_14  and  C15_15 
REMARK    2  A    between atoms: C15_15  and  C16_16 
REMARK    3  A    between atoms: C16_16  and  O1_17 
REMARK    4  A    between atoms: C16_16  and  C23_29 
REMARK    5  A    between atoms: O1_17  and  C17_18 
REMARK    6  A    between atoms: C18_20  and  C19_21 
REMARK    7  A    between atoms: C19_21  and  O3_22 
REMARK    8  A    between atoms: C20_23  and  O4_24 
REMARK    9  A    between atoms: C21_25  and  O5_26 
REMARK   10  A    between atoms: C22_27  and  O6_28 
REMARK   11  A    between atoms: C25_31  and  C26_32 
REMARK   12  A    between atoms: C26_32  and  O7_33 
REMARK   13  A    between atoms: O7_33  and  C27_34 
REMARK   14  A    between atoms: C27_34  and  C28_36 
REMARK   15  A    between atoms: C28_36  and  C29_37 
ROOT
HETATM    1  C16 UNL     1      -3.998  48.219 -21.797  1.00  0.00     0.153 C 
ENDROOT
BRANCH   1   2
HETATM    2  C15 UNL     1      -4.164  49.413 -22.763  1.00  0.00     0.046 C 
BRANCH   2   3
HETATM    3  C14 UNL     1      -3.259  49.342 -24.035  1.00  0.00     0.025 C 
HETATM    4  C2  UNL     1      -3.899  48.681 -25.266  1.00  0.00    -0.084 C 
HETATM    5  C1  UNL     1      -5.192  48.365 -25.439  1.00  0.00     0.014 C 
HETATM    6  C3  UNL     1      -2.917  48.413 -26.383  1.00  0.00     0.034 C 
HETATM    7  C4  UNL     1      -2.210  49.696 -26.817  1.00  0.00     0.010 C 
HETATM    8  C5  UNL     1      -1.557  50.418 -25.617  1.00  0.00     0.002 C 
HETATM    9  C6  UNL     1      -0.584  51.580 -26.023  1.00  0.00    -0.043 C 
HETATM   10  C12 UNL     1      -2.614  50.736 -24.476  1.00  0.00    -0.032 C 
HETATM   11  C7  UNL     1      -1.234  52.682 -26.881  1.00  0.00     0.015 C 
HETATM   12  C8  UNL     1       0.595  51.016 -26.862  1.00  0.00     0.015 C 
HETATM   13  C9  UNL     1       0.044  52.191 -24.746  1.00  0.00     0.009 C 
HETATM   14  C10 UNL     1      -0.973  52.574 -23.683  1.00  0.00     0.002 C 
HETATM   15  C11 UNL     1      -1.851  51.390 -23.288  1.00  0.00     0.010 C 
HETATM   16  C13 UNL     1      -3.757  51.687 -24.915  1.00  0.00     0.016 C 
ENDBRANCH   2   3
ENDBRANCH   1   2
BRANCH   1  17
HETATM   17  O1  UNL     1      -5.317  47.761 -21.451  1.00  0.00    -0.349 OA
BRANCH  17  18
HETATM   18  C17 UNL     1      -5.684  46.526 -22.064  1.00  0.00     0.292 C 
HETATM   19  O2  UNL     1      -6.926  46.801 -22.745  1.00  0.00    -0.348 OA
HETATM   20  C18 UNL     1      -7.728  45.640 -22.918  1.00  0.00     0.179 C 
HETATM   21  C20 UNL     1      -8.261  45.134 -21.559  1.00  0.00     0.180 C 
HETATM   22  C21 UNL     1      -7.251  45.396 -20.424  1.00  0.00     0.183 C 
HETATM   23  C22 UNL     1      -5.816  45.407 -20.986  1.00  0.00     0.204 C 
BRANCH  20  24
HETATM   24  C19 UNL     1      -8.888  45.953 -23.868  1.00  0.00     0.198 C 
BRANCH  24  25
HETATM   25  O3  UNL     1      -8.484  46.885 -24.872  1.00  0.00    -0.398 OA
HETATM   26  H31 UNL     1      -8.467  47.769 -24.450  1.00  0.00     0.209 HD
ENDBRANCH  24  25
ENDBRANCH  20  24
BRANCH  21  27
HETATM   27  O4  UNL     1      -8.493  43.721 -21.665  1.00  0.00    -0.390 OA
HETATM   28  H33 UNL     1      -9.269  43.635 -22.260  1.00  0.00     0.210 HD
ENDBRANCH  21  27
BRANCH  22  29
HETATM   29  O5  UNL     1      -7.563  46.617 -19.744  1.00  0.00    -0.390 OA
HETATM   30  H35 UNL     1      -7.335  47.361 -20.341  1.00  0.00     0.210 HD
ENDBRANCH  22  29
BRANCH  23  31
HETATM   31  O6  UNL     1      -5.474  44.131 -21.563  1.00  0.00    -0.388 OA
HETATM   32  H37 UNL     1      -6.213  43.510 -21.383  1.00  0.00     0.210 HD
ENDBRANCH  23  31
ENDBRANCH  17  18
ENDBRANCH   1  17
BRANCH   1  33
HETATM   33  C23 UNL     1      -3.190  48.517 -20.535  1.00  0.00    -0.057 C 
HETATM   34  C24 UNL     1      -2.579  47.297 -19.891  1.00  0.00     0.046 C 
HETATM   35  C25 UNL     1      -3.121  49.756 -20.003  1.00  0.00     0.005 C 
BRANCH  35  36
HETATM   36  C26 UNL     1      -2.442  50.203 -18.748  1.00  0.00     0.206 C 
BRANCH  36  37
HETATM   37  O7  UNL     1      -1.034  50.050 -18.950  1.00  0.00    -0.318 OA
BRANCH  37  38
HETATM   38  C27 UNL     1      -0.467  50.858 -19.888  1.00  0.00     0.259 C 
HETATM   39  O8  UNL     1       0.286  50.495 -20.779  1.00  0.00    -0.265 OA
BRANCH  38  40
HETATM   40  C28 UNL     1      -0.943  52.279 -19.668  1.00  0.00     0.115 C 
BRANCH  40  41
HETATM   41  C29 UNL     1       0.166  53.222 -19.180  1.00  0.00    -0.013 C 
HETATM   42  C30 UNL     1       0.983  52.541 -18.082  1.00  0.00     0.010 C 
HETATM   43  C31 UNL     1       1.088  53.646 -20.324  1.00  0.00     0.010 C 
ENDBRANCH  40  41
ENDBRANCH  38  40
ENDBRANCH  37  38
ENDBRANCH  36  37
ENDBRANCH  35  36
ENDBRANCH   1  33
TORSDOF 15
ENDMDL
MODEL 8
REMARK minimizedAffinity -9.37158775
REMARK CNNscore 0.413419008
REMARK CNNaffinity 6.78899384
REMARK  15 active torsions:
REMARK  status: ('A' for Active; 'I' for Inactive)
REMARK    1  A    between atoms: C14_14  and  C15_15 
REMARK    2  A    between atoms: C15_15  and  C16_16 
REMARK    3  A    between atoms: C16_16  and  O1_17 
REMARK    4  A    between atoms: C16_16  and  C23_29 
REMARK    5  A    between atoms: O1_17  and  C17_18 
REMARK    6  A    between atoms: C18_20  and  C19_21 
REMARK    7  A    between atoms: C19_21  and  O3_22 
REMARK    8  A    between atoms: C20_23  and  O4_24 
REMARK    9  A    between atoms: C21_25  and  O5_26 
REMARK   10  A    between atoms: C22_27  and  O6_28 
REMARK   11  A    between atoms: C25_31  and  C26_32 
REMARK   12  A    between atoms: C26_32  and  O7_33 
REMARK   13  A    between atoms: O7_33  and  C27_34 
REMARK   14  A    between atoms: C27_34  and  C28_36 
REMARK   15  A    between atoms: C28_36  and  C29_37 
ROOT
HETATM    1  C16 UNL     1      -0.920  52.392 -22.242  1.00  0.00     0.153 C 
ENDROOT
BRANCH   1   2
HETATM    2  C15 UNL     1      -1.438  50.978 -22.586  1.00  0.00     0.046 C 
BRANCH   2   3
HETATM    3  C14 UNL     1      -2.773  50.591 -21.872  1.00  0.00     0.025 C 
HETATM    4  C2  UNL     1      -3.993  51.450 -22.240  1.00  0.00    -0.084 C 
HETATM    5  C1  UNL     1      -4.093  52.331 -23.247  1.00  0.00     0.014 C 
HETATM    6  C3  UNL     1      -5.191  51.205 -21.353  1.00  0.00     0.034 C 
HETATM    7  C4  UNL     1      -5.597  49.731 -21.367  1.00  0.00     0.010 C 
HETATM    8  C5  UNL     1      -4.405  48.812 -21.018  1.00  0.00     0.002 C 
HETATM    9  C6  UNL     1      -4.808  47.321 -20.740  1.00  0.00    -0.043 C 
HETATM   10  C12 UNL     1      -3.175  49.048 -21.994  1.00  0.00    -0.032 C 
HETATM   11  C7  UNL     1      -5.549  46.635 -21.903  1.00  0.00     0.015 C 
HETATM   12  C8  UNL     1      -5.762  47.250 -19.516  1.00  0.00     0.015 C 
HETATM   13  C9  UNL     1      -3.545  46.513 -20.354  1.00  0.00     0.009 C 
HETATM   14  C10 UNL     1      -2.390  46.672 -21.331  1.00  0.00     0.002 C 
HETATM   15  C11 UNL     1      -2.006  48.137 -21.518  1.00  0.00     0.010 C 
HETATM   16  C13 UNL     1      -3.472  48.735 -23.482  1.00  0.00     0.016 C 
ENDBRANCH   2   3
ENDBRANCH   1   2
BRANCH   1  17
HETATM   17  O1  UNL     1      -0.291  52.917 -23.425  1.00  0.00    -0.349 OA
BRANCH  17  18
HETATM   18  C17 UNL     1      -0.335  52.039 -24.547  1.00  0.00     0.292 C 
HETATM   19  O2  UNL     1       1.041  51.878 -24.951  1.00  0.00    -0.348 OA
HETATM   20  C18 UNL     1       1.177  51.540 -26.325  1.00  0.00     0.179 C 
HETATM   21  C20 UNL     1       0.759  52.724 -27.225  1.00  0.00     0.180 C 
HETATM   22  C21 UNL     1      -0.379  53.545 -26.584  1.00  0.00     0.183 C 
HETATM   23  C22 UNL     1      -1.232  52.642 -25.671  1.00  0.00     0.204 C 
BRANCH  20  24
HETATM   24  C19 UNL     1       2.624  51.130 -26.614  1.00  0.00     0.198 C 
BRANCH  24  25
HETATM   25  O3  UNL     1       3.252  52.069 -27.486  1.00  0.00    -0.398 OA
HETATM   26  H31 UNL     1       2.921  51.886 -28.390  1.00  0.00     0.209 HD
ENDBRANCH  24  25
ENDBRANCH  20  24
BRANCH  21  27
HETATM   27  O4  UNL     1       0.308  52.196 -28.482  1.00  0.00    -0.390 OA
HETATM   28  H33 UNL     1       1.118  51.855 -28.918  1.00  0.00     0.210 HD
ENDBRANCH  21  27
BRANCH  22  29
HETATM   29  O5  UNL     1       0.150  54.670 -25.874  1.00  0.00    -0.390 OA
HETATM   30  H35 UNL     1       0.587  54.336 -25.062  1.00  0.00     0.210 HD
ENDBRANCH  22  29
BRANCH  23  31
HETATM   31  O6  UNL     1      -1.854  51.582 -26.422  1.00  0.00    -0.388 OA
HETATM   32  H37 UNL     1      -1.662  51.731 -27.373  1.00  0.00     0.210 HD
ENDBRANCH  23  31
ENDBRANCH  17  18
ENDBRANCH   1  17
BRANCH   1  33
HETATM   33  C23 UNL     1       0.040  52.458 -21.056  1.00  0.00    -0.057 C 
HETATM   34  C24 UNL     1       1.498  52.381 -21.436  1.00  0.00     0.046 C 
HETATM   35  C25 UNL     1      -0.399  52.484 -19.779  1.00  0.00     0.005 C 
BRANCH  35  36
HETATM   36  C26 UNL     1       0.397  52.477 -18.513  1.00  0.00     0.206 C 
BRANCH  36  37
HETATM   37  O7  UNL     1       0.353  51.145 -17.992  1.00  0.00    -0.318 OA
BRANCH  37  38
HETATM   38  C27 UNL     1       0.782  50.983 -16.709  1.00  0.00     0.259 C 
HETATM   39  O8  UNL     1       0.576  50.003 -16.009  1.00  0.00    -0.265 OA
BRANCH  38  40
HETATM   40  C28 UNL     1       1.580  52.203 -16.298  1.00  0.00     0.115 C 
BRANCH  40  41
HETATM   41  C29 UNL     1       2.975  51.860 -15.756  1.00  0.00    -0.013 C 
HETATM   42  C30 UNL     1       3.979  52.930 -16.186  1.00  0.00     0.010 C 
HETATM   43  C31 UNL     1       2.972  51.735 -14.232  1.00  0.00     0.010 C 
ENDBRANCH  40  41
ENDBRANCH  38  40
ENDBRANCH  37  38
ENDBRANCH  36  37
ENDBRANCH  35  36
ENDBRANCH   1  33
TORSDOF 15
ENDMDL
MODEL 9
REMARK minimizedAffinity -8.22979736
REMARK CNNscore 0.371482074
REMARK CNNaffinity 6.65488005
REMARK  15 active torsions:
REMARK  status: ('A' for Active; 'I' for Inactive)
REMARK    1  A    between atoms: C14_14  and  C15_15 
REMARK    2  A    between atoms: C15_15  and  C16_16 
REMARK    3  A    between atoms: C16_16  and  O1_17 
REMARK    4  A    between atoms: C16_16  and  C23_29 
REMARK    5  A    between atoms: O1_17  and  C17_18 
REMARK    6  A    between atoms: C18_20  and  C19_21 
REMARK    7  A    between atoms: C19_21  and  O3_22 
REMARK    8  A    between atoms: C20_23  and  O4_24 
REMARK    9  A    between atoms: C21_25  and  O5_26 
REMARK   10  A    between atoms: C22_27  and  O6_28 
REMARK   11  A    between atoms: C25_31  and  C26_32 
REMARK   12  A    between atoms: C26_32  and  O7_33 
REMARK   13  A    between atoms: O7_33  and  C27_34 
REMARK   14  A    between atoms: C27_34  and  C28_36 
REMARK   15  A    between atoms: C28_36  and  C29_37 
ROOT
HETATM    1  C16 UNL     1      -2.702  48.160 -21.758  1.00  0.00     0.153 C 
ENDROOT
BRANCH   1   2
HETATM    2  C15 UNL     1      -3.446  49.100 -22.733  1.00  0.00     0.046 C 
BRANCH   2   3
HETATM    3  C14 UNL     1      -2.803  49.194 -24.154  1.00  0.00     0.025 C 
HETATM    4  C2  UNL     1      -3.690  48.719 -25.315  1.00  0.00    -0.084 C 
HETATM    5  C1  UNL     1      -5.004  48.447 -25.275  1.00  0.00     0.014 C 
HETATM    6  C3  UNL     1      -2.950  48.594 -26.626  1.00  0.00     0.034 C 
HETATM    7  C4  UNL     1      -2.288  49.915 -27.014  1.00  0.00     0.010 C 
HETATM    8  C5  UNL     1      -1.390  50.455 -25.878  1.00  0.00     0.002 C 
HETATM    9  C6  UNL     1      -0.467  51.648 -26.306  1.00  0.00    -0.043 C 
HETATM   10  C12 UNL     1      -2.198  50.627 -24.522  1.00  0.00    -0.032 C 
HETATM   11  C7  UNL     1      -1.222  52.868 -26.867  1.00  0.00     0.015 C 
HETATM   12  C8  UNL     1       0.508  51.190 -27.425  1.00  0.00     0.015 C 
HETATM   13  C9  UNL     1       0.417  52.068 -25.105  1.00  0.00     0.009 C 
HETATM   14  C10 UNL     1      -0.363  52.314 -23.824  1.00  0.00     0.002 C 
HETATM   15  C11 UNL     1      -1.197  51.100 -23.427  1.00  0.00     0.010 C 
HETATM   16  C13 UNL     1      -3.364  51.645 -24.600  1.00  0.00     0.016 C 
ENDBRANCH   2   3
ENDBRANCH   1   2
BRANCH   1  17
HETATM   17  O1  UNL     1      -3.612  47.104 -21.403  1.00  0.00    -0.349 OA
BRANCH  17  18
HETATM   18  C17 UNL     1      -4.964  47.347 -21.786  1.00  0.00     0.292 C 
HETATM   19  O2  UNL     1      -5.446  48.334 -20.852  1.00  0.00    -0.348 OA
HETATM   20  C18 UNL     1      -6.857  48.292 -20.684  1.00  0.00     0.179 C 
HETATM   21  C20 UNL     1      -7.285  46.994 -19.962  1.00  0.00     0.180 C 
HETATM   22  C21 UNL     1      -6.364  45.814 -20.333  1.00  0.00     0.183 C 
HETATM   23  C22 UNL     1      -5.783  46.020 -21.745  1.00  0.00     0.204 C 
BRANCH  20  24
HETATM   24  C19 UNL     1      -7.319  49.522 -19.896  1.00  0.00     0.198 C 
BRANCH  24  25
HETATM   25  O3  UNL     1      -6.686  50.704 -20.385  1.00  0.00    -0.398 OA
HETATM   26  H31 UNL     1      -5.772  50.705 -20.032  1.00  0.00     0.209 HD
ENDBRANCH  24  25
ENDBRANCH  20  24
BRANCH  21  27
HETATM   27  O4  UNL     1      -8.630  46.683 -20.357  1.00  0.00    -0.390 OA
HETATM   28  H33 UNL     1      -9.184  47.372 -19.932  1.00  0.00     0.210 HD
ENDBRANCH  21  27
BRANCH  22  29
HETATM   29  O5  UNL     1      -5.332  45.654 -19.353  1.00  0.00    -0.390 OA
HETATM   30  H35 UNL     1      -4.698  46.396 -19.459  1.00  0.00     0.210 HD
ENDBRANCH  22  29
BRANCH  23  31
HETATM   31  O6  UNL     1      -6.828  46.061 -22.736  1.00  0.00    -0.388 OA
HETATM   32  H37 UNL     1      -7.678  45.855 -22.289  1.00  0.00     0.210 HD
ENDBRANCH  23  31
ENDBRANCH  17  18
ENDBRANCH   1  17
BRANCH   1  33
HETATM   33  C23 UNL     1      -2.153  48.834 -20.503  1.00  0.00    -0.057 C 
HETATM   34  C24 UNL     1      -1.788  47.875 -19.396  1.00  0.00     0.046 C 
HETATM   35  C25 UNL     1      -2.098  50.178 -20.375  1.00  0.00     0.005 C 
BRANCH  35  36
HETATM   36  C26 UNL     1      -1.661  50.992 -19.200  1.00  0.00     0.206 C 
BRANCH  36  37
HETATM   37  O7  UNL     1      -0.231  50.944 -19.158  1.00  0.00    -0.318 OA
BRANCH  37  38
HETATM   38  C27 UNL     1       0.339  50.983 -17.922  1.00  0.00     0.259 C 
HETATM   39  O8  UNL     1       0.480  50.029 -17.173  1.00  0.00    -0.265 OA
BRANCH  38  40
HETATM   40  C28 UNL     1       0.799  52.398 -17.635  1.00  0.00     0.115 C 
BRANCH  40  41
HETATM   41  C29 UNL     1       1.398  52.567 -16.231  1.00  0.00    -0.013 C 
HETATM   42  C30 UNL     1       0.532  51.839 -15.203  1.00  0.00     0.010 C 
HETATM   43  C31 UNL     1       2.833  52.042 -16.165  1.00  0.00     0.010 C 
ENDBRANCH  40  41
ENDBRANCH  38  40
ENDBRANCH  37  38
ENDBRANCH  36  37
ENDBRANCH  35  36
ENDBRANCH   1  33
TORSDOF 15
ENDMDL
