MODEL 1
REMARK minimizedAffinity -9.50959301
REMARK CNNscore 0.736931384
REMARK CNNaffinity 7.28054476
REMARK  5 active torsions:
REMARK  status: ('A' for Active; 'I' for Inactive)
REMARK    1  A    between atoms: C2_2  and  C4_4 
REMARK    2  A    between atoms: C7_7  and  C8_8 
REMARK    3  A    between atoms: C8_8  and  O2_10 
REMARK    4  A    between atoms: C11_13  and  C12_14 
REMARK    5  A    between atoms: C12_14  and  O4_16 
ROOT
HETATM    1  C4  UNL     1       1.787   8.007   9.549  1.00  0.00     0.019 C 
HETATM    2  C5  UNL     1       2.508   6.654   9.498  1.00  0.00     0.011 C 
HETATM    3  C6  UNL     1       3.324   6.551  10.790  1.00  0.00     0.021 C 
HETATM    4  C7  UNL     1       2.945   7.759  11.670  1.00  0.00     0.050 C 
HETATM    5  C9  UNL     1       2.776   7.359  13.145  1.00  0.00     0.022 C 
HETATM    6  C10 UNL     1       1.544   6.520  13.527  1.00  0.00     0.023 C 
HETATM    7  C11 UNL     1       0.276   6.602  12.595  1.00  0.00     0.057 C 
HETATM    8  C13 UNL     1       0.383   8.012  11.931  1.00  0.00     0.011 C 
HETATM    9  C14 UNL     1      -0.947   8.504  11.408  1.00  0.00     0.007 C 
HETATM   10  C15 UNL     1      -1.919   8.717  12.566  1.00  0.00     0.006 C 
HETATM   11  C16 UNL     1      -1.767   7.791  13.824  1.00  0.00     0.003 C 
HETATM   12  C17 UNL     1      -3.153   7.734  14.634  1.00  0.00    -0.035 C 
HETATM   13  C18 UNL     1      -2.887   7.178  16.057  1.00  0.00     0.016 C 
HETATM   14  C19 UNL     1      -3.745   9.166  14.825  1.00  0.00     0.017 C 
HETATM   15  C20 UNL     1      -5.137   9.188  15.448  1.00  0.00     0.080 C 
HETATM   16  C21 UNL     1      -6.101   8.298  14.698  1.00  0.00     0.135 C 
HETATM   17  O5  UNL     1      -7.234   8.710  14.435  1.00  0.00    -0.297 OA
HETATM   18  C22 UNL     1      -5.657   6.857  14.380  1.00  0.00     0.017 C 
HETATM   19  C23 UNL     1      -5.846   6.004  15.642  1.00  0.00     0.023 C 
HETATM   20  C24 UNL     1      -6.622   6.291  13.306  1.00  0.00     0.023 C 
HETATM   21  C25 UNL     1      -4.196   6.901  13.805  1.00  0.00     0.009 C 
HETATM   22  C26 UNL     1      -3.629   5.533  13.381  1.00  0.00     0.007 C 
HETATM   23  C27 UNL     1      -2.273   5.636  12.652  1.00  0.00     0.011 C 
HETATM   24  C28 UNL     1      -1.145   6.387  13.437  1.00  0.00    -0.022 C 
HETATM   25  C29 UNL     1      -0.817   5.471  14.655  1.00  0.00     0.017 C 
HETATM   26  C30 UNL     1       1.640   8.345  11.061  1.00  0.00     0.018 C 
ENDROOT
BRANCH   4  27
HETATM   27  C8  UNL     1       4.055   8.826  11.625  1.00  0.00     0.149 C 
HETATM   28  O1  UNL     1       5.095   8.768  10.980  1.00  0.00    -0.649 OA
BRANCH  27  29
HETATM   29  O2  UNL     1       3.831   9.901  12.409  1.00  0.00    -0.776 OA
HETATM   30  H11 UNL     1       4.623  10.461  12.266  1.00  0.00     0.167 HD
ENDBRANCH  27  29
ENDBRANCH   4  27
BRANCH   1  31
HETATM   31  C2  UNL     1       0.637   8.273   8.597  1.00  0.00    -0.088 C 
HETATM   32  C1  UNL     1      -0.524   8.864   8.931  1.00  0.00     0.014 C 
HETATM   33  C3  UNL     1       0.800   7.701   7.208  1.00  0.00     0.043 C 
ENDBRANCH   1  31
BRANCH   7  34
HETATM   34  C12 UNL     1       0.363   5.427  11.615  1.00  0.00     0.149 C 
HETATM   35  O3  UNL     1       1.239   5.228  10.789  1.00  0.00    -0.649 OA
BRANCH  34  36
HETATM   36  O4  UNL     1      -0.591   4.498  11.774  1.00  0.00    -0.776 OA
HETATM   37  H16 UNL     1      -0.347   3.799  11.133  1.00  0.00     0.167 HD
ENDBRANCH  34  36
ENDBRANCH   7  34
TORSDOF 5
ENDMDL
MODEL 2
REMARK minimizedAffinity -8.65001488
REMARK CNNscore 0.427562445
REMARK CNNaffinity 6.91940737
REMARK  5 active torsions:
REMARK  status: ('A' for Active; 'I' for Inactive)
REMARK    1  A    between atoms: C2_2  and  C4_4 
REMARK    2  A    between atoms: C7_7  and  C8_8 
REMARK    3  A    between atoms: C8_8  and  O2_10 
REMARK    4  A    between atoms: C11_13  and  C12_14 
REMARK    5  A    between atoms: C12_14  and  O4_16 
ROOT
HETATM    1  C4  UNL     1       0.918   8.629  11.529  1.00  0.00     0.019 C 
HETATM    2  C5  UNL     1       2.004   7.624  11.935  1.00  0.00     0.011 C 
HETATM    3  C6  UNL     1       2.230   7.815  13.437  1.00  0.00     0.021 C 
HETATM    4  C7  UNL     1       1.158   8.804  13.940  1.00  0.00     0.050 C 
HETATM    5  C9  UNL     1       0.565   8.363  15.289  1.00  0.00     0.022 C 
HETATM    6  C10 UNL     1      -0.363   7.137  15.301  1.00  0.00     0.023 C 
HETATM    7  C11 UNL     1      -1.111   6.762  13.965  1.00  0.00     0.057 C 
HETATM    8  C13 UNL     1      -1.225   8.120  13.201  1.00  0.00     0.011 C 
HETATM    9  C14 UNL     1      -2.323   8.105  12.162  1.00  0.00     0.007 C 
HETATM   10  C15 UNL     1      -3.682   7.951  12.838  1.00  0.00     0.006 C 
HETATM   11  C16 UNL     1      -3.741   7.135  14.178  1.00  0.00     0.003 C 
HETATM   12  C17 UNL     1      -5.229   6.582  14.419  1.00  0.00    -0.035 C 
HETATM   13  C18 UNL     1      -5.378   6.152  15.902  1.00  0.00     0.016 C 
HETATM   14  C19 UNL     1      -6.287   7.706  14.179  1.00  0.00     0.017 C 
HETATM   15  C20 UNL     1      -7.733   7.225  14.236  1.00  0.00     0.080 C 
HETATM   16  C21 UNL     1      -7.969   6.052  13.313  1.00  0.00     0.135 C 
HETATM   17  O5  UNL     1      -8.974   6.031  12.597  1.00  0.00    -0.297 OA
HETATM   18  C22 UNL     1      -6.986   4.867  13.383  1.00  0.00     0.017 C 
HETATM   19  C23 UNL     1      -7.363   3.997  14.591  1.00  0.00     0.023 C 
HETATM   20  C24 UNL     1      -7.204   3.998  12.118  1.00  0.00     0.023 C 
HETATM   21  C25 UNL     1      -5.522   5.434  13.387  1.00  0.00     0.009 C 
HETATM   22  C26 UNL     1      -4.416   4.362  13.395  1.00  0.00     0.007 C 
HETATM   23  C27 UNL     1      -3.000   4.947  13.210  1.00  0.00     0.011 C 
HETATM   24  C28 UNL     1      -2.590   6.049  14.245  1.00  0.00    -0.022 C 
HETATM   25  C29 UNL     1      -2.485   5.306  15.612  1.00  0.00     0.017 C 
HETATM   26  C30 UNL     1       0.085   8.885  12.819  1.00  0.00     0.018 C 
ENDROOT
BRANCH   4  27
HETATM   27  C8  UNL     1       1.775  10.198  14.161  1.00  0.00     0.149 C 
HETATM   28  O1  UNL     1       1.572  10.941  15.114  1.00  0.00    -0.649 OA
BRANCH  27  29
HETATM   29  O2  UNL     1       2.593  10.611  13.170  1.00  0.00    -0.776 OA
HETATM   30  H11 UNL     1       2.883  11.500  13.467  1.00  0.00     0.167 HD
ENDBRANCH  27  29
ENDBRANCH   4  27
BRANCH   1  31
HETATM   31  C2  UNL     1       0.218   8.469  10.193  1.00  0.00    -0.088 C 
HETATM   32  C1  UNL     1      -0.890   9.130   9.816  1.00  0.00     0.014 C 
HETATM   33  C3  UNL     1       0.769   7.382   9.300  1.00  0.00     0.043 C 
ENDBRANCH   1  31
BRANCH   7  34
HETATM   34  C12 UNL     1      -0.263   5.701  13.259  1.00  0.00     0.149 C 
HETATM   35  O3  UNL     1      -0.244   5.458  12.062  1.00  0.00    -0.649 OA
BRANCH  34  36
HETATM   36  O4  UNL     1       0.600   5.056  14.057  1.00  0.00    -0.776 OA
HETATM   37  H16 UNL     1       1.103   4.481  13.443  1.00  0.00     0.167 HD
ENDBRANCH  34  36
ENDBRANCH   7  34
TORSDOF 5
ENDMDL
MODEL 3
REMARK minimizedAffinity -7.61666107
REMARK CNNscore 0.374433577
REMARK CNNaffinity 6.19952822
REMARK  5 active torsions:
REMARK  status: ('A' for Active; 'I' for Inactive)
REMARK    1  A    between atoms: C2_2  and  C4_4 
REMARK    2  A    between atoms: C7_7  and  C8_8 
REMARK    3  A    between atoms: C8_8  and  O2_10 
REMARK    4  A    between atoms: C11_13  and  C12_14 
REMARK    5  A    between atoms: C12_14  and  O4_16 
ROOT
HETATM    1  C4  UNL     1       7.795  12.284  14.634  1.00  0.00     0.019 C 
HETATM    2  C5  UNL     1       9.159  11.586  14.560  1.00  0.00     0.011 C 
HETATM    3  C6  UNL     1       9.092  10.402  15.529  1.00  0.00     0.021 C 
HETATM    4  C7  UNL     1       7.638  10.306  16.035  1.00  0.00     0.050 C 
HETATM    5  C9  UNL     1       7.149   8.849  16.088  1.00  0.00     0.022 C 
HETATM    6  C10 UNL     1       6.877   8.132  14.754  1.00  0.00     0.023 C 
HETATM    7  C11 UNL     1       6.545   9.017  13.493  1.00  0.00     0.057 C 
HETATM    8  C13 UNL     1       5.926  10.319  14.096  1.00  0.00     0.011 C 
HETATM    9  C14 UNL     1       5.086  11.075  13.092  1.00  0.00     0.007 C 
HETATM   10  C15 UNL     1       3.871  10.243  12.692  1.00  0.00     0.006 C 
HETATM   11  C16 UNL     1       4.024   8.680  12.697  1.00  0.00     0.003 C 
HETATM   12  C17 UNL     1       2.927   8.018  11.730  1.00  0.00    -0.035 C 
HETATM   13  C18 UNL     1       2.810   6.506  12.054  1.00  0.00     0.016 C 
HETATM   14  C19 UNL     1       1.514   8.633  11.986  1.00  0.00     0.017 C 
HETATM   15  C20 UNL     1       0.444   8.170  11.003  1.00  0.00     0.080 C 
HETATM   16  C21 UNL     1       0.874   8.378   9.569  1.00  0.00     0.135 C 
HETATM   17  O5  UNL     1       0.080   8.863   8.758  1.00  0.00    -0.297 OA
HETATM   18  C22 UNL     1       2.269   7.871   9.152  1.00  0.00     0.017 C 
HETATM   19  C23 UNL     1       2.181   6.358   8.910  1.00  0.00     0.023 C 
HETATM   20  C24 UNL     1       2.619   8.524   7.790  1.00  0.00     0.023 C 
HETATM   21  C25 UNL     1       3.309   8.325  10.237  1.00  0.00     0.009 C 
HETATM   22  C26 UNL     1       4.769   7.942   9.929  1.00  0.00     0.007 C 
HETATM   23  C27 UNL     1       5.781   8.562  10.916  1.00  0.00     0.011 C 
HETATM   24  C28 UNL     1       5.523   8.245  12.428  1.00  0.00    -0.022 C 
HETATM   25  C29 UNL     1       5.785   6.716  12.575  1.00  0.00     0.017 C 
HETATM   26  C30 UNL     1       6.787  11.183  15.075  1.00  0.00     0.018 C 
ENDROOT
BRANCH   4  27
HETATM   27  C8  UNL     1       7.530  10.861  17.468  1.00  0.00     0.149 C 
HETATM   28  O1  UNL     1       7.332  10.212  18.488  1.00  0.00    -0.649 OA
BRANCH  27  29
HETATM   29  O2  UNL     1       7.645  12.203  17.558  1.00  0.00    -0.776 OA
HETATM   30  H11 UNL     1       7.547  12.379  18.518  1.00  0.00     0.167 HD
ENDBRANCH  27  29
ENDBRANCH   4  27
BRANCH   1  31
HETATM   31  C2  UNL     1       7.409  13.278  13.556  1.00  0.00    -0.088 C 
HETATM   32  C1  UNL     1       6.355  14.111  13.612  1.00  0.00     0.014 C 
HETATM   33  C3  UNL     1       8.224  13.205  12.286  1.00  0.00     0.043 C 
ENDBRANCH   1  31
BRANCH   7  34
HETATM   34  C12 UNL     1       7.858   9.227  12.734  1.00  0.00     0.149 C 
HETATM   35  O3  UNL     1       8.112  10.127  11.949  1.00  0.00    -0.649 OA
BRANCH  34  36
HETATM   36  O4  UNL     1       8.834   8.367  13.061  1.00  0.00    -0.776 OA
HETATM   37  H16 UNL     1       9.607   8.684  12.550  1.00  0.00     0.167 HD
ENDBRANCH  34  36
ENDBRANCH   7  34
TORSDOF 5
ENDMDL
MODEL 4
REMARK minimizedAffinity -6.1854105
REMARK CNNscore 0.330348998
REMARK CNNaffinity 5.36232996
REMARK  5 active torsions:
REMARK  status: ('A' for Active; 'I' for Inactive)
REMARK    1  A    between atoms: C2_2  and  C4_4 
REMARK    2  A    between atoms: C7_7  and  C8_8 
REMARK    3  A    between atoms: C8_8  and  O2_10 
REMARK    4  A    between atoms: C11_13  and  C12_14 
REMARK    5  A    between atoms: C12_14  and  O4_16 
ROOT
HETATM    1  C4  UNL     1     -15.775   7.817  14.813  1.00  0.00     0.019 C 
HETATM    2  C5  UNL     1     -17.076   8.499  15.255  1.00  0.00     0.011 C 
HETATM    3  C6  UNL     1     -18.043   8.392  14.071  1.00  0.00     0.021 C 
HETATM    4  C7  UNL     1     -17.370   7.500  13.009  1.00  0.00     0.050 C 
HETATM    5  C9  UNL     1     -18.367   6.510  12.384  1.00  0.00     0.022 C 
HETATM    6  C10 UNL     1     -18.862   5.340  13.252  1.00  0.00     0.023 C 
HETATM    7  C11 UNL     1     -17.950   4.872  14.450  1.00  0.00     0.057 C 
HETATM    8  C13 UNL     1     -16.507   5.275  14.008  1.00  0.00     0.011 C 
HETATM    9  C14 UNL     1     -15.442   4.491  14.740  1.00  0.00     0.007 C 
HETATM   10  C15 UNL     1     -15.536   3.012  14.376  1.00  0.00     0.006 C 
HETATM   11  C16 UNL     1     -16.955   2.436  14.027  1.00  0.00     0.003 C 
HETATM   12  C17 UNL     1     -16.973   0.846  14.252  1.00  0.00    -0.035 C 
HETATM   13  C18 UNL     1     -18.205   0.245  13.527  1.00  0.00     0.016 C 
HETATM   14  C19 UNL     1     -15.715   0.179  13.610  1.00  0.00     0.017 C 
HETATM   15  C20 UNL     1     -15.576  -1.310  13.912  1.00  0.00     0.080 C 
HETATM   16  C21 UNL     1     -15.641  -1.588  15.396  1.00  0.00     0.135 C 
HETATM   17  O5  UNL     1     -14.829  -2.364  15.907  1.00  0.00    -0.297 OA
HETATM   18  C22 UNL     1     -16.798  -0.964  16.200  1.00  0.00     0.017 C 
HETATM   19  C23 UNL     1     -18.054  -1.819  15.981  1.00  0.00     0.023 C 
HETATM   20  C24 UNL     1     -16.439  -1.070  17.704  1.00  0.00     0.023 C 
HETATM   21  C25 UNL     1     -16.928   0.547  15.794  1.00  0.00     0.009 C 
HETATM   22  C26 UNL     1     -18.012   1.329  16.561  1.00  0.00     0.007 C 
HETATM   23  C27 UNL     1     -17.986   2.845  16.273  1.00  0.00     0.011 C 
HETATM   24  C28 UNL     1     -18.103   3.243  14.762  1.00  0.00    -0.022 C 
HETATM   25  C29 UNL     1     -19.547   2.833  14.343  1.00  0.00     0.017 C 
HETATM   26  C30 UNL     1     -16.194   6.782  13.729  1.00  0.00     0.018 C 
ENDROOT
BRANCH   4  27
HETATM   27  C8  UNL     1     -16.817   8.359  11.856  1.00  0.00     0.149 C 
HETATM   28  O1  UNL     1     -16.004   8.007  11.010  1.00  0.00    -0.649 OA
BRANCH  27  29
HETATM   29  O2  UNL     1     -17.280   9.627  11.832  1.00  0.00    -0.776 OA
HETATM   30  H11 UNL     1     -16.829  10.022  11.056  1.00  0.00     0.167 HD
ENDBRANCH  27  29
ENDBRANCH   4  27
BRANCH   1  31
HETATM   31  C2  UNL     1     -14.740   7.444  15.857  1.00  0.00    -0.088 C 
HETATM   32  C1  UNL     1     -14.978   7.321  17.174  1.00  0.00     0.014 C 
HETATM   33  C3  UNL     1     -13.320   7.337  15.352  1.00  0.00     0.043 C 
ENDBRANCH   1  31
BRANCH   7  34
HETATM   34  C12 UNL     1     -18.457   5.587  15.705  1.00  0.00     0.149 C 
HETATM   35  O3  UNL     1     -17.822   5.813  16.724  1.00  0.00    -0.649 OA
BRANCH  34  36
HETATM   36  O4  UNL     1     -19.700   6.080  15.603  1.00  0.00    -0.776 OA
HETATM   37  H16 UNL     1     -19.833   6.559  16.447  1.00  0.00     0.167 HD
ENDBRANCH  34  36
ENDBRANCH   7  34
TORSDOF 5
ENDMDL
MODEL 5
REMARK minimizedAffinity -6.92011929
REMARK CNNscore 0.294009507
REMARK CNNaffinity 5.64166832
REMARK  5 active torsions:
REMARK  status: ('A' for Active; 'I' for Inactive)
REMARK    1  A    between atoms: C2_2  and  C4_4 
REMARK    2  A    between atoms: C7_7  and  C8_8 
REMARK    3  A    between atoms: C8_8  and  O2_10 
REMARK    4  A    between atoms: C11_13  and  C12_14 
REMARK    5  A    between atoms: C12_14  and  O4_16 
ROOT
HETATM    1  C4  UNL     1       4.880  11.084  21.976  1.00  0.00     0.019 C 
HETATM    2  C5  UNL     1       5.298  12.456  22.521  1.00  0.00     0.011 C 
HETATM    3  C6  UNL     1       5.985  13.188  21.364  1.00  0.00     0.021 C 
HETATM    4  C7  UNL     1       5.814  12.316  20.104  1.00  0.00     0.050 C 
HETATM    5  C9  UNL     1       5.466  13.164  18.869  1.00  0.00     0.022 C 
HETATM    6  C10 UNL     1       4.062  13.788  18.796  1.00  0.00     0.023 C 
HETATM    7  C11 UNL     1       2.905  13.101  19.618  1.00  0.00     0.057 C 
HETATM    8  C13 UNL     1       3.354  11.609  19.732  1.00  0.00     0.011 C 
HETATM    9  C14 UNL     1       2.197  10.681  20.023  1.00  0.00     0.007 C 
HETATM   10  C15 UNL     1       1.218  10.680  18.852  1.00  0.00     0.006 C 
HETATM   11  C16 UNL     1       1.084  12.001  18.013  1.00  0.00     0.003 C 
HETATM   12  C17 UNL     1      -0.333  12.031  17.258  1.00  0.00    -0.035 C 
HETATM   13  C18 UNL     1      -0.287  13.098  16.134  1.00  0.00     0.016 C 
HETATM   14  C19 UNL     1      -0.618  10.664  16.556  1.00  0.00     0.017 C 
HETATM   15  C20 UNL     1      -2.012  10.556  15.947  1.00  0.00     0.080 C 
HETATM   16  C21 UNL     1      -3.091  10.885  16.953  1.00  0.00     0.135 C 
HETATM   17  O5  UNL     1      -4.090  10.165  17.033  1.00  0.00    -0.297 OA
HETATM   18  C22 UNL     1      -2.943  12.181  17.774  1.00  0.00     0.017 C 
HETATM   19  C23 UNL     1      -3.393  13.360  16.900  1.00  0.00     0.023 C 
HETATM   20  C24 UNL     1      -3.933  12.100  18.965  1.00  0.00     0.023 C 
HETATM   21  C25 UNL     1      -1.472  12.262  18.316  1.00  0.00     0.009 C 
HETATM   22  C26 UNL     1      -1.182  13.481  19.211  1.00  0.00     0.007 C 
HETATM   23  C27 UNL     1       0.211  13.432  19.874  1.00  0.00     0.011 C 
HETATM   24  C28 UNL     1       1.418  13.278  18.888  1.00  0.00    -0.022 C 
HETATM   25  C29 UNL     1       1.462  14.614  18.086  1.00  0.00     0.017 C 
HETATM   26  C30 UNL     1       4.708  11.279  20.442  1.00  0.00     0.018 C 
ENDROOT
BRANCH   4  27
HETATM   27  C8  UNL     1       7.127  11.578  19.779  1.00  0.00     0.149 C 
HETATM   28  O1  UNL     1       8.240  11.844  20.217  1.00  0.00    -0.649 OA
BRANCH  27  29
HETATM   29  O2  UNL     1       6.995  10.563  18.899  1.00  0.00    -0.776 OA
HETATM   30  H11 UNL     1       7.909  10.219  18.805  1.00  0.00     0.167 HD
ENDBRANCH  27  29
ENDBRANCH   4  27
BRANCH   1  31
HETATM   31  C2  UNL     1       3.879  10.250  22.752  1.00  0.00    -0.088 C 
HETATM   32  C1  UNL     1       3.611   8.952  22.525  1.00  0.00     0.014 C 
HETATM   33  C3  UNL     1       3.051  11.007  23.764  1.00  0.00     0.043 C 
ENDBRANCH   1  31
BRANCH   7  34
HETATM   34  C12 UNL     1       2.805  13.842  20.955  1.00  0.00     0.149 C 
HETATM   35  O3  UNL     1       3.260  14.945  21.215  1.00  0.00    -0.649 OA
BRANCH  34  36
HETATM   36  O4  UNL     1       2.058  13.222  21.880  1.00  0.00    -0.776 OA
HETATM   37  H16 UNL     1       2.040  13.854  22.629  1.00  0.00     0.167 HD
ENDBRANCH  34  36
ENDBRANCH   7  34
TORSDOF 5
ENDMDL
MODEL 6
REMARK minimizedAffinity -5.80536747
REMARK CNNscore 0.29319647
REMARK CNNaffinity 5.64823389
REMARK  5 active torsions:
REMARK  status: ('A' for Active; 'I' for Inactive)
REMARK    1  A    between atoms: C2_2  and  C4_4 
REMARK    2  A    between atoms: C7_7  and  C8_8 
REMARK    3  A    between atoms: C8_8  and  O2_10 
REMARK    4  A    between atoms: C11_13  and  C12_14 
REMARK    5  A    between atoms: C12_14  and  O4_16 
ROOT
HETATM    1  C4  UNL     1     -18.955  -0.864  14.357  1.00  0.00     0.019 C 
HETATM    2  C5  UNL     1     -18.013   0.267  14.789  1.00  0.00     0.011 C 
HETATM    3  C6  UNL     1     -17.008  -0.356  15.762  1.00  0.00     0.021 C 
HETATM    4  C7  UNL     1     -17.255  -1.879  15.763  1.00  0.00     0.050 C 
HETATM    5  C9  UNL     1     -15.935  -2.668  15.753  1.00  0.00     0.022 C 
HETATM    6  C10 UNL     1     -15.102  -2.664  14.460  1.00  0.00     0.023 C 
HETATM    7  C11 UNL     1     -15.851  -2.386  13.100  1.00  0.00     0.057 C 
HETATM    8  C13 UNL     1     -17.315  -2.859  13.370  1.00  0.00     0.011 C 
HETATM    9  C14 UNL     1     -18.067  -3.158  12.093  1.00  0.00     0.007 C 
HETATM   10  C15 UNL     1     -17.427  -4.342  11.373  1.00  0.00     0.006 C 
HETATM   11  C16 UNL     1     -15.879  -4.546  11.539  1.00  0.00     0.003 C 
HETATM   12  C17 UNL     1     -15.303  -5.407  10.312  1.00  0.00    -0.035 C 
HETATM   13  C18 UNL     1     -13.899  -5.948  10.686  1.00  0.00     0.016 C 
HETATM   14  C19 UNL     1     -16.199  -6.657  10.041  1.00  0.00     0.017 C 
HETATM   15  C20 UNL     1     -15.810  -7.445   8.794  1.00  0.00     0.080 C 
HETATM   16  C21 UNL     1     -15.734  -6.557   7.572  1.00  0.00     0.135 C 
HETATM   17  O5  UNL     1     -16.240  -6.934   6.512  1.00  0.00    -0.297 OA
HETATM   18  C22 UNL     1     -14.925  -5.250   7.679  1.00  0.00     0.017 C 
HETATM   19  C23 UNL     1     -13.436  -5.589   7.530  1.00  0.00     0.023 C 
HETATM   20  C24 UNL     1     -15.306  -4.360   6.468  1.00  0.00     0.023 C 
HETATM   21  C25 UNL     1     -15.324  -4.523   9.012  1.00  0.00     0.009 C 
HETATM   22  C26 UNL     1     -14.639  -3.162   9.235  1.00  0.00     0.007 C 
HETATM   23  C27 UNL     1     -15.192  -2.395  10.454  1.00  0.00     0.011 C 
HETATM   24  C28 UNL     1     -15.141  -3.171  11.814  1.00  0.00    -0.022 C 
HETATM   25  C29 UNL     1     -13.624  -3.311  12.148  1.00  0.00     0.017 C 
HETATM   26  C30 UNL     1     -18.132  -2.175  14.515  1.00  0.00     0.018 C 
ENDROOT
BRANCH   4  27
HETATM   27  C8  UNL     1     -18.013  -2.300  17.035  1.00  0.00     0.149 C 
HETATM   28  O1  UNL     1     -18.707  -3.300  17.172  1.00  0.00    -0.649 OA
BRANCH  27  29
HETATM   29  O2  UNL     1     -17.896  -1.438  18.067  1.00  0.00    -0.776 OA
HETATM   30  H11 UNL     1     -18.436  -1.850  18.775  1.00  0.00     0.167 HD
ENDBRANCH  27  29
ENDBRANCH   4  27
BRANCH   1  31
HETATM   31  C2  UNL     1     -19.845  -0.669  13.144  1.00  0.00    -0.088 C 
HETATM   32  C1  UNL     1     -19.645   0.243  12.176  1.00  0.00     0.014 C 
HETATM   33  C3  UNL     1     -21.108  -1.497  13.127  1.00  0.00     0.043 C 
ENDBRANCH   1  31
BRANCH   7  34
HETATM   34  C12 UNL     1     -15.707  -0.890  12.807  1.00  0.00     0.149 C 
HETATM   35  O3  UNL     1     -14.954  -0.106  13.364  1.00  0.00    -0.649 OA
BRANCH  34  36
HETATM   36  O4  UNL     1     -16.432  -0.453  11.767  1.00  0.00    -0.776 OA
HETATM   37  H16 UNL     1     -16.170   0.486  11.676  1.00  0.00     0.167 HD
ENDBRANCH  34  36
ENDBRANCH   7  34
TORSDOF 5
ENDMDL
MODEL 7
REMARK minimizedAffinity -6.37536812
REMARK CNNscore 0.254013956
REMARK CNNaffinity 5.02427912
REMARK  5 active torsions:
REMARK  status: ('A' for Active; 'I' for Inactive)
REMARK    1  A    between atoms: C2_2  and  C4_4 
REMARK    2  A    between atoms: C7_7  and  C8_8 
REMARK    3  A    between atoms: C8_8  and  O2_10 
REMARK    4  A    between atoms: C11_13  and  C12_14 
REMARK    5  A    between atoms: C12_14  and  O4_16 
ROOT
HETATM    1  C4  UNL     1     -16.809  -2.105  13.821  1.00  0.00     0.019 C 
HETATM    2  C5  UNL     1     -18.247  -2.444  14.234  1.00  0.00     0.011 C 
HETATM    3  C6  UNL     1     -18.298  -2.322  15.759  1.00  0.00     0.021 C 
HETATM    4  C7  UNL     1     -16.944  -1.746  16.219  1.00  0.00     0.050 C 
HETATM    5  C9  UNL     1     -17.121  -0.681  17.314  1.00  0.00     0.022 C 
HETATM    6  C10 UNL     1     -17.717   0.678  16.908  1.00  0.00     0.023 C 
HETATM    7  C11 UNL     1     -17.574   1.127  15.403  1.00  0.00     0.057 C 
HETATM    8  C13 UNL     1     -16.293   0.385  14.906  1.00  0.00     0.011 C 
HETATM    9  C14 UNL     1     -15.686   1.041  13.686  1.00  0.00     0.007 C 
HETATM   10  C15 UNL     1     -15.186   2.440  14.038  1.00  0.00     0.006 C 
HETATM   11  C16 UNL     1     -15.954   3.228  15.158  1.00  0.00     0.003 C 
HETATM   12  C17 UNL     1     -15.705   4.805  14.989  1.00  0.00    -0.035 C 
HETATM   13  C18 UNL     1     -16.104   5.526  16.302  1.00  0.00     0.016 C 
HETATM   14  C19 UNL     1     -14.189   5.108  14.764  1.00  0.00     0.017 C 
HETATM   15  C20 UNL     1     -13.886   6.567  14.439  1.00  0.00     0.080 C 
HETATM   16  C21 UNL     1     -14.718   7.068  13.281  1.00  0.00     0.135 C 
HETATM   17  O5  UNL     1     -14.184   7.734  12.390  1.00  0.00    -0.297 OA
HETATM   18  C22 UNL     1     -16.237   6.811  13.317  1.00  0.00     0.017 C 
HETATM   19  C23 UNL     1     -16.883   7.856  14.236  1.00  0.00     0.023 C 
HETATM   20  C24 UNL     1     -16.791   7.062  11.891  1.00  0.00     0.023 C 
HETATM   21  C25 UNL     1     -16.479   5.312  13.719  1.00  0.00     0.009 C 
HETATM   22  C26 UNL     1     -17.957   4.882  13.741  1.00  0.00     0.007 C 
HETATM   23  C27 UNL     1     -18.147   3.366  13.956  1.00  0.00     0.011 C 
HETATM   24  C28 UNL     1     -17.471   2.781  15.243  1.00  0.00    -0.022 C 
HETATM   25  C29 UNL     1     -18.259   3.404  16.435  1.00  0.00     0.017 C 
HETATM   26  C30 UNL     1     -16.260  -1.179  14.944  1.00  0.00     0.018 C 
ENDROOT
BRANCH   4  27
HETATM   27  C8  UNL     1     -16.063  -2.858  16.821  1.00  0.00     0.149 C 
HETATM   28  O1  UNL     1     -15.162  -3.461  16.252  1.00  0.00    -0.649 OA
BRANCH  27  29
HETATM   29  O2  UNL     1     -16.369  -3.186  18.094  1.00  0.00    -0.776 OA
HETATM   30  H11 UNL     1     -15.729  -3.898  18.309  1.00  0.00     0.167 HD
ENDBRANCH  27  29
ENDBRANCH   4  27
BRANCH   1  31
HETATM   31  C2  UNL     1     -16.506  -1.797  12.367  1.00  0.00    -0.088 C 
HETATM   32  C1  UNL     1     -17.422  -1.487  11.434  1.00  0.00     0.014 C 
HETATM   33  C3  UNL     1     -15.065  -1.987  11.952  1.00  0.00     0.043 C 
ENDBRANCH   1  31
BRANCH   7  34
HETATM   34  C12 UNL     1     -18.866   0.718  14.689  1.00  0.00     0.149 C 
HETATM   35  O3  UNL     1     -19.943   0.475  15.210  1.00  0.00    -0.649 OA
BRANCH  34  36
HETATM   36  O4  UNL     1     -18.790   0.726  13.350  1.00  0.00    -0.776 OA
HETATM   37  H16 UNL     1     -19.702   0.518  13.062  1.00  0.00     0.167 HD
ENDBRANCH  34  36
ENDBRANCH   7  34
TORSDOF 5
ENDMDL
MODEL 8
REMARK minimizedAffinity -6.5124526
REMARK CNNscore 0.247036517
REMARK CNNaffinity 5.77992201
REMARK  5 active torsions:
REMARK  status: ('A' for Active; 'I' for Inactive)
REMARK    1  A    between atoms: C2_2  and  C4_4 
REMARK    2  A    between atoms: C7_7  and  C8_8 
REMARK    3  A    between atoms: C8_8  and  O2_10 
REMARK    4  A    between atoms: C11_13  and  C12_14 
REMARK    5  A    between atoms: C12_14  and  O4_16 
ROOT
HETATM    1  C4  UNL     1      13.006  -4.794   3.936  1.00  0.00     0.019 C 
HETATM    2  C5  UNL     1      11.815  -5.356   4.722  1.00  0.00     0.011 C 
HETATM    3  C6  UNL     1      12.110  -6.842   4.948  1.00  0.00     0.021 C 
HETATM    4  C7  UNL     1      13.545  -7.106   4.449  1.00  0.00     0.050 C 
HETATM    5  C9  UNL     1      14.321  -8.023   5.408  1.00  0.00     0.022 C 
HETATM    6  C10 UNL     1      14.753  -7.445   6.767  1.00  0.00     0.023 C 
HETATM    7  C11 UNL     1      14.914  -5.882   6.888  1.00  0.00     0.057 C 
HETATM    8  C13 UNL     1      15.245  -5.422   5.432  1.00  0.00     0.011 C 
HETATM    9  C14 UNL     1      15.926  -4.073   5.396  1.00  0.00     0.007 C 
HETATM   10  C15 UNL     1      17.292  -4.156   6.073  1.00  0.00     0.006 C 
HETATM   11  C16 UNL     1      17.461  -5.186   7.246  1.00  0.00     0.003 C 
HETATM   12  C17 UNL     1      18.684  -4.747   8.190  1.00  0.00    -0.035 C 
HETATM   13  C18 UNL     1      19.104  -5.951   9.072  1.00  0.00     0.016 C 
HETATM   14  C19 UNL     1      19.937  -4.369   7.337  1.00  0.00     0.017 C 
HETATM   15  C20 UNL     1      21.093  -3.792   8.148  1.00  0.00     0.080 C 
HETATM   16  C21 UNL     1      20.650  -2.629   9.006  1.00  0.00     0.135 C 
HETATM   17  O5  UNL     1      21.339  -1.607   9.050  1.00  0.00    -0.297 OA
HETATM   18  C22 UNL     1      19.395  -2.814   9.881  1.00  0.00     0.017 C 
HETATM   19  C23 UNL     1      19.793  -3.595  11.140  1.00  0.00     0.023 C 
HETATM   20  C24 UNL     1      18.937  -1.409  10.350  1.00  0.00     0.023 C 
HETATM   21  C25 UNL     1      18.269  -3.469   9.005  1.00  0.00     0.009 C 
HETATM   22  C26 UNL     1      16.923  -3.665   9.727  1.00  0.00     0.007 C 
HETATM   23  C27 UNL     1      15.791  -4.135   8.789  1.00  0.00     0.011 C 
HETATM   24  C28 UNL     1      16.087  -5.449   7.988  1.00  0.00    -0.022 C 
HETATM   25  C29 UNL     1      16.141  -6.577   9.062  1.00  0.00     0.017 C 
HETATM   26  C30 UNL     1      14.212  -5.711   4.293  1.00  0.00     0.018 C 
ENDROOT
BRANCH   4  27
HETATM   27  C8  UNL     1      13.517  -7.816   3.083  1.00  0.00     0.149 C 
HETATM   28  O1  UNL     1      12.650  -8.581   2.677  1.00  0.00    -0.649 OA
BRANCH  27  29
HETATM   29  O2  UNL     1      14.586  -7.563   2.298  1.00  0.00    -0.776 OA
HETATM   30  H11 UNL     1      14.409  -8.090   1.490  1.00  0.00     0.167 HD
ENDBRANCH  27  29
ENDBRANCH   4  27
BRANCH   1  31
HETATM   31  C2  UNL     1      13.196  -3.292   3.847  1.00  0.00    -0.088 C 
HETATM   32  C1  UNL     1      12.530  -2.382   4.581  1.00  0.00     0.014 C 
HETATM   33  C3  UNL     1      14.120  -2.819   2.750  1.00  0.00     0.043 C 
ENDBRANCH   1  31
BRANCH   7  34
HETATM   34  C12 UNL     1      13.596  -5.337   7.445  1.00  0.00     0.149 C 
HETATM   35  O3  UNL     1      13.150  -4.210   7.295  1.00  0.00    -0.649 OA
BRANCH  34  36
HETATM   36  O4  UNL     1      12.842  -6.245   8.081  1.00  0.00    -0.776 OA
HETATM   37  H16 UNL     1      12.022  -5.757   8.302  1.00  0.00     0.167 HD
ENDBRANCH  34  36
ENDBRANCH   7  34
TORSDOF 5
ENDMDL
MODEL 9
REMARK minimizedAffinity -5.95771551
REMARK CNNscore 0.204567149
REMARK CNNaffinity 5.3625145
REMARK  5 active torsions:
REMARK  status: ('A' for Active; 'I' for Inactive)
REMARK    1  A    between atoms: C2_2  and  C4_4 
REMARK    2  A    between atoms: C7_7  and  C8_8 
REMARK    3  A    between atoms: C8_8  and  O2_10 
REMARK    4  A    between atoms: C11_13  and  C12_14 
REMARK    5  A    between atoms: C12_14  and  O4_16 
ROOT
HETATM    1  C4  UNL     1      14.795  -4.362   2.579  1.00  0.00     0.019 C 
HETATM    2  C5  UNL     1      15.721  -3.930   3.723  1.00  0.00     0.011 C 
HETATM    3  C6  UNL     1      14.834  -3.771   4.961  1.00  0.00     0.021 C 
HETATM    4  C7  UNL     1      13.426  -4.276   4.584  1.00  0.00     0.050 C 
HETATM    5  C9  UNL     1      12.805  -5.121   5.708  1.00  0.00     0.022 C 
HETATM    6  C10 UNL     1      13.389  -6.521   5.964  1.00  0.00     0.023 C 
HETATM    7  C11 UNL     1      14.135  -7.239   4.775  1.00  0.00     0.057 C 
HETATM    8  C13 UNL     1      13.490  -6.621   3.494  1.00  0.00     0.011 C 
HETATM    9  C14 UNL     1      13.676  -7.498   2.277  1.00  0.00     0.007 C 
HETATM   10  C15 UNL     1      12.931  -8.817   2.462  1.00  0.00     0.006 C 
HETATM   11  C16 UNL     1      12.790  -9.375   3.923  1.00  0.00     0.003 C 
HETATM   12  C17 UNL     1      12.540 -10.961   3.883  1.00  0.00    -0.035 C 
HETATM   13  C18 UNL     1      11.997 -11.425   5.260  1.00  0.00     0.016 C 
HETATM   14  C19 UNL     1      11.443 -11.325   2.832  1.00  0.00     0.017 C 
HETATM   15  C20 UNL     1      11.254 -12.824   2.621  1.00  0.00     0.080 C 
HETATM   16  C21 UNL     1      12.561 -13.513   2.302  1.00  0.00     0.135 C 
HETATM   17  O5  UNL     1      12.607 -14.339   1.386  1.00  0.00    -0.297 OA
HETATM   18  C22 UNL     1      13.770 -13.229   3.214  1.00  0.00     0.017 C 
HETATM   19  C23 UNL     1      13.628 -14.078   4.484  1.00  0.00     0.023 C 
HETATM   20  C24 UNL     1      15.042 -13.726   2.480  1.00  0.00     0.023 C 
HETATM   21  C25 UNL     1      13.867 -11.678   3.443  1.00  0.00     0.009 C 
HETATM   22  C26 UNL     1      15.070 -11.227   4.293  1.00  0.00     0.007 C 
HETATM   23  C27 UNL     1      15.239  -9.694   4.342  1.00  0.00     0.011 C 
HETATM   24  C28 UNL     1      13.988  -8.896   4.843  1.00  0.00    -0.022 C 
HETATM   25  C29 UNL     1      13.836  -9.278   6.347  1.00  0.00     0.017 C 
HETATM   26  C30 UNL     1      13.594  -5.077   3.263  1.00  0.00     0.018 C 
ENDROOT
BRANCH   4  27
HETATM   27  C8  UNL     1      12.475  -3.088   4.346  1.00  0.00     0.149 C 
HETATM   28  O1  UNL     1      11.421  -3.112   3.721  1.00  0.00    -0.649 OA
BRANCH  27  29
HETATM   29  O2  UNL     1      12.898  -1.919   4.870  1.00  0.00    -0.776 OA
HETATM   30  H11 UNL     1      12.191  -1.286   4.623  1.00  0.00     0.167 HD
ENDBRANCH  27  29
ENDBRANCH   4  27
BRANCH   1  31
HETATM   31  C2  UNL     1      15.397  -4.935   1.310  1.00  0.00    -0.088 C 
HETATM   32  C1  UNL     1      16.627  -5.467   1.209  1.00  0.00     0.014 C 
HETATM   33  C3  UNL     1      14.564  -4.759   0.062  1.00  0.00     0.043 C 
ENDBRANCH   1  31
BRANCH   7  34
HETATM   34  C12 UNL     1      15.629  -6.946   4.942  1.00  0.00     0.149 C 
HETATM   35  O3  UNL     1      16.481  -6.975   4.068  1.00  0.00    -0.649 OA
BRANCH  34  36
HETATM   36  O4  UNL     1      15.982  -6.531   6.168  1.00  0.00    -0.776 OA
HETATM   37  H16 UNL     1      16.935  -6.322   6.079  1.00  0.00     0.167 HD
ENDBRANCH  34  36
ENDBRANCH   7  34
TORSDOF 5
ENDMDL
