MODEL 1
REMARK minimizedAffinity -6.98167467
REMARK CNNscore 0.619238734
REMARK CNNaffinity 7.09848166
REMARK  7 active torsions:
REMARK  status: ('A' for Active; 'I' for Inactive)
REMARK    1  A    between atoms: C2_2  and  C4_4 
REMARK    2  A    between atoms: C4_4  and  O2_6 
REMARK    3  A    between atoms: O2_6  and  C5_7 
REMARK    4  A    between atoms: C5_7  and  C6_8 
REMARK    5  A    between atoms: C6_8  and  C7_10 
REMARK    6  A    between atoms: C8_12  and  C9_13 
REMARK    7  A    between atoms: C29_35  and  O7_36 
ROOT
HETATM    1  C7  UNL     1     -12.581   7.745  13.954  1.00  0.00     0.160 C 
HETATM    2  O4  UNL     1     -11.508   6.965  14.484  1.00  0.00    -0.339 OA
HETATM    3  C8  UNL     1     -10.653   6.661  13.378  1.00  0.00     0.266 C 
HETATM    4  O5  UNL     1     -10.811   7.651  12.369  1.00  0.00    -0.352 OA
HETATM    5  C15 UNL     1     -11.981   8.398  12.696  1.00  0.00     0.168 C 
HETATM    6  C16 UNL     1     -11.583   9.838  13.079  1.00  0.00     0.041 C 
HETATM    7  C17 UNL     1     -11.672   9.843  14.603  1.00  0.00     0.004 C 
HETATM    8  C18 UNL     1     -11.698  11.188  15.342  1.00  0.00    -0.001 C 
HETATM    9  C19 UNL     1     -10.486  12.049  14.938  1.00  0.00     0.010 C 
HETATM   10  C20 UNL     1     -10.384  13.332  15.754  1.00  0.00     0.036 C 
HETATM   11  C21 UNL     1     -10.392  13.009  17.226  1.00  0.00    -0.064 A 
HETATM   12  C22 UNL     1      -9.343  13.341  17.999  1.00  0.00     0.058 A 
HETATM   13  C23 UNL     1      -9.291  12.989  19.433  1.00  0.00     0.172 A 
HETATM   14  O6  UNL     1      -8.333  13.294  20.131  1.00  0.00    -0.289 OA
HETATM   15  C24 UNL     1     -10.437  12.245  19.986  1.00  0.00     0.052 A 
HETATM   16  C25 UNL     1     -11.480  11.909  19.217  1.00  0.00    -0.009 A 
HETATM   17  C26 UNL     1     -11.618  12.236  17.732  1.00  0.00     0.004 A 
HETATM   18  C27 UNL     1     -12.856  13.154  17.607  1.00  0.00     0.025 C 
HETATM   19  C28 UNL     1     -11.708  10.908  16.886  1.00  0.00     0.035 C 
HETATM   20  C29 UNL     1     -12.839   9.916  17.289  1.00  0.00     0.124 C 
HETATM   21  C30 UNL     1     -12.889   8.645  16.409  1.00  0.00     0.045 C 
HETATM   22  C31 UNL     1     -12.901   8.948  14.895  1.00  0.00     0.004 C 
HETATM   23  C32 UNL     1     -14.245   9.602  14.474  1.00  0.00     0.019 C 
ENDROOT
BRANCH   1  24
HETATM   24  C6  UNL     1     -13.784   6.846  13.632  1.00  0.00     0.188 C 
HETATM   25  O3  UNL     1     -14.415   6.954  12.577  1.00  0.00    -0.292 OA
BRANCH  24  26
HETATM   26  C5  UNL     1     -14.221   5.863  14.720  1.00  0.00     0.260 C 
BRANCH  26  27
HETATM   27  O2  UNL     1     -15.076   4.839  14.209  1.00  0.00    -0.314 OA
BRANCH  27  28
HETATM   28  C4  UNL     1     -15.941   4.333  15.134  1.00  0.00     0.262 C 
HETATM   29  O1  UNL     1     -16.477   4.997  16.015  1.00  0.00    -0.265 OA
BRANCH  28  30
HETATM   30  C2  UNL     1     -16.220   2.861  14.900  1.00  0.00     0.077 C 
HETATM   31  C1  UNL     1     -14.936   2.048  14.763  1.00  0.00     0.020 C 
HETATM   32  C3  UNL     1     -17.120   2.698  13.682  1.00  0.00     0.020 C 
ENDBRANCH  28  30
ENDBRANCH  27  28
ENDBRANCH  26  27
ENDBRANCH  24  26
ENDBRANCH   1  24
BRANCH   3  33
HETATM   33  C9  UNL     1      -9.197   6.615  13.859  1.00  0.00     0.041 C 
HETATM   34  C10 UNL     1      -9.109   6.747  15.393  1.00  0.00     0.009 C 
HETATM   35  C11 UNL     1      -7.820   6.172  15.986  1.00  0.00     0.001 C 
HETATM   36  C12 UNL     1      -6.668   6.223  14.996  1.00  0.00     0.000 C 
HETATM   37  C13 UNL     1      -6.969   5.405  13.740  1.00  0.00     0.001 C 
HETATM   38  C14 UNL     1      -8.456   5.363  13.375  1.00  0.00     0.009 C 
ENDBRANCH   3  33
BRANCH  20  39
HETATM   39  O7  UNL     1     -14.108  10.554  17.269  1.00  0.00    -0.395 OA
HETATM   40  H39 UNL     1     -14.773   9.917  17.588  1.00  0.00     0.210 HD
ENDBRANCH  20  39
TORSDOF 7
ENDMDL
MODEL 2
REMARK minimizedAffinity -6.51694155
REMARK CNNscore 0.510950327
REMARK CNNaffinity 5.99328613
REMARK  7 active torsions:
REMARK  status: ('A' for Active; 'I' for Inactive)
REMARK    1  A    between atoms: C2_2  and  C4_4 
REMARK    2  A    between atoms: C4_4  and  O2_6 
REMARK    3  A    between atoms: O2_6  and  C5_7 
REMARK    4  A    between atoms: C5_7  and  C6_8 
REMARK    5  A    between atoms: C6_8  and  C7_10 
REMARK    6  A    between atoms: C8_12  and  C9_13 
REMARK    7  A    between atoms: C29_35  and  O7_36 
ROOT
HETATM    1  C7  UNL     1     -15.330  -2.875  13.009  1.00  0.00     0.160 C 
HETATM    2  O4  UNL     1     -14.135  -3.445  13.545  1.00  0.00    -0.339 OA
HETATM    3  C8  UNL     1     -14.512  -4.077  14.773  1.00  0.00     0.266 C 
HETATM    4  O5  UNL     1     -15.892  -4.422  14.725  1.00  0.00    -0.352 OA
HETATM    5  C15 UNL     1     -16.456  -3.734  13.610  1.00  0.00     0.168 C 
HETATM    6  C16 UNL     1     -16.871  -4.756  12.532  1.00  0.00     0.041 C 
HETATM    7  C17 UNL     1     -15.761  -4.652  11.490  1.00  0.00     0.004 C 
HETATM    8  C18 UNL     1     -15.992  -5.247  10.094  1.00  0.00    -0.001 C 
HETATM    9  C19 UNL     1     -16.400  -6.729  10.202  1.00  0.00     0.010 C 
HETATM   10  C20 UNL     1     -16.496  -7.407   8.841  1.00  0.00     0.036 C 
HETATM   11  C21 UNL     1     -15.209  -7.221   8.079  1.00  0.00    -0.064 A 
HETATM   12  C22 UNL     1     -14.481  -8.288   7.704  1.00  0.00     0.058 A 
HETATM   13  C23 UNL     1     -13.186  -8.142   7.009  1.00  0.00     0.172 A 
HETATM   14  O6  UNL     1     -12.529  -9.118   6.671  1.00  0.00    -0.289 OA
HETATM   15  C24 UNL     1     -12.713  -6.771   6.747  1.00  0.00     0.052 A 
HETATM   16  C25 UNL     1     -13.433  -5.707   7.124  1.00  0.00    -0.009 A 
HETATM   17  C26 UNL     1     -14.779  -5.766   7.841  1.00  0.00     0.004 A 
HETATM   18  C27 UNL     1     -15.803  -5.109   6.888  1.00  0.00     0.025 C 
HETATM   19  C28 UNL     1     -14.676  -5.079   9.256  1.00  0.00     0.035 C 
HETATM   20  C29 UNL     1     -14.168  -3.606   9.265  1.00  0.00     0.124 C 
HETATM   21  C30 UNL     1     -14.109  -2.981  10.679  1.00  0.00     0.045 C 
HETATM   22  C31 UNL     1     -15.424  -3.140  11.474  1.00  0.00     0.004 C 
HETATM   23  C32 UNL     1     -16.551  -2.270  10.856  1.00  0.00     0.019 C 
ENDROOT
BRANCH   1  24
HETATM   24  C6  UNL     1     -15.442  -1.396  13.410  1.00  0.00     0.188 C 
HETATM   25  O3  UNL     1     -15.232  -0.484  12.605  1.00  0.00    -0.292 OA
BRANCH  24  26
HETATM   26  C5  UNL     1     -15.742  -1.102  14.881  1.00  0.00     0.260 C 
BRANCH  26  27
HETATM   27  O2  UNL     1     -16.358   0.175  15.060  1.00  0.00    -0.314 OA
BRANCH  27  28
HETATM   28  C4  UNL     1     -15.487   1.161  15.418  1.00  0.00     0.262 C 
HETATM   29  O1  UNL     1     -14.391   0.961  15.933  1.00  0.00    -0.265 OA
BRANCH  28  30
HETATM   30  C2  UNL     1     -16.003   2.535  15.041  1.00  0.00     0.077 C 
HETATM   31  C1  UNL     1     -16.810   3.175  16.167  1.00  0.00     0.020 C 
HETATM   32  C3  UNL     1     -16.811   2.443  13.753  1.00  0.00     0.020 C 
ENDBRANCH  28  30
ENDBRANCH  27  28
ENDBRANCH  26  27
ENDBRANCH  24  26
ENDBRANCH   1  24
BRANCH   3  33
HETATM   33  C9  UNL     1     -13.654  -5.331  14.982  1.00  0.00     0.041 C 
HETATM   34  C10 UNL     1     -12.252  -4.969  15.513  1.00  0.00     0.009 C 
HETATM   35  C11 UNL     1     -11.561  -6.116  16.253  1.00  0.00     0.001 C 
HETATM   36  C12 UNL     1     -12.029  -7.475  15.757  1.00  0.00     0.000 C 
HETATM   37  C13 UNL     1     -13.531  -7.665  15.971  1.00  0.00     0.001 C 
HETATM   38  C14 UNL     1     -14.333  -6.362  15.891  1.00  0.00     0.009 C 
ENDBRANCH   3  33
BRANCH  20  39
HETATM   39  O7  UNL     1     -14.961  -2.786   8.419  1.00  0.00    -0.395 OA
HETATM   40  H39 UNL     1     -14.569  -1.894   8.405  1.00  0.00     0.210 HD
ENDBRANCH  20  39
TORSDOF 7
ENDMDL
MODEL 3
REMARK minimizedAffinity -7.04230213
REMARK CNNscore 0.434232324
REMARK CNNaffinity 6.8632741
REMARK  7 active torsions:
REMARK  status: ('A' for Active; 'I' for Inactive)
REMARK    1  A    between atoms: C2_2  and  C4_4 
REMARK    2  A    between atoms: C4_4  and  O2_6 
REMARK    3  A    between atoms: O2_6  and  C5_7 
REMARK    4  A    between atoms: C5_7  and  C6_8 
REMARK    5  A    between atoms: C6_8  and  C7_10 
REMARK    6  A    between atoms: C8_12  and  C9_13 
REMARK    7  A    between atoms: C29_35  and  O7_36 
ROOT
HETATM    1  C7  UNL     1     -12.364   8.084  14.645  1.00  0.00     0.160 C 
HETATM    2  O4  UNL     1     -11.258   7.316  15.122  1.00  0.00    -0.339 OA
HETATM    3  C8  UNL     1     -10.582   6.827  13.959  1.00  0.00     0.266 C 
HETATM    4  O5  UNL     1     -10.843   7.691  12.860  1.00  0.00    -0.352 OA
HETATM    5  C15 UNL     1     -11.925   8.539  13.242  1.00  0.00     0.168 C 
HETATM    6  C16 UNL     1     -11.418   9.990  13.374  1.00  0.00     0.041 C 
HETATM    7  C17 UNL     1     -11.289  10.191  14.882  1.00  0.00     0.004 C 
HETATM    8  C18 UNL     1     -11.156  11.617  15.434  1.00  0.00    -0.001 C 
HETATM    9  C19 UNL     1      -9.981  12.348  14.759  1.00  0.00     0.010 C 
HETATM   10  C20 UNL     1      -9.713  13.715  15.377  1.00  0.00     0.036 C 
HETATM   11  C21 UNL     1      -9.523  13.580  16.866  1.00  0.00    -0.064 A 
HETATM   12  C22 UNL     1      -8.363  13.945  17.439  1.00  0.00     0.058 A 
HETATM   13  C23 UNL     1      -8.121  13.771  18.886  1.00  0.00     0.172 A 
HETATM   14  O6  UNL     1      -7.062  14.105  19.401  1.00  0.00    -0.289 OA
HETATM   15  C24 UNL     1      -9.205  13.170  19.683  1.00  0.00     0.052 A 
HETATM   16  C25 UNL     1     -10.359  12.802  19.114  1.00  0.00    -0.009 A 
HETATM   17  C26 UNL     1     -10.695  12.948  17.632  1.00  0.00     0.004 A 
HETATM   18  C27 UNL     1     -11.900  13.913  17.557  1.00  0.00     0.025 C 
HETATM   19  C28 UNL     1     -10.957  11.532  16.988  1.00  0.00     0.035 C 
HETATM   20  C29 UNL     1     -12.058  10.666  17.668  1.00  0.00     0.124 C 
HETATM   21  C30 UNL     1     -12.283   9.299  16.978  1.00  0.00     0.045 C 
HETATM   22  C31 UNL     1     -12.499   9.412  15.453  1.00  0.00     0.004 C 
HETATM   23  C32 UNL     1     -13.862  10.085  15.137  1.00  0.00     0.019 C 
ENDROOT
BRANCH   1  24
HETATM   24  C6  UNL     1     -13.636   7.223  14.611  1.00  0.00     0.188 C 
HETATM   25  O3  UNL     1     -14.152   6.783  15.642  1.00  0.00    -0.292 OA
BRANCH  24  26
HETATM   26  C5  UNL     1     -14.188   6.863  13.231  1.00  0.00     0.260 C 
BRANCH  26  27
HETATM   27  O2  UNL     1     -15.601   7.062  13.148  1.00  0.00    -0.314 OA
BRANCH  27  28
HETATM   28  C4  UNL     1     -15.971   7.997  12.227  1.00  0.00     0.262 C 
HETATM   29  O1  UNL     1     -15.917   7.831  11.013  1.00  0.00    -0.265 OA
BRANCH  28  30
HETATM   30  C2  UNL     1     -16.525   9.246  12.883  1.00  0.00     0.077 C 
HETATM   31  C1  UNL     1     -18.049   9.221  12.972  1.00  0.00     0.020 C 
HETATM   32  C3  UNL     1     -16.027  10.479  12.140  1.00  0.00     0.020 C 
ENDBRANCH  28  30
ENDBRANCH  27  28
ENDBRANCH  26  27
ENDBRANCH  24  26
ENDBRANCH   1  24
BRANCH   3  33
HETATM   33  C9  UNL     1      -9.076   6.757  14.239  1.00  0.00     0.041 C 
HETATM   34  C10 UNL     1      -8.792   6.632  15.750  1.00  0.00     0.009 C 
HETATM   35  C11 UNL     1      -7.427   6.016  16.069  1.00  0.00     0.001 C 
HETATM   36  C12 UNL     1      -6.414   6.278  14.966  1.00  0.00     0.000 C 
HETATM   37  C13 UNL     1      -6.862   5.672  13.635  1.00  0.00     0.001 C 
HETATM   38  C14 UNL     1      -8.384   5.634  13.458  1.00  0.00     0.009 C 
ENDBRANCH   3  33
BRANCH  20  39
HETATM   39  O7  UNL     1     -13.291  11.368  17.738  1.00  0.00    -0.395 OA
HETATM   40  H39 UNL     1     -13.928  10.816  18.226  1.00  0.00     0.210 HD
ENDBRANCH  20  39
TORSDOF 7
ENDMDL
MODEL 4
REMARK minimizedAffinity -10.5028648
REMARK CNNscore 0.429213196
REMARK CNNaffinity 6.7803998
REMARK  7 active torsions:
REMARK  status: ('A' for Active; 'I' for Inactive)
REMARK    1  A    between atoms: C2_2  and  C4_4 
REMARK    2  A    between atoms: C4_4  and  O2_6 
REMARK    3  A    between atoms: O2_6  and  C5_7 
REMARK    4  A    between atoms: C5_7  and  C6_8 
REMARK    5  A    between atoms: C6_8  and  C7_10 
REMARK    6  A    between atoms: C8_12  and  C9_13 
REMARK    7  A    between atoms: C29_35  and  O7_36 
ROOT
HETATM    1  C7  UNL     1      -1.216   7.587  14.107  1.00  0.00     0.160 C 
HETATM    2  O4  UNL     1      -1.794   6.301  13.877  1.00  0.00    -0.339 OA
HETATM    3  C8  UNL     1      -3.180   6.530  13.605  1.00  0.00     0.266 C 
HETATM    4  O5  UNL     1      -3.352   7.847  13.095  1.00  0.00    -0.352 OA
HETATM    5  C15 UNL     1      -2.136   8.552  13.339  1.00  0.00     0.168 C 
HETATM    6  C16 UNL     1      -1.444   8.865  11.996  1.00  0.00     0.041 C 
HETATM    7  C17 UNL     1      -0.328   7.827  11.916  1.00  0.00     0.004 C 
HETATM    8  C18 UNL     1       0.806   8.032  10.903  1.00  0.00    -0.001 C 
HETATM    9  C19 UNL     1       0.235   8.220   9.485  1.00  0.00     0.010 C 
HETATM   10  C20 UNL     1       1.324   8.278   8.421  1.00  0.00     0.036 C 
HETATM   11  C21 UNL     1       2.212   7.065   8.523  1.00  0.00    -0.064 A 
HETATM   12  C22 UNL     1       2.317   6.210   7.490  1.00  0.00     0.058 A 
HETATM   13  C23 UNL     1       3.131   4.980   7.577  1.00  0.00     0.172 A 
HETATM   14  O6  UNL     1       3.222   4.207   6.633  1.00  0.00    -0.289 OA
HETATM   15  C24 UNL     1       3.822   4.718   8.853  1.00  0.00     0.052 A 
HETATM   16  C25 UNL     1       3.715   5.566   9.883  1.00  0.00    -0.009 A 
HETATM   17  C26 UNL     1       2.902   6.857   9.880  1.00  0.00     0.004 A 
HETATM   18  C27 UNL     1       3.916   8.005  10.088  1.00  0.00     0.025 C 
HETATM   19  C28 UNL     1       1.765   6.791  10.970  1.00  0.00     0.035 C 
HETATM   20  C29 UNL     1       2.232   6.497  12.427  1.00  0.00     0.124 C 
HETATM   21  C30 UNL     1       1.074   6.466  13.453  1.00  0.00     0.045 C 
HETATM   22  C31 UNL     1       0.159   7.708  13.381  1.00  0.00     0.004 C 
HETATM   23  C32 UNL     1       0.908   8.974  13.879  1.00  0.00     0.019 C 
ENDROOT
BRANCH   1  24
HETATM   24  C6  UNL     1      -1.174   7.889  15.613  1.00  0.00     0.188 C 
HETATM   25  O3  UNL     1      -0.247   7.501  16.330  1.00  0.00    -0.292 OA
BRANCH  24  26
HETATM   26  C5  UNL     1      -2.379   8.623  16.203  1.00  0.00     0.260 C 
BRANCH  26  27
HETATM   27  O2  UNL     1      -2.064   9.967  16.574  1.00  0.00    -0.314 OA
BRANCH  27  28
HETATM   28  C4  UNL     1      -3.129  10.669  17.055  1.00  0.00     0.262 C 
HETATM   29  O1  UNL     1      -4.117  10.968  16.391  1.00  0.00    -0.265 OA
BRANCH  28  30
HETATM   30  C2  UNL     1      -2.981  10.978  18.532  1.00  0.00     0.077 C 
HETATM   31  C1  UNL     1      -3.752  12.231  18.937  1.00  0.00     0.020 C 
HETATM   32  C3  UNL     1      -1.504  11.089  18.886  1.00  0.00     0.020 C 
ENDBRANCH  28  30
ENDBRANCH  27  28
ENDBRANCH  26  27
ENDBRANCH  24  26
ENDBRANCH   1  24
BRANCH   3  33
HETATM   33  C9  UNL     1      -3.676   5.494  12.588  1.00  0.00     0.041 C 
HETATM   34  C10 UNL     1      -2.509   4.657  12.026  1.00  0.00     0.009 C 
HETATM   35  C11 UNL     1      -2.940   3.298  11.469  1.00  0.00     0.001 C 
HETATM   36  C12 UNL     1      -4.375   3.320  10.968  1.00  0.00     0.000 C 
HETATM   37  C13 UNL     1      -5.358   3.660  12.089  1.00  0.00     0.001 C 
HETATM   38  C14 UNL     1      -4.773   4.588  13.158  1.00  0.00     0.009 C 
ENDBRANCH   3  33
BRANCH  20  39
HETATM   39  O7  UNL     1       3.211   7.435  12.849  1.00  0.00    -0.395 OA
HETATM   40  H39 UNL     1       3.519   7.174  13.736  1.00  0.00     0.210 HD
ENDBRANCH  20  39
TORSDOF 7
ENDMDL
MODEL 5
REMARK minimizedAffinity -9.20681858
REMARK CNNscore 0.388821989
REMARK CNNaffinity 6.94309378
REMARK  7 active torsions:
REMARK  status: ('A' for Active; 'I' for Inactive)
REMARK    1  A    between atoms: C2_2  and  C4_4 
REMARK    2  A    between atoms: C4_4  and  O2_6 
REMARK    3  A    between atoms: O2_6  and  C5_7 
REMARK    4  A    between atoms: C5_7  and  C6_8 
REMARK    5  A    between atoms: C6_8  and  C7_10 
REMARK    6  A    between atoms: C8_12  and  C9_13 
REMARK    7  A    between atoms: C29_35  and  O7_36 
ROOT
HETATM    1  C7  UNL     1      -0.955   7.180  13.340  1.00  0.00     0.160 C 
HETATM    2  O4  UNL     1      -2.268   7.124  12.779  1.00  0.00    -0.339 OA
HETATM    3  C8  UNL     1      -2.780   5.825  13.092  1.00  0.00     0.266 C 
HETATM    4  O5  UNL     1      -2.130   5.326  14.256  1.00  0.00    -0.352 OA
HETATM    5  C15 UNL     1      -0.999   6.162  14.494  1.00  0.00     0.168 C 
HETATM    6  C16 UNL     1      -1.214   6.961  15.795  1.00  0.00     0.041 C 
HETATM    7  C17 UNL     1      -1.602   8.353  15.303  1.00  0.00     0.004 C 
HETATM    8  C18 UNL     1      -1.550   9.531  16.286  1.00  0.00    -0.001 C 
HETATM    9  C19 UNL     1      -2.389   9.223  17.541  1.00  0.00     0.010 C 
HETATM   10  C20 UNL     1      -2.492  10.418  18.480  1.00  0.00     0.036 C 
HETATM   11  C21 UNL     1      -3.003  11.622  17.731  1.00  0.00    -0.064 A 
HETATM   12  C22 UNL     1      -4.155  12.210  18.096  1.00  0.00     0.058 A 
HETATM   13  C23 UNL     1      -4.716  13.354  17.348  1.00  0.00     0.172 A 
HETATM   14  O6  UNL     1      -5.766  13.885  17.686  1.00  0.00    -0.289 OA
HETATM   15  C24 UNL     1      -3.962  13.826  16.172  1.00  0.00     0.052 A 
HETATM   16  C25 UNL     1      -2.817  13.238  15.805  1.00  0.00    -0.009 A 
HETATM   17  C26 UNL     1      -2.165  12.058  16.520  1.00  0.00     0.004 A 
HETATM   18  C27 UNL     1      -0.799  12.566  17.033  1.00  0.00     0.025 C 
HETATM   19  C28 UNL     1      -2.073  10.815  15.552  1.00  0.00     0.035 C 
HETATM   20  C29 UNL     1      -1.333  11.055  14.202  1.00  0.00     0.124 C 
HETATM   21  C30 UNL     1      -1.257   9.795  13.308  1.00  0.00     0.045 C 
HETATM   22  C31 UNL     1      -0.718   8.550  14.047  1.00  0.00     0.004 C 
HETATM   23  C32 UNL     1       0.788   8.717  14.382  1.00  0.00     0.019 C 
ENDROOT
BRANCH   1  24
HETATM   24  C6  UNL     1       0.094   6.818  12.277  1.00  0.00     0.188 C 
HETATM   25  O3  UNL     1       0.989   5.997  12.498  1.00  0.00    -0.292 OA
BRANCH  24  26
HETATM   26  C5  UNL     1       0.030   7.587  10.956  1.00  0.00     0.260 C 
BRANCH  26  27
HETATM   27  O2  UNL     1       0.953   7.078   9.992  1.00  0.00    -0.314 OA
BRANCH  27  28
HETATM   28  C4  UNL     1       1.107   7.881   8.901  1.00  0.00     0.262 C 
HETATM   29  O1  UNL     1       0.452   8.897   8.692  1.00  0.00    -0.265 OA
BRANCH  28  30
HETATM   30  C2  UNL     1       2.236   7.409   8.006  1.00  0.00     0.077 C 
HETATM   31  C1  UNL     1       1.774   7.178   6.570  1.00  0.00     0.020 C 
HETATM   32  C3  UNL     1       2.869   6.156   8.600  1.00  0.00     0.020 C 
ENDBRANCH  28  30
ENDBRANCH  27  28
ENDBRANCH  26  27
ENDBRANCH  24  26
ENDBRANCH   1  24
BRANCH   3  33
HETATM   33  C9  UNL     1      -4.294   5.917  13.322  1.00  0.00     0.041 C 
HETATM   34  C10 UNL     1      -5.018   4.661  12.800  1.00  0.00     0.009 C 
HETATM   35  C11 UNL     1      -6.378   4.417  13.459  1.00  0.00     0.001 C 
HETATM   36  C12 UNL     1      -7.018   5.711  13.934  1.00  0.00     0.000 C 
HETATM   37  C13 UNL     1      -6.152   6.418  14.977  1.00  0.00     0.001 C 
HETATM   38  C14 UNL     1      -4.650   6.183  14.790  1.00  0.00     0.009 C 
ENDBRANCH   3  33
BRANCH  20  39
HETATM   39  O7  UNL     1      -0.024  11.559  14.419  1.00  0.00    -0.395 OA
HETATM   40  H39 UNL     1       0.375  11.753  13.552  1.00  0.00     0.210 HD
ENDBRANCH  20  39
TORSDOF 7
ENDMDL
MODEL 6
REMARK minimizedAffinity -9.37210083
REMARK CNNscore 0.377424896
REMARK CNNaffinity 6.86792564
REMARK  7 active torsions:
REMARK  status: ('A' for Active; 'I' for Inactive)
REMARK    1  A    between atoms: C2_2  and  C4_4 
REMARK    2  A    between atoms: C4_4  and  O2_6 
REMARK    3  A    between atoms: O2_6  and  C5_7 
REMARK    4  A    between atoms: C5_7  and  C6_8 
REMARK    5  A    between atoms: C6_8  and  C7_10 
REMARK    6  A    between atoms: C8_12  and  C9_13 
REMARK    7  A    between atoms: C29_35  and  O7_36 
ROOT
HETATM    1  C7  UNL     1      -0.626   5.820  12.400  1.00  0.00     0.160 C 
HETATM    2  O4  UNL     1      -1.905   5.860  11.766  1.00  0.00    -0.339 OA
HETATM    3  C8  UNL     1      -2.531   4.606  12.052  1.00  0.00     0.266 C 
HETATM    4  O5  UNL     1      -1.988   4.067  13.252  1.00  0.00    -0.352 OA
HETATM    5  C15 UNL     1      -0.811   4.816  13.551  1.00  0.00     0.168 C 
HETATM    6  C16 UNL     1      -1.038   5.638  14.837  1.00  0.00     0.041 C 
HETATM    7  C17 UNL     1      -1.291   7.052  14.321  1.00  0.00     0.004 C 
HETATM    8  C18 UNL     1      -1.204   8.228  15.302  1.00  0.00    -0.001 C 
HETATM    9  C19 UNL     1      -2.134   7.994  16.508  1.00  0.00     0.010 C 
HETATM   10  C20 UNL     1      -2.197   9.199  17.438  1.00  0.00     0.036 C 
HETATM   11  C21 UNL     1      -2.572  10.433  16.658  1.00  0.00    -0.064 A 
HETATM   12  C22 UNL     1      -3.696  11.109  16.956  1.00  0.00     0.058 A 
HETATM   13  C23 UNL     1      -4.125  12.288  16.176  1.00  0.00     0.172 A 
HETATM   14  O6  UNL     1      -5.149  12.899  16.452  1.00  0.00    -0.289 OA
HETATM   15  C24 UNL     1      -3.273  12.693  15.043  1.00  0.00     0.052 A 
HETATM   16  C25 UNL     1      -2.156  12.018  14.742  1.00  0.00    -0.009 A 
HETATM   17  C26 UNL     1      -1.638  10.796  15.495  1.00  0.00     0.004 A 
HETATM   18  C27 UNL     1      -0.267  11.203  16.084  1.00  0.00     0.025 C 
HETATM   19  C28 UNL     1      -1.586   9.544  14.537  1.00  0.00     0.035 C 
HETATM   20  C29 UNL     1      -0.756   9.718  13.231  1.00  0.00     0.124 C 
HETATM   21  C30 UNL     1      -0.726   8.450  12.345  1.00  0.00     0.045 C 
HETATM   22  C31 UNL     1      -0.326   7.173  13.116  1.00  0.00     0.004 C 
HETATM   23  C32 UNL     1       1.169   7.228  13.535  1.00  0.00     0.019 C 
ENDROOT
BRANCH   1  24
HETATM   24  C6  UNL     1       0.450   5.373  11.398  1.00  0.00     0.188 C 
HETATM   25  O3  UNL     1       0.966   4.253  11.452  1.00  0.00    -0.292 OA
BRANCH  24  26
HETATM   26  C5  UNL     1       0.918   6.413  10.379  1.00  0.00     0.260 C 
BRANCH  26  27
HETATM   27  O2  UNL     1       1.778   5.847   9.388  1.00  0.00    -0.314 OA
BRANCH  27  28
HETATM   28  C4  UNL     1       2.777   6.683   8.984  1.00  0.00     0.262 C 
HETATM   29  O1  UNL     1       3.908   6.688   9.459  1.00  0.00    -0.265 OA
BRANCH  28  30
HETATM   30  C2  UNL     1       2.344   7.563   7.827  1.00  0.00     0.077 C 
HETATM   31  C1  UNL     1       1.173   8.467   8.200  1.00  0.00     0.020 C 
HETATM   32  C3  UNL     1       2.021   6.694   6.618  1.00  0.00     0.020 C 
ENDBRANCH  28  30
ENDBRANCH  27  28
ENDBRANCH  26  27
ENDBRANCH  24  26
ENDBRANCH   1  24
BRANCH   3  33
HETATM   33  C9  UNL     1      -4.044   4.814  12.196  1.00  0.00     0.041 C 
HETATM   34  C10 UNL     1      -4.804   3.475  12.120  1.00  0.00     0.009 C 
HETATM   35  C11 UNL     1      -6.182   3.512  12.787  1.00  0.00     0.001 C 
HETATM   36  C12 UNL     1      -6.784   4.908  12.769  1.00  0.00     0.000 C 
HETATM   37  C13 UNL     1      -5.908   5.907  13.528  1.00  0.00     0.001 C 
HETATM   38  C14 UNL     1      -4.413   5.580  13.473  1.00  0.00     0.009 C 
ENDBRANCH   3  33
BRANCH  20  39
HETATM   39  O7  UNL     1       0.574  10.123  13.520  1.00  0.00    -0.395 OA
HETATM   40  H39 UNL     1       1.035  10.281  12.676  1.00  0.00     0.210 HD
ENDBRANCH  20  39
TORSDOF 7
ENDMDL
MODEL 7
REMARK minimizedAffinity -10.6503086
REMARK CNNscore 0.366223127
REMARK CNNaffinity 6.89887953
REMARK  7 active torsions:
REMARK  status: ('A' for Active; 'I' for Inactive)
REMARK    1  A    between atoms: C2_2  and  C4_4 
REMARK    2  A    between atoms: C4_4  and  O2_6 
REMARK    3  A    between atoms: O2_6  and  C5_7 
REMARK    4  A    between atoms: C5_7  and  C6_8 
REMARK    5  A    between atoms: C6_8  and  C7_10 
REMARK    6  A    between atoms: C8_12  and  C9_13 
REMARK    7  A    between atoms: C29_35  and  O7_36 
ROOT
HETATM    1  C7  UNL     1      -1.314   7.707  14.006  1.00  0.00     0.160 C 
HETATM    2  O4  UNL     1      -1.868   6.406  13.806  1.00  0.00    -0.339 OA
HETATM    3  C8  UNL     1      -3.255   6.604  13.515  1.00  0.00     0.266 C 
HETATM    4  O5  UNL     1      -3.444   7.903  12.968  1.00  0.00    -0.352 OA
HETATM    5  C15 UNL     1      -2.242   8.635  13.203  1.00  0.00     0.168 C 
HETATM    6  C16 UNL     1      -1.544   8.922  11.859  1.00  0.00     0.041 C 
HETATM    7  C17 UNL     1      -0.410   7.902  11.817  1.00  0.00     0.004 C 
HETATM    8  C18 UNL     1       0.731   8.099  10.808  1.00  0.00    -0.001 C 
HETATM    9  C19 UNL     1       0.169   8.237   9.381  1.00  0.00     0.010 C 
HETATM   10  C20 UNL     1       1.267   8.285   8.325  1.00  0.00     0.036 C 
HETATM   11  C21 UNL     1       2.174   7.091   8.469  1.00  0.00    -0.064 A 
HETATM   12  C22 UNL     1       2.303   6.210   7.461  1.00  0.00     0.058 A 
HETATM   13  C23 UNL     1       3.137   4.997   7.589  1.00  0.00     0.172 A 
HETATM   14  O6  UNL     1       3.250   4.200   6.667  1.00  0.00    -0.289 OA
HETATM   15  C24 UNL     1       3.821   4.782   8.877  1.00  0.00     0.052 A 
HETATM   16  C25 UNL     1       3.690   5.655   9.883  1.00  0.00    -0.009 A 
HETATM   17  C26 UNL     1       2.855   6.932   9.836  1.00  0.00     0.004 A 
HETATM   18  C27 UNL     1       3.848   8.102  10.022  1.00  0.00     0.025 C 
HETATM   19  C28 UNL     1       1.709   6.877  10.918  1.00  0.00     0.035 C 
HETATM   20  C29 UNL     1       2.167   6.631  12.387  1.00  0.00     0.124 C 
HETATM   21  C30 UNL     1       1.001   6.608  13.403  1.00  0.00     0.045 C 
HETATM   22  C31 UNL     1       0.066   7.832  13.289  1.00  0.00     0.004 C 
HETATM   23  C32 UNL     1       0.789   9.124  13.758  1.00  0.00     0.019 C 
ENDROOT
BRANCH   1  24
HETATM   24  C6  UNL     1      -1.291   8.052  15.503  1.00  0.00     0.188 C 
HETATM   25  O3  UNL     1      -2.262   7.841  16.236  1.00  0.00    -0.292 OA
BRANCH  24  26
HETATM   26  C5  UNL     1      -0.036   8.749  16.031  1.00  0.00     0.260 C 
BRANCH  26  27
HETATM   27  O2  UNL     1      -0.338   9.991  16.670  1.00  0.00    -0.314 OA
BRANCH  27  28
HETATM   28  C4  UNL     1       0.450  10.260  17.750  1.00  0.00     0.262 C 
HETATM   29  O1  UNL     1       1.604   9.863  17.879  1.00  0.00    -0.265 OA
BRANCH  28  30
HETATM   30  C2  UNL     1      -0.246  11.168  18.744  1.00  0.00     0.077 C 
HETATM   31  C1  UNL     1       0.422  11.137  20.116  1.00  0.00     0.020 C 
HETATM   32  C3  UNL     1      -1.721  10.798  18.830  1.00  0.00     0.020 C 
ENDBRANCH  28  30
ENDBRANCH  27  28
ENDBRANCH  26  27
ENDBRANCH  24  26
ENDBRANCH   1  24
BRANCH   3  33
HETATM   33  C9  UNL     1      -3.723   5.532  12.523  1.00  0.00     0.041 C 
HETATM   34  C10 UNL     1      -2.542   4.679  12.019  1.00  0.00     0.009 C 
HETATM   35  C11 UNL     1      -2.957   3.300  11.500  1.00  0.00     0.001 C 
HETATM   36  C12 UNL     1      -4.379   3.301  10.962  1.00  0.00     0.000 C 
HETATM   37  C13 UNL     1      -5.389   3.677  12.047  1.00  0.00     0.001 C 
HETATM   38  C14 UNL     1      -4.833   4.643  13.098  1.00  0.00     0.009 C 
ENDBRANCH   3  33
BRANCH  20  39
HETATM   39  O7  UNL     1       3.127   7.596  12.791  1.00  0.00    -0.395 OA
HETATM   40  H39 UNL     1       3.431   7.366  13.688  1.00  0.00     0.210 HD
ENDBRANCH  20  39
TORSDOF 7
ENDMDL
MODEL 8
REMARK minimizedAffinity -6.772223
REMARK CNNscore 0.364009708
REMARK CNNaffinity 6.05218172
REMARK  7 active torsions:
REMARK  status: ('A' for Active; 'I' for Inactive)
REMARK    1  A    between atoms: C2_2  and  C4_4 
REMARK    2  A    between atoms: C4_4  and  O2_6 
REMARK    3  A    between atoms: O2_6  and  C5_7 
REMARK    4  A    between atoms: C5_7  and  C6_8 
REMARK    5  A    between atoms: C6_8  and  C7_10 
REMARK    6  A    between atoms: C8_12  and  C9_13 
REMARK    7  A    between atoms: C29_35  and  O7_36 
ROOT
HETATM    1  C7  UNL     1      14.605  -6.272   7.149  1.00  0.00     0.160 C 
HETATM    2  O4  UNL     1      15.878  -6.878   6.917  1.00  0.00    -0.339 OA
HETATM    3  C8  UNL     1      15.661  -8.291   6.968  1.00  0.00     0.266 C 
HETATM    4  O5  UNL     1      14.305  -8.576   6.643  1.00  0.00    -0.352 OA
HETATM    5  C15 UNL     1      13.595  -7.339   6.695  1.00  0.00     0.168 C 
HETATM    6  C16 UNL     1      13.133  -6.951   5.275  1.00  0.00     0.041 C 
HETATM    7  C17 UNL     1      14.127  -5.872   4.856  1.00  0.00     0.004 C 
HETATM    8  C18 UNL     1      13.792  -4.980   3.652  1.00  0.00    -0.001 C 
HETATM    9  C19 UNL     1      13.482  -5.842   2.413  1.00  0.00     0.010 C 
HETATM   10  C20 UNL     1      13.289  -5.005   1.155  1.00  0.00     0.036 C 
HETATM   11  C21 UNL     1      14.482  -4.108   0.944  1.00  0.00    -0.064 A 
HETATM   12  C22 UNL     1      15.228  -4.220  -0.170  1.00  0.00     0.058 A 
HETATM   13  C23 UNL     1      16.438  -3.399  -0.383  1.00  0.00     0.172 A 
HETATM   14  O6  UNL     1      17.112  -3.507  -1.399  1.00  0.00    -0.289 OA
HETATM   15  C24 UNL     1      16.805  -2.451   0.684  1.00  0.00     0.052 A 
HETATM   16  C25 UNL     1      16.066  -2.341   1.795  1.00  0.00    -0.009 A 
HETATM   17  C26 UNL     1      14.803  -3.144   2.095  1.00  0.00     0.004 A 
HETATM   18  C27 UNL     1      13.654  -2.115   2.200  1.00  0.00     0.025 C 
HETATM   19  C28 UNL     1      15.007  -4.022   3.389  1.00  0.00     0.035 C 
HETATM   20  C29 UNL     1      15.430  -3.254   4.676  1.00  0.00     0.124 C 
HETATM   21  C30 UNL     1      15.593  -4.167   5.915  1.00  0.00     0.045 C 
HETATM   22  C31 UNL     1      14.375  -5.083   6.165  1.00  0.00     0.004 C 
HETATM   23  C32 UNL     1      13.145  -4.253   6.620  1.00  0.00     0.019 C 
ENDROOT
BRANCH   1  24
HETATM   24  C6  UNL     1      14.451  -5.911   8.635  1.00  0.00     0.188 C 
HETATM   25  O3  UNL     1      13.408  -6.136   9.255  1.00  0.00    -0.292 OA
BRANCH  24  26
HETATM   26  C5  UNL     1      15.623  -5.181   9.292  1.00  0.00     0.260 C 
BRANCH  26  27
HETATM   27  O2  UNL     1      16.283  -5.991  10.267  1.00  0.00    -0.314 OA
BRANCH  27  28
HETATM   28  C4  UNL     1      17.627  -5.772  10.344  1.00  0.00     0.262 C 
HETATM   29  O1  UNL     1      18.472  -6.451   9.770  1.00  0.00    -0.265 OA
BRANCH  28  30
HETATM   30  C2  UNL     1      17.953  -4.543  11.169  1.00  0.00     0.077 C 
HETATM   31  C1  UNL     1      18.712  -3.493  10.362  1.00  0.00     0.020 C 
HETATM   32  C3  UNL     1      18.722  -4.954  12.418  1.00  0.00     0.020 C 
ENDBRANCH  28  30
ENDBRANCH  27  28
ENDBRANCH  26  27
ENDBRANCH  24  26
ENDBRANCH   1  24
BRANCH   3  33
HETATM   33  C9  UNL     1      16.605  -8.986   5.978  1.00  0.00     0.041 C 
HETATM   34  C10 UNL     1      17.867  -9.517   6.686  1.00  0.00     0.009 C 
HETATM   35  C11 UNL     1      18.558 -10.659   5.936  1.00  0.00     0.001 C 
HETATM   36  C12 UNL     1      18.313 -10.582   4.437  1.00  0.00     0.000 C 
HETATM   37  C13 UNL     1      16.824 -10.685   4.105  1.00  0.00     0.001 C 
HETATM   38  C14 UNL     1      15.911 -10.102   5.189  1.00  0.00     0.009 C 
ENDBRANCH   3  33
BRANCH  20  39
HETATM   39  O7  UNL     1      14.512  -2.213   4.975  1.00  0.00    -0.395 OA
HETATM   40  H39 UNL     1      14.850  -1.722   5.746  1.00  0.00     0.210 HD
ENDBRANCH  20  39
TORSDOF 7
ENDMDL
MODEL 9
REMARK minimizedAffinity -8.5257616
REMARK CNNscore 0.31896323
REMARK CNNaffinity 6.74928474
REMARK  7 active torsions:
REMARK  status: ('A' for Active; 'I' for Inactive)
REMARK    1  A    between atoms: C2_2  and  C4_4 
REMARK    2  A    between atoms: C4_4  and  O2_6 
REMARK    3  A    between atoms: O2_6  and  C5_7 
REMARK    4  A    between atoms: C5_7  and  C6_8 
REMARK    5  A    between atoms: C6_8  and  C7_10 
REMARK    6  A    between atoms: C8_12  and  C9_13 
REMARK    7  A    between atoms: C29_35  and  O7_36 
ROOT
HETATM    1  C7  UNL     1      -1.438   7.294  13.610  1.00  0.00     0.160 C 
HETATM    2  O4  UNL     1      -2.711   7.300  12.962  1.00  0.00    -0.339 OA
HETATM    3  C8  UNL     1      -3.344   6.067  13.317  1.00  0.00     0.266 C 
HETATM    4  O5  UNL     1      -2.815   5.600  14.552  1.00  0.00    -0.352 OA
HETATM    5  C15 UNL     1      -1.638   6.362  14.817  1.00  0.00     0.168 C 
HETATM    6  C16 UNL     1      -1.874   7.259  16.049  1.00  0.00     0.041 C 
HETATM    7  C17 UNL     1      -2.117   8.641  15.447  1.00  0.00     0.004 C 
HETATM    8  C18 UNL     1      -2.035   9.874  16.357  1.00  0.00    -0.001 C 
HETATM    9  C19 UNL     1      -2.977   9.714  17.566  1.00  0.00     0.010 C 
HETATM   10  C20 UNL     1      -3.045  10.973  18.421  1.00  0.00     0.036 C 
HETATM   11  C21 UNL     1      -3.408  12.160  17.566  1.00  0.00    -0.064 A 
HETATM   12  C22 UNL     1      -4.532  12.856  17.812  1.00  0.00     0.058 A 
HETATM   13  C23 UNL     1      -4.949  13.987  16.958  1.00  0.00     0.172 A 
HETATM   14  O6  UNL     1      -5.974  14.617  17.187  1.00  0.00    -0.289 OA
HETATM   15  C24 UNL     1      -4.085  14.321  15.811  1.00  0.00     0.052 A 
HETATM   16  C25 UNL     1      -2.968  13.626  15.563  1.00  0.00    -0.009 A 
HETATM   17  C26 UNL     1      -2.461  12.450  16.392  1.00  0.00     0.004 A 
HETATM   18  C27 UNL     1      -1.095  12.887  16.968  1.00  0.00     0.025 C 
HETATM   19  C28 UNL     1      -2.405  11.143  15.511  1.00  0.00     0.035 C 
HETATM   20  C29 UNL     1      -1.562  11.235  14.205  1.00  0.00     0.124 C 
HETATM   21  C30 UNL     1      -1.528   9.917  13.397  1.00  0.00     0.045 C 
HETATM   22  C31 UNL     1      -1.140   8.687  14.247  1.00  0.00     0.004 C 
HETATM   23  C32 UNL     1       0.351   8.762  14.676  1.00  0.00     0.019 C 
ENDROOT
BRANCH   1  24
HETATM   24  C6  UNL     1      -0.354   6.785  12.648  1.00  0.00     0.188 C 
HETATM   25  O3  UNL     1      -0.200   7.270  11.523  1.00  0.00    -0.292 OA
BRANCH  24  26
HETATM   26  C5  UNL     1       0.476   5.588  13.115  1.00  0.00     0.260 C 
BRANCH  26  27
HETATM   27  O2  UNL     1      -0.253   4.361  13.029  1.00  0.00    -0.314 OA
BRANCH  27  28
HETATM   28  C4  UNL     1      -0.136   3.736  11.823  1.00  0.00     0.262 C 
HETATM   29  O1  UNL     1       0.854   3.805  11.101  1.00  0.00    -0.265 OA
BRANCH  28  30
HETATM   30  C2  UNL     1      -1.350   2.884  11.508  1.00  0.00     0.077 C 
HETATM   31  C1  UNL     1      -0.967   1.553  10.866  1.00  0.00     0.020 C 
HETATM   32  C3  UNL     1      -2.315   3.673  10.633  1.00  0.00     0.020 C 
ENDBRANCH  28  30
ENDBRANCH  27  28
ENDBRANCH  26  27
ENDBRANCH  24  26
ENDBRANCH   1  24
BRANCH   3  33
HETATM   33  C9  UNL     1      -4.858   6.289  13.434  1.00  0.00     0.041 C 
HETATM   34  C10 UNL     1      -5.626   4.953  13.374  1.00  0.00     0.009 C 
HETATM   35  C11 UNL     1      -7.013   5.013  14.019  1.00  0.00     0.001 C 
HETATM   36  C12 UNL     1      -7.605   6.413  13.963  1.00  0.00     0.000 C 
HETATM   37  C13 UNL     1      -6.734   7.422  14.713  1.00  0.00     0.001 C 
HETATM   38  C14 UNL     1      -5.240   7.084  14.687  1.00  0.00     0.009 C 
ENDBRANCH   3  33
BRANCH  20  39
HETATM   39  O7  UNL     1      -0.233  11.653  14.483  1.00  0.00    -0.395 OA
HETATM   40  H39 UNL     1       0.236  11.758  13.635  1.00  0.00     0.210 HD
ENDBRANCH  20  39
TORSDOF 7
ENDMDL
