MODEL 1
REMARK minimizedAffinity -9.22634697
REMARK  5 active torsions:
REMARK  status: ('A' for Active; 'I' for Inactive)
REMARK    1  A    between atoms: C2_2  and  C3_3 
REMARK    2  A    between atoms: C4_5  and  C5_6 
REMARK    3  A    between atoms: C5_6  and  C6_7 
REMARK    4  A    between atoms: C6_7  and  C7_8 
REMARK    5  A    between atoms: C7_8  and  C9_10 
ROOT
HETATM    1  C9  UNL     1       1.259   7.164  12.865  1.00  0.00    -0.001 C 
HETATM    2  C10 UNL     1       0.421   8.246  13.605  1.00  0.00     0.007 C 
HETATM    3  C11 UNL     1      -1.019   7.715  13.724  1.00  0.00     0.015 C 
HETATM    4  C12 UNL     1      -0.922   6.217  13.378  1.00  0.00    -0.004 C 
HETATM    5  C13 UNL     1      -0.480   5.474  14.674  1.00  0.00     0.021 C 
HETATM    6  C14 UNL     1      -2.144   5.463  12.880  1.00  0.00     0.007 C 
HETATM    7  C15 UNL     1      -2.056   4.365  12.087  1.00  0.00     0.007 C 
HETATM    8  C16 UNL     1      -0.665   3.945  11.631  1.00  0.00     0.157 C 
HETATM    9  O2  UNL     1      -0.498   2.880  11.038  1.00  0.00    -0.293 OA
HETATM   10  C17 UNL     1       0.547   4.827  11.906  1.00  0.00     0.094 C 
HETATM   11  C18 UNL     1       0.151   6.266  12.229  1.00  0.00    -0.022 C 
HETATM   12  C19 UNL     1      -0.377   6.939  10.920  1.00  0.00     0.017 C 
HETATM   13  C20 UNL     1      -3.266   3.525  11.600  1.00  0.00    -0.007 C 
HETATM   14  C21 UNL     1      -3.437   3.843  10.094  1.00  0.00     0.021 C 
HETATM   15  C22 UNL     1      -3.025   1.989  11.770  1.00  0.00     0.022 C 
HETATM   16  C23 UNL     1      -4.268   1.134  12.005  1.00  0.00     0.080 C 
HETATM   17  C24 UNL     1      -5.513   1.776  11.447  1.00  0.00     0.135 C 
HETATM   18  O3  UNL     1      -6.233   1.176  10.651  1.00  0.00    -0.297 OA
HETATM   19  C25 UNL     1      -5.863   3.165  11.992  1.00  0.00     0.018 C 
HETATM   20  C26 UNL     1      -6.680   3.946  10.944  1.00  0.00     0.023 C 
HETATM   21  C27 UNL     1      -6.779   2.939  13.214  1.00  0.00     0.023 C 
HETATM   22  C28 UNL     1      -4.544   3.881  12.442  1.00  0.00     0.021 C 
HETATM   23  C29 UNL     1      -4.699   5.392  12.596  1.00  0.00     0.090 C 
HETATM   24  C30 UNL     1      -3.494   5.939  13.313  1.00  0.00     0.157 C 
HETATM   25  O4  UNL     1      -3.623   6.769  14.207  1.00  0.00    -0.293 OA
ENDROOT
BRANCH   1  26
HETATM   26  C7  UNL     1       2.358   7.799  11.960  1.00  0.00    -0.014 C 
HETATM   27  C8  UNL     1       2.898   9.108  12.553  1.00  0.00     0.010 C 
BRANCH  26  28
HETATM   28  C6  UNL     1       1.810   8.078  10.531  1.00  0.00     0.008 C 
BRANCH  28  29
HETATM   29  C5  UNL     1       2.885   8.109   9.434  1.00  0.00     0.028 C 
BRANCH  29  30
HETATM   30  C4  UNL     1       3.089   6.803   8.722  1.00  0.00    -0.017 C 
HETATM   31  C2  UNL     1       2.585   6.447   7.525  1.00  0.00    -0.028 C 
HETATM   32  C1  UNL     1       1.746   7.287   6.617  1.00  0.00     0.051 C 
BRANCH  31  33
HETATM   33  C3  UNL     1       2.907   5.080   7.011  1.00  0.00     0.265 C 
HETATM   34  O1  UNL     1       3.572   4.256   7.626  1.00  0.00    -0.302 OA
ENDBRANCH  31  33
ENDBRANCH  29  30
ENDBRANCH  28  29
ENDBRANCH  26  28
ENDBRANCH   1  26
TORSDOF 5
ENDMDL
MODEL 2
REMARK minimizedAffinity -9.01946449
REMARK  5 active torsions:
REMARK  status: ('A' for Active; 'I' for Inactive)
REMARK    1  A    between atoms: C2_2  and  C3_3 
REMARK    2  A    between atoms: C4_5  and  C5_6 
REMARK    3  A    between atoms: C5_6  and  C6_7 
REMARK    4  A    between atoms: C6_7  and  C7_8 
REMARK    5  A    between atoms: C7_8  and  C9_10 
ROOT
HETATM    1  C9  UNL     1      -2.155   6.493  13.146  1.00  0.00    -0.001 C 
HETATM    2  C10 UNL     1      -2.155   5.612  11.864  1.00  0.00     0.007 C 
HETATM    3  C11 UNL     1      -0.698   5.498  11.381  1.00  0.00     0.015 C 
HETATM    4  C12 UNL     1       0.154   6.003  12.561  1.00  0.00    -0.004 C 
HETATM    5  C13 UNL     1       0.326   4.810  13.548  1.00  0.00     0.021 C 
HETATM    6  C14 UNL     1       1.559   6.533  12.322  1.00  0.00     0.007 C 
HETATM    7  C15 UNL     1       2.150   7.439  13.141  1.00  0.00     0.007 C 
HETATM    8  C16 UNL     1       1.315   7.988  14.291  1.00  0.00     0.157 C 
HETATM    9  O2  UNL     1       1.830   8.695  15.155  1.00  0.00    -0.293 OA
HETATM   10  C17 UNL     1      -0.171   7.666  14.401  1.00  0.00     0.094 C 
HETATM   11  C18 UNL     1      -0.754   7.178  13.076  1.00  0.00    -0.022 C 
HETATM   12  C19 UNL     1      -0.816   8.389  12.088  1.00  0.00     0.017 C 
HETATM   13  C20 UNL     1       3.599   7.968  12.978  1.00  0.00    -0.007 C 
HETATM   14  C21 UNL     1       3.475   9.424  12.468  1.00  0.00     0.021 C 
HETATM   15  C22 UNL     1       4.383   7.969  14.332  1.00  0.00     0.022 C 
HETATM   16  C23 UNL     1       5.895   7.781  14.236  1.00  0.00     0.080 C 
HETATM   17  C24 UNL     1       6.438   8.223  12.901  1.00  0.00     0.135 C 
HETATM   18  O3  UNL     1       7.345   9.050  12.828  1.00  0.00    -0.297 OA
HETATM   19  C25 UNL     1       5.859   7.522  11.666  1.00  0.00     0.018 C 
HETATM   20  C26 UNL     1       5.964   8.451  10.441  1.00  0.00     0.023 C 
HETATM   21  C27 UNL     1       6.759   6.297  11.394  1.00  0.00     0.023 C 
HETATM   22  C28 UNL     1       4.401   7.047  11.990  1.00  0.00     0.021 C 
HETATM   23  C29 UNL     1       3.579   6.729  10.743  1.00  0.00     0.090 C 
HETATM   24  C30 UNL     1       2.326   6.003  11.154  1.00  0.00     0.157 C 
HETATM   25  O4  UNL     1       1.939   5.022  10.526  1.00  0.00    -0.293 OA
ENDROOT
BRANCH   1  26
HETATM   26  C7  UNL     1      -3.443   7.365  13.252  1.00  0.00    -0.014 C 
HETATM   27  C8  UNL     1      -3.368   8.353  14.424  1.00  0.00     0.010 C 
BRANCH  26  28
HETATM   28  C6  UNL     1      -4.706   6.473  13.420  1.00  0.00     0.008 C 
BRANCH  28  29
HETATM   29  C5  UNL     1      -4.517   5.015  12.971  1.00  0.00     0.028 C 
BRANCH  29  30
HETATM   30  C4  UNL     1      -5.736   4.153  13.119  1.00  0.00    -0.017 C 
HETATM   31  C2  UNL     1      -6.136   3.167  12.292  1.00  0.00    -0.028 C 
HETATM   32  C1  UNL     1      -5.433   2.684  11.065  1.00  0.00     0.051 C 
BRANCH  31  33
HETATM   33  C3  UNL     1      -7.401   2.444  12.629  1.00  0.00     0.265 C 
HETATM   34  O1  UNL     1      -8.460   3.001  12.890  1.00  0.00    -0.302 OA
ENDBRANCH  31  33
ENDBRANCH  29  30
ENDBRANCH  28  29
ENDBRANCH  26  28
ENDBRANCH   1  26
TORSDOF 5
ENDMDL
MODEL 3
REMARK minimizedAffinity -9.01438236
REMARK  5 active torsions:
REMARK  status: ('A' for Active; 'I' for Inactive)
REMARK    1  A    between atoms: C2_2  and  C3_3 
REMARK    2  A    between atoms: C4_5  and  C5_6 
REMARK    3  A    between atoms: C5_6  and  C6_7 
REMARK    4  A    between atoms: C6_7  and  C7_8 
REMARK    5  A    between atoms: C7_8  and  C9_10 
ROOT
HETATM    1  C9  UNL     1      -2.326   5.913  13.021  1.00  0.00    -0.001 C 
HETATM    2  C10 UNL     1      -2.215   5.075  11.715  1.00  0.00     0.007 C 
HETATM    3  C11 UNL     1      -0.747   5.125  11.257  1.00  0.00     0.015 C 
HETATM    4  C12 UNL     1       0.030   5.681  12.466  1.00  0.00    -0.004 C 
HETATM    5  C13 UNL     1       0.309   4.483  13.423  1.00  0.00     0.021 C 
HETATM    6  C14 UNL     1       1.376   6.358  12.268  1.00  0.00     0.007 C 
HETATM    7  C15 UNL     1       1.857   7.297  13.122  1.00  0.00     0.007 C 
HETATM    8  C16 UNL     1       0.953   7.723  14.270  1.00  0.00     0.157 C 
HETATM    9  O2  UNL     1       1.379   8.455  15.162  1.00  0.00    -0.293 OA
HETATM   10  C17 UNL     1      -0.494   7.247  14.344  1.00  0.00     0.094 C 
HETATM   11  C18 UNL     1      -1.003   6.741  12.995  1.00  0.00    -0.022 C 
HETATM   12  C19 UNL     1      -1.174   7.967  12.040  1.00  0.00     0.017 C 
HETATM   13  C20 UNL     1       3.247   7.976  13.000  1.00  0.00    -0.007 C 
HETATM   14  C21 UNL     1       2.981   9.426  12.527  1.00  0.00     0.021 C 
HETATM   15  C22 UNL     1       4.005   8.019  14.368  1.00  0.00     0.022 C 
HETATM   16  C23 UNL     1       5.530   7.990  14.295  1.00  0.00     0.080 C 
HETATM   17  C24 UNL     1       6.045   8.523  12.982  1.00  0.00     0.135 C 
HETATM   18  O3  UNL     1       6.862   9.442  12.948  1.00  0.00    -0.297 OA
HETATM   19  C25 UNL     1       5.561   7.803  11.719  1.00  0.00     0.018 C 
HETATM   20  C26 UNL     1       5.589   8.772  10.521  1.00  0.00     0.023 C 
HETATM   21  C27 UNL     1       6.587   6.686  11.430  1.00  0.00     0.023 C 
HETATM   22  C28 UNL     1       4.155   7.171  12.002  1.00  0.00     0.021 C 
HETATM   23  C29 UNL     1       3.390   6.807  10.732  1.00  0.00     0.090 C 
HETATM   24  C30 UNL     1       2.212   5.944  11.100  1.00  0.00     0.157 C 
HETATM   25  O4  UNL     1       1.938   4.947  10.439  1.00  0.00    -0.293 OA
ENDROOT
BRANCH   1  26
HETATM   26  C7  UNL     1      -3.699   6.645  13.126  1.00  0.00    -0.014 C 
HETATM   27  C8  UNL     1      -3.534   8.105  13.570  1.00  0.00     0.010 C 
BRANCH  26  28
HETATM   28  C6  UNL     1      -4.643   5.915  14.123  1.00  0.00     0.008 C 
BRANCH  28  29
HETATM   29  C5  UNL     1      -5.878   5.273  13.472  1.00  0.00     0.028 C 
BRANCH  29  30
HETATM   30  C4  UNL     1      -5.570   4.190  12.480  1.00  0.00    -0.017 C 
HETATM   31  C2  UNL     1      -6.271   3.059  12.271  1.00  0.00    -0.028 C 
HETATM   32  C1  UNL     1      -7.538   2.650  12.951  1.00  0.00     0.051 C 
BRANCH  31  33
HETATM   33  C3  UNL     1      -5.767   2.107  11.234  1.00  0.00     0.265 C 
HETATM   34  O1  UNL     1      -6.122   0.938  11.148  1.00  0.00    -0.302 OA
ENDBRANCH  31  33
ENDBRANCH  29  30
ENDBRANCH  28  29
ENDBRANCH  26  28
ENDBRANCH   1  26
TORSDOF 5
ENDMDL
MODEL 4
REMARK minimizedAffinity -9.00284386
REMARK  5 active torsions:
REMARK  status: ('A' for Active; 'I' for Inactive)
REMARK    1  A    between atoms: C2_2  and  C3_3 
REMARK    2  A    between atoms: C4_5  and  C5_6 
REMARK    3  A    between atoms: C5_6  and  C6_7 
REMARK    4  A    between atoms: C6_7  and  C7_8 
REMARK    5  A    between atoms: C7_8  and  C9_10 
ROOT
HETATM    1  C9  UNL     1      -1.539   5.931  12.114  1.00  0.00    -0.001 C 
HETATM    2  C10 UNL     1      -1.999   6.821  13.304  1.00  0.00     0.007 C 
HETATM    3  C11 UNL     1      -0.885   7.849  13.570  1.00  0.00     0.015 C 
HETATM    4  C12 UNL     1       0.029   7.777  12.332  1.00  0.00    -0.004 C 
HETATM    5  C13 UNL     1      -0.616   8.674  11.232  1.00  0.00     0.021 C 
HETATM    6  C14 UNL     1       1.478   8.229  12.419  1.00  0.00     0.007 C 
HETATM    7  C15 UNL     1       2.448   7.739  11.607  1.00  0.00     0.007 C 
HETATM    8  C16 UNL     1       2.053   6.636  10.634  1.00  0.00     0.157 C 
HETATM    9  O2  UNL     1       2.841   6.252   9.771  1.00  0.00    -0.293 OA
HETATM   10  C17 UNL     1       0.673   5.992  10.703  1.00  0.00     0.094 C 
HETATM   11  C18 UNL     1      -0.008   6.231  12.049  1.00  0.00    -0.022 C 
HETATM   12  C19 UNL     1       0.734   5.387  13.135  1.00  0.00     0.017 C 
HETATM   13  C20 UNL     1       3.928   8.207  11.613  1.00  0.00    -0.007 C 
HETATM   14  C21 UNL     1       4.743   7.059  12.259  1.00  0.00     0.021 C 
HETATM   15  C22 UNL     1       4.471   8.466  10.170  1.00  0.00     0.022 C 
HETATM   16  C23 UNL     1       5.562   9.527  10.041  1.00  0.00     0.080 C 
HETATM   17  C24 UNL     1       6.338   9.702  11.321  1.00  0.00     0.135 C 
HETATM   18  O3  UNL     1       7.563   9.597  11.339  1.00  0.00    -0.297 OA
HETATM   19  C25 UNL     1       5.526  10.099  12.559  1.00  0.00     0.018 C 
HETATM   20  C26 UNL     1       6.243   9.612  13.833  1.00  0.00     0.023 C 
HETATM   21  C27 UNL     1       5.512  11.642  12.599  1.00  0.00     0.023 C 
HETATM   22  C28 UNL     1       4.063   9.560  12.400  1.00  0.00     0.021 C 
HETATM   23  C29 UNL     1       3.290   9.511  13.716  1.00  0.00     0.090 C 
HETATM   24  C30 UNL     1       1.833   9.280  13.422  1.00  0.00     0.157 C 
HETATM   25  O4  UNL     1       0.967   9.920  14.010  1.00  0.00    -0.293 OA
ENDROOT
BRANCH   1  26
HETATM   26  C7  UNL     1      -2.037   4.461  12.261  1.00  0.00    -0.014 C 
HETATM   27  C8  UNL     1      -2.312   3.813  10.898  1.00  0.00     0.010 C 
BRANCH  26  28
HETATM   28  C6  UNL     1      -3.330   4.396  13.124  1.00  0.00     0.008 C 
BRANCH  28  29
HETATM   29  C5  UNL     1      -4.606   4.831  12.387  1.00  0.00     0.028 C 
BRANCH  29  30
HETATM   30  C4  UNL     1      -5.844   4.082  12.786  1.00  0.00    -0.017 C 
HETATM   31  C2  UNL     1      -6.292   2.923  12.265  1.00  0.00    -0.028 C 
HETATM   32  C1  UNL     1      -5.634   2.101  11.204  1.00  0.00     0.051 C 
BRANCH  31  33
HETATM   33  C3  UNL     1      -7.567   2.360  12.809  1.00  0.00     0.265 C 
HETATM   34  O1  UNL     1      -8.629   2.970  12.833  1.00  0.00    -0.302 OA
ENDBRANCH  31  33
ENDBRANCH  29  30
ENDBRANCH  28  29
ENDBRANCH  26  28
ENDBRANCH   1  26
TORSDOF 5
ENDMDL
MODEL 5
REMARK minimizedAffinity -8.90049458
REMARK  5 active torsions:
REMARK  status: ('A' for Active; 'I' for Inactive)
REMARK    1  A    between atoms: C2_2  and  C3_3 
REMARK    2  A    between atoms: C4_5  and  C5_6 
REMARK    3  A    between atoms: C5_6  and  C6_7 
REMARK    4  A    between atoms: C6_7  and  C7_8 
REMARK    5  A    between atoms: C7_8  and  C9_10 
ROOT
HETATM    1  C9  UNL     1      -3.786   7.242  14.671  1.00  0.00    -0.001 C 
HETATM    2  C10 UNL     1      -4.355   6.009  13.912  1.00  0.00     0.007 C 
HETATM    3  C11 UNL     1      -3.238   5.472  13.000  1.00  0.00     0.015 C 
HETATM    4  C12 UNL     1      -1.953   6.163  13.493  1.00  0.00    -0.004 C 
HETATM    5  C13 UNL     1      -1.430   5.345  14.712  1.00  0.00     0.021 C 
HETATM    6  C14 UNL     1      -0.756   6.312  12.567  1.00  0.00     0.007 C 
HETATM    7  C15 UNL     1       0.156   7.306  12.702  1.00  0.00     0.007 C 
HETATM    8  C16 UNL     1      -0.101   8.346  13.785  1.00  0.00     0.157 C 
HETATM    9  O2  UNL     1       0.755   9.186  14.061  1.00  0.00    -0.293 OA
HETATM   10  C17 UNL     1      -1.416   8.363  14.555  1.00  0.00     0.094 C 
HETATM   11  C18 UNL     1      -2.517   7.591  13.831  1.00  0.00    -0.022 C 
HETATM   12  C19 UNL     1      -2.940   8.403  12.564  1.00  0.00     0.017 C 
HETATM   13  C20 UNL     1       1.425   7.470  11.824  1.00  0.00    -0.007 C 
HETATM   14  C21 UNL     1       1.155   8.678  10.893  1.00  0.00     0.021 C 
HETATM   15  C22 UNL     1       2.701   7.764  12.679  1.00  0.00     0.022 C 
HETATM   16  C23 UNL     1       4.027   7.274  12.102  1.00  0.00     0.080 C 
HETATM   17  C24 UNL     1       3.980   7.147  10.600  1.00  0.00     0.135 C 
HETATM   18  O3  UNL     1       4.804   7.719   9.890  1.00  0.00    -0.297 OA
HETATM   19  C25 UNL     1       2.912   6.205  10.031  1.00  0.00     0.018 C 
HETATM   20  C26 UNL     1       2.532   6.648   8.605  1.00  0.00     0.023 C 
HETATM   21  C27 UNL     1       3.569   4.812   9.921  1.00  0.00     0.023 C 
HETATM   22  C28 UNL     1       1.705   6.144  11.029  1.00  0.00     0.021 C 
HETATM   23  C29 UNL     1       0.426   5.600  10.397  1.00  0.00     0.090 C 
HETATM   24  C30 UNL     1      -0.567   5.296  11.486  1.00  0.00     0.157 C 
HETATM   25  O4  UNL     1      -1.218   4.256  11.465  1.00  0.00    -0.293 OA
ENDROOT
BRANCH   1  26
HETATM   26  C7  UNL     1      -4.878   8.327  14.917  1.00  0.00    -0.014 C 
HETATM   27  C8  UNL     1      -4.358   9.470  15.798  1.00  0.00     0.010 C 
BRANCH  26  28
HETATM   28  C6  UNL     1      -6.139   7.706  15.583  1.00  0.00     0.008 C 
BRANCH  28  29
HETATM   29  C5  UNL     1      -7.220   7.248  14.591  1.00  0.00     0.028 C 
BRANCH  29  30
HETATM   30  C4  UNL     1      -7.313   5.761  14.412  1.00  0.00    -0.017 C 
HETATM   31  C2  UNL     1      -7.897   5.103  13.391  1.00  0.00    -0.028 C 
HETATM   32  C1  UNL     1      -8.546   5.707  12.187  1.00  0.00     0.051 C 
BRANCH  31  33
HETATM   33  C3  UNL     1      -7.886   3.608  13.426  1.00  0.00     0.265 C 
HETATM   34  O1  UNL     1      -8.646   2.902  12.775  1.00  0.00    -0.302 OA
ENDBRANCH  31  33
ENDBRANCH  29  30
ENDBRANCH  28  29
ENDBRANCH  26  28
ENDBRANCH   1  26
TORSDOF 5
ENDMDL
MODEL 6
REMARK minimizedAffinity -8.67375374
REMARK  5 active torsions:
REMARK  status: ('A' for Active; 'I' for Inactive)
REMARK    1  A    between atoms: C2_2  and  C3_3 
REMARK    2  A    between atoms: C4_5  and  C5_6 
REMARK    3  A    between atoms: C5_6  and  C6_7 
REMARK    4  A    between atoms: C6_7  and  C7_8 
REMARK    5  A    between atoms: C7_8  and  C9_10 
ROOT
HETATM    1  C9  UNL     1      -5.090   6.731  14.862  1.00  0.00    -0.001 C 
HETATM    2  C10 UNL     1      -5.478   5.468  14.041  1.00  0.00     0.007 C 
HETATM    3  C11 UNL     1      -4.262   5.084  13.180  1.00  0.00     0.015 C 
HETATM    4  C12 UNL     1      -3.089   5.896  13.762  1.00  0.00    -0.004 C 
HETATM    5  C13 UNL     1      -2.544   5.102  14.988  1.00  0.00     0.021 C 
HETATM    6  C14 UNL     1      -1.869   6.203  12.909  1.00  0.00     0.007 C 
HETATM    7  C15 UNL     1      -1.080   7.286  13.120  1.00  0.00     0.007 C 
HETATM    8  C16 UNL     1      -1.507   8.257  14.213  1.00  0.00     0.157 C 
HETATM    9  O2  UNL     1      -0.766   9.176  14.557  1.00  0.00    -0.293 OA
HETATM   10  C17 UNL     1      -2.856   8.107  14.908  1.00  0.00     0.094 C 
HETATM   11  C18 UNL     1      -3.825   7.242  14.104  1.00  0.00    -0.022 C 
HETATM   12  C19 UNL     1      -4.266   8.043  12.835  1.00  0.00     0.017 C 
HETATM   13  C20 UNL     1       0.207   7.615  12.319  1.00  0.00    -0.007 C 
HETATM   14  C21 UNL     1      -0.144   8.814  11.404  1.00  0.00     0.021 C 
HETATM   15  C22 UNL     1       1.396   8.019  13.251  1.00  0.00     0.022 C 
HETATM   16  C23 UNL     1       2.797   7.694  12.737  1.00  0.00     0.080 C 
HETATM   17  C24 UNL     1       2.844   7.609  11.233  1.00  0.00     0.135 C 
HETATM   18  O3  UNL     1       3.636   8.290  10.584  1.00  0.00    -0.297 OA
HETATM   19  C25 UNL     1       1.919   6.575  10.581  1.00  0.00     0.018 C 
HETATM   20  C26 UNL     1       1.568   7.019   9.148  1.00  0.00     0.023 C 
HETATM   21  C27 UNL     1       2.730   5.267  10.473  1.00  0.00     0.023 C 
HETATM   22  C28 UNL     1       0.675   6.353  11.507  1.00  0.00     0.021 C 
HETATM   23  C29 UNL     1      -0.501   5.692  10.791  1.00  0.00     0.090 C 
HETATM   24  C30 UNL     1      -1.512   5.248  11.815  1.00  0.00     0.157 C 
HETATM   25  O4  UNL     1      -2.042   4.144  11.731  1.00  0.00    -0.293 OA
ENDROOT
BRANCH   1  26
HETATM   26  C7  UNL     1      -6.307   7.683  15.073  1.00  0.00    -0.014 C 
HETATM   27  C8  UNL     1      -5.863   9.134  15.301  1.00  0.00     0.010 C 
BRANCH  26  28
HETATM   28  C6  UNL     1      -7.171   7.220  16.281  1.00  0.00     0.008 C 
BRANCH  28  29
HETATM   29  C5  UNL     1      -8.304   6.249  15.915  1.00  0.00     0.028 C 
BRANCH  29  30
HETATM   30  C4  UNL     1      -9.425   6.864  15.130  1.00  0.00    -0.017 C 
HETATM   31  C2  UNL     1      -9.677   6.704  13.816  1.00  0.00    -0.028 C 
HETATM   32  C1  UNL     1      -8.921   5.844  12.855  1.00  0.00     0.051 C 
BRANCH  31  33
HETATM   33  C3  UNL     1     -10.849   7.430  13.237  1.00  0.00     0.265 C 
HETATM   34  O1  UNL     1     -12.016   7.133  13.457  1.00  0.00    -0.302 OA
ENDBRANCH  31  33
ENDBRANCH  29  30
ENDBRANCH  28  29
ENDBRANCH  26  28
ENDBRANCH   1  26
TORSDOF 5
ENDMDL
MODEL 7
REMARK minimizedAffinity -8.54992867
REMARK  5 active torsions:
REMARK  status: ('A' for Active; 'I' for Inactive)
REMARK    1  A    between atoms: C2_2  and  C3_3 
REMARK    2  A    between atoms: C4_5  and  C5_6 
REMARK    3  A    between atoms: C5_6  and  C6_7 
REMARK    4  A    between atoms: C6_7  and  C7_8 
REMARK    5  A    between atoms: C7_8  and  C9_10 
ROOT
HETATM    1  C9  UNL     1      -1.985   7.770  13.963  1.00  0.00    -0.001 C 
HETATM    2  C10 UNL     1      -1.847   7.377  15.462  1.00  0.00     0.007 C 
HETATM    3  C11 UNL     1      -0.364   7.527  15.845  1.00  0.00     0.015 C 
HETATM    4  C12 UNL     1       0.267   8.329  14.691  1.00  0.00    -0.004 C 
HETATM    5  C13 UNL     1      -0.017   9.836  14.969  1.00  0.00     0.021 C 
HETATM    6  C14 UNL     1       1.761   8.244  14.424  1.00  0.00     0.007 C 
HETATM    7  C15 UNL     1       2.300   8.458  13.198  1.00  0.00     0.007 C 
HETATM    8  C16 UNL     1       1.335   8.712  12.047  1.00  0.00     0.157 C 
HETATM    9  O2  UNL     1       1.756   9.059  10.944  1.00  0.00    -0.293 OA
HETATM   10  C17 UNL     1      -0.168   8.550  12.238  1.00  0.00     0.094 C 
HETATM   11  C18 UNL     1      -0.506   7.711  13.469  1.00  0.00    -0.022 C 
HETATM   12  C19 UNL     1      -0.113   6.226  13.177  1.00  0.00     0.017 C 
HETATM   13  C20 UNL     1       3.819   8.443  12.883  1.00  0.00    -0.007 C 
HETATM   14  C21 UNL     1       4.086   7.136  12.096  1.00  0.00     0.021 C 
HETATM   15  C22 UNL     1       4.252   9.662  12.003  1.00  0.00     0.022 C 
HETATM   16  C23 UNL     1       5.685  10.156  12.194  1.00  0.00     0.080 C 
HETATM   17  C24 UNL     1       6.595   9.070  12.709  1.00  0.00     0.135 C 
HETATM   18  O3  UNL     1       7.630   8.775  12.112  1.00  0.00    -0.297 OA
HETATM   19  C25 UNL     1       6.202   8.430  14.045  1.00  0.00     0.018 C 
HETATM   20  C26 UNL     1       6.758   6.994  14.119  1.00  0.00     0.023 C 
HETATM   21  C27 UNL     1       6.901   9.252  15.148  1.00  0.00     0.023 C 
HETATM   22  C28 UNL     1       4.647   8.527  14.216  1.00  0.00     0.021 C 
HETATM   23  C29 UNL     1       4.095   7.569  15.268  1.00  0.00     0.090 C 
HETATM   24  C30 UNL     1       2.669   7.945  15.573  1.00  0.00     0.157 C 
HETATM   25  O4  UNL     1       2.266   7.978  16.732  1.00  0.00    -0.293 OA
ENDROOT
BRANCH   1  26
HETATM   26  C7  UNL     1      -3.080   6.928  13.240  1.00  0.00    -0.014 C 
HETATM   27  C8  UNL     1      -4.421   7.673  13.174  1.00  0.00     0.010 C 
BRANCH  26  28
HETATM   28  C6  UNL     1      -3.293   5.562  13.955  1.00  0.00     0.008 C 
BRANCH  28  29
HETATM   29  C5  UNL     1      -3.968   4.491  13.085  1.00  0.00     0.028 C 
BRANCH  29  30
HETATM   30  C4  UNL     1      -5.439   4.321  13.332  1.00  0.00    -0.017 C 
HETATM   31  C2  UNL     1      -6.273   3.470  12.703  1.00  0.00    -0.028 C 
HETATM   32  C1  UNL     1      -5.912   2.473  11.649  1.00  0.00     0.051 C 
BRANCH  31  33
HETATM   33  C3  UNL     1      -7.714   3.481  13.103  1.00  0.00     0.265 C 
HETATM   34  O1  UNL     1      -8.529   2.639  12.749  1.00  0.00    -0.302 OA
ENDBRANCH  31  33
ENDBRANCH  29  30
ENDBRANCH  28  29
ENDBRANCH  26  28
ENDBRANCH   1  26
TORSDOF 5
ENDMDL
MODEL 8
REMARK minimizedAffinity -8.49841499
REMARK  5 active torsions:
REMARK  status: ('A' for Active; 'I' for Inactive)
REMARK    1  A    between atoms: C2_2  and  C3_3 
REMARK    2  A    between atoms: C4_5  and  C5_6 
REMARK    3  A    between atoms: C5_6  and  C6_7 
REMARK    4  A    between atoms: C6_7  and  C7_8 
REMARK    5  A    between atoms: C7_8  and  C9_10 
ROOT
HETATM    1  C9  UNL     1      -1.980   5.573  12.590  1.00  0.00    -0.001 C 
HETATM    2  C10 UNL     1      -1.926   5.888  14.112  1.00  0.00     0.007 C 
HETATM    3  C11 UNL     1      -0.597   6.614  14.387  1.00  0.00     0.015 C 
HETATM    4  C12 UNL     1      -0.069   7.020  12.997  1.00  0.00    -0.004 C 
HETATM    5  C13 UNL     1      -0.781   8.350  12.606  1.00  0.00     0.021 C 
HETATM    6  C14 UNL     1       1.413   7.281  12.785  1.00  0.00     0.007 C 
HETATM    7  C15 UNL     1       2.020   7.124  11.582  1.00  0.00     0.007 C 
HETATM    8  C16 UNL     1       1.171   6.585  10.438  1.00  0.00     0.157 C 
HETATM    9  O2  UNL     1       1.614   6.558   9.290  1.00  0.00    -0.293 OA
HETATM   10  C17 UNL     1      -0.245   6.078  10.687  1.00  0.00     0.094 C 
HETATM   11  C18 UNL     1      -0.491   5.758  12.160  1.00  0.00    -0.022 C 
HETATM   12  C19 UNL     1       0.321   4.474  12.529  1.00  0.00     0.017 C 
HETATM   13  C20 UNL     1       3.514   7.432  11.296  1.00  0.00    -0.007 C 
HETATM   14  C21 UNL     1       4.218   6.061  11.142  1.00  0.00     0.021 C 
HETATM   15  C22 UNL     1       3.706   8.252   9.978  1.00  0.00     0.022 C 
HETATM   16  C23 UNL     1       4.917   9.180   9.932  1.00  0.00     0.080 C 
HETATM   17  C24 UNL     1       6.017   8.725  10.856  1.00  0.00     0.135 C 
HETATM   18  O3  UNL     1       7.157   8.533  10.438  1.00  0.00    -0.297 OA
HETATM   19  C25 UNL     1       5.651   8.603  12.340  1.00  0.00     0.018 C 
HETATM   20  C26 UNL     1       6.560   7.560  13.018  1.00  0.00     0.023 C 
HETATM   21  C27 UNL     1       5.961   9.972  12.982  1.00  0.00     0.023 C 
HETATM   22  C28 UNL     1       4.119   8.295  12.461  1.00  0.00     0.021 C 
HETATM   23  C29 UNL     1       3.721   7.736  13.825  1.00  0.00     0.090 C 
HETATM   24  C30 UNL     1       2.221   7.763  13.947  1.00  0.00     0.157 C 
HETATM   25  O4  UNL     1       1.686   8.146  14.983  1.00  0.00    -0.293 OA
ENDROOT
BRANCH   1  26
HETATM   26  C7  UNL     1      -2.710   4.225  12.301  1.00  0.00    -0.014 C 
HETATM   27  C8  UNL     1      -2.801   3.937  10.797  1.00  0.00     0.010 C 
BRANCH  26  28
HETATM   28  C6  UNL     1      -4.144   4.230  12.905  1.00  0.00     0.008 C 
BRANCH  28  29
HETATM   29  C5  UNL     1      -4.679   5.627  13.256  1.00  0.00     0.028 C 
BRANCH  29  30
HETATM   30  C4  UNL     1      -6.143   5.820  12.989  1.00  0.00    -0.017 C 
HETATM   31  C2  UNL     1      -7.103   4.876  13.021  1.00  0.00    -0.028 C 
HETATM   32  C1  UNL     1      -6.933   3.433  13.371  1.00  0.00     0.051 C 
BRANCH  31  33
HETATM   33  C3  UNL     1      -8.504   5.294  12.703  1.00  0.00     0.265 C 
HETATM   34  O1  UNL     1      -9.098   6.194  13.284  1.00  0.00    -0.302 OA
ENDBRANCH  31  33
ENDBRANCH  29  30
ENDBRANCH  28  29
ENDBRANCH  26  28
ENDBRANCH   1  26
TORSDOF 5
ENDMDL
MODEL 9
REMARK minimizedAffinity -8.41265297
REMARK  5 active torsions:
REMARK  status: ('A' for Active; 'I' for Inactive)
REMARK    1  A    between atoms: C2_2  and  C3_3 
REMARK    2  A    between atoms: C4_5  and  C5_6 
REMARK    3  A    between atoms: C5_6  and  C6_7 
REMARK    4  A    between atoms: C6_7  and  C7_8 
REMARK    5  A    between atoms: C7_8  and  C9_10 
ROOT
HETATM    1  C9  UNL     1       3.508   7.590  10.764  1.00  0.00    -0.001 C 
HETATM    2  C10 UNL     1       3.573   6.107  10.300  1.00  0.00     0.007 C 
HETATM    3  C11 UNL     1       2.204   5.469  10.596  1.00  0.00     0.015 C 
HETATM    4  C12 UNL     1       1.267   6.656  10.892  1.00  0.00    -0.004 C 
HETATM    5  C13 UNL     1       0.777   7.209   9.520  1.00  0.00     0.021 C 
HETATM    6  C14 UNL     1       0.005   6.452  11.715  1.00  0.00     0.007 C 
HETATM    7  C15 UNL     1      -0.564   7.445  12.444  1.00  0.00     0.007 C 
HETATM    8  C16 UNL     1       0.160   8.784  12.481  1.00  0.00     0.157 C 
HETATM    9  O2  UNL     1      -0.371   9.767  12.996  1.00  0.00    -0.293 OA
HETATM   10  C17 UNL     1       1.550   8.938  11.875  1.00  0.00     0.094 C 
HETATM   11  C18 UNL     1       2.248   7.593  11.686  1.00  0.00    -0.022 C 
HETATM   12  C19 UNL     1       2.632   7.033  13.094  1.00  0.00     0.017 C 
HETATM   13  C20 UNL     1      -1.881   7.307  13.253  1.00  0.00    -0.007 C 
HETATM   14  C21 UNL     1      -1.472   7.280  14.746  1.00  0.00     0.021 C 
HETATM   15  C22 UNL     1      -2.849   8.511  13.013  1.00  0.00     0.022 C 
HETATM   16  C23 UNL     1      -4.341   8.212  13.140  1.00  0.00     0.080 C 
HETATM   17  C24 UNL     1      -4.609   7.028  14.034  1.00  0.00     0.135 C 
HETATM   18  O3  UNL     1      -5.364   7.121  15.000  1.00  0.00    -0.297 OA
HETATM   19  C25 UNL     1      -3.959   5.703  13.619  1.00  0.00     0.018 C 
HETATM   20  C26 UNL     1      -3.743   4.816  14.861  1.00  0.00     0.023 C 
HETATM   21  C27 UNL     1      -4.976   4.982  12.709  1.00  0.00     0.023 C 
HETATM   22  C28 UNL     1      -2.650   6.009  12.814  1.00  0.00     0.021 C 
HETATM   23  C29 UNL     1      -1.706   4.814  12.718  1.00  0.00     0.090 C 
HETATM   24  C30 UNL     1      -0.647   5.106  11.689  1.00  0.00     0.157 C 
HETATM   25  O4  UNL     1      -0.316   4.251  10.873  1.00  0.00    -0.293 OA
ENDROOT
BRANCH   1  26
HETATM   26  C7  UNL     1       4.879   8.085  11.320  1.00  0.00    -0.014 C 
HETATM   27  C8  UNL     1       5.326   9.392  10.652  1.00  0.00     0.010 C 
BRANCH  26  28
HETATM   28  C6  UNL     1       5.982   7.007  11.116  1.00  0.00     0.008 C 
BRANCH  28  29
HETATM   29  C5  UNL     1       6.507   6.383  12.419  1.00  0.00     0.028 C 
BRANCH  29  30
HETATM   30  C4  UNL     1       6.360   7.255  13.632  1.00  0.00    -0.017 C 
HETATM   31  C2  UNL     1       7.332   7.955  14.248  1.00  0.00    -0.028 C 
HETATM   32  C1  UNL     1       8.765   8.057  13.836  1.00  0.00     0.051 C 
BRANCH  31  33
HETATM   33  C3  UNL     1       6.959   8.749  15.460  1.00  0.00     0.265 C 
HETATM   34  O1  UNL     1       7.220   8.409  16.608  1.00  0.00    -0.302 OA
ENDBRANCH  31  33
ENDBRANCH  29  30
ENDBRANCH  28  29
ENDBRANCH  26  28
ENDBRANCH   1  26
TORSDOF 5
ENDMDL
