MODEL 1
REMARK minimizedAffinity -9.29392815
REMARK CNNscore 0.661874712
REMARK CNNaffinity 7.91765738
REMARK  15 active torsions:
REMARK  status: ('A' for Active; 'I' for Inactive)
REMARK    1  A    between atoms: O1_2  and  C2_3 
REMARK    2  A    between atoms: C10_14  and  C11_15 
REMARK    3  A    between atoms: C11_15  and  C12_16 
REMARK    4  A    between atoms: C12_16  and  O5_17 
REMARK    5  A    between atoms: C12_16  and  C13_18 
REMARK    6  A    between atoms: C13_18  and  C14_19 
REMARK    7  A    between atoms: C15_20  and  C16_21 
REMARK    8  A    between atoms: C17_22  and  C19_24 
REMARK    9  A    between atoms: C19_24  and  C20_25 
REMARK   10  A    between atoms: C21_26  and  C22_27 
REMARK   11  A    between atoms: C23_28  and  C24_29 
REMARK   12  A    between atoms: C24_29  and  C25_30 
REMARK   13  A    between atoms: C25_30  and  O6_31 
REMARK   14  A    between atoms: C32_39  and  O8_40 
REMARK   15  A    between atoms: C33_41  and  O9_42 
ROOT
HETATM    1  C2  UNL     1      -6.766   4.764  12.728  1.00  0.00     0.192 C 
HETATM    2  C3  UNL     1      -6.236   3.670  11.753  1.00  0.00     0.074 C 
HETATM    3  C4  UNL     1      -4.974   2.928  12.213  1.00  0.00     0.037 C 
HETATM    4  C5  UNL     1      -3.696   3.621  11.751  1.00  0.00     0.122 C 
HETATM    5  C6  UNL     1      -3.322   3.400  10.298  1.00  0.00     0.035 C 
HETATM    6  C7  UNL     1      -1.808   3.588  10.292  1.00  0.00     0.045 C 
HETATM    7  C8  UNL     1      -1.417   3.646  11.770  1.00  0.00     0.221 C 
HETATM    8  O2  UNL     1      -2.560   3.109  12.465  1.00  0.00    -0.371 OA
HETATM    9  C9  UNL     1      -1.156   5.079  12.260  1.00  0.00     0.288 C 
HETATM   10  O3  UNL     1      -1.007   6.058  11.539  1.00  0.00    -0.262 OA
HETATM   11  O4  UNL     1      -1.173   5.117  13.625  1.00  0.00    -0.314 OA
HETATM   12  C10 UNL     1      -1.612   6.354  14.219  1.00  0.00     0.134 C 
HETATM   13  C26 UNL     1      -2.942   6.015  14.930  1.00  0.00     0.033 C 
HETATM   14  C27 UNL     1      -3.795   7.243  15.263  1.00  0.00     0.005 C 
HETATM   15  C28 UNL     1      -4.849   7.619  14.203  1.00  0.00     0.032 C 
HETATM   16  C29 UNL     1      -6.064   6.678  14.021  1.00  0.00     0.131 C 
HETATM   17  O7  UNL     1      -5.688   5.624  13.121  1.00  0.00    -0.347 OA
HETATM   18  C30 UNL     1      -6.665   6.122  15.320  1.00  0.00     0.042 C 
HETATM   19  C31 UNL     1      -7.170   7.237  16.245  1.00  0.00     0.015 C 
HETATM   20  C32 UNL     1      -7.811   5.151  15.009  1.00  0.00     0.158 C 
HETATM   21  C33 UNL     1      -7.398   4.091  13.979  1.00  0.00     0.209 C 
ENDROOT
BRANCH  12  22
HETATM   22  C11 UNL     1      -0.562   6.855  15.222  1.00  0.00     0.064 C 
BRANCH  22  23
HETATM   23  C12 UNL     1      -0.227   8.353  15.128  1.00  0.00     0.124 C 
BRANCH  23  24
HETATM   24  O5  UNL     1       0.976   8.550  15.889  1.00  0.00    -0.395 OA
HETATM   25  H18 UNL     1       1.479   9.281  15.494  1.00  0.00     0.210 HD
ENDBRANCH  23  24
BRANCH  23  26
HETATM   26  C13 UNL     1      -0.065   8.946  13.714  1.00  0.00     0.059 C 
BRANCH  26  27
HETATM   27  C14 UNL     1       1.299   8.760  13.104  1.00  0.00    -0.024 C 
HETATM   28  C15 UNL     1       1.627   8.551  11.819  1.00  0.00    -0.004 C 
BRANCH  28  29
HETATM   29  C16 UNL     1       0.728   8.471  10.693  1.00  0.00     0.002 C 
HETATM   30  C17 UNL     1       1.053   8.198   9.413  1.00  0.00    -0.080 C 
HETATM   31  C18 UNL     1      -0.033   8.221   8.362  1.00  0.00     0.043 C 
BRANCH  30  32
HETATM   32  C19 UNL     1       2.450   7.896   8.895  1.00  0.00     0.060 C 
BRANCH  32  33
HETATM   33  C20 UNL     1       3.107   6.736   9.599  1.00  0.00    -0.022 C 
HETATM   34  C21 UNL     1       4.292   6.730  10.231  1.00  0.00    -0.004 C 
BRANCH  34  35
HETATM   35  C22 UNL     1       5.147   7.883  10.427  1.00  0.00    -0.004 C 
HETATM   36  C23 UNL     1       6.204   7.971  11.247  1.00  0.00    -0.025 C 
BRANCH  36  37
HETATM   37  C24 UNL     1       6.811   6.894  12.111  1.00  0.00     0.053 C 
BRANCH  37  38
HETATM   38  C25 UNL     1       6.556   7.150  13.600  1.00  0.00     0.168 C 
BRANCH  38  39
HETATM   39  O6  UNL     1       5.168   7.382  13.849  1.00  0.00    -0.401 OA
HETATM   40  H37 UNL     1       4.674   6.615  13.513  1.00  0.00     0.209 HD
ENDBRANCH  38  39
ENDBRANCH  37  38
ENDBRANCH  36  37
ENDBRANCH  34  35
ENDBRANCH  32  33
ENDBRANCH  30  32
ENDBRANCH  28  29
ENDBRANCH  26  27
ENDBRANCH  23  26
ENDBRANCH  22  23
ENDBRANCH  12  22
BRANCH   1  41
HETATM   41  O1  UNL     1      -7.847   5.500  12.103  1.00  0.00    -0.358 OA
HETATM   42  C1  UNL     1      -8.852   5.975  12.991  1.00  0.00     0.205 C 
ENDBRANCH   1  41
BRANCH  20  43
HETATM   43  O8  UNL     1      -8.192   4.496  16.229  1.00  0.00    -0.392 OA
HETATM   44  H50 UNL     1      -9.152   4.644  16.357  1.00  0.00     0.210 HD
ENDBRANCH  20  43
BRANCH  21  45
HETATM   45  O9  UNL     1      -8.567   3.331  13.598  1.00  0.00    -0.387 OA
HETATM   46  H52 UNL     1      -9.077   3.924  13.010  1.00  0.00     0.210 HD
ENDBRANCH  21  45
TORSDOF 15
ENDMDL
MODEL 2
REMARK minimizedAffinity -9.08939838
REMARK CNNscore 0.658403039
REMARK CNNaffinity 8.04205608
REMARK  15 active torsions:
REMARK  status: ('A' for Active; 'I' for Inactive)
REMARK    1  A    between atoms: O1_2  and  C2_3 
REMARK    2  A    between atoms: C10_14  and  C11_15 
REMARK    3  A    between atoms: C11_15  and  C12_16 
REMARK    4  A    between atoms: C12_16  and  O5_17 
REMARK    5  A    between atoms: C12_16  and  C13_18 
REMARK    6  A    between atoms: C13_18  and  C14_19 
REMARK    7  A    between atoms: C15_20  and  C16_21 
REMARK    8  A    between atoms: C17_22  and  C19_24 
REMARK    9  A    between atoms: C19_24  and  C20_25 
REMARK   10  A    between atoms: C21_26  and  C22_27 
REMARK   11  A    between atoms: C23_28  and  C24_29 
REMARK   12  A    between atoms: C24_29  and  C25_30 
REMARK   13  A    between atoms: C25_30  and  O6_31 
REMARK   14  A    between atoms: C32_39  and  O8_40 
REMARK   15  A    between atoms: C33_41  and  O9_42 
ROOT
HETATM    1  C2  UNL     1      -6.786   4.914  12.799  1.00  0.00     0.192 C 
HETATM    2  C3  UNL     1      -6.196   3.822  11.858  1.00  0.00     0.074 C 
HETATM    3  C4  UNL     1      -4.934   3.118  12.372  1.00  0.00     0.037 C 
HETATM    4  C5  UNL     1      -3.657   3.836  11.946  1.00  0.00     0.122 C 
HETATM    5  C6  UNL     1      -3.226   3.606  10.510  1.00  0.00     0.035 C 
HETATM    6  C7  UNL     1      -1.718   3.832  10.555  1.00  0.00     0.045 C 
HETATM    7  C8  UNL     1      -1.381   3.917  12.044  1.00  0.00     0.221 C 
HETATM    8  O2  UNL     1      -2.535   3.361  12.706  1.00  0.00    -0.371 OA
HETATM    9  C9  UNL     1      -1.173   5.362  12.524  1.00  0.00     0.288 C 
HETATM   10  O3  UNL     1      -1.022   6.336  11.796  1.00  0.00    -0.262 OA
HETATM   11  O4  UNL     1      -1.239   5.417  13.887  1.00  0.00    -0.314 OA
HETATM   12  C10 UNL     1      -1.729   6.649  14.449  1.00  0.00     0.134 C 
HETATM   13  C26 UNL     1      -3.075   6.286  15.118  1.00  0.00     0.033 C 
HETATM   14  C27 UNL     1      -3.968   7.497  15.404  1.00  0.00     0.005 C 
HETATM   15  C28 UNL     1      -4.993   7.834  14.304  1.00  0.00     0.032 C 
HETATM   16  C29 UNL     1      -6.177   6.861  14.091  1.00  0.00     0.131 C 
HETATM   17  O7  UNL     1      -5.745   5.805  13.219  1.00  0.00    -0.347 OA
HETATM   18  C30 UNL     1      -6.810   6.306  15.375  1.00  0.00     0.042 C 
HETATM   19  C31 UNL     1      -7.375   7.420  16.267  1.00  0.00     0.015 C 
HETATM   20  C32 UNL     1      -7.921   5.304  15.037  1.00  0.00     0.158 C 
HETATM   21  C33 UNL     1      -7.446   4.241  14.036  1.00  0.00     0.209 C 
ENDROOT
BRANCH  12  22
HETATM   22  C11 UNL     1      -0.727   7.189  15.483  1.00  0.00     0.064 C 
BRANCH  22  23
HETATM   23  C12 UNL     1       0.338   8.148  14.925  1.00  0.00     0.124 C 
BRANCH  23  24
HETATM   24  O5  UNL     1      -0.246   9.461  14.944  1.00  0.00    -0.395 OA
HETATM   25  H18 UNL     1       0.460  10.114  15.082  1.00  0.00     0.210 HD
ENDBRANCH  23  24
BRANCH  23  26
HETATM   26  C13 UNL     1       1.706   8.164  15.636  1.00  0.00     0.059 C 
BRANCH  26  27
HETATM   27  C14 UNL     1       2.712   9.117  15.048  1.00  0.00    -0.024 C 
HETATM   28  C15 UNL     1       3.514   8.947  13.985  1.00  0.00    -0.004 C 
BRANCH  28  29
HETATM   29  C16 UNL     1       3.589   7.789  13.128  1.00  0.00     0.002 C 
HETATM   30  C17 UNL     1       3.035   7.647  11.905  1.00  0.00    -0.080 C 
HETATM   31  C18 UNL     1       3.177   6.324  11.188  1.00  0.00     0.043 C 
BRANCH  30  32
HETATM   32  C19 UNL     1       2.226   8.701  11.168  1.00  0.00     0.060 C 
BRANCH  32  33
HETATM   33  C20 UNL     1       0.971   8.153  10.537  1.00  0.00    -0.022 C 
HETATM   34  C21 UNL     1       0.708   8.015   9.228  1.00  0.00    -0.004 C 
BRANCH  34  35
HETATM   35  C22 UNL     1       1.633   8.302   8.150  1.00  0.00    -0.004 C 
HETATM   36  C23 UNL     1       2.500   7.449   7.587  1.00  0.00    -0.025 C 
BRANCH  36  37
HETATM   37  C24 UNL     1       2.690   5.981   7.873  1.00  0.00     0.053 C 
BRANCH  37  38
HETATM   38  C25 UNL     1       3.018   5.192   6.600  1.00  0.00     0.168 C 
BRANCH  38  39
HETATM   39  O6  UNL     1       3.215   3.807   6.893  1.00  0.00    -0.401 OA
HETATM   40  H37 UNL     1       2.414   3.481   7.338  1.00  0.00     0.209 HD
ENDBRANCH  38  39
ENDBRANCH  37  38
ENDBRANCH  36  37
ENDBRANCH  34  35
ENDBRANCH  32  33
ENDBRANCH  30  32
ENDBRANCH  28  29
ENDBRANCH  26  27
ENDBRANCH  23  26
ENDBRANCH  22  23
ENDBRANCH  12  22
BRANCH   1  41
HETATM   41  O1  UNL     1      -7.862   5.616  12.127  1.00  0.00    -0.358 OA
HETATM   42  C1  UNL     1      -9.006   5.887  12.929  1.00  0.00     0.205 C 
ENDBRANCH   1  41
BRANCH  20  43
HETATM   43  O8  UNL     1      -8.328   4.655  16.251  1.00  0.00    -0.392 OA
HETATM   44  H50 UNL     1      -9.296   4.779  16.343  1.00  0.00     0.210 HD
ENDBRANCH  20  43
BRANCH  21  45
HETATM   45  O9  UNL     1      -8.582   3.447  13.624  1.00  0.00    -0.387 OA
HETATM   46  H52 UNL     1      -9.085   4.020  13.011  1.00  0.00     0.210 HD
ENDBRANCH  21  45
TORSDOF 15
ENDMDL
MODEL 3
REMARK minimizedAffinity -8.92212963
REMARK CNNscore 0.589350879
REMARK CNNaffinity 7.73846817
REMARK  15 active torsions:
REMARK  status: ('A' for Active; 'I' for Inactive)
REMARK    1  A    between atoms: O1_2  and  C2_3 
REMARK    2  A    between atoms: C10_14  and  C11_15 
REMARK    3  A    between atoms: C11_15  and  C12_16 
REMARK    4  A    between atoms: C12_16  and  O5_17 
REMARK    5  A    between atoms: C12_16  and  C13_18 
REMARK    6  A    between atoms: C13_18  and  C14_19 
REMARK    7  A    between atoms: C15_20  and  C16_21 
REMARK    8  A    between atoms: C17_22  and  C19_24 
REMARK    9  A    between atoms: C19_24  and  C20_25 
REMARK   10  A    between atoms: C21_26  and  C22_27 
REMARK   11  A    between atoms: C23_28  and  C24_29 
REMARK   12  A    between atoms: C24_29  and  C25_30 
REMARK   13  A    between atoms: C25_30  and  O6_31 
REMARK   14  A    between atoms: C32_39  and  O8_40 
REMARK   15  A    between atoms: C33_41  and  O9_42 
ROOT
HETATM    1  C2  UNL     1      -7.872   5.884  13.918  1.00  0.00     0.192 C 
HETATM    2  C3  UNL     1      -8.247   4.436  13.482  1.00  0.00     0.074 C 
HETATM    3  C4  UNL     1      -7.161   3.375  13.707  1.00  0.00     0.037 C 
HETATM    4  C5  UNL     1      -6.229   3.240  12.508  1.00  0.00     0.122 C 
HETATM    5  C6  UNL     1      -6.783   2.453  11.335  1.00  0.00     0.035 C 
HETATM    6  C7  UNL     1      -5.531   1.921  10.644  1.00  0.00     0.045 C 
HETATM    7  C8  UNL     1      -4.390   2.229  11.615  1.00  0.00     0.221 C 
HETATM    8  O2  UNL     1      -5.049   2.504  12.868  1.00  0.00    -0.371 OA
HETATM    9  C9  UNL     1      -3.570   3.460  11.197  1.00  0.00     0.288 C 
HETATM   10  O3  UNL     1      -3.615   4.002  10.099  1.00  0.00    -0.262 OA
HETATM   11  O4  UNL     1      -2.822   3.904  12.250  1.00  0.00    -0.314 OA
HETATM   12  C10 UNL     1      -2.550   5.318  12.283  1.00  0.00     0.134 C 
HETATM   13  C26 UNL     1      -3.303   5.848  13.525  1.00  0.00     0.033 C 
HETATM   14  C27 UNL     1      -3.508   7.366  13.521  1.00  0.00     0.005 C 
HETATM   15  C28 UNL     1      -4.845   7.848  12.925  1.00  0.00     0.032 C 
HETATM   16  C29 UNL     1      -6.142   7.556  13.719  1.00  0.00     0.131 C 
HETATM   17  O7  UNL     1      -6.589   6.233  13.383  1.00  0.00    -0.347 OA
HETATM   18  C30 UNL     1      -6.039   7.746  15.239  1.00  0.00     0.042 C 
HETATM   19  C31 UNL     1      -5.667   9.187  15.615  1.00  0.00     0.015 C 
HETATM   20  C32 UNL     1      -7.358   7.360  15.919  1.00  0.00     0.158 C 
HETATM   21  C33 UNL     1      -7.849   5.976  15.470  1.00  0.00     0.209 C 
ENDROOT
BRANCH  12  22
HETATM   22  C11 UNL     1      -1.038   5.559  12.409  1.00  0.00     0.064 C 
BRANCH  22  23
HETATM   23  C12 UNL     1      -0.541   5.880  13.829  1.00  0.00     0.124 C 
BRANCH  23  24
HETATM   24  O5  UNL     1       0.634   5.080  14.040  1.00  0.00    -0.395 OA
HETATM   25  H18 UNL     1       1.232   5.557  14.640  1.00  0.00     0.210 HD
ENDBRANCH  23  24
BRANCH  23  26
HETATM   26  C13 UNL     1      -0.244   7.359  14.149  1.00  0.00     0.059 C 
BRANCH  26  27
HETATM   27  C14 UNL     1       1.125   7.830  13.737  1.00  0.00    -0.024 C 
HETATM   28  C15 UNL     1       1.518   8.360  12.568  1.00  0.00    -0.004 C 
BRANCH  28  29
HETATM   29  C16 UNL     1       0.696   8.625  11.412  1.00  0.00     0.002 C 
HETATM   30  C17 UNL     1       0.788   8.040  10.200  1.00  0.00    -0.080 C 
HETATM   31  C18 UNL     1      -0.132   8.503   9.093  1.00  0.00     0.043 C 
BRANCH  30  32
HETATM   32  C19 UNL     1       1.778   6.955   9.809  1.00  0.00     0.060 C 
BRANCH  32  33
HETATM   33  C20 UNL     1       2.929   7.471   8.981  1.00  0.00    -0.022 C 
HETATM   34  C21 UNL     1       4.034   8.093   9.420  1.00  0.00    -0.004 C 
BRANCH  34  35
HETATM   35  C22 UNL     1       4.375   8.325  10.809  1.00  0.00    -0.004 C 
HETATM   36  C23 UNL     1       5.490   7.930  11.440  1.00  0.00    -0.025 C 
BRANCH  36  37
HETATM   37  C24 UNL     1       6.689   7.218  10.866  1.00  0.00     0.053 C 
BRANCH  37  38
HETATM   38  C25 UNL     1       6.618   5.705  11.101  1.00  0.00     0.168 C 
BRANCH  38  39
HETATM   39  O6  UNL     1       5.609   5.107  10.285  1.00  0.00    -0.401 OA
HETATM   40  H37 UNL     1       5.805   5.331   9.359  1.00  0.00     0.209 HD
ENDBRANCH  38  39
ENDBRANCH  37  38
ENDBRANCH  36  37
ENDBRANCH  34  35
ENDBRANCH  32  33
ENDBRANCH  30  32
ENDBRANCH  28  29
ENDBRANCH  26  27
ENDBRANCH  23  26
ENDBRANCH  22  23
ENDBRANCH  12  22
BRANCH   1  41
HETATM   41  O1  UNL     1      -8.905   6.809  13.496  1.00  0.00    -0.358 OA
HETATM   42  C1  UNL     1      -9.870   7.138  14.489  1.00  0.00     0.205 C 
ENDBRANCH   1  41
BRANCH  20  43
HETATM   43  O8  UNL     1      -7.146   7.343  17.339  1.00  0.00    -0.392 OA
HETATM   44  H50 UNL     1      -7.808   7.941  17.744  1.00  0.00     0.210 HD
ENDBRANCH  20  43
BRANCH  21  45
HETATM   45  O9  UNL     1      -9.175   5.756  16.002  1.00  0.00    -0.387 OA
HETATM   46  H52 UNL     1      -9.765   6.312  15.454  1.00  0.00     0.210 HD
ENDBRANCH  21  45
TORSDOF 15
ENDMDL
MODEL 4
REMARK minimizedAffinity -9.06076527
REMARK CNNscore 0.557419419
REMARK CNNaffinity 7.39292002
REMARK  15 active torsions:
REMARK  status: ('A' for Active; 'I' for Inactive)
REMARK    1  A    between atoms: O1_2  and  C2_3 
REMARK    2  A    between atoms: C10_14  and  C11_15 
REMARK    3  A    between atoms: C11_15  and  C12_16 
REMARK    4  A    between atoms: C12_16  and  O5_17 
REMARK    5  A    between atoms: C12_16  and  C13_18 
REMARK    6  A    between atoms: C13_18  and  C14_19 
REMARK    7  A    between atoms: C15_20  and  C16_21 
REMARK    8  A    between atoms: C17_22  and  C19_24 
REMARK    9  A    between atoms: C19_24  and  C20_25 
REMARK   10  A    between atoms: C21_26  and  C22_27 
REMARK   11  A    between atoms: C23_28  and  C24_29 
REMARK   12  A    between atoms: C24_29  and  C25_30 
REMARK   13  A    between atoms: C25_30  and  O6_31 
REMARK   14  A    between atoms: C32_39  and  O8_40 
REMARK   15  A    between atoms: C33_41  and  O9_42 
ROOT
HETATM    1  C2  UNL     1      -7.804   5.956  13.863  1.00  0.00     0.192 C 
HETATM    2  C3  UNL     1      -8.259   4.553  13.362  1.00  0.00     0.074 C 
HETATM    3  C4  UNL     1      -7.269   3.408  13.613  1.00  0.00     0.037 C 
HETATM    4  C5  UNL     1      -6.282   3.235  12.463  1.00  0.00     0.122 C 
HETATM    5  C6  UNL     1      -6.824   2.525  11.237  1.00  0.00     0.035 C 
HETATM    6  C7  UNL     1      -5.577   1.920  10.600  1.00  0.00     0.045 C 
HETATM    7  C8  UNL     1      -4.474   2.114  11.642  1.00  0.00     0.221 C 
HETATM    8  O2  UNL     1      -5.182   2.403  12.865  1.00  0.00    -0.371 OA
HETATM    9  C9  UNL     1      -3.543   3.290  11.309  1.00  0.00     0.288 C 
HETATM   10  O3  UNL     1      -3.484   3.864  10.228  1.00  0.00    -0.262 OA
HETATM   11  O4  UNL     1      -2.826   3.648  12.415  1.00  0.00    -0.314 OA
HETATM   12  C10 UNL     1      -2.454   5.036  12.508  1.00  0.00     0.134 C 
HETATM   13  C26 UNL     1      -3.235   5.587  13.723  1.00  0.00     0.033 C 
HETATM   14  C27 UNL     1      -3.328   7.116  13.756  1.00  0.00     0.005 C 
HETATM   15  C28 UNL     1      -4.589   7.713  13.102  1.00  0.00     0.032 C 
HETATM   16  C29 UNL     1      -5.947   7.497  13.813  1.00  0.00     0.131 C 
HETATM   17  O7  UNL     1      -6.470   6.222  13.411  1.00  0.00    -0.347 OA
HETATM   18  C30 UNL     1      -5.918   7.638  15.342  1.00  0.00     0.042 C 
HETATM   19  C31 UNL     1      -5.464   9.036  15.784  1.00  0.00     0.015 C 
HETATM   20  C32 UNL     1      -7.299   7.333  15.935  1.00  0.00     0.158 C 
HETATM   21  C33 UNL     1      -7.864   6.004  15.416  1.00  0.00     0.209 C 
ENDROOT
BRANCH  12  22
HETATM   22  C11 UNL     1      -0.937   5.159  12.726  1.00  0.00     0.064 C 
BRANCH  22  23
HETATM   23  C12 UNL     1      -0.070   4.827  11.500  1.00  0.00     0.124 C 
BRANCH  23  24
HETATM   24  O5  UNL     1      -0.949   4.841  10.363  1.00  0.00    -0.395 OA
HETATM   25  H18 UNL     1      -0.445   5.124   9.582  1.00  0.00     0.210 HD
ENDBRANCH  23  24
BRANCH  23  26
HETATM   26  C13 UNL     1       1.150   5.734  11.240  1.00  0.00     0.059 C 
BRANCH  26  27
HETATM   27  C14 UNL     1       2.385   5.011  10.772  1.00  0.00    -0.024 C 
HETATM   28  C15 UNL     1       3.149   5.258   9.696  1.00  0.00    -0.004 C 
BRANCH  28  29
HETATM   29  C16 UNL     1       2.972   6.309   8.725  1.00  0.00     0.002 C 
HETATM   30  C17 UNL     1       3.162   7.631   8.916  1.00  0.00    -0.080 C 
HETATM   31  C18 UNL     1       2.860   8.585   7.782  1.00  0.00     0.043 C 
BRANCH  30  32
HETATM   32  C19 UNL     1       3.626   8.285  10.206  1.00  0.00     0.060 C 
BRANCH  32  33
HETATM   33  C20 UNL     1       5.084   8.670  10.187  1.00  0.00    -0.022 C 
HETATM   34  C21 UNL     1       6.087   8.104  10.876  1.00  0.00    -0.004 C 
BRANCH  34  35
HETATM   35  C22 UNL     1       5.969   6.939  11.730  1.00  0.00    -0.004 C 
HETATM   36  C23 UNL     1       6.302   6.855  13.025  1.00  0.00    -0.025 C 
BRANCH  36  37
HETATM   37  C24 UNL     1       6.812   7.945  13.934  1.00  0.00     0.053 C 
BRANCH  37  38
HETATM   38  C25 UNL     1       5.896   8.148  15.146  1.00  0.00     0.168 C 
BRANCH  38  39
HETATM   39  O6  UNL     1       5.422   6.895  15.645  1.00  0.00    -0.401 OA
HETATM   40  H37 UNL     1       6.197   6.346  15.851  1.00  0.00     0.209 HD
ENDBRANCH  38  39
ENDBRANCH  37  38
ENDBRANCH  36  37
ENDBRANCH  34  35
ENDBRANCH  32  33
ENDBRANCH  30  32
ENDBRANCH  28  29
ENDBRANCH  26  27
ENDBRANCH  23  26
ENDBRANCH  22  23
ENDBRANCH  12  22
BRANCH   1  41
HETATM   41  O1  UNL     1      -8.741   6.967  13.415  1.00  0.00    -0.358 OA
HETATM   42  C1  UNL     1     -10.033   6.488  13.063  1.00  0.00     0.205 C 
ENDBRANCH   1  41
BRANCH  20  43
HETATM   43  O8  UNL     1      -7.171   7.262  17.364  1.00  0.00    -0.392 OA
HETATM   44  H50 UNL     1      -7.810   7.897  17.750  1.00  0.00     0.210 HD
ENDBRANCH  20  43
BRANCH  21  45
HETATM   45  O9  UNL     1      -9.231   5.869  15.867  1.00  0.00    -0.387 OA
HETATM   46  H52 UNL     1      -9.746   6.483  15.306  1.00  0.00     0.210 HD
ENDBRANCH  21  45
TORSDOF 15
ENDMDL
MODEL 5
REMARK minimizedAffinity -8.48443222
REMARK CNNscore 0.381328434
REMARK CNNaffinity 7.34316206
REMARK  15 active torsions:
REMARK  status: ('A' for Active; 'I' for Inactive)
REMARK    1  A    between atoms: O1_2  and  C2_3 
REMARK    2  A    between atoms: C10_14  and  C11_15 
REMARK    3  A    between atoms: C11_15  and  C12_16 
REMARK    4  A    between atoms: C12_16  and  O5_17 
REMARK    5  A    between atoms: C12_16  and  C13_18 
REMARK    6  A    between atoms: C13_18  and  C14_19 
REMARK    7  A    between atoms: C15_20  and  C16_21 
REMARK    8  A    between atoms: C17_22  and  C19_24 
REMARK    9  A    between atoms: C19_24  and  C20_25 
REMARK   10  A    between atoms: C21_26  and  C22_27 
REMARK   11  A    between atoms: C23_28  and  C24_29 
REMARK   12  A    between atoms: C24_29  and  C25_30 
REMARK   13  A    between atoms: C25_30  and  O6_31 
REMARK   14  A    between atoms: C32_39  and  O8_40 
REMARK   15  A    between atoms: C33_41  and  O9_42 
ROOT
HETATM    1  C2  UNL     1      -1.588   5.130  12.715  1.00  0.00     0.192 C 
HETATM    2  C3  UNL     1      -1.761   3.909  11.764  1.00  0.00     0.074 C 
HETATM    3  C4  UNL     1      -3.009   3.938  10.871  1.00  0.00     0.037 C 
HETATM    4  C5  UNL     1      -4.214   3.284  11.541  1.00  0.00     0.122 C 
HETATM    5  C6  UNL     1      -4.221   1.767  11.537  1.00  0.00     0.035 C 
HETATM    6  C7  UNL     1      -5.704   1.421  11.619  1.00  0.00     0.045 C 
HETATM    7  C8  UNL     1      -6.427   2.753  11.405  1.00  0.00     0.221 C 
HETATM    8  O2  UNL     1      -5.422   3.620  10.840  1.00  0.00    -0.371 OA
HETATM    9  C9  UNL     1      -6.943   3.366  12.716  1.00  0.00     0.288 C 
HETATM   10  O3  UNL     1      -7.026   2.780  13.788  1.00  0.00    -0.262 OA
HETATM   11  O4  UNL     1      -7.243   4.686  12.529  1.00  0.00    -0.314 OA
HETATM   12  C10 UNL     1      -7.085   5.540  13.678  1.00  0.00     0.134 C 
HETATM   13  C26 UNL     1      -5.924   6.496  13.319  1.00  0.00     0.033 C 
HETATM   14  C27 UNL     1      -5.305   7.199  14.530  1.00  0.00     0.005 C 
HETATM   15  C28 UNL     1      -4.083   6.492  15.149  1.00  0.00     0.032 C 
HETATM   16  C29 UNL     1      -2.766   6.476  14.336  1.00  0.00     0.131 C 
HETATM   17  O7  UNL     1      -2.812   5.370  13.422  1.00  0.00    -0.347 OA
HETATM   18  C30 UNL     1      -2.422   7.788  13.616  1.00  0.00     0.042 C 
HETATM   19  C31 UNL     1      -2.263   8.959  14.596  1.00  0.00     0.015 C 
HETATM   20  C32 UNL     1      -1.139   7.628  12.792  1.00  0.00     0.158 C 
HETATM   21  C33 UNL     1      -1.190   6.386  11.890  1.00  0.00     0.209 C 
ENDROOT
BRANCH  12  22
HETATM   22  C11 UNL     1      -8.384   6.321  13.933  1.00  0.00     0.064 C 
BRANCH  22  23
HETATM   23  C12 UNL     1      -8.886   6.302  15.387  1.00  0.00     0.124 C 
BRANCH  23  24
HETATM   24  O5  UNL     1      -8.165   5.252  16.053  1.00  0.00    -0.395 OA
HETATM   25  H18 UNL     1      -8.058   5.493  16.988  1.00  0.00     0.210 HD
ENDBRANCH  23  24
BRANCH  23  26
HETATM   26  C13 UNL     1      -8.770   7.617  16.184  1.00  0.00     0.059 C 
BRANCH  26  27
HETATM   27  C14 UNL     1      -8.488   8.838  15.350  1.00  0.00    -0.024 C 
HETATM   28  C15 UNL     1      -9.249   9.929  15.170  1.00  0.00    -0.004 C 
BRANCH  28  29
HETATM   29  C16 UNL     1     -10.536  10.201  15.762  1.00  0.00     0.002 C 
HETATM   30  C17 UNL     1     -11.747   9.943  15.227  1.00  0.00    -0.080 C 
HETATM   31  C18 UNL     1     -12.986  10.362  15.984  1.00  0.00     0.043 C 
BRANCH  30  32
HETATM   32  C19 UNL     1     -12.001   9.287  13.880  1.00  0.00     0.060 C 
BRANCH  32  33
HETATM   33  C20 UNL     1     -11.785   7.794  13.895  1.00  0.00    -0.022 C 
HETATM   34  C21 UNL     1     -12.656   6.840  13.531  1.00  0.00    -0.004 C 
BRANCH  34  35
HETATM   35  C22 UNL     1     -13.972   7.070  12.971  1.00  0.00    -0.004 C 
HETATM   36  C23 UNL     1     -15.151   6.826  13.559  1.00  0.00    -0.025 C 
BRANCH  36  37
HETATM   37  C24 UNL     1     -15.414   6.323  14.957  1.00  0.00     0.053 C 
BRANCH  37  38
HETATM   38  C25 UNL     1     -15.246   7.433  16.000  1.00  0.00     0.168 C 
BRANCH  38  39
HETATM   39  O6  UNL     1     -14.713   6.912  17.220  1.00  0.00    -0.401 OA
HETATM   40  H37 UNL     1     -13.874   6.467  17.011  1.00  0.00     0.209 HD
ENDBRANCH  38  39
ENDBRANCH  37  38
ENDBRANCH  36  37
ENDBRANCH  34  35
ENDBRANCH  32  33
ENDBRANCH  30  32
ENDBRANCH  28  29
ENDBRANCH  26  27
ENDBRANCH  23  26
ENDBRANCH  22  23
ENDBRANCH  12  22
BRANCH   1  41
HETATM   41  O1  UNL     1      -0.477   4.899  13.617  1.00  0.00    -0.358 OA
HETATM   42  C1  UNL     1       0.792   5.332  13.143  1.00  0.00     0.205 C 
ENDBRANCH   1  41
BRANCH  20  43
HETATM   43  O8  UNL     1      -0.980   8.796  11.972  1.00  0.00    -0.392 OA
HETATM   44  H50 UNL     1      -0.095   9.173  12.162  1.00  0.00     0.210 HD
ENDBRANCH  20  43
BRANCH  21  45
HETATM   45  O9  UNL     1       0.109   6.194  11.286  1.00  0.00    -0.387 OA
HETATM   46  H52 UNL     1       0.673   5.840  12.001  1.00  0.00     0.210 HD
ENDBRANCH  21  45
TORSDOF 15
ENDMDL
MODEL 6
REMARK minimizedAffinity -9.38632584
REMARK CNNscore 0.377810597
REMARK CNNaffinity 7.58134031
REMARK  15 active torsions:
REMARK  status: ('A' for Active; 'I' for Inactive)
REMARK    1  A    between atoms: O1_2  and  C2_3 
REMARK    2  A    between atoms: C10_14  and  C11_15 
REMARK    3  A    between atoms: C11_15  and  C12_16 
REMARK    4  A    between atoms: C12_16  and  O5_17 
REMARK    5  A    between atoms: C12_16  and  C13_18 
REMARK    6  A    between atoms: C13_18  and  C14_19 
REMARK    7  A    between atoms: C15_20  and  C16_21 
REMARK    8  A    between atoms: C17_22  and  C19_24 
REMARK    9  A    between atoms: C19_24  and  C20_25 
REMARK   10  A    between atoms: C21_26  and  C22_27 
REMARK   11  A    between atoms: C23_28  and  C24_29 
REMARK   12  A    between atoms: C24_29  and  C25_30 
REMARK   13  A    between atoms: C25_30  and  O6_31 
REMARK   14  A    between atoms: C32_39  and  O8_40 
REMARK   15  A    between atoms: C33_41  and  O9_42 
ROOT
HETATM    1  C2  UNL     1      -6.731   4.953  12.750  1.00  0.00     0.192 C 
HETATM    2  C3  UNL     1      -6.261   3.822  11.788  1.00  0.00     0.074 C 
HETATM    3  C4  UNL     1      -5.039   3.021  12.255  1.00  0.00     0.037 C 
HETATM    4  C5  UNL     1      -3.727   3.641  11.782  1.00  0.00     0.122 C 
HETATM    5  C6  UNL     1      -3.368   3.382  10.331  1.00  0.00     0.035 C 
HETATM    6  C7  UNL     1      -1.847   3.491  10.320  1.00  0.00     0.045 C 
HETATM    7  C8  UNL     1      -1.450   3.547  11.796  1.00  0.00     0.221 C 
HETATM    8  O2  UNL     1      -2.617   3.079  12.500  1.00  0.00    -0.371 OA
HETATM    9  C9  UNL     1      -1.114   4.970  12.268  1.00  0.00     0.288 C 
HETATM   10  O3  UNL     1      -0.916   5.932  11.535  1.00  0.00    -0.262 OA
HETATM   11  O4  UNL     1      -1.125   5.027  13.632  1.00  0.00    -0.314 OA
HETATM   12  C10 UNL     1      -1.498   6.292  14.212  1.00  0.00     0.134 C 
HETATM   13  C26 UNL     1      -2.842   6.031  14.930  1.00  0.00     0.033 C 
HETATM   14  C27 UNL     1      -3.630   7.306  15.248  1.00  0.00     0.005 C 
HETATM   15  C28 UNL     1      -4.665   7.723  14.186  1.00  0.00     0.032 C 
HETATM   16  C29 UNL     1      -5.928   6.844  14.018  1.00  0.00     0.131 C 
HETATM   17  O7  UNL     1      -5.610   5.761  13.131  1.00  0.00    -0.347 OA
HETATM   18  C30 UNL     1      -6.554   6.336  15.325  1.00  0.00     0.042 C 
HETATM   19  C31 UNL     1      -6.998   7.488  16.237  1.00  0.00     0.015 C 
HETATM   20  C32 UNL     1      -7.749   5.423  15.028  1.00  0.00     0.158 C 
HETATM   21  C33 UNL     1      -7.395   4.330  14.010  1.00  0.00     0.209 C 
ENDROOT
BRANCH  12  22
HETATM   22  C11 UNL     1      -0.421   6.750  15.207  1.00  0.00     0.064 C 
BRANCH  22  23
HETATM   23  C12 UNL     1       0.874   7.285  14.572  1.00  0.00     0.124 C 
BRANCH  23  24
HETATM   24  O5  UNL     1       1.916   6.364  14.934  1.00  0.00    -0.395 OA
HETATM   25  H18 UNL     1       2.579   6.349  14.224  1.00  0.00     0.210 HD
ENDBRANCH  23  24
BRANCH  23  26
HETATM   26  C13 UNL     1       0.865   7.507  13.046  1.00  0.00     0.059 C 
BRANCH  26  27
HETATM   27  C14 UNL     1       1.296   8.880  12.606  1.00  0.00    -0.024 C 
HETATM   28  C15 UNL     1       2.406   9.561  12.934  1.00  0.00    -0.004 C 
BRANCH  28  29
HETATM   29  C16 UNL     1       3.477   9.118  13.793  1.00  0.00     0.002 C 
HETATM   30  C17 UNL     1       4.442   8.224  13.491  1.00  0.00    -0.080 C 
HETATM   31  C18 UNL     1       5.445   7.843  14.556  1.00  0.00     0.043 C 
BRANCH  30  32
HETATM   32  C19 UNL     1       4.605   7.508  12.161  1.00  0.00     0.060 C 
BRANCH  32  33
HETATM   33  C20 UNL     1       4.705   8.450  10.987  1.00  0.00    -0.022 C 
HETATM   34  C21 UNL     1       4.228   8.261   9.746  1.00  0.00    -0.004 C 
BRANCH  34  35
HETATM   35  C22 UNL     1       3.442   7.124   9.311  1.00  0.00    -0.004 C 
HETATM   36  C23 UNL     1       2.244   7.157   8.712  1.00  0.00    -0.025 C 
BRANCH  36  37
HETATM   37  C24 UNL     1       1.445   8.361   8.280  1.00  0.00     0.053 C 
BRANCH  37  38
HETATM   38  C25 UNL     1      -0.061   8.138   8.459  1.00  0.00     0.168 C 
BRANCH  38  39
HETATM   39  O6  UNL     1      -0.715   9.349   8.845  1.00  0.00    -0.401 OA
HETATM   40  H37 UNL     1      -0.514  10.022   8.171  1.00  0.00     0.209 HD
ENDBRANCH  38  39
ENDBRANCH  37  38
ENDBRANCH  36  37
ENDBRANCH  34  35
ENDBRANCH  32  33
ENDBRANCH  30  32
ENDBRANCH  28  29
ENDBRANCH  26  27
ENDBRANCH  23  26
ENDBRANCH  22  23
ENDBRANCH  12  22
BRANCH   1  41
HETATM   41  O1  UNL     1      -7.774   5.737  12.118  1.00  0.00    -0.358 OA
HETATM   42  C1  UNL     1      -9.021   5.756  12.803  1.00  0.00     0.205 C 
ENDBRANCH   1  41
BRANCH  20  43
HETATM   43  O8  UNL     1      -8.160   4.804  16.257  1.00  0.00    -0.392 OA
HETATM   44  H50 UNL     1      -9.112   5.002  16.384  1.00  0.00     0.210 HD
ENDBRANCH  20  43
BRANCH  21  45
HETATM   45  O9  UNL     1      -8.602   3.626  13.641  1.00  0.00    -0.387 OA
HETATM   46  H52 UNL     1      -9.082   4.238  13.046  1.00  0.00     0.210 HD
ENDBRANCH  21  45
TORSDOF 15
ENDMDL
MODEL 7
REMARK minimizedAffinity -8.95545864
REMARK CNNscore 0.362938553
REMARK CNNaffinity 7.1256175
REMARK  15 active torsions:
REMARK  status: ('A' for Active; 'I' for Inactive)
REMARK    1  A    between atoms: O1_2  and  C2_3 
REMARK    2  A    between atoms: C10_14  and  C11_15 
REMARK    3  A    between atoms: C11_15  and  C12_16 
REMARK    4  A    between atoms: C12_16  and  O5_17 
REMARK    5  A    between atoms: C12_16  and  C13_18 
REMARK    6  A    between atoms: C13_18  and  C14_19 
REMARK    7  A    between atoms: C15_20  and  C16_21 
REMARK    8  A    between atoms: C17_22  and  C19_24 
REMARK    9  A    between atoms: C19_24  and  C20_25 
REMARK   10  A    between atoms: C21_26  and  C22_27 
REMARK   11  A    between atoms: C23_28  and  C24_29 
REMARK   12  A    between atoms: C24_29  and  C25_30 
REMARK   13  A    between atoms: C25_30  and  O6_31 
REMARK   14  A    between atoms: C32_39  and  O8_40 
REMARK   15  A    between atoms: C33_41  and  O9_42 
ROOT
HETATM    1  C2  UNL     1      -6.760   4.979  12.764  1.00  0.00     0.192 C 
HETATM    2  C3  UNL     1      -6.247   3.890  11.775  1.00  0.00     0.074 C 
HETATM    3  C4  UNL     1      -5.005   3.113  12.232  1.00  0.00     0.037 C 
HETATM    4  C5  UNL     1      -3.709   3.786  11.791  1.00  0.00     0.122 C 
HETATM    5  C6  UNL     1      -3.328   3.579  10.337  1.00  0.00     0.035 C 
HETATM    6  C7  UNL     1      -1.811   3.735  10.344  1.00  0.00     0.045 C 
HETATM    7  C8  UNL     1      -1.429   3.760  11.826  1.00  0.00     0.221 C 
HETATM    8  O2  UNL     1      -2.589   3.237  12.504  1.00  0.00    -0.371 OA
HETATM    9  C9  UNL     1      -1.142   5.179  12.341  1.00  0.00     0.288 C 
HETATM   10  O3  UNL     1      -0.966   6.167  11.637  1.00  0.00    -0.262 OA
HETATM   11  O4  UNL     1      -1.168   5.196  13.706  1.00  0.00    -0.314 OA
HETATM   12  C10 UNL     1      -1.584   6.433  14.317  1.00  0.00     0.134 C 
HETATM   13  C26 UNL     1      -2.927   6.111  15.013  1.00  0.00     0.033 C 
HETATM   14  C27 UNL     1      -3.756   7.352  15.359  1.00  0.00     0.005 C 
HETATM   15  C28 UNL     1      -4.793   7.768  14.299  1.00  0.00     0.032 C 
HETATM   16  C29 UNL     1      -6.027   6.856  14.092  1.00  0.00     0.131 C 
HETATM   17  O7  UNL     1      -5.668   5.809  13.178  1.00  0.00    -0.347 OA
HETATM   18  C30 UNL     1      -6.650   6.292  15.378  1.00  0.00     0.042 C 
HETATM   19  C31 UNL     1      -7.138   7.404  16.317  1.00  0.00     0.015 C 
HETATM   20  C32 UNL     1      -7.814   5.352  15.043  1.00  0.00     0.158 C 
HETATM   21  C33 UNL     1      -7.417   4.300  13.999  1.00  0.00     0.209 C 
ENDROOT
BRANCH  12  22
HETATM   22  C11 UNL     1      -0.531   6.895  15.336  1.00  0.00     0.064 C 
BRANCH  22  23
HETATM   23  C12 UNL     1       0.287   8.129  14.920  1.00  0.00     0.124 C 
BRANCH  23  24
HETATM   24  O5  UNL     1      -0.125   8.459  13.583  1.00  0.00    -0.395 OA
HETATM   25  H18 UNL     1      -0.046   9.420  13.461  1.00  0.00     0.210 HD
ENDBRANCH  23  24
BRANCH  23  26
HETATM   26  C13 UNL     1       0.191   9.371  15.829  1.00  0.00     0.059 C 
BRANCH  26  27
HETATM   27  C14 UNL     1      -0.950   9.347  16.811  1.00  0.00    -0.024 C 
HETATM   28  C15 UNL     1      -1.688  10.370  17.270  1.00  0.00    -0.004 C 
BRANCH  28  29
HETATM   29  C16 UNL     1      -1.570  11.761  16.907  1.00  0.00     0.002 C 
HETATM   30  C17 UNL     1      -0.611  12.624  17.301  1.00  0.00    -0.080 C 
HETATM   31  C18 UNL     1      -0.698  14.067  16.858  1.00  0.00     0.043 C 
BRANCH  30  32
HETATM   32  C19 UNL     1       0.565  12.294  18.206  1.00  0.00     0.060 C 
BRANCH  32  33
HETATM   33  C20 UNL     1       0.149  11.895  19.599  1.00  0.00    -0.022 C 
HETATM   34  C21 UNL     1       0.756  11.015  20.412  1.00  0.00    -0.004 C 
BRANCH  34  35
HETATM   35  C22 UNL     1       1.997  10.324  20.126  1.00  0.00    -0.004 C 
HETATM   36  C23 UNL     1       2.908   9.907  21.016  1.00  0.00    -0.025 C 
BRANCH  36  37
HETATM   37  C24 UNL     1       2.851   9.984  22.521  1.00  0.00     0.053 C 
BRANCH  37  38
HETATM   38  C25 UNL     1       2.514   8.627  23.147  1.00  0.00     0.168 C 
BRANCH  38  39
HETATM   39  O6  UNL     1       1.806   7.798  22.223  1.00  0.00    -0.401 OA
HETATM   40  H37 UNL     1       2.351   7.715  21.422  1.00  0.00     0.209 HD
ENDBRANCH  38  39
ENDBRANCH  37  38
ENDBRANCH  36  37
ENDBRANCH  34  35
ENDBRANCH  32  33
ENDBRANCH  30  32
ENDBRANCH  28  29
ENDBRANCH  26  27
ENDBRANCH  23  26
ENDBRANCH  22  23
ENDBRANCH  12  22
BRANCH   1  41
HETATM   41  O1  UNL     1      -7.821   5.748  12.143  1.00  0.00    -0.358 OA
HETATM   42  C1  UNL     1      -9.115   5.564  12.704  1.00  0.00     0.205 C 
ENDBRANCH   1  41
BRANCH  20  43
HETATM   43  O8  UNL     1      -8.218   4.686  16.250  1.00  0.00    -0.392 OA
HETATM   44  H50 UNL     1      -9.176   4.852  16.373  1.00  0.00     0.210 HD
ENDBRANCH  20  43
BRANCH  21  45
HETATM   45  O9  UNL     1      -8.599   3.571  13.597  1.00  0.00    -0.387 OA
HETATM   46  H52 UNL     1      -9.091   4.184  13.015  1.00  0.00     0.210 HD
ENDBRANCH  21  45
TORSDOF 15
ENDMDL
MODEL 8
REMARK minimizedAffinity -8.85152435
REMARK CNNscore 0.350821078
REMARK CNNaffinity 5.9955945
REMARK  15 active torsions:
REMARK  status: ('A' for Active; 'I' for Inactive)
REMARK    1  A    between atoms: O1_2  and  C2_3 
REMARK    2  A    between atoms: C10_14  and  C11_15 
REMARK    3  A    between atoms: C11_15  and  C12_16 
REMARK    4  A    between atoms: C12_16  and  O5_17 
REMARK    5  A    between atoms: C12_16  and  C13_18 
REMARK    6  A    between atoms: C13_18  and  C14_19 
REMARK    7  A    between atoms: C15_20  and  C16_21 
REMARK    8  A    between atoms: C17_22  and  C19_24 
REMARK    9  A    between atoms: C19_24  and  C20_25 
REMARK   10  A    between atoms: C21_26  and  C22_27 
REMARK   11  A    between atoms: C23_28  and  C24_29 
REMARK   12  A    between atoms: C24_29  and  C25_30 
REMARK   13  A    between atoms: C25_30  and  O6_31 
REMARK   14  A    between atoms: C32_39  and  O8_40 
REMARK   15  A    between atoms: C33_41  and  O9_42 
ROOT
HETATM    1  C2  UNL     1       2.454   7.151  10.137  1.00  0.00     0.192 C 
HETATM    2  C3  UNL     1       3.953   7.557  10.020  1.00  0.00     0.074 C 
HETATM    3  C4  UNL     1       4.708   7.693  11.350  1.00  0.00     0.037 C 
HETATM    4  C5  UNL     1       4.616   9.103  11.925  1.00  0.00     0.122 C 
HETATM    5  C6  UNL     1       5.526  10.132  11.280  1.00  0.00     0.035 C 
HETATM    6  C7  UNL     1       5.734  11.161  12.386  1.00  0.00     0.045 C 
HETATM    7  C8  UNL     1       5.144  10.511  13.639  1.00  0.00     0.221 C 
HETATM    8  O2  UNL     1       5.032   9.114  13.300  1.00  0.00    -0.371 OA
HETATM    9  C9  UNL     1       3.751  11.057  13.990  1.00  0.00     0.288 C 
HETATM   10  O3  UNL     1       3.246  12.069  13.519  1.00  0.00    -0.262 OA
HETATM   11  O4  UNL     1       3.125  10.215  14.866  1.00  0.00    -0.314 OA
HETATM   12  C10 UNL     1       1.688  10.170  14.785  1.00  0.00     0.134 C 
HETATM   13  C26 UNL     1       1.352   8.743  14.294  1.00  0.00     0.033 C 
HETATM   14  C27 UNL     1      -0.066   8.601  13.734  1.00  0.00     0.005 C 
HETATM   15  C28 UNL     1      -0.194   8.791  12.210  1.00  0.00     0.032 C 
HETATM   16  C29 UNL     1       0.406   7.701  11.289  1.00  0.00     0.131 C 
HETATM   17  O7  UNL     1       1.801   7.985  11.102  1.00  0.00    -0.347 OA
HETATM   18  C30 UNL     1       0.183   6.254  11.753  1.00  0.00     0.042 C 
HETATM   19  C31 UNL     1      -1.308   5.904  11.852  1.00  0.00     0.015 C 
HETATM   20  C32 UNL     1       0.881   5.273  10.803  1.00  0.00     0.158 C 
HETATM   21  C33 UNL     1       2.346   5.658  10.559  1.00  0.00     0.209 C 
ENDROOT
BRANCH  12  22
HETATM   22  C11 UNL     1       1.077  10.436  16.170  1.00  0.00     0.064 C 
BRANCH  22  23
HETATM   23  C12 UNL     1       1.879   9.879  17.359  1.00  0.00     0.124 C 
BRANCH  23  24
HETATM   24  O5  UNL     1       2.603   8.741  16.864  1.00  0.00    -0.395 OA
HETATM   25  H18 UNL     1       3.434   8.661  17.361  1.00  0.00     0.210 HD
ENDBRANCH  23  24
BRANCH  23  26
HETATM   26  C13 UNL     1       2.839  10.853  18.072  1.00  0.00     0.059 C 
BRANCH  26  27
HETATM   27  C14 UNL     1       2.180  11.778  19.059  1.00  0.00    -0.024 C 
HETATM   28  C15 UNL     1       1.691  11.501  20.278  1.00  0.00    -0.004 C 
BRANCH  28  29
HETATM   29  C16 UNL     1       1.700  10.224  20.950  1.00  0.00     0.002 C 
HETATM   30  C17 UNL     1       2.385   9.898  22.066  1.00  0.00    -0.080 C 
HETATM   31  C18 UNL     1       2.310   8.479  22.581  1.00  0.00     0.043 C 
BRANCH  30  32
HETATM   32  C19 UNL     1       3.283  10.830  22.861  1.00  0.00     0.060 C 
BRANCH  32  33
HETATM   33  C20 UNL     1       4.663  10.268  23.097  1.00  0.00    -0.022 C 
HETATM   34  C21 UNL     1       5.823  10.942  23.139  1.00  0.00    -0.004 C 
BRANCH  34  35
HETATM   35  C22 UNL     1       5.964  12.381  23.039  1.00  0.00    -0.004 C 
HETATM   36  C23 UNL     1       7.105  13.082  23.084  1.00  0.00    -0.025 C 
BRANCH  36  37
HETATM   37  C24 UNL     1       8.519  12.565  23.179  1.00  0.00     0.053 C 
BRANCH  37  38
HETATM   38  C25 UNL     1       9.284  12.759  21.865  1.00  0.00     0.168 C 
BRANCH  38  39
HETATM   39  O6  UNL     1       9.680  11.502  21.312  1.00  0.00    -0.401 OA
HETATM   40  H37 UNL     1       8.878  10.962  21.202  1.00  0.00     0.209 HD
ENDBRANCH  38  39
ENDBRANCH  37  38
ENDBRANCH  36  37
ENDBRANCH  34  35
ENDBRANCH  32  33
ENDBRANCH  30  32
ENDBRANCH  28  29
ENDBRANCH  26  27
ENDBRANCH  23  26
ENDBRANCH  22  23
ENDBRANCH  12  22
BRANCH   1  41
HETATM   41  O1  UNL     1       1.820   7.226   8.836  1.00  0.00    -0.358 OA
HETATM   42  C1  UNL     1       2.540   7.954   7.849  1.00  0.00     0.205 C 
ENDBRANCH   1  41
BRANCH  20  43
HETATM   43  O8  UNL     1       0.832   3.964  11.390  1.00  0.00    -0.392 OA
HETATM   44  H50 UNL     1       0.415   3.362  10.739  1.00  0.00     0.210 HD
ENDBRANCH  20  43
BRANCH  21  45
HETATM   45  O9  UNL     1       2.886   4.808   9.522  1.00  0.00    -0.387 OA
HETATM   46  H52 UNL     1       2.499   5.144   8.689  1.00  0.00     0.210 HD
ENDBRANCH  21  45
TORSDOF 15
ENDMDL
MODEL 9
REMARK minimizedAffinity -8.39455318
REMARK CNNscore 0.314701855
REMARK CNNaffinity 7.43817949
REMARK  15 active torsions:
REMARK  status: ('A' for Active; 'I' for Inactive)
REMARK    1  A    between atoms: O1_2  and  C2_3 
REMARK    2  A    between atoms: C10_14  and  C11_15 
REMARK    3  A    between atoms: C11_15  and  C12_16 
REMARK    4  A    between atoms: C12_16  and  O5_17 
REMARK    5  A    between atoms: C12_16  and  C13_18 
REMARK    6  A    between atoms: C13_18  and  C14_19 
REMARK    7  A    between atoms: C15_20  and  C16_21 
REMARK    8  A    between atoms: C17_22  and  C19_24 
REMARK    9  A    between atoms: C19_24  and  C20_25 
REMARK   10  A    between atoms: C21_26  and  C22_27 
REMARK   11  A    between atoms: C23_28  and  C24_29 
REMARK   12  A    between atoms: C24_29  and  C25_30 
REMARK   13  A    between atoms: C25_30  and  O6_31 
REMARK   14  A    between atoms: C32_39  and  O8_40 
REMARK   15  A    between atoms: C33_41  and  O9_42 
ROOT
HETATM    1  C2  UNL     1      -6.492   5.695  13.338  1.00  0.00     0.192 C 
HETATM    2  C3  UNL     1      -6.201   4.333  12.641  1.00  0.00     0.074 C 
HETATM    3  C4  UNL     1      -4.895   3.643  13.056  1.00  0.00     0.037 C 
HETATM    4  C5  UNL     1      -3.715   4.068  12.187  1.00  0.00     0.122 C 
HETATM    5  C6  UNL     1      -3.646   3.421  10.817  1.00  0.00     0.035 C 
HETATM    6  C7  UNL     1      -2.159   3.470  10.478  1.00  0.00     0.045 C 
HETATM    7  C8  UNL     1      -1.478   3.902  11.778  1.00  0.00     0.221 C 
HETATM    8  O2  UNL     1      -2.474   3.679  12.797  1.00  0.00    -0.371 OA
HETATM    9  C9  UNL     1      -1.083   5.387  11.777  1.00  0.00     0.288 C 
HETATM   10  O3  UNL     1      -1.053   6.112  10.789  1.00  0.00    -0.262 OA
HETATM   11  O4  UNL     1      -0.825   5.805  13.051  1.00  0.00    -0.314 OA
HETATM   12  C10 UNL     1      -1.100   7.190  13.333  1.00  0.00     0.134 C 
HETATM   13  C26 UNL     1      -2.270   7.177  14.343  1.00  0.00     0.033 C 
HETATM   14  C27 UNL     1      -3.003   8.517  14.457  1.00  0.00     0.005 C 
HETATM   15  C28 UNL     1      -4.236   8.673  13.547  1.00  0.00     0.032 C 
HETATM   16  C29 UNL     1      -5.490   7.825  13.871  1.00  0.00     0.131 C 
HETATM   17  O7  UNL     1      -5.333   6.535  13.261  1.00  0.00    -0.347 OA
HETATM   18  C30 UNL     1      -5.834   7.705  15.363  1.00  0.00     0.042 C 
HETATM   19  C31 UNL     1      -6.111   9.073  16.002  1.00  0.00     0.015 C 
HETATM   20  C32 UNL     1      -7.047   6.788  15.561  1.00  0.00     0.158 C 
HETATM   21  C33 UNL     1      -6.881   5.452  14.824  1.00  0.00     0.209 C 
ENDROOT
BRANCH  12  22
HETATM   22  C11 UNL     1       0.144   7.859  13.938  1.00  0.00     0.064 C 
BRANCH  22  23
HETATM   23  C12 UNL     1       1.451   7.059  13.801  1.00  0.00     0.124 C 
BRANCH  23  24
HETATM   24  O5  UNL     1       1.117   5.686  14.061  1.00  0.00    -0.395 OA
HETATM   25  H18 UNL     1       1.711   5.117  13.543  1.00  0.00     0.210 HD
ENDBRANCH  23  24
BRANCH  23  26
HETATM   26  C13 UNL     1       2.207   7.179  12.462  1.00  0.00     0.059 C 
BRANCH  26  27
HETATM   27  C14 UNL     1       2.285   5.904  11.666  1.00  0.00    -0.024 C 
HETATM   28  C15 UNL     1       2.378   5.745  10.336  1.00  0.00    -0.004 C 
BRANCH  28  29
HETATM   29  C16 UNL     1       2.444   6.784   9.337  1.00  0.00     0.002 C 
HETATM   30  C17 UNL     1       3.435   7.684   9.167  1.00  0.00    -0.080 C 
HETATM   31  C18 UNL     1       3.287   8.740   8.095  1.00  0.00     0.043 C 
BRANCH  30  32
HETATM   32  C19 UNL     1       4.707   7.773   9.993  1.00  0.00     0.060 C 
BRANCH  32  33
HETATM   33  C20 UNL     1       5.164   9.190  10.231  1.00  0.00    -0.022 C 
HETATM   34  C21 UNL     1       5.298   9.817  11.411  1.00  0.00    -0.004 C 
BRANCH  34  35
HETATM   35  C22 UNL     1       5.096   9.213  12.713  1.00  0.00    -0.004 C 
HETATM   36  C23 UNL     1       5.993   8.514  13.422  1.00  0.00    -0.025 C 
BRANCH  36  37
HETATM   37  C24 UNL     1       7.438   8.236  13.091  1.00  0.00     0.053 C 
BRANCH  37  38
HETATM   38  C25 UNL     1       8.316   9.475  13.297  1.00  0.00     0.168 C 
BRANCH  38  39
HETATM   39  O6  UNL     1       9.703   9.130  13.269  1.00  0.00    -0.401 OA
HETATM   40  H37 UNL     1       9.880   8.684  12.422  1.00  0.00     0.209 HD
ENDBRANCH  38  39
ENDBRANCH  37  38
ENDBRANCH  36  37
ENDBRANCH  34  35
ENDBRANCH  32  33
ENDBRANCH  30  32
ENDBRANCH  28  29
ENDBRANCH  26  27
ENDBRANCH  23  26
ENDBRANCH  22  23
ENDBRANCH  12  22
BRANCH   1  41
HETATM   41  O1  UNL     1      -7.655   6.318  12.737  1.00  0.00    -0.358 OA
HETATM   42  C1  UNL     1      -8.383   5.500  11.829  1.00  0.00     0.205 C 
ENDBRANCH   1  41
BRANCH  20  43
HETATM   43  O8  UNL     1      -7.195   6.533  16.966  1.00  0.00    -0.392 OA
HETATM   44  H50 UNL     1      -8.105   6.791  17.220  1.00  0.00     0.210 HD
ENDBRANCH  20  43
BRANCH  21  45
HETATM   45  O9  UNL     1      -8.124   4.718  14.900  1.00  0.00    -0.387 OA
HETATM   46  H52 UNL     1      -8.723   5.166  14.270  1.00  0.00     0.210 HD
ENDBRANCH  21  45
TORSDOF 15
ENDMDL
