MODEL 1
REMARK minimizedAffinity -8.689147
REMARK CNNscore 0.535683692
REMARK CNNaffinity 6.8913703
REMARK  10 active torsions:
REMARK  status: ('A' for Active; 'I' for Inactive)
REMARK    1  A    between atoms: C3_3  and  O1_4 
REMARK    2  A    between atoms: N1_14  and  O2_16 
REMARK    3  A    between atoms: O2_16  and  C13_17 
REMARK    4  A    between atoms: C13_17  and  C14_18 
REMARK       I    between atoms: C14_18  and  N2_20 
REMARK    5  A    between atoms: N2_20  and  C15_21 
REMARK    6  A    between atoms: C15_21  and  C16_22 
REMARK       I    between atoms: C16_22  and  N3_24 
REMARK    7  A    between atoms: N3_24  and  C17_25 
REMARK    8  A    between atoms: C17_25  and  C18_26 
REMARK    9  A    between atoms: C17_25  and  C19_29 
REMARK   10  A    between atoms: C18_26  and  O6_28 
ROOT
HETATM    1  C1  UNL     1      -4.278  52.093 -23.991  1.00  0.00     0.015 C 
HETATM    2  C2  UNL     1      -4.904  51.119 -23.670  1.00  0.00    -0.078 C 
HETATM    3  C3  UNL     1      -5.724  49.945 -23.307  1.00  0.00     0.128 C 
HETATM    4  C4  UNL     1      -6.718  50.319 -22.203  1.00  0.00     0.052 C 
HETATM    5  C5  UNL     1      -5.896  50.210 -20.929  1.00  0.00     0.010 C 
HETATM    6  C6  UNL     1      -4.977  48.987 -21.134  1.00  0.00     0.002 C 
HETATM    7  C7  UNL     1      -3.608  49.179 -20.449  1.00  0.00    -0.004 C 
HETATM    8  C8  UNL     1      -2.956  47.834 -20.053  1.00  0.00     0.010 C 
HETATM    9  C9  UNL     1      -1.438  47.917 -19.846  1.00  0.00     0.035 C 
HETATM   10  C10 UNL     1      -1.005  49.310 -19.465  1.00  0.00    -0.069 C 
HETATM   11  C11 UNL     1      -0.410  49.545 -18.284  1.00  0.00     0.030 C 
HETATM   12  C12 UNL     1      -0.033  50.920 -17.864  1.00  0.00     0.032 C 
HETATM   13  N1  UNL     1       0.748  51.045 -16.827  1.00  0.00    -0.271 N 
ATOM     14  H1  UNL     1       1.083  50.263 -16.265  1.00  0.00     0.194 HD
HETATM   15  C22 UNL     1      -0.550  52.098 -18.671  1.00  0.00     0.060 C 
HETATM   16  C23 UNL     1      -1.663  51.704 -19.637  1.00  0.00     0.020 C 
HETATM   17  C24 UNL     1      -1.353  50.418 -20.460  1.00  0.00    -0.016 C 
HETATM   18  C25 UNL     1      -0.137  50.697 -21.373  1.00  0.00     0.020 C 
HETATM   19  C26 UNL     1      -2.647  50.042 -21.292  1.00  0.00     0.002 C 
HETATM   20  C27 UNL     1      -2.384  49.389 -22.667  1.00  0.00     0.007 C 
HETATM   21  C28 UNL     1      -3.516  48.531 -23.240  1.00  0.00     0.014 C 
HETATM   22  C29 UNL     1      -4.938  48.741 -22.678  1.00  0.00     0.003 C 
HETATM   23  C30 UNL     1      -5.708  47.417 -22.963  1.00  0.00     0.020 C 
ENDROOT
BRANCH   3  24
HETATM   24  O1  UNL     1      -6.441  49.552 -24.472  1.00  0.00    -0.377 OA
HETATM   25  H2  UNL     1      -6.826  50.359 -24.853  1.00  0.00     0.211 HD
ENDBRANCH   3  24
BRANCH  13  26
HETATM   26  O2  UNL     1       1.071  52.389 -16.582  1.00  0.00    -0.271 OA
BRANCH  26  27
HETATM   27  C13 UNL     1       2.487  52.529 -16.604  1.00  0.00     0.303 C 
BRANCH  27  28
HETATM   28  C14 UNL     1       3.106  52.033 -15.301  1.00  0.00     0.244 C 
HETATM   29  O3  UNL     1       4.216  51.506 -15.256  1.00  0.00    -0.271 OA
HETATM   30  N2  UNL     1       2.355  52.288 -14.173  1.00  0.00    -0.350 N 
HETATM   31  H16 UNL     1       1.357  52.405 -14.328  1.00  0.00     0.163 HD
BRANCH  30  32
HETATM   32  C15 UNL     1       2.770  51.786 -12.879  1.00  0.00     0.225 C 
BRANCH  32  33
HETATM   33  C16 UNL     1       2.280  52.710 -11.758  1.00  0.00     0.236 C 
HETATM   34  O4  UNL     1       1.087  52.882 -11.518  1.00  0.00    -0.272 OA
HETATM   35  N3  UNL     1       3.292  53.374 -11.100  1.00  0.00    -0.345 N 
HETATM   36  H19 UNL     1       4.216  52.950 -11.125  1.00  0.00     0.163 HD
BRANCH  35  37
HETATM   37  C17 UNL     1       3.038  54.195  -9.910  1.00  0.00     0.185 C 
BRANCH  37  38
HETATM   38  C18 UNL     1       3.370  53.390  -8.643  1.00  0.00     0.163 C 
HETATM   39  O5  UNL     1       3.036  53.659  -7.500  1.00  0.00    -0.648 OA
BRANCH  38  40
HETATM   40  O6  UNL     1       4.146  52.305  -8.885  1.00  0.00    -0.775 OA
HETATM   41  H21 UNL     1       4.263  51.896  -7.998  1.00  0.00     0.167 HD
ENDBRANCH  38  40
ENDBRANCH  37  38
BRANCH  37  42
HETATM   42  C19 UNL     1       3.835  55.519  -9.924  1.00  0.00     0.010 C 
HETATM   43  C20 UNL     1       5.352  55.305  -9.932  1.00  0.00     0.012 C 
HETATM   44  C21 UNL     1       3.427  56.409 -11.101  1.00  0.00     0.012 C 
ENDBRANCH  37  42
ENDBRANCH  35  37
ENDBRANCH  32  33
ENDBRANCH  30  32
ENDBRANCH  27  28
ENDBRANCH  26  27
ENDBRANCH  13  26
TORSDOF 10
ENDMDL
MODEL 2
REMARK minimizedAffinity -7.54931593
REMARK CNNscore 0.470132709
REMARK CNNaffinity 5.53940725
REMARK  10 active torsions:
REMARK  status: ('A' for Active; 'I' for Inactive)
REMARK    1  A    between atoms: C3_3  and  O1_4 
REMARK    2  A    between atoms: N1_14  and  O2_16 
REMARK    3  A    between atoms: O2_16  and  C13_17 
REMARK    4  A    between atoms: C13_17  and  C14_18 
REMARK       I    between atoms: C14_18  and  N2_20 
REMARK    5  A    between atoms: N2_20  and  C15_21 
REMARK    6  A    between atoms: C15_21  and  C16_22 
REMARK       I    between atoms: C16_22  and  N3_24 
REMARK    7  A    between atoms: N3_24  and  C17_25 
REMARK    8  A    between atoms: C17_25  and  C18_26 
REMARK    9  A    between atoms: C17_25  and  C19_29 
REMARK   10  A    between atoms: C18_26  and  O6_28 
ROOT
HETATM    1  C1  UNL     1      -8.778  45.889 -33.918  1.00  0.00     0.015 C 
HETATM    2  C2  UNL     1      -7.776  46.241 -33.355  1.00  0.00    -0.078 C 
HETATM    3  C3  UNL     1      -6.511  46.651 -32.713  1.00  0.00     0.128 C 
HETATM    4  C4  UNL     1      -5.770  45.422 -32.175  1.00  0.00     0.052 C 
HETATM    5  C5  UNL     1      -6.434  45.163 -30.833  1.00  0.00     0.010 C 
HETATM    6  C6  UNL     1      -6.711  46.559 -30.233  1.00  0.00     0.002 C 
HETATM    7  C7  UNL     1      -8.008  46.576 -29.399  1.00  0.00    -0.004 C 
HETATM    8  C8  UNL     1      -7.980  47.657 -28.294  1.00  0.00     0.010 C 
HETATM    9  C9  UNL     1      -9.370  48.059 -27.784  1.00  0.00     0.035 C 
HETATM   10  C10 UNL     1     -10.375  46.953 -27.980  1.00  0.00    -0.069 C 
HETATM   11  C11 UNL     1     -10.992  46.390 -26.928  1.00  0.00     0.030 C 
HETATM   12  C12 UNL     1     -11.938  45.256 -27.095  1.00  0.00     0.032 C 
HETATM   13  N1  UNL     1     -12.674  44.924 -26.072  1.00  0.00    -0.271 N 
ATOM     14  H1  UNL     1     -12.613  45.365 -25.154  1.00  0.00     0.194 HD
HETATM   15  C22 UNL     1     -12.018  44.566 -28.445  1.00  0.00     0.060 C 
HETATM   16  C23 UNL     1     -10.863  44.945 -29.368  1.00  0.00     0.020 C 
HETATM   17  C24 UNL     1     -10.579  46.476 -29.419  1.00  0.00    -0.016 C 
HETATM   18  C25 UNL     1     -11.807  47.187 -30.033  1.00  0.00     0.020 C 
HETATM   19  C26 UNL     1      -9.268  46.705 -30.279  1.00  0.00     0.002 C 
HETATM   20  C27 UNL     1      -9.235  48.011 -31.100  1.00  0.00     0.007 C 
HETATM   21  C28 UNL     1      -7.848  48.540 -31.481  1.00  0.00     0.014 C 
HETATM   22  C29 UNL     1      -6.662  47.554 -31.439  1.00  0.00     0.003 C 
HETATM   23  C30 UNL     1      -5.385  48.432 -31.273  1.00  0.00     0.020 C 
ENDROOT
BRANCH   3  24
HETATM   24  O1  UNL     1      -5.714  47.280 -33.711  1.00  0.00    -0.377 OA
HETATM   25  H2  UNL     1      -5.739  46.708 -34.496  1.00  0.00     0.211 HD
ENDBRANCH   3  24
BRANCH  13  26
HETATM   26  O2  UNL     1     -13.561  43.882 -26.389  1.00  0.00    -0.271 OA
BRANCH  26  27
HETATM   27  C13 UNL     1     -14.720  44.006 -25.571  1.00  0.00     0.303 C 
BRANCH  27  28
HETATM   28  C14 UNL     1     -15.809  44.801 -26.285  1.00  0.00     0.244 C 
HETATM   29  O3  UNL     1     -15.571  45.529 -27.247  1.00  0.00    -0.271 OA
HETATM   30  N2  UNL     1     -17.086  44.580 -25.814  1.00  0.00    -0.350 N 
HETATM   31  H16 UNL     1     -17.148  44.254 -24.853  1.00  0.00     0.163 HD
BRANCH  30  32
HETATM   32  C15 UNL     1     -18.206  45.341 -26.330  1.00  0.00     0.225 C 
BRANCH  32  33
HETATM   33  C16 UNL     1     -19.226  45.622 -25.221  1.00  0.00     0.236 C 
HETATM   34  O4  UNL     1     -20.008  46.570 -25.267  1.00  0.00    -0.272 OA
HETATM   35  N3  UNL     1     -19.136  44.761 -24.148  1.00  0.00    -0.345 N 
HETATM   36  H19 UNL     1     -18.720  43.850 -24.321  1.00  0.00     0.163 HD
BRANCH  35  37
HETATM   37  C17 UNL     1     -20.112  44.780 -23.053  1.00  0.00     0.185 C 
BRANCH  37  38
HETATM   38  C18 UNL     1     -20.994  43.523 -23.121  1.00  0.00     0.163 C 
HETATM   39  O5  UNL     1     -22.033  43.327 -22.509  1.00  0.00    -0.648 OA
BRANCH  38  40
HETATM   40  O6  UNL     1     -20.492  42.559 -23.930  1.00  0.00    -0.775 OA
HETATM   41  H21 UNL     1     -21.157  41.836 -23.878  1.00  0.00     0.167 HD
ENDBRANCH  38  40
ENDBRANCH  37  38
BRANCH  37  42
HETATM   42  C19 UNL     1     -19.440  44.886 -21.665  1.00  0.00     0.010 C 
HETATM   43  C20 UNL     1     -18.704  43.606 -21.257  1.00  0.00     0.012 C 
HETATM   44  C21 UNL     1     -18.489  46.082 -21.590  1.00  0.00     0.012 C 
ENDBRANCH  37  42
ENDBRANCH  35  37
ENDBRANCH  32  33
ENDBRANCH  30  32
ENDBRANCH  27  28
ENDBRANCH  26  27
ENDBRANCH  13  26
TORSDOF 10
ENDMDL
MODEL 3
REMARK minimizedAffinity -9.08065128
REMARK CNNscore 0.400199443
REMARK CNNaffinity 6.88756561
REMARK  10 active torsions:
REMARK  status: ('A' for Active; 'I' for Inactive)
REMARK    1  A    between atoms: C3_3  and  O1_4 
REMARK    2  A    between atoms: N1_14  and  O2_16 
REMARK    3  A    between atoms: O2_16  and  C13_17 
REMARK    4  A    between atoms: C13_17  and  C14_18 
REMARK       I    between atoms: C14_18  and  N2_20 
REMARK    5  A    between atoms: N2_20  and  C15_21 
REMARK    6  A    between atoms: C15_21  and  C16_22 
REMARK       I    between atoms: C16_22  and  N3_24 
REMARK    7  A    between atoms: N3_24  and  C17_25 
REMARK    8  A    between atoms: C17_25  and  C18_26 
REMARK    9  A    between atoms: C17_25  and  C19_29 
REMARK   10  A    between atoms: C18_26  and  O6_28 
ROOT
HETATM    1  C1  UNL     1      -0.095  51.711 -21.989  1.00  0.00     0.015 C 
HETATM    2  C2  UNL     1      -0.527  50.974 -21.144  1.00  0.00    -0.078 C 
HETATM    3  C3  UNL     1      -1.001  50.073 -20.074  1.00  0.00     0.128 C 
HETATM    4  C4  UNL     1      -0.327  48.704 -20.200  1.00  0.00     0.052 C 
HETATM    5  C5  UNL     1      -1.160  47.988 -21.251  1.00  0.00     0.010 C 
HETATM    6  C6  UNL     1      -2.620  48.410 -20.976  1.00  0.00     0.002 C 
HETATM    7  C7  UNL     1      -3.439  48.515 -22.279  1.00  0.00    -0.004 C 
HETATM    8  C8  UNL     1      -4.949  48.271 -22.044  1.00  0.00     0.010 C 
HETATM    9  C9  UNL     1      -5.848  48.841 -23.148  1.00  0.00     0.035 C 
HETATM   10  C10 UNL     1      -5.116  48.950 -24.460  1.00  0.00    -0.069 C 
HETATM   11  C11 UNL     1      -5.529  48.261 -25.537  1.00  0.00     0.030 C 
HETATM   12  C12 UNL     1      -4.784  48.307 -26.823  1.00  0.00     0.032 C 
HETATM   13  N1  UNL     1      -5.367  47.814 -27.880  1.00  0.00    -0.271 N 
ATOM     14  H1  UNL     1      -6.282  47.365 -27.872  1.00  0.00     0.194 HD
HETATM   15  C22 UNL     1      -3.405  48.942 -26.845  1.00  0.00     0.060 C 
HETATM   16  C23 UNL     1      -2.841  49.170 -25.445  1.00  0.00     0.020 C 
HETATM   17  C24 UNL     1      -3.856  49.818 -24.458  1.00  0.00    -0.016 C 
HETATM   18  C25 UNL     1      -4.203  51.237 -24.965  1.00  0.00     0.020 C 
HETATM   19  C26 UNL     1      -3.195  49.846 -23.019  1.00  0.00     0.002 C 
HETATM   20  C27 UNL     1      -3.587  51.048 -22.134  1.00  0.00     0.007 C 
HETATM   21  C28 UNL     1      -3.445  50.853 -20.620  1.00  0.00     0.014 C 
HETATM   22  C29 UNL     1      -2.529  49.716 -20.121  1.00  0.00     0.003 C 
HETATM   23  C30 UNL     1      -3.023  49.373 -18.683  1.00  0.00     0.020 C 
ENDROOT
BRANCH   3  24
HETATM   24  O1  UNL     1      -0.639  50.664 -18.831  1.00  0.00    -0.377 OA
HETATM   25  H2  UNL     1       0.291  50.937 -18.908  1.00  0.00     0.211 HD
ENDBRANCH   3  24
BRANCH  13  26
HETATM   26  O2  UNL     1      -4.578  47.978 -29.029  1.00  0.00    -0.271 OA
BRANCH  26  27
HETATM   27  C13 UNL     1      -5.372  48.582 -30.045  1.00  0.00     0.303 C 
BRANCH  27  28
HETATM   28  C14 UNL     1      -5.287  47.791 -31.346  1.00  0.00     0.244 C 
HETATM   29  O3  UNL     1      -4.565  48.133 -32.281  1.00  0.00    -0.271 OA
HETATM   30  N2  UNL     1      -6.025  46.626 -31.362  1.00  0.00    -0.350 N 
HETATM   31  H16 UNL     1      -6.816  46.599 -30.724  1.00  0.00     0.163 HD
BRANCH  30  32
HETATM   32  C15 UNL     1      -6.117  45.826 -32.567  1.00  0.00     0.225 C 
BRANCH  32  33
HETATM   33  C16 UNL     1      -5.109  44.672 -32.528  1.00  0.00     0.236 C 
HETATM   34  O4  UNL     1      -3.952  44.818 -32.137  1.00  0.00    -0.272 OA
HETATM   35  N3  UNL     1      -5.596  43.486 -33.034  1.00  0.00    -0.345 N 
HETATM   36  H19 UNL     1      -6.606  43.360 -33.025  1.00  0.00     0.163 HD
BRANCH  35  37
HETATM   37  C17 UNL     1      -4.833  42.236 -32.957  1.00  0.00     0.185 C 
BRANCH  37  38
HETATM   38  C18 UNL     1      -5.784  41.036 -33.092  1.00  0.00     0.163 C 
HETATM   39  O5  UNL     1      -6.874  41.028 -33.644  1.00  0.00    -0.648 OA
BRANCH  38  40
HETATM   40  O6  UNL     1      -5.325  39.916 -32.483  1.00  0.00    -0.775 OA
HETATM   41  H21 UNL     1      -6.024  39.247 -32.661  1.00  0.00     0.167 HD
ENDBRANCH  38  40
ENDBRANCH  37  38
BRANCH  37  42
HETATM   42  C19 UNL     1      -3.719  42.156 -34.026  1.00  0.00     0.010 C 
HETATM   43  C20 UNL     1      -2.526  41.304 -33.585  1.00  0.00     0.012 C 
HETATM   44  C21 UNL     1      -4.259  41.647 -35.365  1.00  0.00     0.012 C 
ENDBRANCH  37  42
ENDBRANCH  35  37
ENDBRANCH  32  33
ENDBRANCH  30  32
ENDBRANCH  27  28
ENDBRANCH  26  27
ENDBRANCH  13  26
TORSDOF 10
ENDMDL
MODEL 4
REMARK minimizedAffinity -8.20362759
REMARK CNNscore 0.325088322
REMARK CNNaffinity 6.14760017
REMARK  10 active torsions:
REMARK  status: ('A' for Active; 'I' for Inactive)
REMARK    1  A    between atoms: C3_3  and  O1_4 
REMARK    2  A    between atoms: N1_14  and  O2_16 
REMARK    3  A    between atoms: O2_16  and  C13_17 
REMARK    4  A    between atoms: C13_17  and  C14_18 
REMARK       I    between atoms: C14_18  and  N2_20 
REMARK    5  A    between atoms: N2_20  and  C15_21 
REMARK    6  A    between atoms: C15_21  and  C16_22 
REMARK       I    between atoms: C16_22  and  N3_24 
REMARK    7  A    between atoms: N3_24  and  C17_25 
REMARK    8  A    between atoms: C17_25  and  C18_26 
REMARK    9  A    between atoms: C17_25  and  C19_29 
REMARK   10  A    between atoms: C18_26  and  O6_28 
ROOT
HETATM    1  C1  UNL     1      -1.086  51.093 -24.861  1.00  0.00     0.015 C 
HETATM    2  C2  UNL     1      -2.266  50.889 -24.758  1.00  0.00    -0.078 C 
HETATM    3  C3  UNL     1      -3.725  50.669 -24.689  1.00  0.00     0.128 C 
HETATM    4  C4  UNL     1      -4.441  51.981 -24.353  1.00  0.00     0.052 C 
HETATM    5  C5  UNL     1      -4.325  52.075 -22.840  1.00  0.00     0.010 C 
HETATM    6  C6  UNL     1      -4.498  50.631 -22.322  1.00  0.00     0.002 C 
HETATM    7  C7  UNL     1      -3.644  50.369 -21.064  1.00  0.00    -0.004 C 
HETATM    8  C8  UNL     1      -4.249  49.265 -20.165  1.00  0.00     0.010 C 
HETATM    9  C9  UNL     1      -3.237  48.621 -19.209  1.00  0.00     0.035 C 
HETATM   10  C10 UNL     1      -2.094  49.553 -18.899  1.00  0.00    -0.069 C 
HETATM   11  C11 UNL     1      -1.866  49.966 -17.640  1.00  0.00     0.030 C 
HETATM   12  C12 UNL     1      -0.784  50.934 -17.323  1.00  0.00     0.032 C 
HETATM   13  N1  UNL     1      -0.468  51.102 -16.070  1.00  0.00    -0.271 N 
ATOM     14  H1  UNL     1      -0.942  50.641 -15.292  1.00  0.00     0.194 HD
HETATM   15  C22 UNL     1      -0.090  51.653 -18.466  1.00  0.00     0.060 C 
HETATM   16  C23 UNL     1      -0.834  51.505 -19.791  1.00  0.00     0.020 C 
HETATM   17  C24 UNL     1      -1.282  50.045 -20.098  1.00  0.00    -0.016 C 
HETATM   18  C25 UNL     1      -0.022  49.166 -20.267  1.00  0.00     0.020 C 
HETATM   19  C26 UNL     1      -2.172  50.068 -21.408  1.00  0.00     0.002 C 
HETATM   20  C27 UNL     1      -2.059  48.817 -22.306  1.00  0.00     0.007 C 
HETATM   21  C28 UNL     1      -3.246  48.539 -23.235  1.00  0.00     0.014 C 
HETATM   22  C29 UNL     1      -4.208  49.704 -23.548  1.00  0.00     0.003 C 
HETATM   23  C30 UNL     1      -5.555  49.043 -23.968  1.00  0.00     0.020 C 
ENDROOT
BRANCH   3  24
HETATM   24  O1  UNL     1      -4.147  50.217 -25.971  1.00  0.00    -0.377 OA
HETATM   25  H2  UNL     1      -3.740  50.807 -26.627  1.00  0.00     0.211 HD
ENDBRANCH   3  24
BRANCH  13  26
HETATM   26  O2  UNL     1       0.605  51.994 -15.922  1.00  0.00    -0.271 OA
BRANCH  26  27
HETATM   27  C13 UNL     1       1.160  51.829 -14.621  1.00  0.00     0.303 C 
BRANCH  27  28
HETATM   28  C14 UNL     1       0.220  52.379 -13.553  1.00  0.00     0.244 C 
HETATM   29  O3  UNL     1      -0.997  52.204 -13.591  1.00  0.00    -0.271 OA
HETATM   30  N2  UNL     1       0.848  53.022 -12.508  1.00  0.00    -0.350 N 
HETATM   31  H16 UNL     1       1.767  53.403 -12.717  1.00  0.00     0.163 HD
BRANCH  30  32
HETATM   32  C15 UNL     1       0.077  53.680 -11.473  1.00  0.00     0.225 C 
BRANCH  32  33
HETATM   33  C16 UNL     1       1.002  54.314 -10.428  1.00  0.00     0.236 C 
HETATM   34  O4  UNL     1       0.629  55.207  -9.670  1.00  0.00    -0.272 OA
HETATM   35  N3  UNL     1       2.296  53.840 -10.467  1.00  0.00    -0.345 N 
HETATM   36  H19 UNL     1       2.438  52.916 -10.867  1.00  0.00     0.163 HD
BRANCH  35  37
HETATM   37  C17 UNL     1       3.294  54.220  -9.461  1.00  0.00     0.185 C 
BRANCH  37  38
HETATM   38  C18 UNL     1       4.256  53.048  -9.215  1.00  0.00     0.163 C 
HETATM   39  O5  UNL     1       5.007  52.908  -8.261  1.00  0.00    -0.648 OA
BRANCH  38  40
HETATM   40  O6  UNL     1       4.251  52.131 -10.213  1.00  0.00    -0.775 OA
HETATM   41  H21 UNL     1       4.897  51.451  -9.914  1.00  0.00     0.167 HD
ENDBRANCH  38  40
ENDBRANCH  37  38
BRANCH  37  42
HETATM   42  C19 UNL     1       4.086  55.485  -9.863  1.00  0.00     0.010 C 
HETATM   43  C20 UNL     1       4.000  55.794 -11.361  1.00  0.00     0.012 C 
HETATM   44  C21 UNL     1       3.646  56.706  -9.051  1.00  0.00     0.012 C 
ENDBRANCH  37  42
ENDBRANCH  35  37
ENDBRANCH  32  33
ENDBRANCH  30  32
ENDBRANCH  27  28
ENDBRANCH  26  27
ENDBRANCH  13  26
TORSDOF 10
ENDMDL
MODEL 5
REMARK minimizedAffinity -7.64420795
REMARK CNNscore 0.282103956
REMARK CNNaffinity 6.56629992
REMARK  10 active torsions:
REMARK  status: ('A' for Active; 'I' for Inactive)
REMARK    1  A    between atoms: C3_3  and  O1_4 
REMARK    2  A    between atoms: N1_14  and  O2_16 
REMARK    3  A    between atoms: O2_16  and  C13_17 
REMARK    4  A    between atoms: C13_17  and  C14_18 
REMARK       I    between atoms: C14_18  and  N2_20 
REMARK    5  A    between atoms: N2_20  and  C15_21 
REMARK    6  A    between atoms: C15_21  and  C16_22 
REMARK       I    between atoms: C16_22  and  N3_24 
REMARK    7  A    between atoms: N3_24  and  C17_25 
REMARK    8  A    between atoms: C17_25  and  C18_26 
REMARK    9  A    between atoms: C17_25  and  C19_29 
REMARK   10  A    between atoms: C18_26  and  O6_28 
ROOT
HETATM    1  C1  UNL     1      -4.277  48.777 -24.285  1.00  0.00     0.015 C 
HETATM    2  C2  UNL     1      -5.193  48.443 -23.582  1.00  0.00    -0.078 C 
HETATM    3  C3  UNL     1      -6.359  48.048 -22.767  1.00  0.00     0.128 C 
HETATM    4  C4  UNL     1      -7.109  49.292 -22.282  1.00  0.00     0.052 C 
HETATM    5  C5  UNL     1      -6.326  49.726 -21.053  1.00  0.00     0.010 C 
HETATM    6  C6  UNL     1      -5.909  48.418 -20.347  1.00  0.00     0.002 C 
HETATM    7  C7  UNL     1      -4.533  48.552 -19.662  1.00  0.00    -0.004 C 
HETATM    8  C8  UNL     1      -4.384  47.597 -18.455  1.00  0.00     0.010 C 
HETATM    9  C9  UNL     1      -2.928  47.318 -18.061  1.00  0.00     0.035 C 
HETATM   10  C10 UNL     1      -2.013  48.440 -18.480  1.00  0.00    -0.069 C 
HETATM   11  C11 UNL     1      -1.324  49.142 -17.564  1.00  0.00     0.030 C 
HETATM   12  C12 UNL     1      -0.466  50.293 -17.951  1.00  0.00     0.032 C 
HETATM   13  N1  UNL     1       0.352  50.768 -17.054  1.00  0.00    -0.271 N 
ATOM     14  H1  UNL     1       0.411  50.427 -16.095  1.00  0.00     0.194 HD
HETATM   15  C22 UNL     1      -0.566  50.835 -19.366  1.00  0.00     0.060 C 
HETATM   16  C23 UNL     1      -1.787  50.305 -20.113  1.00  0.00     0.020 C 
HETATM   17  C24 UNL     1      -1.988  48.766 -19.974  1.00  0.00    -0.016 C 
HETATM   18  C25 UNL     1      -0.792  48.049 -20.641  1.00  0.00     0.020 C 
HETATM   19  C26 UNL     1      -3.366  48.385 -20.656  1.00  0.00     0.002 C 
HETATM   20  C27 UNL     1      -3.409  46.997 -21.330  1.00  0.00     0.007 C 
HETATM   21  C28 UNL     1      -4.795  46.367 -21.499  1.00  0.00     0.014 C 
HETATM   22  C29 UNL     1      -6.025  47.297 -21.430  1.00  0.00     0.003 C 
HETATM   23  C30 UNL     1      -7.226  46.385 -21.036  1.00  0.00     0.020 C 
ENDROOT
BRANCH   3  24
HETATM   24  O1  UNL     1      -7.218  47.277 -23.601  1.00  0.00    -0.377 OA
HETATM   25  H2  UNL     1      -7.308  47.761 -24.439  1.00  0.00     0.211 HD
ENDBRANCH   3  24
BRANCH  13  26
HETATM   26  O2  UNL     1       1.139  51.808 -17.572  1.00  0.00    -0.271 OA
BRANCH  26  27
HETATM   27  C13 UNL     1       1.453  52.712 -16.517  1.00  0.00     0.303 C 
BRANCH  27  28
HETATM   28  C14 UNL     1       2.541  52.140 -15.614  1.00  0.00     0.244 C 
HETATM   29  O3  UNL     1       3.689  51.945 -16.007  1.00  0.00    -0.271 OA
HETATM   30  N2  UNL     1       2.154  51.930 -14.308  1.00  0.00    -0.350 N 
HETATM   31  H16 UNL     1       1.157  51.796 -14.162  1.00  0.00     0.163 HD
BRANCH  30  32
HETATM   32  C15 UNL     1       3.053  51.299 -13.362  1.00  0.00     0.225 C 
BRANCH  32  33
HETATM   33  C16 UNL     1       2.877  51.901 -11.964  1.00  0.00     0.236 C 
HETATM   34  O4  UNL     1       2.796  51.207 -10.952  1.00  0.00    -0.272 OA
HETATM   35  N3  UNL     1       2.750  53.273 -11.958  1.00  0.00    -0.345 N 
HETATM   36  H19 UNL     1       3.143  53.777 -12.749  1.00  0.00     0.163 HD
BRANCH  35  37
HETATM   37  C17 UNL     1       2.712  54.045 -10.711  1.00  0.00     0.185 C 
BRANCH  37  38
HETATM   38  C18 UNL     1       3.973  54.917 -10.601  1.00  0.00     0.163 C 
HETATM   39  O5  UNL     1       4.112  56.054 -11.023  1.00  0.00    -0.648 OA
BRANCH  38  40
HETATM   40  O6  UNL     1       5.010  54.286  -9.996  1.00  0.00    -0.775 OA
HETATM   41  H21 UNL     1       5.726  54.960  -9.992  1.00  0.00     0.167 HD
ENDBRANCH  38  40
ENDBRANCH  37  38
BRANCH  37  42
HETATM   42  C19 UNL     1       1.445  54.923 -10.598  1.00  0.00     0.010 C 
HETATM   43  C20 UNL     1       0.178  54.211 -11.083  1.00  0.00     0.012 C 
HETATM   44  C21 UNL     1       1.242  55.437  -9.171  1.00  0.00     0.012 C 
ENDBRANCH  37  42
ENDBRANCH  35  37
ENDBRANCH  32  33
ENDBRANCH  30  32
ENDBRANCH  27  28
ENDBRANCH  26  27
ENDBRANCH  13  26
TORSDOF 10
ENDMDL
MODEL 6
REMARK minimizedAffinity -8.49337673
REMARK CNNscore 0.275650114
REMARK CNNaffinity 6.64846754
REMARK  10 active torsions:
REMARK  status: ('A' for Active; 'I' for Inactive)
REMARK    1  A    between atoms: C3_3  and  O1_4 
REMARK    2  A    between atoms: N1_14  and  O2_16 
REMARK    3  A    between atoms: O2_16  and  C13_17 
REMARK    4  A    between atoms: C13_17  and  C14_18 
REMARK       I    between atoms: C14_18  and  N2_20 
REMARK    5  A    between atoms: N2_20  and  C15_21 
REMARK    6  A    between atoms: C15_21  and  C16_22 
REMARK       I    between atoms: C16_22  and  N3_24 
REMARK    7  A    between atoms: N3_24  and  C17_25 
REMARK    8  A    between atoms: C17_25  and  C18_26 
REMARK    9  A    between atoms: C17_25  and  C19_29 
REMARK   10  A    between atoms: C18_26  and  O6_28 
ROOT
HETATM    1  C1  UNL     1      -0.618  51.462 -24.010  1.00  0.00     0.015 C 
HETATM    2  C2  UNL     1      -1.707  51.108 -24.378  1.00  0.00    -0.078 C 
HETATM    3  C3  UNL     1      -3.036  50.710 -24.883  1.00  0.00     0.128 C 
HETATM    4  C4  UNL     1      -4.027  51.868 -24.730  1.00  0.00     0.052 C 
HETATM    5  C5  UNL     1      -4.481  51.762 -23.283  1.00  0.00     0.010 C 
HETATM    6  C6  UNL     1      -4.593  50.249 -22.996  1.00  0.00     0.002 C 
HETATM    7  C7  UNL     1      -4.220  49.916 -21.537  1.00  0.00    -0.004 C 
HETATM    8  C8  UNL     1      -4.921  48.633 -21.031  1.00  0.00     0.010 C 
HETATM    9  C9  UNL     1      -4.232  47.985 -19.823  1.00  0.00     0.035 C 
HETATM   10  C10 UNL     1      -3.445  48.992 -19.026  1.00  0.00    -0.069 C 
HETATM   11  C11 UNL     1      -3.756  49.248 -17.744  1.00  0.00     0.030 C 
HETATM   12  C12 UNL     1      -3.033  50.283 -16.959  1.00  0.00     0.032 C 
HETATM   13  N1  UNL     1      -3.222  50.309 -15.670  1.00  0.00    -0.271 N 
ATOM     14  H1  UNL     1      -3.863  49.691 -15.172  1.00  0.00     0.194 HD
HETATM   15  C22 UNL     1      -2.100  51.232 -17.690  1.00  0.00     0.060 C 
HETATM   16  C23 UNL     1      -2.281  51.185 -19.204  1.00  0.00     0.020 C 
HETATM   17  C24 UNL     1      -2.346  49.740 -19.783  1.00  0.00    -0.016 C 
HETATM   18  C25 UNL     1      -0.986  49.047 -19.539  1.00  0.00     0.020 C 
HETATM   19  C26 UNL     1      -2.695  49.842 -21.325  1.00  0.00     0.002 C 
HETATM   20  C27 UNL     1      -2.066  48.752 -22.218  1.00  0.00     0.007 C 
HETATM   21  C28 UNL     1      -2.776  48.468 -23.546  1.00  0.00     0.014 C 
HETATM   22  C29 UNL     1      -3.735  49.545 -24.097  1.00  0.00     0.003 C 
HETATM   23  C30 UNL     1      -4.715  48.795 -25.049  1.00  0.00     0.020 C 
ENDROOT
BRANCH   3  24
HETATM   24  O1  UNL     1      -2.889  50.396 -26.263  1.00  0.00    -0.377 OA
HETATM   25  H2  UNL     1      -2.374  51.117 -26.664  1.00  0.00     0.211 HD
ENDBRANCH   3  24
BRANCH  13  26
HETATM   26  O2  UNL     1      -2.434  51.292 -15.051  1.00  0.00    -0.271 OA
BRANCH  26  27
HETATM   27  C13 UNL     1      -3.088  51.719 -13.861  1.00  0.00     0.303 C 
BRANCH  27  28
HETATM   28  C14 UNL     1      -2.181  51.547 -12.647  1.00  0.00     0.244 C 
HETATM   29  O3  UNL     1      -2.569  51.031 -11.601  1.00  0.00    -0.271 OA
HETATM   30  N2  UNL     1      -0.876  51.947 -12.842  1.00  0.00    -0.350 N 
HETATM   31  H16 UNL     1      -0.734  52.640 -13.572  1.00  0.00     0.163 HD
BRANCH  30  32
HETATM   32  C15 UNL     1       0.073  51.934 -11.747  1.00  0.00     0.225 C 
BRANCH  32  33
HETATM   33  C16 UNL     1       1.505  52.085 -12.271  1.00  0.00     0.236 C 
HETATM   34  O4  UNL     1       2.372  52.702 -11.655  1.00  0.00    -0.272 OA
HETATM   35  N3  UNL     1       1.707  51.528 -13.515  1.00  0.00    -0.345 N 
HETATM   36  H19 UNL     1       1.074  50.783 -13.796  1.00  0.00     0.163 HD
BRANCH  35  37
HETATM   37  C17 UNL     1       3.039  51.446 -14.124  1.00  0.00     0.185 C 
BRANCH  37  38
HETATM   38  C18 UNL     1       3.649  50.061 -13.859  1.00  0.00     0.163 C 
HETATM   39  O5  UNL     1       4.837  49.790 -13.779  1.00  0.00    -0.648 OA
BRANCH  38  40
HETATM   40  O6  UNL     1       2.721  49.079 -13.749  1.00  0.00    -0.775 OA
HETATM   41  H21 UNL     1       3.252  48.270 -13.575  1.00  0.00     0.167 HD
ENDBRANCH  38  40
ENDBRANCH  37  38
BRANCH  37  42
HETATM   42  C19 UNL     1       3.013  51.736 -15.643  1.00  0.00     0.010 C 
HETATM   43  C20 UNL     1       1.652  52.240 -16.133  1.00  0.00     0.012 C 
HETATM   44  C21 UNL     1       4.113  52.721 -16.047  1.00  0.00     0.012 C 
ENDBRANCH  37  42
ENDBRANCH  35  37
ENDBRANCH  32  33
ENDBRANCH  30  32
ENDBRANCH  27  28
ENDBRANCH  26  27
ENDBRANCH  13  26
TORSDOF 10
ENDMDL
MODEL 7
REMARK minimizedAffinity -8.44517803
REMARK CNNscore 0.254370749
REMARK CNNaffinity 6.37099648
REMARK  10 active torsions:
REMARK  status: ('A' for Active; 'I' for Inactive)
REMARK    1  A    between atoms: C3_3  and  O1_4 
REMARK    2  A    between atoms: N1_14  and  O2_16 
REMARK    3  A    between atoms: O2_16  and  C13_17 
REMARK    4  A    between atoms: C13_17  and  C14_18 
REMARK       I    between atoms: C14_18  and  N2_20 
REMARK    5  A    between atoms: N2_20  and  C15_21 
REMARK    6  A    between atoms: C15_21  and  C16_22 
REMARK       I    between atoms: C16_22  and  N3_24 
REMARK    7  A    between atoms: N3_24  and  C17_25 
REMARK    8  A    between atoms: C17_25  and  C18_26 
REMARK    9  A    between atoms: C17_25  and  C19_29 
REMARK   10  A    between atoms: C18_26  and  O6_28 
ROOT
HETATM    1  C1  UNL     1      -4.285  47.480 -19.244  1.00  0.00     0.015 C 
HETATM    2  C2  UNL     1      -3.798  47.805 -20.293  1.00  0.00    -0.078 C 
HETATM    3  C3  UNL     1      -3.228  48.153 -21.610  1.00  0.00     0.128 C 
HETATM    4  C4  UNL     1      -2.070  47.209 -21.949  1.00  0.00     0.052 C 
HETATM    5  C5  UNL     1      -0.886  47.814 -21.212  1.00  0.00     0.010 C 
HETATM    6  C6  UNL     1      -1.057  49.343 -21.343  1.00  0.00     0.002 C 
HETATM    7  C7  UNL     1      -0.546  50.084 -20.090  1.00  0.00    -0.004 C 
HETATM    8  C8  UNL     1      -0.081  51.524 -20.410  1.00  0.00     0.010 C 
HETATM    9  C9  UNL     1      -0.046  52.450 -19.187  1.00  0.00     0.035 C 
HETATM   10  C10 UNL     1       0.136  51.675 -17.908  1.00  0.00    -0.069 C 
HETATM   11  C11 UNL     1       1.216  51.873 -17.133  1.00  0.00     0.030 C 
HETATM   12  C12 UNL     1       1.445  51.074 -15.900  1.00  0.00     0.032 C 
HETATM   13  N1  UNL     1       2.373  51.478 -15.079  1.00  0.00    -0.271 N 
ATOM     14  H1  UNL     1       2.977  52.283 -15.248  1.00  0.00     0.194 HD
HETATM   15  C22 UNL     1       0.577  49.854 -15.649  1.00  0.00     0.060 C 
HETATM   16  C23 UNL     1      -0.218  49.435 -16.883  1.00  0.00     0.020 C 
HETATM   17  C24 UNL     1      -0.928  50.620 -17.603  1.00  0.00    -0.016 C 
HETATM   18  C25 UNL     1      -1.989  51.214 -16.648  1.00  0.00     0.020 C 
HETATM   19  C26 UNL     1      -1.573  50.069 -18.941  1.00  0.00     0.002 C 
HETATM   20  C27 UNL     1      -2.891  50.750 -19.369  1.00  0.00     0.007 C 
HETATM   21  C28 UNL     1      -3.246  50.666 -20.858  1.00  0.00     0.014 C 
HETATM   22  C29 UNL     1      -2.561  49.571 -21.703  1.00  0.00     0.003 C 
HETATM   23  C30 UNL     1      -2.620  50.074 -23.178  1.00  0.00     0.020 C 
ENDROOT
BRANCH   3  24
HETATM   24  O1  UNL     1      -4.261  47.995 -22.576  1.00  0.00    -0.377 OA
HETATM   25  H2  UNL     1      -4.683  47.137 -22.401  1.00  0.00     0.211 HD
ENDBRANCH   3  24
BRANCH  13  26
HETATM   26  O2  UNL     1       2.439  50.669 -13.934  1.00  0.00    -0.271 OA
BRANCH  26  27
HETATM   27  C13 UNL     1       2.947  51.447 -12.855  1.00  0.00     0.303 C 
BRANCH  27  28
HETATM   28  C14 UNL     1       1.830  51.841 -11.894  1.00  0.00     0.244 C 
HETATM   29  O3  UNL     1       1.719  51.348 -10.773  1.00  0.00    -0.271 OA
HETATM   30  N2  UNL     1       1.002  52.844 -12.353  1.00  0.00    -0.350 N 
HETATM   31  H16 UNL     1       0.953  52.944 -13.363  1.00  0.00     0.163 HD
BRANCH  30  32
HETATM   32  C15 UNL     1      -0.161  53.251 -11.589  1.00  0.00     0.225 C 
BRANCH  32  33
HETATM   33  C16 UNL     1       0.159  54.481 -10.732  1.00  0.00     0.236 C 
HETATM   34  O4  UNL     1      -0.679  55.344 -10.477  1.00  0.00    -0.272 OA
HETATM   35  N3  UNL     1       1.477  54.560 -10.338  1.00  0.00    -0.345 N 
HETATM   36  H19 UNL     1       2.002  53.690 -10.302  1.00  0.00     0.163 HD
BRANCH  35  37
HETATM   37  C17 UNL     1       1.947  55.586  -9.400  1.00  0.00     0.185 C 
BRANCH  37  38
HETATM   38  C18 UNL     1       1.896  55.042  -7.964  1.00  0.00     0.163 C 
HETATM   39  O5  UNL     1       1.743  53.876  -7.631  1.00  0.00    -0.648 OA
BRANCH  38  40
HETATM   40  O6  UNL     1       1.999  56.008  -7.020  1.00  0.00    -0.775 OA
HETATM   41  H21 UNL     1       1.959  55.514  -6.170  1.00  0.00     0.167 HD
ENDBRANCH  38  40
ENDBRANCH  37  38
BRANCH  37  42
HETATM   42  C19 UNL     1       3.374  56.080  -9.733  1.00  0.00     0.010 C 
HETATM   43  C20 UNL     1       4.449  55.019  -9.477  1.00  0.00     0.012 C 
HETATM   44  C21 UNL     1       3.473  56.589 -11.173  1.00  0.00     0.012 C 
ENDBRANCH  37  42
ENDBRANCH  35  37
ENDBRANCH  32  33
ENDBRANCH  30  32
ENDBRANCH  27  28
ENDBRANCH  26  27
ENDBRANCH  13  26
TORSDOF 10
ENDMDL
MODEL 8
REMARK minimizedAffinity -9.63046169
REMARK CNNscore 0.253823131
REMARK CNNaffinity 6.32252169
REMARK  10 active torsions:
REMARK  status: ('A' for Active; 'I' for Inactive)
REMARK    1  A    between atoms: C3_3  and  O1_4 
REMARK    2  A    between atoms: N1_14  and  O2_16 
REMARK    3  A    between atoms: O2_16  and  C13_17 
REMARK    4  A    between atoms: C13_17  and  C14_18 
REMARK       I    between atoms: C14_18  and  N2_20 
REMARK    5  A    between atoms: N2_20  and  C15_21 
REMARK    6  A    between atoms: C15_21  and  C16_22 
REMARK       I    between atoms: C16_22  and  N3_24 
REMARK    7  A    between atoms: N3_24  and  C17_25 
REMARK    8  A    between atoms: C17_25  and  C18_26 
REMARK    9  A    between atoms: C17_25  and  C19_29 
REMARK   10  A    between atoms: C18_26  and  O6_28 
ROOT
HETATM    1  C1  UNL     1      -4.984  48.416 -25.202  1.00  0.00     0.015 C 
HETATM    2  C2  UNL     1      -5.870  48.139 -24.439  1.00  0.00    -0.078 C 
HETATM    3  C3  UNL     1      -7.000  47.798 -23.551  1.00  0.00     0.128 C 
HETATM    4  C4  UNL     1      -7.890  49.026 -23.335  1.00  0.00     0.052 C 
HETATM    5  C5  UNL     1      -7.180  49.794 -22.232  1.00  0.00     0.010 C 
HETATM    6  C6  UNL     1      -6.634  48.719 -21.267  1.00  0.00     0.002 C 
HETATM    7  C7  UNL     1      -5.293  49.147 -20.636  1.00  0.00    -0.004 C 
HETATM    8  C8  UNL     1      -5.061  48.491 -19.254  1.00  0.00     0.010 C 
HETATM    9  C9  UNL     1      -3.590  48.465 -18.820  1.00  0.00     0.035 C 
HETATM   10  C10 UNL     1      -2.797  49.568 -19.473  1.00  0.00    -0.069 C 
HETATM   11  C11 UNL     1      -2.205  50.520 -18.732  1.00  0.00     0.030 C 
HETATM   12  C12 UNL     1      -1.473  51.651 -19.359  1.00  0.00     0.032 C 
HETATM   13  N1  UNL     1      -0.728  52.393 -18.589  1.00  0.00    -0.271 N 
ATOM     14  H1  UNL     1      -0.647  52.272 -17.579  1.00  0.00     0.194 HD
HETATM   15  C22 UNL     1      -1.608  51.867 -20.856  1.00  0.00     0.060 C 
HETATM   16  C23 UNL     1      -2.750  51.059 -21.465  1.00  0.00     0.020 C 
HETATM   17  C24 UNL     1      -2.782  49.572 -21.002  1.00  0.00    -0.016 C 
HETATM   18  C25 UNL     1      -1.503  48.867 -21.510  1.00  0.00     0.020 C 
HETATM   19  C26 UNL     1      -4.098  48.905 -21.579  1.00  0.00     0.002 C 
HETATM   20  C27 UNL     1      -3.977  47.409 -21.943  1.00  0.00     0.007 C 
HETATM   21  C28 UNL     1      -5.282  46.607 -21.966  1.00  0.00     0.014 C 
HETATM   22  C29 UNL     1      -6.608  47.388 -22.087  1.00  0.00     0.003 C 
HETATM   23  C30 UNL     1      -7.708  46.452 -21.501  1.00  0.00     0.020 C 
ENDROOT
BRANCH   3  24
HETATM   24  O1  UNL     1      -7.754  46.778 -24.196  1.00  0.00    -0.377 OA
HETATM   25  H2  UNL     1      -7.882  47.060 -25.117  1.00  0.00     0.211 HD
ENDBRANCH   3  24
BRANCH  13  26
HETATM   26  O2  UNL     1      -0.050  53.381 -19.321  1.00  0.00    -0.271 OA
BRANCH  26  27
HETATM   27  C13 UNL     1       0.815  52.743 -20.255  1.00  0.00     0.303 C 
BRANCH  27  28
HETATM   28  C14 UNL     1       1.198  53.696 -21.383  1.00  0.00     0.244 C 
HETATM   29  O3  UNL     1       1.849  54.721 -21.189  1.00  0.00    -0.271 OA
HETATM   30  N2  UNL     1       0.820  53.279 -22.642  1.00  0.00    -0.350 N 
HETATM   31  H16 UNL     1       0.032  52.638 -22.673  1.00  0.00     0.163 HD
BRANCH  30  32
HETATM   32  C15 UNL     1       1.029  54.130 -23.796  1.00  0.00     0.225 C 
BRANCH  32  33
HETATM   33  C16 UNL     1       0.388  53.514 -25.045  1.00  0.00     0.236 C 
HETATM   34  O4  UNL     1       0.137  54.173 -26.052  1.00  0.00    -0.272 OA
HETATM   35  N3  UNL     1       0.059  52.183 -24.906  1.00  0.00    -0.345 N 
HETATM   36  H19 UNL     1       0.574  51.650 -24.209  1.00  0.00     0.163 HD
BRANCH  35  37
HETATM   37  C17 UNL     1      -0.434  51.382 -26.032  1.00  0.00     0.185 C 
BRANCH  37  38
HETATM   38  C18 UNL     1      -1.716  52.014 -26.597  1.00  0.00     0.163 C 
HETATM   39  O5  UNL     1      -2.450  52.807 -26.028  1.00  0.00    -0.648 OA
BRANCH  38  40
HETATM   40  O6  UNL     1      -2.026  51.577 -27.842  1.00  0.00    -0.775 OA
HETATM   41  H21 UNL     1      -2.849  52.067 -28.067  1.00  0.00     0.167 HD
ENDBRANCH  38  40
ENDBRANCH  37  38
BRANCH  37  42
HETATM   42  C19 UNL     1       0.620  51.224 -27.151  1.00  0.00     0.010 C 
HETATM   43  C20 UNL     1       0.494  52.286 -28.248  1.00  0.00     0.012 C 
HETATM   44  C21 UNL     1       2.043  51.221 -26.588  1.00  0.00     0.012 C 
ENDBRANCH  37  42
ENDBRANCH  35  37
ENDBRANCH  32  33
ENDBRANCH  30  32
ENDBRANCH  27  28
ENDBRANCH  26  27
ENDBRANCH  13  26
TORSDOF 10
ENDMDL
MODEL 9
REMARK minimizedAffinity -7.55971527
REMARK CNNscore 0.25312835
REMARK CNNaffinity 5.85252905
REMARK  10 active torsions:
REMARK  status: ('A' for Active; 'I' for Inactive)
REMARK    1  A    between atoms: C3_3  and  O1_4 
REMARK    2  A    between atoms: N1_14  and  O2_16 
REMARK    3  A    between atoms: O2_16  and  C13_17 
REMARK    4  A    between atoms: C13_17  and  C14_18 
REMARK       I    between atoms: C14_18  and  N2_20 
REMARK    5  A    between atoms: N2_20  and  C15_21 
REMARK    6  A    between atoms: C15_21  and  C16_22 
REMARK       I    between atoms: C16_22  and  N3_24 
REMARK    7  A    between atoms: N3_24  and  C17_25 
REMARK    8  A    between atoms: C17_25  and  C18_26 
REMARK    9  A    between atoms: C17_25  and  C19_29 
REMARK   10  A    between atoms: C18_26  and  O6_28 
ROOT
HETATM    1  C1  UNL     1      -2.064  51.038 -20.561  1.00  0.00     0.015 C 
HETATM    2  C2  UNL     1      -2.152  51.168 -21.753  1.00  0.00    -0.078 C 
HETATM    3  C3  UNL     1      -2.220  51.379 -23.213  1.00  0.00     0.128 C 
HETATM    4  C4  UNL     1      -3.089  52.600 -23.530  1.00  0.00     0.052 C 
HETATM    5  C5  UNL     1      -4.506  52.052 -23.485  1.00  0.00     0.010 C 
HETATM    6  C6  UNL     1      -4.423  50.641 -24.107  1.00  0.00     0.002 C 
HETATM    7  C7  UNL     1      -5.420  49.666 -23.448  1.00  0.00    -0.004 C 
HETATM    8  C8  UNL     1      -5.848  48.529 -24.406  1.00  0.00     0.010 C 
HETATM    9  C9  UNL     1      -6.407  47.293 -23.690  1.00  0.00     0.035 C 
HETATM   10  C10 UNL     1      -6.988  47.645 -22.344  1.00  0.00    -0.069 C 
HETATM   11  C11 UNL     1      -8.290  47.442 -22.083  1.00  0.00     0.030 C 
HETATM   12  C12 UNL     1      -8.895  47.841 -20.785  1.00  0.00     0.032 C 
HETATM   13  N1  UNL     1     -10.091  47.400 -20.512  1.00  0.00    -0.271 N 
ATOM     14  H1  UNL     1     -10.652  46.832 -21.148  1.00  0.00     0.194 HD
HETATM   15  C22 UNL     1      -8.086  48.713 -19.841  1.00  0.00     0.060 C 
HETATM   16  C23 UNL     1      -6.860  49.325 -20.512  1.00  0.00     0.020 C 
HETATM   17  C24 UNL     1      -6.031  48.307 -21.351  1.00  0.00    -0.016 C 
HETATM   18  C25 UNL     1      -5.451  47.236 -20.399  1.00  0.00     0.020 C 
HETATM   19  C26 UNL     1      -4.894  49.106 -22.112  1.00  0.00     0.002 C 
HETATM   20  C27 UNL     1      -3.571  48.338 -22.318  1.00  0.00     0.007 C 
HETATM   21  C28 UNL     1      -2.684  48.810 -23.475  1.00  0.00     0.014 C 
HETATM   22  C29 UNL     1      -2.916  50.232 -24.028  1.00  0.00     0.003 C 
HETATM   23  C30 UNL     1      -2.355  50.219 -25.482  1.00  0.00     0.020 C 
ENDROOT
BRANCH   3  24
HETATM   24  O1  UNL     1      -0.893  51.615 -23.670  1.00  0.00    -0.377 OA
HETATM   25  H2  UNL     1      -0.498  52.268 -23.067  1.00  0.00     0.211 HD
ENDBRANCH   3  24
BRANCH  13  26
HETATM   26  O2  UNL     1     -10.511  47.802 -19.234  1.00  0.00    -0.271 OA
BRANCH  26  27
HETATM   27  C13 UNL     1     -11.893  48.137 -19.294  1.00  0.00     0.303 C 
BRANCH  27  28
HETATM   28  C14 UNL     1     -12.723  46.948 -19.765  1.00  0.00     0.244 C 
HETATM   29  O3  UNL     1     -12.406  45.784 -19.525  1.00  0.00    -0.271 OA
HETATM   30  N2  UNL     1     -13.892  47.282 -20.415  1.00  0.00    -0.350 N 
HETATM   31  H16 UNL     1     -13.904  48.200 -20.852  1.00  0.00     0.163 HD
BRANCH  30  32
HETATM   32  C15 UNL     1     -14.730  46.257 -21.005  1.00  0.00     0.225 C 
BRANCH  32  33
HETATM   33  C16 UNL     1     -15.438  46.790 -22.255  1.00  0.00     0.236 C 
HETATM   34  O4  UNL     1     -15.044  47.782 -22.865  1.00  0.00    -0.272 OA
HETATM   35  N3  UNL     1     -16.585  46.101 -22.585  1.00  0.00    -0.345 N 
HETATM   36  H19 UNL     1     -16.659  45.142 -22.255  1.00  0.00     0.163 HD
BRANCH  35  37
HETATM   37  C17 UNL     1     -17.326  46.370 -23.823  1.00  0.00     0.185 C 
BRANCH  37  38
HETATM   38  C18 UNL     1     -17.033  45.268 -24.853  1.00  0.00     0.163 C 
HETATM   39  O5  UNL     1     -17.222  44.070 -24.714  1.00  0.00    -0.648 OA
BRANCH  38  40
HETATM   40  O6  UNL     1     -16.475  45.738 -25.996  1.00  0.00    -0.775 OA
HETATM   41  H21 UNL     1     -16.356  44.933 -26.549  1.00  0.00     0.167 HD
ENDBRANCH  38  40
ENDBRANCH  37  38
BRANCH  37  42
HETATM   42  C19 UNL     1     -18.849  46.488 -23.586  1.00  0.00     0.010 C 
HETATM   43  C20 UNL     1     -19.669  46.309 -24.868  1.00  0.00     0.012 C 
HETATM   44  C21 UNL     1     -19.330  45.506 -22.516  1.00  0.00     0.012 C 
ENDBRANCH  37  42
ENDBRANCH  35  37
ENDBRANCH  32  33
ENDBRANCH  30  32
ENDBRANCH  27  28
ENDBRANCH  26  27
ENDBRANCH  13  26
TORSDOF 10
ENDMDL
