MODEL 1
REMARK minimizedAffinity -7.55187845
REMARK CNNscore 0.816792846
REMARK CNNaffinity 7.12472677
REMARK  6 active torsions:
REMARK  status: ('A' for Active; 'I' for Inactive)
REMARK    1  A    between atoms: C2_2  and  C30_32 
REMARK    2  A    between atoms: C3_3  and  C4_4 
REMARK    3  A    between atoms: C4_4  and  C5_5 
REMARK    4  A    between atoms: C5_5  and  C6_6 
REMARK    5  A    between atoms: C6_6  and  C8_8 
REMARK    6  A    between atoms: C30_32  and  O4_34 
ROOT
HETATM    1  C8  UNL     1       4.142  56.370  -8.074  1.00  0.00    -0.002 C 
HETATM    2  C9  UNL     1       5.127  55.420  -8.815  1.00  0.00     0.007 C 
HETATM    3  C10 UNL     1       4.292  54.475  -9.697  1.00  0.00     0.015 C 
HETATM    4  C11 UNL     1       2.889  55.107  -9.742  1.00  0.00    -0.005 C 
HETATM    5  C12 UNL     1       2.919  56.212 -10.843  1.00  0.00     0.021 C 
HETATM    6  C13 UNL     1       1.675  54.252 -10.082  1.00  0.00    -0.000 C 
HETATM    7  C14 UNL     1       0.443  54.546  -9.588  1.00  0.00    -0.060 C 
HETATM    8  C15 UNL     1       0.258  55.728  -8.626  1.00  0.00     0.036 C 
HETATM    9  C16 UNL     1       1.515  56.504  -8.182  1.00  0.00     0.015 C 
HETATM   10  C17 UNL     1       2.777  55.637  -8.257  1.00  0.00    -0.028 C 
HETATM   11  C18 UNL     1       2.663  54.491  -7.202  1.00  0.00     0.016 C 
HETATM   12  C19 UNL     1      -0.832  53.718  -9.916  1.00  0.00    -0.014 C 
HETATM   13  C20 UNL     1      -1.117  52.815  -8.696  1.00  0.00     0.020 C 
HETATM   14  C21 UNL     1      -2.035  54.651 -10.185  1.00  0.00     0.021 C 
HETATM   15  C22 UNL     1      -3.315  53.960 -10.633  1.00  0.00     0.080 C 
HETATM   16  C23 UNL     1      -3.181  52.545 -11.139  1.00  0.00     0.135 C 
HETATM   17  O1  UNL     1      -4.189  51.831 -11.163  1.00  0.00    -0.297 OA
HETATM   18  C24 UNL     1      -1.842  52.046 -11.697  1.00  0.00     0.018 C 
HETATM   19  C25 UNL     1      -1.701  50.555 -11.310  1.00  0.00     0.023 C 
HETATM   20  C26 UNL     1      -1.963  52.118 -13.234  1.00  0.00     0.023 C 
HETATM   21  C27 UNL     1      -0.625  52.918 -11.238  1.00  0.00     0.020 C 
HETATM   22  C28 UNL     1       0.699  52.150 -11.208  1.00  0.00     0.090 C 
HETATM   23  C29 UNL     1       1.855  53.093 -11.011  1.00  0.00     0.157 C 
HETATM   24  O2  UNL     1       2.924  52.888 -11.582  1.00  0.00    -0.293 OA
ENDROOT
BRANCH   1  25
HETATM   25  C6  UNL     1       4.657  56.735  -6.645  1.00  0.00    -0.014 C 
HETATM   26  C7  UNL     1       3.828  57.849  -5.998  1.00  0.00     0.010 C 
BRANCH  25  27
HETATM   27  C5  UNL     1       6.154  57.152  -6.710  1.00  0.00     0.008 C 
BRANCH  27  28
HETATM   28  C4  UNL     1       6.847  57.217  -5.343  1.00  0.00     0.028 C 
BRANCH  28  29
HETATM   29  C3  UNL     1       7.203  58.633  -4.983  1.00  0.00    -0.013 C 
HETATM   30  C2  UNL     1       8.441  59.153  -4.834  1.00  0.00     0.008 C 
HETATM   31  C1  UNL     1       9.728  58.392  -4.963  1.00  0.00     0.055 C 
BRANCH  30  32
HETATM   32  C30 UNL     1       8.627  60.589  -4.494  1.00  0.00     0.171 C 
HETATM   33  O3  UNL     1       7.732  61.411  -4.399  1.00  0.00    -0.646 OA
BRANCH  32  34
HETATM   34  O4  UNL     1       9.907  60.942  -4.286  1.00  0.00    -0.773 OA
HETATM   35  H44 UNL     1       9.849  61.897  -4.077  1.00  0.00     0.167 HD
ENDBRANCH  32  34
ENDBRANCH  30  32
ENDBRANCH  28  29
ENDBRANCH  27  28
ENDBRANCH  25  27
ENDBRANCH   1  25
TORSDOF 6
ENDMDL
MODEL 2
REMARK minimizedAffinity -8.01400852
REMARK CNNscore 0.776805758
REMARK CNNaffinity 6.93684149
REMARK  6 active torsions:
REMARK  status: ('A' for Active; 'I' for Inactive)
REMARK    1  A    between atoms: C2_2  and  C30_32 
REMARK    2  A    between atoms: C3_3  and  C4_4 
REMARK    3  A    between atoms: C4_4  and  C5_5 
REMARK    4  A    between atoms: C5_5  and  C6_6 
REMARK    5  A    between atoms: C6_6  and  C8_8 
REMARK    6  A    between atoms: C30_32  and  O4_34 
ROOT
HETATM    1  C8  UNL     1       4.689  55.937  -8.487  1.00  0.00    -0.002 C 
HETATM    2  C9  UNL     1       5.537  54.953  -9.344  1.00  0.00     0.007 C 
HETATM    3  C10 UNL     1       4.563  54.096 -10.173  1.00  0.00     0.015 C 
HETATM    4  C11 UNL     1       3.207  54.818 -10.069  1.00  0.00    -0.005 C 
HETATM    5  C12 UNL     1       3.212  55.957 -11.135  1.00  0.00     0.021 C 
HETATM    6  C13 UNL     1       1.913  54.055 -10.320  1.00  0.00    -0.000 C 
HETATM    7  C14 UNL     1       0.753  54.410  -9.706  1.00  0.00    -0.060 C 
HETATM    8  C15 UNL     1       0.736  55.567  -8.697  1.00  0.00     0.036 C 
HETATM    9  C16 UNL     1       2.078  56.244  -8.348  1.00  0.00     0.015 C 
HETATM   10  C17 UNL     1       3.266  55.301  -8.565  1.00  0.00    -0.028 C 
HETATM   11  C18 UNL     1       3.171  54.127  -7.538  1.00  0.00     0.016 C 
HETATM   12  C19 UNL     1      -0.599  53.679  -9.939  1.00  0.00    -0.014 C 
HETATM   13  C20 UNL     1      -0.833  52.752  -8.725  1.00  0.00     0.020 C 
HETATM   14  C21 UNL     1      -1.756  54.696 -10.068  1.00  0.00     0.021 C 
HETATM   15  C22 UNL     1      -3.114  54.105 -10.416  1.00  0.00     0.080 C 
HETATM   16  C23 UNL     1      -3.123  52.704 -10.974  1.00  0.00     0.135 C 
HETATM   17  O1  UNL     1      -4.174  52.057 -10.925  1.00  0.00    -0.297 OA
HETATM   18  C24 UNL     1      -1.876  52.140 -11.668  1.00  0.00     0.018 C 
HETATM   19  C25 UNL     1      -1.801  50.630 -11.339  1.00  0.00     0.023 C 
HETATM   20  C26 UNL     1      -2.131  52.273 -13.184  1.00  0.00     0.023 C 
HETATM   21  C27 UNL     1      -0.567  52.914 -11.298  1.00  0.00     0.020 C 
HETATM   22  C28 UNL     1       0.700  52.062 -11.413  1.00  0.00     0.090 C 
HETATM   23  C29 UNL     1       1.930  52.921 -11.296  1.00  0.00     0.157 C 
HETATM   24  O2  UNL     1       2.926  52.668 -11.970  1.00  0.00    -0.293 OA
ENDROOT
BRANCH   1  25
HETATM   25  C6  UNL     1       5.354  56.217  -7.103  1.00  0.00    -0.014 C 
HETATM   26  C7  UNL     1       5.159  57.667  -6.649  1.00  0.00     0.010 C 
BRANCH  25  27
HETATM   27  C5  UNL     1       6.870  55.876  -7.162  1.00  0.00     0.008 C 
BRANCH  27  28
HETATM   28  C4  UNL     1       7.494  55.552  -5.799  1.00  0.00     0.028 C 
BRANCH  28  29
HETATM   29  C3  UNL     1       8.817  56.247  -5.629  1.00  0.00    -0.013 C 
HETATM   30  C2  UNL     1       9.045  57.438  -5.035  1.00  0.00     0.008 C 
HETATM   31  C1  UNL     1       7.995  58.337  -4.450  1.00  0.00     0.055 C 
BRANCH  30  32
HETATM   32  C30 UNL     1      10.425  57.984  -4.928  1.00  0.00     0.171 C 
HETATM   33  O3  UNL     1      11.402  57.357  -4.557  1.00  0.00    -0.646 OA
BRANCH  32  34
HETATM   34  O4  UNL     1      10.534  59.275  -5.286  1.00  0.00    -0.773 OA
HETATM   35  H44 UNL     1      11.486  59.466  -5.159  1.00  0.00     0.167 HD
ENDBRANCH  32  34
ENDBRANCH  30  32
ENDBRANCH  28  29
ENDBRANCH  27  28
ENDBRANCH  25  27
ENDBRANCH   1  25
TORSDOF 6
ENDMDL
MODEL 3
REMARK minimizedAffinity -7.70047426
REMARK CNNscore 0.632349908
REMARK CNNaffinity 6.27188158
REMARK  6 active torsions:
REMARK  status: ('A' for Active; 'I' for Inactive)
REMARK    1  A    between atoms: C2_2  and  C30_32 
REMARK    2  A    between atoms: C3_3  and  C4_4 
REMARK    3  A    between atoms: C4_4  and  C5_5 
REMARK    4  A    between atoms: C5_5  and  C6_6 
REMARK    5  A    between atoms: C6_6  and  C8_8 
REMARK    6  A    between atoms: C30_32  and  O4_34 
ROOT
HETATM    1  C8  UNL     1     -12.826  45.781 -27.399  1.00  0.00    -0.002 C 
HETATM    2  C9  UNL     1     -13.355  44.866 -28.542  1.00  0.00     0.007 C 
HETATM    3  C10 UNL     1     -12.260  44.785 -29.621  1.00  0.00     0.015 C 
HETATM    4  C11 UNL     1     -10.993  45.341 -28.946  1.00  0.00    -0.005 C 
HETATM    5  C12 UNL     1     -10.361  44.173 -28.126  1.00  0.00     0.021 C 
HETATM    6  C13 UNL     1      -9.850  45.884 -29.795  1.00  0.00    -0.000 C 
HETATM    7  C14 UNL     1      -9.034  46.868 -29.334  1.00  0.00    -0.060 C 
HETATM    8  C15 UNL     1      -9.283  47.495 -27.955  1.00  0.00     0.036 C 
HETATM    9  C16 UNL     1     -10.523  47.033 -27.162  1.00  0.00     0.015 C 
HETATM   10  C17 UNL     1     -11.626  46.505 -28.085  1.00  0.00    -0.028 C 
HETATM   11  C18 UNL     1     -12.166  47.687 -28.952  1.00  0.00     0.016 C 
HETATM   12  C19 UNL     1      -7.844  47.446 -30.150  1.00  0.00    -0.014 C 
HETATM   13  C20 UNL     1      -8.304  48.800 -30.734  1.00  0.00     0.020 C 
HETATM   14  C21 UNL     1      -6.606  47.647 -29.244  1.00  0.00     0.021 C 
HETATM   15  C22 UNL     1      -5.339  48.097 -29.955  1.00  0.00     0.080 C 
HETATM   16  C23 UNL     1      -5.300  47.924 -31.452  1.00  0.00     0.135 C 
HETATM   17  O1  UNL     1      -4.486  48.588 -32.102  1.00  0.00    -0.297 OA
HETATM   18  C24 UNL     1      -6.190  46.875 -32.133  1.00  0.00     0.018 C 
HETATM   19  C25 UNL     1      -6.628  47.451 -33.500  1.00  0.00     0.023 C 
HETATM   20  C26 UNL     1      -5.284  45.657 -32.409  1.00  0.00     0.023 C 
HETATM   21  C27 UNL     1      -7.397  46.426 -31.241  1.00  0.00     0.020 C 
HETATM   22  C28 UNL     1      -8.599  45.929 -32.047  1.00  0.00     0.090 C 
HETATM   23  C29 UNL     1      -9.612  45.279 -31.143  1.00  0.00     0.157 C 
HETATM   24  O2  UNL     1     -10.242  44.297 -31.527  1.00  0.00    -0.293 OA
ENDROOT
BRANCH   1  25
HETATM   25  C6  UNL     1     -13.977  46.609 -26.743  1.00  0.00    -0.014 C 
HETATM   26  C7  UNL     1     -13.749  46.829 -25.244  1.00  0.00     0.010 C 
BRANCH  25  27
HETATM   27  C5  UNL     1     -15.341  45.901 -26.978  1.00  0.00     0.008 C 
BRANCH  27  28
HETATM   28  C4  UNL     1     -15.813  45.039 -25.800  1.00  0.00     0.028 C 
BRANCH  28  29
HETATM   29  C3  UNL     1     -17.019  45.644 -25.134  1.00  0.00    -0.013 C 
HETATM   30  C2  UNL     1     -18.307  45.535 -25.522  1.00  0.00     0.008 C 
HETATM   31  C1  UNL     1     -18.794  44.807 -26.741  1.00  0.00     0.055 C 
BRANCH  30  32
HETATM   32  C30 UNL     1     -19.395  46.179 -24.737  1.00  0.00     0.171 C 
HETATM   33  O3  UNL     1     -20.458  46.564 -25.193  1.00  0.00    -0.646 OA
BRANCH  32  34
HETATM   34  O4  UNL     1     -19.121  46.315 -23.428  1.00  0.00    -0.773 OA
HETATM   35  H44 UNL     1     -19.925  46.745 -23.071  1.00  0.00     0.167 HD
ENDBRANCH  32  34
ENDBRANCH  30  32
ENDBRANCH  28  29
ENDBRANCH  27  28
ENDBRANCH  25  27
ENDBRANCH   1  25
TORSDOF 6
ENDMDL
MODEL 4
REMARK minimizedAffinity -9.00558281
REMARK CNNscore 0.467713982
REMARK CNNaffinity 7.02718973
REMARK  6 active torsions:
REMARK  status: ('A' for Active; 'I' for Inactive)
REMARK    1  A    between atoms: C2_2  and  C30_32 
REMARK    2  A    between atoms: C3_3  and  C4_4 
REMARK    3  A    between atoms: C4_4  and  C5_5 
REMARK    4  A    between atoms: C5_5  and  C6_6 
REMARK    5  A    between atoms: C6_6  and  C8_8 
REMARK    6  A    between atoms: C30_32  and  O4_34 
ROOT
HETATM    1  C8  UNL     1      -0.898  51.347 -17.277  1.00  0.00    -0.002 C 
HETATM    2  C9  UNL     1       0.638  51.597 -17.284  1.00  0.00     0.007 C 
HETATM    3  C10 UNL     1       1.051  51.935 -18.728  1.00  0.00     0.015 C 
HETATM    4  C11 UNL     1      -0.269  52.231 -19.462  1.00  0.00    -0.005 C 
HETATM    5  C12 UNL     1      -0.641  53.715 -19.153  1.00  0.00     0.021 C 
HETATM    6  C13 UNL     1      -0.343  52.119 -20.979  1.00  0.00    -0.000 C 
HETATM    7  C14 UNL     1      -1.502  51.787 -21.607  1.00  0.00    -0.060 C 
HETATM    8  C15 UNL     1      -2.760  51.463 -20.787  1.00  0.00     0.036 C 
HETATM    9  C16 UNL     1      -2.639  51.448 -19.250  1.00  0.00     0.015 C 
HETATM   10  C17 UNL     1      -1.206  51.147 -18.793  1.00  0.00    -0.028 C 
HETATM   11  C18 UNL     1      -0.844  49.684 -19.204  1.00  0.00     0.016 C 
HETATM   12  C19 UNL     1      -1.638  51.674 -23.152  1.00  0.00    -0.014 C 
HETATM   13  C20 UNL     1      -1.609  50.171 -23.506  1.00  0.00     0.020 C 
HETATM   14  C21 UNL     1      -2.963  52.312 -23.632  1.00  0.00     0.021 C 
HETATM   15  C22 UNL     1      -3.155  52.370 -25.140  1.00  0.00     0.080 C 
HETATM   16  C23 UNL     1      -1.924  52.180 -25.990  1.00  0.00     0.135 C 
HETATM   17  O1  UNL     1      -2.069  51.855 -27.173  1.00  0.00    -0.297 OA
HETATM   18  C24 UNL     1      -0.533  52.479 -25.415  1.00  0.00     0.018 C 
HETATM   19  C25 UNL     1       0.455  51.459 -26.028  1.00  0.00     0.023 C 
HETATM   20  C26 UNL     1      -0.143  53.878 -25.939  1.00  0.00     0.023 C 
HETATM   21  C27 UNL     1      -0.508  52.493 -23.849  1.00  0.00     0.020 C 
HETATM   22  C28 UNL     1       0.860  52.145 -23.258  1.00  0.00     0.090 C 
HETATM   23  C29 UNL     1       0.884  52.424 -21.778  1.00  0.00     0.157 C 
HETATM   24  O2  UNL     1       1.903  52.862 -21.250  1.00  0.00    -0.293 OA
ENDROOT
BRANCH   1  25
HETATM   25  C6  UNL     1      -1.300  50.252 -16.239  1.00  0.00    -0.014 C 
HETATM   26  C7  UNL     1      -2.277  50.784 -15.185  1.00  0.00     0.010 C 
BRANCH  25  27
HETATM   27  C5  UNL     1      -0.029  49.681 -15.549  1.00  0.00     0.008 C 
BRANCH  27  28
HETATM   28  C4  UNL     1       0.208  50.214 -14.130  1.00  0.00     0.028 C 
BRANCH  28  29
HETATM   29  C3  UNL     1       1.499  49.689 -13.563  1.00  0.00    -0.013 C 
HETATM   30  C2  UNL     1       2.728  50.234 -13.686  1.00  0.00     0.008 C 
HETATM   31  C1  UNL     1       3.059  51.475 -14.464  1.00  0.00     0.055 C 
BRANCH  30  32
HETATM   32  C30 UNL     1       3.910  49.600 -13.043  1.00  0.00     0.171 C 
HETATM   33  O3  UNL     1       3.914  49.073 -11.944  1.00  0.00    -0.646 OA
BRANCH  32  34
HETATM   34  O4  UNL     1       5.029  49.644 -13.786  1.00  0.00    -0.773 OA
HETATM   35  H44 UNL     1       5.692  49.192 -13.225  1.00  0.00     0.167 HD
ENDBRANCH  32  34
ENDBRANCH  30  32
ENDBRANCH  28  29
ENDBRANCH  27  28
ENDBRANCH  25  27
ENDBRANCH   1  25
TORSDOF 6
ENDMDL
MODEL 5
REMARK minimizedAffinity -8.89978409
REMARK CNNscore 0.339730889
REMARK CNNaffinity 6.86993551
REMARK  6 active torsions:
REMARK  status: ('A' for Active; 'I' for Inactive)
REMARK    1  A    between atoms: C2_2  and  C30_32 
REMARK    2  A    between atoms: C3_3  and  C4_4 
REMARK    3  A    between atoms: C4_4  and  C5_5 
REMARK    4  A    between atoms: C5_5  and  C6_6 
REMARK    5  A    between atoms: C6_6  and  C8_8 
REMARK    6  A    between atoms: C30_32  and  O4_34 
ROOT
HETATM    1  C8  UNL     1      -2.180  50.780 -22.183  1.00  0.00    -0.002 C 
HETATM    2  C9  UNL     1      -1.523  52.173 -22.405  1.00  0.00     0.007 C 
HETATM    3  C10 UNL     1      -0.670  52.492 -21.163  1.00  0.00     0.015 C 
HETATM    4  C11 UNL     1      -0.549  51.156 -20.409  1.00  0.00    -0.005 C 
HETATM    5  C12 UNL     1       0.611  50.355 -21.079  1.00  0.00     0.021 C 
HETATM    6  C13 UNL     1      -0.221  51.144 -18.921  1.00  0.00    -0.000 C 
HETATM    7  C14 UNL     1      -0.661  50.147 -18.109  1.00  0.00    -0.060 C 
HETATM    8  C15 UNL     1      -1.550  49.028 -18.671  1.00  0.00     0.036 C 
HETATM    9  C16 UNL     1      -1.987  49.122 -20.147  1.00  0.00     0.015 C 
HETATM   10  C17 UNL     1      -1.998  50.571 -20.647  1.00  0.00    -0.028 C 
HETATM   11  C18 UNL     1      -3.112  51.358 -19.885  1.00  0.00     0.016 C 
HETATM   12  C19 UNL     1      -0.342  50.076 -16.589  1.00  0.00    -0.014 C 
HETATM   13  C20 UNL     1      -1.602  50.556 -15.834  1.00  0.00     0.020 C 
HETATM   14  C21 UNL     1       0.014  48.630 -16.171  1.00  0.00     0.021 C 
HETATM   15  C22 UNL     1       0.461  48.455 -14.728  1.00  0.00     0.080 C 
HETATM   16  C23 UNL     1       0.883  49.701 -13.990  1.00  0.00     0.135 C 
HETATM   17  O1  UNL     1       0.897  49.679 -12.756  1.00  0.00    -0.297 OA
HETATM   18  C24 UNL     1       1.373  50.931 -14.767  1.00  0.00     0.018 C 
HETATM   19  C25 UNL     1       0.899  52.187 -14.000  1.00  0.00     0.023 C 
HETATM   20  C26 UNL     1       2.914  50.897 -14.698  1.00  0.00     0.023 C 
HETATM   21  C27 UNL     1       0.927  50.924 -16.268  1.00  0.00     0.020 C 
HETATM   22  C28 UNL     1       0.815  52.323 -16.878  1.00  0.00     0.090 C 
HETATM   23  C29 UNL     1       0.637  52.239 -18.370  1.00  0.00     0.157 C 
HETATM   24  O2  UNL     1       1.164  53.073 -19.103  1.00  0.00    -0.293 OA
ENDROOT
BRANCH   1  25
HETATM   25  C6  UNL     1      -3.601  50.703 -22.827  1.00  0.00    -0.014 C 
HETATM   26  C7  UNL     1      -4.666  51.389 -21.965  1.00  0.00     0.010 C 
BRANCH  25  27
HETATM   27  C5  UNL     1      -3.991  49.220 -23.079  1.00  0.00     0.008 C 
BRANCH  27  28
HETATM   28  C4  UNL     1      -3.028  48.466 -24.006  1.00  0.00     0.028 C 
BRANCH  28  29
HETATM   29  C3  UNL     1      -3.449  48.595 -25.444  1.00  0.00    -0.013 C 
HETATM   30  C2  UNL     1      -2.960  49.452 -26.366  1.00  0.00     0.008 C 
HETATM   31  C1  UNL     1      -1.906  50.491 -26.119  1.00  0.00     0.055 C 
BRANCH  30  32
HETATM   32  C30 UNL     1      -3.470  49.440 -27.763  1.00  0.00     0.171 C 
HETATM   33  O3  UNL     1      -4.167  48.566 -28.250  1.00  0.00    -0.646 OA
BRANCH  32  34
HETATM   34  O4  UNL     1      -3.099  50.506 -28.492  1.00  0.00    -0.773 OA
HETATM   35  H44 UNL     1      -3.513  50.341 -29.364  1.00  0.00     0.167 HD
ENDBRANCH  32  34
ENDBRANCH  30  32
ENDBRANCH  28  29
ENDBRANCH  27  28
ENDBRANCH  25  27
ENDBRANCH   1  25
TORSDOF 6
ENDMDL
MODEL 6
REMARK minimizedAffinity -9.08952332
REMARK CNNscore 0.289135337
REMARK CNNaffinity 6.55555201
REMARK  6 active torsions:
REMARK  status: ('A' for Active; 'I' for Inactive)
REMARK    1  A    between atoms: C2_2  and  C30_32 
REMARK    2  A    between atoms: C3_3  and  C4_4 
REMARK    3  A    between atoms: C4_4  and  C5_5 
REMARK    4  A    between atoms: C5_5  and  C6_6 
REMARK    5  A    between atoms: C6_6  and  C8_8 
REMARK    6  A    between atoms: C30_32  and  O4_34 
ROOT
HETATM    1  C8  UNL     1      -2.028  50.731 -22.550  1.00  0.00    -0.002 C 
HETATM    2  C9  UNL     1      -1.496  52.179 -22.756  1.00  0.00     0.007 C 
HETATM    3  C10 UNL     1      -0.697  52.568 -21.499  1.00  0.00     0.015 C 
HETATM    4  C11 UNL     1      -0.469  51.245 -20.746  1.00  0.00    -0.005 C 
HETATM    5  C12 UNL     1       0.771  50.556 -21.397  1.00  0.00     0.021 C 
HETATM    6  C13 UNL     1      -0.168  51.256 -19.252  1.00  0.00    -0.000 C 
HETATM    7  C14 UNL     1      -0.529  50.220 -18.451  1.00  0.00    -0.060 C 
HETATM    8  C15 UNL     1      -1.303  49.027 -19.032  1.00  0.00     0.036 C 
HETATM    9  C16 UNL     1      -1.720  49.088 -20.516  1.00  0.00     0.015 C 
HETATM   10  C17 UNL     1      -1.854  50.532 -21.012  1.00  0.00    -0.028 C 
HETATM   11  C18 UNL     1      -3.048  51.212 -20.268  1.00  0.00     0.016 C 
HETATM   12  C19 UNL     1      -0.232  50.171 -16.926  1.00  0.00    -0.014 C 
HETATM   13  C20 UNL     1      -1.543  50.532 -16.193  1.00  0.00     0.020 C 
HETATM   14  C21 UNL     1       0.246  48.763 -16.506  1.00  0.00     0.021 C 
HETATM   15  C22 UNL     1       0.682  48.622 -15.055  1.00  0.00     0.080 C 
HETATM   16  C23 UNL     1       0.976  49.898 -14.307  1.00  0.00     0.135 C 
HETATM   17  O1  UNL     1       0.970  49.872 -13.072  1.00  0.00    -0.297 OA
HETATM   18  C24 UNL     1       1.365  51.170 -15.071  1.00  0.00     0.018 C 
HETATM   19  C25 UNL     1       0.766  52.375 -14.309  1.00  0.00     0.023 C 
HETATM   20  C26 UNL     1       2.902  51.276 -14.974  1.00  0.00     0.023 C 
HETATM   21  C27 UNL     1       0.949  51.130 -16.580  1.00  0.00     0.020 C 
HETATM   22  C28 UNL     1       0.721  52.516 -17.188  1.00  0.00     0.090 C 
HETATM   23  C29 UNL     1       0.577  52.422 -18.683  1.00  0.00     0.157 C 
HETATM   24  O2  UNL     1       1.039  53.304 -19.404  1.00  0.00    -0.293 OA
ENDROOT
BRANCH   1  25
HETATM   25  C6  UNL     1      -3.424  50.529 -23.220  1.00  0.00    -0.014 C 
HETATM   26  C7  UNL     1      -3.581  49.127 -23.818  1.00  0.00     0.010 C 
BRANCH  25  27
HETATM   27  C5  UNL     1      -3.648  51.606 -24.318  1.00  0.00     0.008 C 
BRANCH  27  28
HETATM   28  C4  UNL     1      -3.201  51.176 -25.721  1.00  0.00     0.028 C 
BRANCH  28  29
HETATM   29  C3  UNL     1      -2.322  52.219 -26.353  1.00  0.00    -0.013 C 
HETATM   30  C2  UNL     1      -0.982  52.173 -26.512  1.00  0.00     0.008 C 
HETATM   31  C1  UNL     1      -0.085  51.064 -26.043  1.00  0.00     0.055 C 
BRANCH  30  32
HETATM   32  C30 UNL     1      -0.256  53.285 -27.183  1.00  0.00     0.171 C 
HETATM   33  O3  UNL     1       0.387  54.149 -26.613  1.00  0.00    -0.646 OA
BRANCH  32  34
HETATM   34  O4  UNL     1      -0.355  53.275 -28.523  1.00  0.00    -0.773 OA
HETATM   35  H44 UNL     1       0.170  54.055 -28.796  1.00  0.00     0.167 HD
ENDBRANCH  32  34
ENDBRANCH  30  32
ENDBRANCH  28  29
ENDBRANCH  27  28
ENDBRANCH  25  27
ENDBRANCH   1  25
TORSDOF 6
ENDMDL
MODEL 7
REMARK minimizedAffinity -8.64042473
REMARK CNNscore 0.280356288
REMARK CNNaffinity 6.46365881
REMARK  6 active torsions:
REMARK  status: ('A' for Active; 'I' for Inactive)
REMARK    1  A    between atoms: C2_2  and  C30_32 
REMARK    2  A    between atoms: C3_3  and  C4_4 
REMARK    3  A    between atoms: C4_4  and  C5_5 
REMARK    4  A    between atoms: C5_5  and  C6_6 
REMARK    5  A    between atoms: C6_6  and  C8_8 
REMARK    6  A    between atoms: C30_32  and  O4_34 
ROOT
HETATM    1  C8  UNL     1      -3.785  49.168 -22.761  1.00  0.00    -0.002 C 
HETATM    2  C9  UNL     1      -4.397  48.522 -24.038  1.00  0.00     0.007 C 
HETATM    3  C10 UNL     1      -5.839  48.100 -23.705  1.00  0.00     0.015 C 
HETATM    4  C11 UNL     1      -6.169  48.817 -22.383  1.00  0.00    -0.005 C 
HETATM    5  C12 UNL     1      -6.610  50.269 -22.747  1.00  0.00     0.021 C 
HETATM    6  C13 UNL     1      -7.278  48.287 -21.482  1.00  0.00    -0.000 C 
HETATM    7  C14 UNL     1      -7.236  48.461 -20.135  1.00  0.00    -0.060 C 
HETATM    8  C15 UNL     1      -6.032  49.157 -19.482  1.00  0.00     0.036 C 
HETATM    9  C16 UNL     1      -4.854  49.567 -20.388  1.00  0.00     0.015 C 
HETATM   10  C17 UNL     1      -4.774  48.699 -21.649  1.00  0.00    -0.028 C 
HETATM   11  C18 UNL     1      -4.421  47.235 -21.231  1.00  0.00     0.016 C 
HETATM   12  C19 UNL     1      -8.347  47.958 -19.171  1.00  0.00    -0.014 C 
HETATM   13  C20 UNL     1      -7.827  46.663 -18.509  1.00  0.00     0.020 C 
HETATM   14  C21 UNL     1      -8.660  49.022 -18.093  1.00  0.00     0.021 C 
HETATM   15  C22 UNL     1      -9.816  48.692 -17.160  1.00  0.00     0.080 C 
HETATM   16  C23 UNL     1     -10.760  47.604 -17.607  1.00  0.00     0.135 C 
HETATM   17  O1  UNL     1     -11.469  47.055 -16.758  1.00  0.00    -0.297 OA
HETATM   18  C24 UNL     1     -10.896  47.261 -19.096  1.00  0.00     0.018 C 
HETATM   19  C25 UNL     1     -11.134  45.736 -19.204  1.00  0.00     0.023 C 
HETATM   20  C26 UNL     1     -12.179  47.967 -19.584  1.00  0.00     0.023 C 
HETATM   21  C27 UNL     1      -9.682  47.756 -19.952  1.00  0.00     0.020 C 
HETATM   22  C28 UNL     1      -9.451  46.929 -21.219  1.00  0.00     0.090 C 
HETATM   23  C29 UNL     1      -8.447  47.602 -22.116  1.00  0.00     0.157 C 
HETATM   24  O2  UNL     1      -8.580  47.554 -23.336  1.00  0.00    -0.293 OA
ENDROOT
BRANCH   1  25
HETATM   25  C6  UNL     1      -2.258  48.867 -22.637  1.00  0.00    -0.014 C 
HETATM   26  C7  UNL     1      -1.969  47.728 -21.654  1.00  0.00     0.010 C 
BRANCH  25  27
HETATM   27  C5  UNL     1      -1.497  50.152 -22.205  1.00  0.00     0.008 C 
BRANCH  27  28
HETATM   28  C4  UNL     1      -0.488  49.932 -21.070  1.00  0.00     0.028 C 
BRANCH  28  29
HETATM   29  C3  UNL     1      -0.095  51.237 -20.434  1.00  0.00    -0.013 C 
HETATM   30  C2  UNL     1       0.422  52.324 -21.046  1.00  0.00     0.008 C 
HETATM   31  C1  UNL     1       0.751  52.429 -22.507  1.00  0.00     0.055 C 
BRANCH  30  32
HETATM   32  C30 UNL     1       0.739  53.555 -20.273  1.00  0.00     0.171 C 
HETATM   33  O3  UNL     1       1.549  54.403 -20.603  1.00  0.00    -0.646 OA
BRANCH  32  34
HETATM   34  O4  UNL     1       0.041  53.681 -19.132  1.00  0.00    -0.773 OA
HETATM   35  H44 UNL     1       0.365  54.526 -18.759  1.00  0.00     0.167 HD
ENDBRANCH  32  34
ENDBRANCH  30  32
ENDBRANCH  28  29
ENDBRANCH  27  28
ENDBRANCH  25  27
ENDBRANCH   1  25
TORSDOF 6
ENDMDL
MODEL 8
REMARK minimizedAffinity -7.80817318
REMARK CNNscore 0.246150836
REMARK CNNaffinity 5.87947893
REMARK  6 active torsions:
REMARK  status: ('A' for Active; 'I' for Inactive)
REMARK    1  A    between atoms: C2_2  and  C30_32 
REMARK    2  A    between atoms: C3_3  and  C4_4 
REMARK    3  A    between atoms: C4_4  and  C5_5 
REMARK    4  A    between atoms: C5_5  and  C6_6 
REMARK    5  A    between atoms: C6_6  and  C8_8 
REMARK    6  A    between atoms: C30_32  and  O4_34 
ROOT
HETATM    1  C8  UNL     1      -6.984  47.510 -20.371  1.00  0.00    -0.002 C 
HETATM    2  C9  UNL     1      -7.493  46.799 -21.659  1.00  0.00     0.007 C 
HETATM    3  C10 UNL     1      -6.642  47.302 -22.839  1.00  0.00     0.015 C 
HETATM    4  C11 UNL     1      -5.436  48.006 -22.190  1.00  0.00    -0.005 C 
HETATM    5  C12 UNL     1      -4.398  46.898 -21.830  1.00  0.00     0.021 C 
HETATM    6  C13 UNL     1      -4.642  49.044 -22.974  1.00  0.00    -0.000 C 
HETATM    7  C14 UNL     1      -4.010  50.070 -22.347  1.00  0.00    -0.060 C 
HETATM    8  C15 UNL     1      -4.127  50.236 -20.825  1.00  0.00     0.036 C 
HETATM    9  C16 UNL     1      -5.043  49.261 -20.058  1.00  0.00     0.015 C 
HETATM   10  C17 UNL     1      -6.148  48.691 -20.955  1.00  0.00    -0.028 C 
HETATM   11  C18 UNL     1      -7.111  49.850 -21.366  1.00  0.00     0.016 C 
HETATM   12  C19 UNL     1      -3.173  51.146 -23.095  1.00  0.00    -0.014 C 
HETATM   13  C20 UNL     1      -4.046  52.416 -23.197  1.00  0.00     0.020 C 
HETATM   14  C21 UNL     1      -1.867  51.454 -22.328  1.00  0.00     0.021 C 
HETATM   15  C22 UNL     1      -0.905  52.407 -23.022  1.00  0.00     0.080 C 
HETATM   16  C23 UNL     1      -1.119  52.632 -24.498  1.00  0.00     0.135 C 
HETATM   17  O1  UNL     1      -0.629  53.639 -25.018  1.00  0.00    -0.297 OA
HETATM   18  C24 UNL     1      -1.850  51.579 -25.343  1.00  0.00     0.018 C 
HETATM   19  C25 UNL     1      -2.670  52.331 -26.418  1.00  0.00     0.023 C 
HETATM   20  C26 UNL     1      -0.752  50.775 -26.072  1.00  0.00     0.023 C 
HETATM   21  C27 UNL     1      -2.718  50.600 -24.483  1.00  0.00     0.020 C 
HETATM   22  C28 UNL     1      -3.902  50.002 -25.248  1.00  0.00     0.090 C 
HETATM   23  C29 UNL     1      -4.535  48.888 -24.458  1.00  0.00     0.157 C 
HETATM   24  O2  UNL     1      -4.976  47.897 -25.034  1.00  0.00    -0.293 OA
ENDROOT
BRANCH   1  25
HETATM   25  C6  UNL     1      -8.148  47.788 -19.367  1.00  0.00    -0.014 C 
HETATM   26  C7  UNL     1      -7.671  47.779 -17.912  1.00  0.00     0.010 C 
BRANCH  25  27
HETATM   27  C5  UNL     1      -9.281  46.742 -19.565  1.00  0.00     0.008 C 
BRANCH  27  28
HETATM   28  C4  UNL     1     -10.606  47.338 -20.059  1.00  0.00     0.028 C 
BRANCH  28  29
HETATM   29  C3  UNL     1     -11.703  47.130 -19.051  1.00  0.00    -0.013 C 
HETATM   30  C2  UNL     1     -12.877  47.791 -18.971  1.00  0.00     0.008 C 
HETATM   31  C1  UNL     1     -13.309  48.915 -19.868  1.00  0.00     0.055 C 
BRANCH  30  32
HETATM   32  C30 UNL     1     -13.874  47.450 -17.920  1.00  0.00     0.171 C 
HETATM   33  O3  UNL     1     -14.241  48.197 -17.030  1.00  0.00    -0.646 OA
BRANCH  32  34
HETATM   34  O4  UNL     1     -14.371  46.205 -18.020  1.00  0.00    -0.773 OA
HETATM   35  H44 UNL     1     -14.997  46.150 -17.269  1.00  0.00     0.167 HD
ENDBRANCH  32  34
ENDBRANCH  30  32
ENDBRANCH  28  29
ENDBRANCH  27  28
ENDBRANCH  25  27
ENDBRANCH   1  25
TORSDOF 6
ENDMDL
MODEL 9
REMARK minimizedAffinity -9.04367638
REMARK CNNscore 0.243644893
REMARK CNNaffinity 6.1808815
REMARK  6 active torsions:
REMARK  status: ('A' for Active; 'I' for Inactive)
REMARK    1  A    between atoms: C2_2  and  C30_32 
REMARK    2  A    between atoms: C3_3  and  C4_4 
REMARK    3  A    between atoms: C4_4  and  C5_5 
REMARK    4  A    between atoms: C5_5  and  C6_6 
REMARK    5  A    between atoms: C6_6  and  C8_8 
REMARK    6  A    between atoms: C30_32  and  O4_34 
ROOT
HETATM    1  C8  UNL     1      -5.431  48.988 -20.869  1.00  0.00    -0.002 C 
HETATM    2  C9  UNL     1      -4.348  49.133 -19.760  1.00  0.00     0.007 C 
HETATM    3  C10 UNL     1      -3.163  49.910 -20.362  1.00  0.00     0.015 C 
HETATM    4  C11 UNL     1      -3.705  50.514 -21.670  1.00  0.00    -0.005 C 
HETATM    5  C12 UNL     1      -4.457  51.827 -21.292  1.00  0.00     0.021 C 
HETATM    6  C13 UNL     1      -2.744  50.921 -22.781  1.00  0.00    -0.000 C 
HETATM    7  C14 UNL     1      -3.119  50.888 -24.087  1.00  0.00    -0.060 C 
HETATM    8  C15 UNL     1      -4.517  50.385 -24.477  1.00  0.00     0.036 C 
HETATM    9  C16 UNL     1      -5.432  49.848 -23.357  1.00  0.00     0.015 C 
HETATM   10  C17 UNL     1      -4.626  49.327 -22.162  1.00  0.00    -0.028 C 
HETATM   11  C18 UNL     1      -3.819  48.067 -22.610  1.00  0.00     0.016 C 
HETATM   12  C19 UNL     1      -2.187  51.309 -25.257  1.00  0.00    -0.014 C 
HETATM   13  C20 UNL     1      -1.652  50.012 -25.905  1.00  0.00     0.020 C 
HETATM   14  C21 UNL     1      -2.961  52.148 -26.299  1.00  0.00     0.021 C 
HETATM   15  C22 UNL     1      -2.126  52.720 -27.435  1.00  0.00     0.080 C 
HETATM   16  C23 UNL     1      -0.632  52.752 -27.229  1.00  0.00     0.135 C 
HETATM   17  O1  UNL     1       0.097  52.852 -28.222  1.00  0.00    -0.297 OA
HETATM   18  C24 UNL     1      -0.046  52.758 -25.811  1.00  0.00     0.018 C 
HETATM   19  C25 UNL     1       1.270  51.945 -25.847  1.00  0.00     0.023 C 
HETATM   20  C26 UNL     1       0.321  54.225 -25.503  1.00  0.00     0.023 C 
HETATM   21  C27 UNL     1      -1.056  52.244 -24.730  1.00  0.00     0.020 C 
HETATM   22  C28 UNL     1      -0.376  51.638 -23.500  1.00  0.00     0.090 C 
HETATM   23  C29 UNL     1      -1.379  51.402 -22.402  1.00  0.00     0.157 C 
HETATM   24  O2  UNL     1      -1.061  51.576 -21.228  1.00  0.00    -0.293 OA
ENDROOT
BRANCH   1  25
HETATM   25  C6  UNL     1      -6.201  47.634 -20.750  1.00  0.00    -0.014 C 
HETATM   26  C7  UNL     1      -5.429  46.471 -21.380  1.00  0.00     0.010 C 
BRANCH  25  27
HETATM   27  C5  UNL     1      -7.605  47.762 -21.407  1.00  0.00     0.008 C 
BRANCH  27  28
HETATM   28  C4  UNL     1      -7.716  47.097 -22.785  1.00  0.00     0.028 C 
BRANCH  28  29
HETATM   29  C3  UNL     1      -8.711  47.816 -23.655  1.00  0.00    -0.013 C 
HETATM   30  C2  UNL     1      -8.600  48.089 -24.972  1.00  0.00     0.008 C 
HETATM   31  C1  UNL     1      -7.418  47.756 -25.836  1.00  0.00     0.055 C 
BRANCH  30  32
HETATM   32  C30 UNL     1      -9.690  48.794 -25.698  1.00  0.00     0.171 C 
HETATM   33  O3  UNL     1     -10.758  48.299 -26.016  1.00  0.00    -0.646 OA
BRANCH  32  34
HETATM   34  O4  UNL     1      -9.412  50.075 -25.996  1.00  0.00    -0.773 OA
HETATM   35  H44 UNL     1     -10.218  50.381 -26.460  1.00  0.00     0.167 HD
ENDBRANCH  32  34
ENDBRANCH  30  32
ENDBRANCH  28  29
ENDBRANCH  27  28
ENDBRANCH  25  27
ENDBRANCH   1  25
TORSDOF 6
ENDMDL
