MODEL 1
REMARK minimizedAffinity -7.65657139
REMARK CNNscore 0.63209033
REMARK CNNaffinity 6.76072264
REMARK  12 active torsions:
REMARK  status: ('A' for Active; 'I' for Inactive)
REMARK    1  A    between atoms: O1_2  and  C2_3 
REMARK    2  A    between atoms: C4_5  and  O2_6 
REMARK    3  A    between atoms: O2_6  and  C5_7 
REMARK    4  A    between atoms: C8_10  and  C9_11 
REMARK    5  A    between atoms: N1_12  and  C10_14 
REMARK    6  A    between atoms: C10_14  and  C11_15 
REMARK    7  A    between atoms: C11_15  and  C12_16 
REMARK    8  A    between atoms: C12_16  and  O3_17 
REMARK    9  A    between atoms: C18_23  and  C19_24 
REMARK   10  A    between atoms: C25_32  and  O6_33 
REMARK   11  A    between atoms: C29_37  and  O7_38 
REMARK   12  A    between atoms: C33_43  and  O9_44 
ROOT
HETATM    1  C5  UNL     1      -7.213  48.227 -25.290  1.00  0.00     0.127 C 
HETATM    2  C6  UNL     1      -8.596  48.642 -24.824  1.00  0.00     0.033 C 
HETATM    3  C7  UNL     1      -9.541  48.737 -26.004  1.00  0.00     0.021 C 
HETATM    4  C8  UNL     1      -9.664  47.429 -26.864  1.00  0.00     0.026 C 
HETATM    5  C13 UNL     1     -11.147  46.891 -26.669  1.00  0.00     0.009 C 
HETATM    6  C14 UNL     1     -12.188  47.677 -27.469  1.00  0.00     0.007 C 
HETATM    7  C15 UNL     1     -13.568  47.297 -26.966  1.00  0.00     0.013 C 
HETATM    8  C16 UNL     1     -13.936  45.838 -27.285  1.00  0.00    -0.005 C 
HETATM    9  C17 UNL     1     -14.408  45.809 -28.766  1.00  0.00     0.019 C 
HETATM   10  C18 UNL     1     -15.137  45.306 -26.393  1.00  0.00     0.028 C 
HETATM   11  C23 UNL     1     -14.753  43.860 -26.094  1.00  0.00     0.013 C 
HETATM   12  C24 UNL     1     -13.243  43.920 -25.902  1.00  0.00     0.040 C 
HETATM   13  C25 UNL     1     -12.746  44.809 -27.054  1.00  0.00     0.070 C 
HETATM   14  C26 UNL     1     -11.288  45.376 -26.932  1.00  0.00     0.026 C 
HETATM   15  C27 UNL     1     -10.399  44.591 -25.927  1.00  0.00     0.011 C 
HETATM   16  C28 UNL     1      -9.200  45.382 -25.394  1.00  0.00     0.039 C 
HETATM   17  C29 UNL     1      -8.601  46.326 -26.456  1.00  0.00     0.073 C 
HETATM   18  C30 UNL     1      -7.226  46.861 -25.991  1.00  0.00     0.071 C 
ENDROOT
BRANCH   1  19
HETATM   19  O2  UNL     1      -6.358  48.251 -24.143  1.00  0.00    -0.356 OA
BRANCH  19  20
HETATM   20  C4  UNL     1      -5.037  48.700 -24.429  1.00  0.00     0.263 C 
HETATM   21  C3  UNL     1      -4.770  48.418 -25.904  1.00  0.00     0.095 C 
HETATM   22  C2  UNL     1      -3.378  48.903 -26.276  1.00  0.00     0.156 C 
HETATM   23  C33 UNL     1      -3.232  50.390 -25.921  1.00  0.00     0.175 C 
HETATM   24  C31 UNL     1      -3.604  50.602 -24.447  1.00  0.00     0.151 C 
HETATM   25  O8  UNL     1      -4.915  50.097 -24.171  1.00  0.00    -0.354 OA
HETATM   26  C32 UNL     1      -3.589  52.081 -24.075  1.00  0.00     0.042 C 
BRANCH  22  27
HETATM   27  O1  UNL     1      -3.215  48.726 -27.694  1.00  0.00    -0.388 OA
HETATM   28  C1  UNL     1      -4.431  48.398 -28.356  1.00  0.00     0.202 C 
ENDBRANCH  22  27
BRANCH  23  29
HETATM   29  O9  UNL     1      -1.883  50.803 -26.172  1.00  0.00    -0.390 OA
HETATM   30  H51 UNL     1      -1.742  50.657 -27.126  1.00  0.00     0.210 HD
ENDBRANCH  23  29
ENDBRANCH  19  20
ENDBRANCH   1  19
BRANCH  17  31
HETATM   31  O7  UNL     1      -8.331  45.411 -27.546  1.00  0.00    -0.389 OA
HETATM   32  H43 UNL     1      -8.072  45.955 -28.318  1.00  0.00     0.210 HD
ENDBRANCH  17  31
BRANCH   4  33
HETATM   33  C9  UNL     1      -9.433  47.933 -28.314  1.00  0.00     0.068 C 
HETATM   34  N1  UNL     1      -8.252  48.133 -28.789  1.00  0.00    -0.401 N 
ATOM     35  H1  UNL     1      -7.412  47.894 -28.260  1.00  0.00     0.158 HD
BRANCH  34  36
HETATM   36  C10 UNL     1      -8.180  48.721 -30.127  1.00  0.00     0.121 C 
BRANCH  36  37
HETATM   37  C11 UNL     1      -7.088  47.997 -30.926  1.00  0.00     0.045 C 
BRANCH  37  38
HETATM   38  C12 UNL     1      -7.312  46.495 -30.948  1.00  0.00     0.165 C 
BRANCH  38  39
HETATM   39  O3  UNL     1      -6.649  45.865 -29.855  1.00  0.00    -0.401 OA
HETATM   40  H20 UNL     1      -6.955  46.298 -29.039  1.00  0.00     0.209 HD
ENDBRANCH  38  39
ENDBRANCH  37  38
ENDBRANCH  36  37
ENDBRANCH  34  36
ENDBRANCH   4  33
BRANCH  13  41
HETATM   41  O6  UNL     1     -12.696  43.893 -28.181  1.00  0.00    -0.389 OA
HETATM   42  H37 UNL     1     -11.956  43.276 -28.040  1.00  0.00     0.210 HD
ENDBRANCH  13  41
BRANCH  10  43
HETATM   43  C19 UNL     1     -15.494  46.068 -25.135  1.00  0.00    -0.045 A 
HETATM   44  C20 UNL     1     -14.617  46.566 -24.255  1.00  0.00     0.087 A 
HETATM   45  C21 UNL     1     -15.387  47.205 -23.194  1.00  0.00     0.283 A 
HETATM   46  O4  UNL     1     -14.903  47.735 -22.214  1.00  0.00    -0.260 OA
HETATM   47  O5  UNL     1     -16.715  47.095 -23.468  1.00  0.00    -0.314 OA
HETATM   48  C22 UNL     1     -16.876  46.402 -24.707  1.00  0.00     0.213 A 
ENDBRANCH  10  43
TORSDOF 12
ENDMDL
MODEL 2
REMARK minimizedAffinity -7.08506775
REMARK CNNscore 0.574971437
REMARK CNNaffinity 6.4737668
REMARK  12 active torsions:
REMARK  status: ('A' for Active; 'I' for Inactive)
REMARK    1  A    between atoms: O1_2  and  C2_3 
REMARK    2  A    between atoms: C4_5  and  O2_6 
REMARK    3  A    between atoms: O2_6  and  C5_7 
REMARK    4  A    between atoms: C8_10  and  C9_11 
REMARK    5  A    between atoms: N1_12  and  C10_14 
REMARK    6  A    between atoms: C10_14  and  C11_15 
REMARK    7  A    between atoms: C11_15  and  C12_16 
REMARK    8  A    between atoms: C12_16  and  O3_17 
REMARK    9  A    between atoms: C18_23  and  C19_24 
REMARK   10  A    between atoms: C25_32  and  O6_33 
REMARK   11  A    between atoms: C29_37  and  O7_38 
REMARK   12  A    between atoms: C33_43  and  O9_44 
ROOT
HETATM    1  C5  UNL     1      -6.925  48.828 -24.492  1.00  0.00     0.127 C 
HETATM    2  C6  UNL     1      -8.379  49.141 -24.194  1.00  0.00     0.033 C 
HETATM    3  C7  UNL     1      -9.179  49.198 -25.480  1.00  0.00     0.021 C 
HETATM    4  C8  UNL     1      -9.108  47.904 -26.365  1.00  0.00     0.026 C 
HETATM    5  C13 UNL     1     -10.564  47.265 -26.360  1.00  0.00     0.009 C 
HETATM    6  C14 UNL     1     -11.550  47.998 -27.271  1.00  0.00     0.007 C 
HETATM    7  C15 UNL     1     -12.952  47.518 -26.946  1.00  0.00     0.013 C 
HETATM    8  C16 UNL     1     -13.179  46.045 -27.327  1.00  0.00    -0.005 C 
HETATM    9  C17 UNL     1     -13.465  46.017 -28.854  1.00  0.00     0.019 C 
HETATM   10  C18 UNL     1     -14.441  45.417 -26.596  1.00  0.00     0.028 C 
HETATM   11  C23 UNL     1     -13.999  43.993 -26.271  1.00  0.00     0.013 C 
HETATM   12  C24 UNL     1     -12.531  44.148 -25.894  1.00  0.00     0.040 C 
HETATM   13  C25 UNL     1     -11.959  45.092 -26.965  1.00  0.00     0.070 C 
HETATM   14  C26 UNL     1     -10.568  45.751 -26.657  1.00  0.00     0.026 C 
HETATM   15  C27 UNL     1      -9.757  45.004 -25.561  1.00  0.00     0.011 C 
HETATM   16  C28 UNL     1      -8.688  45.861 -24.875  1.00  0.00     0.039 C 
HETATM   17  C29 UNL     1      -8.030  46.864 -25.844  1.00  0.00     0.073 C 
HETATM   18  C30 UNL     1      -6.760  47.478 -25.207  1.00  0.00     0.071 C 
ENDROOT
BRANCH   1  19
HETATM   19  O2  UNL     1      -6.220  48.883 -23.248  1.00  0.00    -0.356 OA
BRANCH  19  20
HETATM   20  C4  UNL     1      -5.610  47.648 -22.887  1.00  0.00     0.263 C 
HETATM   21  C3  UNL     1      -4.304  47.976 -22.173  1.00  0.00     0.095 C 
HETATM   22  C2  UNL     1      -3.618  46.691 -21.738  1.00  0.00     0.156 C 
HETATM   23  C33 UNL     1      -4.574  45.859 -20.869  1.00  0.00     0.175 C 
HETATM   24  C31 UNL     1      -5.895  45.649 -21.623  1.00  0.00     0.151 C 
HETATM   25  O8  UNL     1      -6.463  46.901 -22.020  1.00  0.00    -0.354 OA
HETATM   26  C32 UNL     1      -6.923  44.928 -20.755  1.00  0.00     0.042 C 
BRANCH  22  27
HETATM   27  O1  UNL     1      -2.456  47.050 -20.970  1.00  0.00    -0.388 OA
HETATM   28  C1  UNL     1      -1.792  48.203 -21.474  1.00  0.00     0.202 C 
ENDBRANCH  22  27
BRANCH  23  29
HETATM   29  O9  UNL     1      -3.956  44.603 -20.562  1.00  0.00    -0.390 OA
HETATM   30  H51 UNL     1      -3.145  44.828 -20.070  1.00  0.00     0.210 HD
ENDBRANCH  23  29
ENDBRANCH  19  20
ENDBRANCH   1  19
BRANCH  17  31
HETATM   31  O7  UNL     1      -7.567  45.993 -26.904  1.00  0.00    -0.389 OA
HETATM   32  H43 UNL     1      -7.254  46.569 -27.631  1.00  0.00     0.210 HD
ENDBRANCH  17  31
BRANCH   4  33
HETATM   33  C9  UNL     1      -8.737  48.453 -27.768  1.00  0.00     0.068 C 
HETATM   34  N1  UNL     1      -8.348  47.681 -28.725  1.00  0.00    -0.401 N 
ATOM     35  H1  UNL     1      -8.343  46.665 -28.627  1.00  0.00     0.158 HD
BRANCH  34  36
HETATM   36  C10 UNL     1      -7.917  48.340 -29.958  1.00  0.00     0.121 C 
BRANCH  36  37
HETATM   37  C11 UNL     1      -6.618  47.682 -30.442  1.00  0.00     0.045 C 
BRANCH  37  38
HETATM   38  C12 UNL     1      -5.413  48.575 -30.199  1.00  0.00     0.165 C 
BRANCH  38  39
HETATM   39  O3  UNL     1      -4.663  48.754 -31.398  1.00  0.00    -0.401 OA
HETATM   40  H20 UNL     1      -5.272  49.089 -32.078  1.00  0.00     0.209 HD
ENDBRANCH  38  39
ENDBRANCH  37  38
ENDBRANCH  36  37
ENDBRANCH  34  36
ENDBRANCH   4  33
BRANCH  13  41
HETATM   41  O6  UNL     1     -11.711  44.205 -28.089  1.00  0.00    -0.389 OA
HETATM   42  H37 UNL     1     -10.953  43.635 -27.866  1.00  0.00     0.210 HD
ENDBRANCH  13  41
BRANCH  10  43
HETATM   43  C19 UNL     1     -14.999  46.127 -25.381  1.00  0.00    -0.045 A 
HETATM   44  C20 UNL     1     -14.271  46.651 -24.387  1.00  0.00     0.087 A 
HETATM   45  C21 UNL     1     -15.206  47.221 -23.424  1.00  0.00     0.283 A 
HETATM   46  O4  UNL     1     -14.882  47.753 -22.381  1.00  0.00    -0.260 OA
HETATM   47  O5  UNL     1     -16.480  47.045 -23.867  1.00  0.00    -0.314 OA
HETATM   48  C22 UNL     1     -16.441  46.374 -25.129  1.00  0.00     0.213 A 
ENDBRANCH  10  43
TORSDOF 12
ENDMDL
MODEL 3
REMARK minimizedAffinity -7.32750893
REMARK CNNscore 0.46882093
REMARK CNNaffinity 6.38405275
REMARK  12 active torsions:
REMARK  status: ('A' for Active; 'I' for Inactive)
REMARK    1  A    between atoms: O1_2  and  C2_3 
REMARK    2  A    between atoms: C4_5  and  O2_6 
REMARK    3  A    between atoms: O2_6  and  C5_7 
REMARK    4  A    between atoms: C8_10  and  C9_11 
REMARK    5  A    between atoms: N1_12  and  C10_14 
REMARK    6  A    between atoms: C10_14  and  C11_15 
REMARK    7  A    between atoms: C11_15  and  C12_16 
REMARK    8  A    between atoms: C12_16  and  O3_17 
REMARK    9  A    between atoms: C18_23  and  C19_24 
REMARK   10  A    between atoms: C25_32  and  O6_33 
REMARK   11  A    between atoms: C29_37  and  O7_38 
REMARK   12  A    between atoms: C33_43  and  O9_44 
ROOT
HETATM    1  C5  UNL     1      -7.258  48.229 -25.394  1.00  0.00     0.127 C 
HETATM    2  C6  UNL     1      -8.641  48.644 -24.931  1.00  0.00     0.033 C 
HETATM    3  C7  UNL     1      -9.590  48.718 -26.111  1.00  0.00     0.021 C 
HETATM    4  C8  UNL     1      -9.708  47.398 -26.952  1.00  0.00     0.026 C 
HETATM    5  C13 UNL     1     -11.188  46.855 -26.747  1.00  0.00     0.009 C 
HETATM    6  C14 UNL     1     -12.234  47.625 -27.555  1.00  0.00     0.007 C 
HETATM    7  C15 UNL     1     -13.611  47.246 -27.044  1.00  0.00     0.013 C 
HETATM    8  C16 UNL     1     -13.973  45.781 -27.342  1.00  0.00    -0.005 C 
HETATM    9  C17 UNL     1     -14.448  45.730 -28.821  1.00  0.00     0.019 C 
HETATM   10  C18 UNL     1     -15.170  45.256 -26.441  1.00  0.00     0.028 C 
HETATM   11  C23 UNL     1     -14.779  43.816 -26.123  1.00  0.00     0.013 C 
HETATM   12  C24 UNL     1     -13.268  43.885 -25.935  1.00  0.00     0.040 C 
HETATM   13  C25 UNL     1     -12.778  44.761 -27.099  1.00  0.00     0.070 C 
HETATM   14  C26 UNL     1     -11.322  45.337 -26.988  1.00  0.00     0.026 C 
HETATM   15  C27 UNL     1     -10.428  44.569 -25.974  1.00  0.00     0.011 C 
HETATM   16  C28 UNL     1      -9.231  45.373 -25.454  1.00  0.00     0.039 C 
HETATM   17  C29 UNL     1      -8.639  46.305 -26.531  1.00  0.00     0.073 C 
HETATM   18  C30 UNL     1      -7.265  46.853 -26.076  1.00  0.00     0.071 C 
ENDROOT
BRANCH   1  19
HETATM   19  O2  UNL     1      -6.401  48.273 -24.249  1.00  0.00    -0.356 OA
BRANCH  19  20
HETATM   20  C4  UNL     1      -5.323  49.194 -24.382  1.00  0.00     0.263 C 
HETATM   21  C3  UNL     1      -4.422  49.022 -23.164  1.00  0.00     0.095 C 
HETATM   22  C2  UNL     1      -3.234  49.966 -23.264  1.00  0.00     0.156 C 
HETATM   23  C33 UNL     1      -2.492  49.728 -24.588  1.00  0.00     0.175 C 
HETATM   24  C31 UNL     1      -3.484  49.831 -25.755  1.00  0.00     0.151 C 
HETATM   25  O8  UNL     1      -4.583  48.933 -25.574  1.00  0.00    -0.354 OA
HETATM   26  C32 UNL     1      -2.818  49.487 -27.084  1.00  0.00     0.042 C 
BRANCH  22  27
HETATM   27  O1  UNL     1      -2.356  49.687 -22.160  1.00  0.00    -0.388 OA
HETATM   28  C1  UNL     1      -1.994  48.313 -22.073  1.00  0.00     0.202 C 
ENDBRANCH  22  27
BRANCH  23  29
HETATM   29  O9  UNL     1      -1.445  50.699 -24.719  1.00  0.00    -0.390 OA
HETATM   30  H51 UNL     1      -0.856  50.548 -23.957  1.00  0.00     0.210 HD
ENDBRANCH  23  29
ENDBRANCH  19  20
ENDBRANCH   1  19
BRANCH  17  31
HETATM   31  O7  UNL     1      -8.366  45.378 -27.608  1.00  0.00    -0.389 OA
HETATM   32  H43 UNL     1      -8.111  45.912 -28.389  1.00  0.00     0.210 HD
ENDBRANCH  17  31
BRANCH   4  33
HETATM   33  C9  UNL     1      -9.482  47.883 -28.409  1.00  0.00     0.068 C 
HETATM   34  N1  UNL     1      -9.819  47.171 -29.428  1.00  0.00    -0.401 N 
ATOM     35  H1  UNL     1     -10.322  46.289 -29.325  1.00  0.00     0.158 HD
BRANCH  34  36
HETATM   36  C10 UNL     1      -9.442  47.694 -30.741  1.00  0.00     0.121 C 
BRANCH  36  37
HETATM   37  C11 UNL     1      -8.490  48.882 -30.545  1.00  0.00     0.045 C 
BRANCH  37  38
HETATM   38  C12 UNL     1      -7.178  48.676 -31.282  1.00  0.00     0.165 C 
BRANCH  38  39
HETATM   39  O3  UNL     1      -6.088  49.224 -30.544  1.00  0.00    -0.401 OA
HETATM   40  H20 UNL     1      -6.108  48.828 -29.656  1.00  0.00     0.209 HD
ENDBRANCH  38  39
ENDBRANCH  37  38
ENDBRANCH  36  37
ENDBRANCH  34  36
ENDBRANCH   4  33
BRANCH  13  41
HETATM   41  O6  UNL     1     -12.726  43.830 -28.214  1.00  0.00    -0.389 OA
HETATM   42  H37 UNL     1     -11.982  43.218 -28.066  1.00  0.00     0.210 HD
ENDBRANCH  13  41
BRANCH  10  43
HETATM   43  C19 UNL     1     -15.528  46.034 -25.192  1.00  0.00    -0.045 A 
HETATM   44  C20 UNL     1     -14.654  46.499 -24.291  1.00  0.00     0.087 A 
HETATM   45  C21 UNL     1     -15.425  47.169 -23.251  1.00  0.00     0.283 A 
HETATM   46  O4  UNL     1     -14.945  47.683 -22.260  1.00  0.00    -0.260 OA
HETATM   47  O5  UNL     1     -16.749  47.110 -23.556  1.00  0.00    -0.314 OA
HETATM   48  C22 UNL     1     -16.906  46.421 -24.798  1.00  0.00     0.213 A 
ENDBRANCH  10  43
TORSDOF 12
ENDMDL
MODEL 4
REMARK minimizedAffinity -8.08611488
REMARK CNNscore 0.378860801
REMARK CNNaffinity 6.20083475
REMARK  12 active torsions:
REMARK  status: ('A' for Active; 'I' for Inactive)
REMARK    1  A    between atoms: O1_2  and  C2_3 
REMARK    2  A    between atoms: C4_5  and  O2_6 
REMARK    3  A    between atoms: O2_6  and  C5_7 
REMARK    4  A    between atoms: C8_10  and  C9_11 
REMARK    5  A    between atoms: N1_12  and  C10_14 
REMARK    6  A    between atoms: C10_14  and  C11_15 
REMARK    7  A    between atoms: C11_15  and  C12_16 
REMARK    8  A    between atoms: C12_16  and  O3_17 
REMARK    9  A    between atoms: C18_23  and  C19_24 
REMARK   10  A    between atoms: C25_32  and  O6_33 
REMARK   11  A    between atoms: C29_37  and  O7_38 
REMARK   12  A    between atoms: C33_43  and  O9_44 
ROOT
HETATM    1  C5  UNL     1      -5.936  47.324 -30.369  1.00  0.00     0.127 C 
HETATM    2  C6  UNL     1      -6.619  46.005 -30.061  1.00  0.00     0.033 C 
HETATM    3  C7  UNL     1      -7.186  46.022 -28.655  1.00  0.00     0.021 C 
HETATM    4  C8  UNL     1      -8.185  47.195 -28.356  1.00  0.00     0.026 C 
HETATM    5  C13 UNL     1      -9.612  46.534 -28.126  1.00  0.00     0.009 C 
HETATM    6  C14 UNL     1      -9.760  45.876 -26.753  1.00  0.00     0.007 C 
HETATM    7  C15 UNL     1     -11.010  45.015 -26.765  1.00  0.00     0.013 C 
HETATM    8  C16 UNL     1     -12.301  45.843 -26.878  1.00  0.00    -0.005 C 
HETATM    9  C17 UNL     1     -12.617  46.377 -25.454  1.00  0.00     0.019 C 
HETATM   10  C18 UNL     1     -13.542  44.970 -27.345  1.00  0.00     0.028 C 
HETATM   11  C23 UNL     1     -14.313  45.903 -28.274  1.00  0.00     0.013 C 
HETATM   12  C24 UNL     1     -13.217  46.659 -29.015  1.00  0.00     0.040 C 
HETATM   13  C25 UNL     1     -12.208  47.040 -27.920  1.00  0.00     0.070 C 
HETATM   14  C26 UNL     1     -10.785  47.499 -28.398  1.00  0.00     0.026 C 
HETATM   15  C27 UNL     1     -10.747  47.956 -29.883  1.00  0.00     0.011 C 
HETATM   16  C28 UNL     1      -9.355  47.906 -30.523  1.00  0.00     0.039 C 
HETATM   17  C29 UNL     1      -8.238  48.267 -29.523  1.00  0.00     0.073 C 
HETATM   18  C30 UNL     1      -6.904  48.512 -30.269  1.00  0.00     0.071 C 
ENDROOT
BRANCH   1  19
HETATM   19  O2  UNL     1      -5.348  47.199 -31.668  1.00  0.00    -0.356 OA
BRANCH  19  20
HETATM   20  C4  UNL     1      -5.895  46.133 -32.438  1.00  0.00     0.263 C 
HETATM   21  C3  UNL     1      -5.188  44.852 -32.008  1.00  0.00     0.095 C 
HETATM   22  C2  UNL     1      -5.751  43.669 -32.781  1.00  0.00     0.156 C 
HETATM   23  C33 UNL     1      -7.274  43.600 -32.588  1.00  0.00     0.175 C 
HETATM   24  C31 UNL     1      -7.898  44.953 -32.956  1.00  0.00     0.151 C 
HETATM   25  O8  UNL     1      -7.298  46.015 -32.207  1.00  0.00    -0.354 OA
HETATM   26  C32 UNL     1      -9.396  44.973 -32.669  1.00  0.00     0.042 C 
BRANCH  22  27
HETATM   27  O1  UNL     1      -5.143  42.475 -32.263  1.00  0.00    -0.388 OA
HETATM   28  C1  UNL     1      -4.024  42.044 -33.029  1.00  0.00     0.202 C 
ENDBRANCH  22  27
BRANCH  23  29
HETATM   29  O9  UNL     1      -7.804  42.552 -33.410  1.00  0.00    -0.390 OA
HETATM   30  H51 UNL     1      -7.375  41.735 -33.096  1.00  0.00     0.210 HD
ENDBRANCH  23  29
ENDBRANCH  19  20
ENDBRANCH   1  19
BRANCH  17  31
HETATM   31  O7  UNL     1      -8.675  49.562 -29.045  1.00  0.00    -0.389 OA
HETATM   32  H43 UNL     1      -8.088  49.805 -28.300  1.00  0.00     0.210 HD
ENDBRANCH  17  31
BRANCH   4  33
HETATM   33  C9  UNL     1      -7.629  47.810 -27.044  1.00  0.00     0.068 C 
HETATM   34  N1  UNL     1      -6.395  47.681 -26.696  1.00  0.00    -0.401 N 
ATOM     35  H1  UNL     1      -5.709  47.235 -27.305  1.00  0.00     0.158 HD
BRANCH  34  36
HETATM   36  C10 UNL     1      -6.031  48.208 -25.381  1.00  0.00     0.121 C 
BRANCH  36  37
HETATM   37  C11 UNL     1      -4.537  48.553 -25.382  1.00  0.00     0.045 C 
BRANCH  37  38
HETATM   38  C12 UNL     1      -4.256  49.831 -24.611  1.00  0.00     0.165 C 
BRANCH  38  39
HETATM   39  O3  UNL     1      -4.149  50.945 -25.494  1.00  0.00    -0.401 OA
HETATM   40  H20 UNL     1      -4.962  50.976 -26.027  1.00  0.00     0.209 HD
ENDBRANCH  38  39
ENDBRANCH  37  38
ENDBRANCH  36  37
ENDBRANCH  34  36
ENDBRANCH   4  33
BRANCH  13  41
HETATM   41  O6  UNL     1     -12.800  48.225 -27.323  1.00  0.00    -0.389 OA
HETATM   42  H37 UNL     1     -12.726  48.958 -27.960  1.00  0.00     0.210 HD
ENDBRANCH  13  41
BRANCH  10  43
HETATM   43  C19 UNL     1     -13.278  43.624 -27.986  1.00  0.00    -0.045 A 
HETATM   44  C20 UNL     1     -13.964  42.501 -27.742  1.00  0.00     0.087 A 
HETATM   45  C21 UNL     1     -13.370  41.448 -28.556  1.00  0.00     0.283 A 
HETATM   46  O4  UNL     1     -13.732  40.288 -28.556  1.00  0.00    -0.260 OA
HETATM   47  O5  UNL     1     -12.347  41.963 -29.291  1.00  0.00    -0.314 OA
HETATM   48  C22 UNL     1     -12.233  43.359 -29.007  1.00  0.00     0.213 A 
ENDBRANCH  10  43
TORSDOF 12
ENDMDL
MODEL 5
REMARK minimizedAffinity -7.26267958
REMARK CNNscore 0.325781643
REMARK CNNaffinity 5.64805174
REMARK  12 active torsions:
REMARK  status: ('A' for Active; 'I' for Inactive)
REMARK    1  A    between atoms: O1_2  and  C2_3 
REMARK    2  A    between atoms: C4_5  and  O2_6 
REMARK    3  A    between atoms: O2_6  and  C5_7 
REMARK    4  A    between atoms: C8_10  and  C9_11 
REMARK    5  A    between atoms: N1_12  and  C10_14 
REMARK    6  A    between atoms: C10_14  and  C11_15 
REMARK    7  A    between atoms: C11_15  and  C12_16 
REMARK    8  A    between atoms: C12_16  and  O3_17 
REMARK    9  A    between atoms: C18_23  and  C19_24 
REMARK   10  A    between atoms: C25_32  and  O6_33 
REMARK   11  A    between atoms: C29_37  and  O7_38 
REMARK   12  A    between atoms: C33_43  and  O9_44 
ROOT
HETATM    1  C5  UNL     1     -13.675  45.419 -27.518  1.00  0.00     0.127 C 
HETATM    2  C6  UNL     1     -13.797  45.997 -28.915  1.00  0.00     0.033 C 
HETATM    3  C7  UNL     1     -12.549  46.780 -29.271  1.00  0.00     0.021 C 
HETATM    4  C8  UNL     1     -11.206  45.973 -29.168  1.00  0.00     0.026 C 
HETATM    5  C13 UNL     1     -10.642  45.833 -30.648  1.00  0.00     0.009 C 
HETATM    6  C14 UNL     1      -9.990  47.114 -31.172  1.00  0.00     0.007 C 
HETATM    7  C15 UNL     1      -9.786  46.973 -32.668  1.00  0.00     0.013 C 
HETATM    8  C16 UNL     1      -8.745  45.899 -33.027  1.00  0.00    -0.005 C 
HETATM    9  C17 UNL     1      -7.347  46.553 -32.844  1.00  0.00     0.019 C 
HETATM   10  C18 UNL     1      -8.855  45.429 -34.540  1.00  0.00     0.028 C 
HETATM   11  C23 UNL     1      -8.580  43.930 -34.475  1.00  0.00     0.013 C 
HETATM   12  C24 UNL     1      -9.260  43.494 -33.183  1.00  0.00     0.040 C 
HETATM   13  C25 UNL     1      -8.864  44.572 -32.160  1.00  0.00     0.070 C 
HETATM   14  C26 UNL     1      -9.697  44.627 -30.831  1.00  0.00     0.026 C 
HETATM   15  C27 UNL     1     -10.471  43.312 -30.530  1.00  0.00     0.011 C 
HETATM   16  C28 UNL     1     -11.661  43.484 -29.580  1.00  0.00     0.039 C 
HETATM   17  C29 UNL     1     -11.397  44.549 -28.497  1.00  0.00     0.073 C 
HETATM   18  C30 UNL     1     -12.474  44.471 -27.388  1.00  0.00     0.071 C 
ENDROOT
BRANCH   1  19
HETATM   19  O2  UNL     1     -14.919  44.779 -27.218  1.00  0.00    -0.356 OA
BRANCH  19  20
HETATM   20  C4  UNL     1     -15.848  45.629 -26.551  1.00  0.00     0.263 C 
HETATM   21  C3  UNL     1     -17.113  44.815 -26.304  1.00  0.00     0.095 C 
HETATM   22  C2  UNL     1     -18.137  45.666 -25.568  1.00  0.00     0.156 C 
HETATM   23  C33 UNL     1     -17.521  46.213 -24.271  1.00  0.00     0.175 C 
HETATM   24  C31 UNL     1     -16.208  46.939 -24.596  1.00  0.00     0.151 C 
HETATM   25  O8  UNL     1     -15.311  46.082 -25.310  1.00  0.00    -0.354 OA
HETATM   26  C32 UNL     1     -15.497  47.399 -23.326  1.00  0.00     0.042 C 
BRANCH  22  27
HETATM   27  O1  UNL     1     -19.261  44.828 -25.254  1.00  0.00    -0.388 OA
HETATM   28  C1  UNL     1     -20.375  45.558 -24.751  1.00  0.00     0.202 C 
ENDBRANCH  22  27
BRANCH  23  29
HETATM   29  O9  UNL     1     -18.456  47.102 -23.647  1.00  0.00    -0.390 OA
HETATM   30  H51 UNL     1     -19.242  46.558 -23.457  1.00  0.00     0.210 HD
ENDBRANCH  23  29
ENDBRANCH  19  20
ENDBRANCH   1  19
BRANCH  17  31
HETATM   31  O7  UNL     1     -10.169  44.067 -27.900  1.00  0.00    -0.389 OA
HETATM   32  H43 UNL     1      -9.856  44.764 -27.287  1.00  0.00     0.210 HD
ENDBRANCH  17  31
BRANCH   4  33
HETATM   33  C9  UNL     1     -10.304  46.893 -28.304  1.00  0.00     0.068 C 
HETATM   34  N1  UNL     1      -9.060  46.628 -28.092  1.00  0.00    -0.401 N 
ATOM     35  H1  UNL     1      -8.592  45.844 -28.546  1.00  0.00     0.158 HD
BRANCH  34  36
HETATM   36  C10 UNL     1      -8.357  47.514 -27.164  1.00  0.00     0.121 C 
BRANCH  36  37
HETATM   37  C11 UNL     1      -9.211  47.687 -25.901  1.00  0.00     0.045 C 
BRANCH  37  38
HETATM   38  C12 UNL     1      -8.935  49.014 -25.215  1.00  0.00     0.165 C 
BRANCH  38  39
HETATM   39  O3  UNL     1      -9.542  50.090 -25.925  1.00  0.00    -0.401 OA
HETATM   40  H20 UNL     1     -10.489  49.883 -26.018  1.00  0.00     0.209 HD
ENDBRANCH  38  39
ENDBRANCH  37  38
ENDBRANCH  36  37
ENDBRANCH  34  36
ENDBRANCH   4  33
BRANCH  13  41
HETATM   41  O6  UNL     1      -7.532  44.164 -31.748  1.00  0.00    -0.389 OA
HETATM   42  H37 UNL     1      -7.613  43.359 -31.204  1.00  0.00     0.210 HD
ENDBRANCH  13  41
BRANCH  10  43
HETATM   43  C19 UNL     1     -10.127  45.738 -35.301  1.00  0.00    -0.045 A 
HETATM   44  C20 UNL     1     -10.238  46.624 -36.298  1.00  0.00     0.087 A 
HETATM   45  C21 UNL     1     -11.630  46.613 -36.731  1.00  0.00     0.283 A 
HETATM   46  O4  UNL     1     -12.087  47.325 -37.603  1.00  0.00    -0.260 OA
HETATM   47  O5  UNL     1     -12.327  45.705 -35.997  1.00  0.00    -0.314 OA
HETATM   48  C22 UNL     1     -11.436  45.078 -35.072  1.00  0.00     0.213 A 
ENDBRANCH  10  43
TORSDOF 12
ENDMDL
MODEL 6
REMARK minimizedAffinity -8.45445919
REMARK CNNscore 0.291570038
REMARK CNNaffinity 6.58755732
REMARK  12 active torsions:
REMARK  status: ('A' for Active; 'I' for Inactive)
REMARK    1  A    between atoms: O1_2  and  C2_3 
REMARK    2  A    between atoms: C4_5  and  O2_6 
REMARK    3  A    between atoms: O2_6  and  C5_7 
REMARK    4  A    between atoms: C8_10  and  C9_11 
REMARK    5  A    between atoms: N1_12  and  C10_14 
REMARK    6  A    between atoms: C10_14  and  C11_15 
REMARK    7  A    between atoms: C11_15  and  C12_16 
REMARK    8  A    between atoms: C12_16  and  O3_17 
REMARK    9  A    between atoms: C18_23  and  C19_24 
REMARK   10  A    between atoms: C25_32  and  O6_33 
REMARK   11  A    between atoms: C29_37  and  O7_38 
REMARK   12  A    between atoms: C33_43  and  O9_44 
ROOT
HETATM    1  C5  UNL     1      -2.479  50.046 -22.561  1.00  0.00     0.127 C 
HETATM    2  C6  UNL     1      -2.790  48.688 -23.161  1.00  0.00     0.033 C 
HETATM    3  C7  UNL     1      -3.399  47.777 -22.114  1.00  0.00     0.021 C 
HETATM    4  C8  UNL     1      -4.691  48.335 -21.418  1.00  0.00     0.026 C 
HETATM    5  C13 UNL     1      -5.893  47.396 -21.864  1.00  0.00     0.009 C 
HETATM    6  C14 UNL     1      -5.916  46.052 -21.133  1.00  0.00     0.007 C 
HETATM    7  C15 UNL     1      -6.883  45.130 -21.852  1.00  0.00     0.013 C 
HETATM    8  C16 UNL     1      -8.344  45.595 -21.738  1.00  0.00    -0.005 C 
HETATM    9  C17 UNL     1      -8.853  45.131 -20.344  1.00  0.00     0.019 C 
HETATM   10  C18 UNL     1      -9.281  44.928 -22.832  1.00  0.00     0.028 C 
HETATM   11  C23 UNL     1     -10.236  46.050 -23.225  1.00  0.00     0.013 C 
HETATM   12  C24 UNL     1      -9.356  47.295 -23.207  1.00  0.00     0.040 C 
HETATM   13  C25 UNL     1      -8.535  47.164 -21.914  1.00  0.00     0.070 C 
HETATM   14  C26 UNL     1      -7.272  48.085 -21.781  1.00  0.00     0.026 C 
HETATM   15  C27 UNL     1      -7.297  49.312 -22.734  1.00  0.00     0.011 C 
HETATM   16  C28 UNL     1      -5.918  49.918 -23.018  1.00  0.00     0.039 C 
HETATM   17  C29 UNL     1      -4.984  49.848 -21.793  1.00  0.00     0.073 C 
HETATM   18  C30 UNL     1      -3.736  50.737 -22.013  1.00  0.00     0.071 C 
ENDROOT
BRANCH   1  19
HETATM   19  O2  UNL     1      -1.824  50.814 -23.575  1.00  0.00    -0.356 OA
BRANCH  19  20
HETATM   20  C4  UNL     1      -2.594  50.953 -24.766  1.00  0.00     0.263 C 
HETATM   21  C3  UNL     1      -1.975  52.085 -25.578  1.00  0.00     0.095 C 
HETATM   22  C2  UNL     1      -2.742  52.264 -26.879  1.00  0.00     0.156 C 
HETATM   23  C33 UNL     1      -2.779  50.934 -27.648  1.00  0.00     0.175 C 
HETATM   24  C31 UNL     1      -3.330  49.831 -26.733  1.00  0.00     0.151 C 
HETATM   25  O8  UNL     1      -2.573  49.744 -25.522  1.00  0.00    -0.354 OA
HETATM   26  C32 UNL     1      -3.277  48.466 -27.413  1.00  0.00     0.042 C 
BRANCH  22  27
HETATM   27  O1  UNL     1      -2.056  53.256 -27.662  1.00  0.00    -0.388 OA
HETATM   28  C1  UNL     1      -0.646  53.065 -27.687  1.00  0.00     0.202 C 
ENDBRANCH  22  27
BRANCH  23  29
HETATM   29  O9  UNL     1      -3.599  51.089 -28.813  1.00  0.00    -0.390 OA
HETATM   30  H51 UNL     1      -3.167  51.785 -29.342  1.00  0.00     0.210 HD
ENDBRANCH  23  29
ENDBRANCH  19  20
ENDBRANCH   1  19
BRANCH  17  31
HETATM   31  O7  UNL     1      -5.776  50.510 -20.778  1.00  0.00    -0.389 OA
HETATM   32  H43 UNL     1      -5.308  50.388 -19.926  1.00  0.00     0.210 HD
ENDBRANCH  17  31
BRANCH   4  33
HETATM   33  C9  UNL     1      -4.379  48.174 -19.907  1.00  0.00     0.068 C 
HETATM   34  N1  UNL     1      -4.783  49.027 -19.029  1.00  0.00    -0.401 N 
ATOM     35  H1  UNL     1      -5.394  49.805 -19.278  1.00  0.00     0.158 HD
BRANCH  34  36
HETATM   36  C10 UNL     1      -4.320  48.818 -17.658  1.00  0.00     0.121 C 
BRANCH  36  37
HETATM   37  C11 UNL     1      -3.497  50.038 -17.222  1.00  0.00     0.045 C 
BRANCH  37  38
HETATM   38  C12 UNL     1      -2.584  50.524 -18.335  1.00  0.00     0.165 C 
BRANCH  38  39
HETATM   39  O3  UNL     1      -2.750  51.923 -18.554  1.00  0.00    -0.401 OA
HETATM   40  H20 UNL     1      -2.608  52.372 -17.703  1.00  0.00     0.209 HD
ENDBRANCH  38  39
ENDBRANCH  37  38
ENDBRANCH  36  37
ENDBRANCH  34  36
ENDBRANCH   4  33
BRANCH  13  41
HETATM   41  O6  UNL     1      -9.452  47.639 -20.891  1.00  0.00    -0.389 OA
HETATM   42  H37 UNL     1      -9.553  48.603 -20.995  1.00  0.00     0.210 HD
ENDBRANCH  13  41
BRANCH  10  43
HETATM   43  C19 UNL     1      -8.635  44.285 -24.041  1.00  0.00    -0.045 A 
HETATM   44  C20 UNL     1      -8.623  44.798 -25.278  1.00  0.00     0.087 A 
HETATM   45  C21 UNL     1      -7.912  43.852 -26.129  1.00  0.00     0.283 A 
HETATM   46  O4  UNL     1      -7.743  43.991 -27.324  1.00  0.00    -0.260 OA
HETATM   47  O5  UNL     1      -7.492  42.795 -25.382  1.00  0.00    -0.314 OA
HETATM   48  C22 UNL     1      -7.890  43.002 -24.025  1.00  0.00     0.213 A 
ENDBRANCH  10  43
TORSDOF 12
ENDMDL
MODEL 7
REMARK minimizedAffinity -7.29068089
REMARK CNNscore 0.284986973
REMARK CNNaffinity 6.15748596
REMARK  12 active torsions:
REMARK  status: ('A' for Active; 'I' for Inactive)
REMARK    1  A    between atoms: O1_2  and  C2_3 
REMARK    2  A    between atoms: C4_5  and  O2_6 
REMARK    3  A    between atoms: O2_6  and  C5_7 
REMARK    4  A    between atoms: C8_10  and  C9_11 
REMARK    5  A    between atoms: N1_12  and  C10_14 
REMARK    6  A    between atoms: C10_14  and  C11_15 
REMARK    7  A    between atoms: C11_15  and  C12_16 
REMARK    8  A    between atoms: C12_16  and  O3_17 
REMARK    9  A    between atoms: C18_23  and  C19_24 
REMARK   10  A    between atoms: C25_32  and  O6_33 
REMARK   11  A    between atoms: C29_37  and  O7_38 
REMARK   12  A    between atoms: C33_43  and  O9_44 
ROOT
HETATM    1  C5  UNL     1     -13.878  45.836 -27.666  1.00  0.00     0.127 C 
HETATM    2  C6  UNL     1     -13.654  46.306 -29.090  1.00  0.00     0.033 C 
HETATM    3  C7  UNL     1     -12.524  47.314 -29.140  1.00  0.00     0.021 C 
HETATM    4  C8  UNL     1     -11.159  46.812 -28.549  1.00  0.00     0.026 C 
HETATM    5  C13 UNL     1     -10.139  46.720 -29.766  1.00  0.00     0.009 C 
HETATM    6  C14 UNL     1      -9.601  48.082 -30.209  1.00  0.00     0.007 C 
HETATM    7  C15 UNL     1      -8.912  47.913 -31.550  1.00  0.00     0.013 C 
HETATM    8  C16 UNL     1      -7.633  47.064 -31.457  1.00  0.00    -0.005 C 
HETATM    9  C17 UNL     1      -6.509  48.004 -30.937  1.00  0.00     0.019 C 
HETATM   10  C18 UNL     1      -7.170  46.508 -32.871  1.00  0.00     0.028 C 
HETATM   11  C23 UNL     1      -6.660  45.104 -32.558  1.00  0.00     0.013 C 
HETATM   12  C24 UNL     1      -7.622  44.600 -31.490  1.00  0.00     0.040 C 
HETATM   13  C25 UNL     1      -7.775  45.786 -30.523  1.00  0.00     0.070 C 
HETATM   14  C26 UNL     1      -8.981  45.730 -29.520  1.00  0.00     0.026 C 
HETATM   15  C27 UNL     1      -9.556  44.299 -29.320  1.00  0.00     0.011 C 
HETATM   16  C28 UNL     1     -10.996  44.265 -28.798  1.00  0.00     0.039 C 
HETATM   17  C29 UNL     1     -11.289  45.414 -27.811  1.00  0.00     0.073 C 
HETATM   18  C30 UNL     1     -12.628  45.167 -27.076  1.00  0.00     0.071 C 
ENDROOT
BRANCH   1  19
HETATM   19  O2  UNL     1     -15.013  44.965 -27.684  1.00  0.00    -0.356 OA
BRANCH  19  20
HETATM   20  C4  UNL     1     -15.783  45.013 -26.486  1.00  0.00     0.263 C 
HETATM   21  C3  UNL     1     -15.310  46.224 -25.689  1.00  0.00     0.095 C 
HETATM   22  C2  UNL     1     -16.117  46.342 -24.405  1.00  0.00     0.156 C 
HETATM   23  C33 UNL     1     -17.616  46.401 -24.738  1.00  0.00     0.175 C 
HETATM   24  C31 UNL     1     -17.992  45.198 -25.615  1.00  0.00     0.151 C 
HETATM   25  O8  UNL     1     -17.172  45.142 -26.786  1.00  0.00    -0.354 OA
HETATM   26  C32 UNL     1     -19.446  45.273 -26.070  1.00  0.00     0.042 C 
BRANCH  22  27
HETATM   27  O1  UNL     1     -15.720  47.556 -23.746  1.00  0.00    -0.388 OA
HETATM   28  C1  UNL     1     -15.037  47.324 -22.519  1.00  0.00     0.202 C 
ENDBRANCH  22  27
BRANCH  23  29
HETATM   29  O9  UNL     1     -18.368  46.398 -23.518  1.00  0.00    -0.390 OA
HETATM   30  H51 UNL     1     -18.085  47.199 -23.039  1.00  0.00     0.210 HD
ENDBRANCH  23  29
ENDBRANCH  19  20
ENDBRANCH   1  19
BRANCH  17  31
HETATM   31  O7  UNL     1     -10.246  45.229 -26.824  1.00  0.00    -0.389 OA
HETATM   32  H43 UNL     1     -10.277  46.005 -26.227  1.00  0.00     0.210 HD
ENDBRANCH  17  31
BRANCH   4  33
HETATM   33  C9  UNL     1     -10.761  47.941 -27.562  1.00  0.00     0.068 C 
HETATM   34  N1  UNL     1      -9.642  47.928 -26.922  1.00  0.00    -0.401 N 
ATOM     35  H1  UNL     1      -8.933  47.216 -27.094  1.00  0.00     0.158 HD
BRANCH  34  36
HETATM   36  C10 UNL     1      -9.446  48.991 -25.936  1.00  0.00     0.121 C 
BRANCH  36  37
HETATM   37  C11 UNL     1      -8.349  48.559 -24.955  1.00  0.00     0.045 C 
BRANCH  37  38
HETATM   38  C12 UNL     1      -7.436  47.507 -25.562  1.00  0.00     0.165 C 
BRANCH  38  39
HETATM   39  O3  UNL     1      -6.657  48.058 -26.620  1.00  0.00    -0.401 OA
HETATM   40  H20 UNL     1      -6.186  48.832 -26.265  1.00  0.00     0.209 HD
ENDBRANCH  38  39
ENDBRANCH  37  38
ENDBRANCH  36  37
ENDBRANCH  34  36
ENDBRANCH   4  33
BRANCH  13  41
HETATM   41  O6  UNL     1      -6.591  45.685 -29.687  1.00  0.00    -0.389 OA
HETATM   42  H37 UNL     1      -6.692  44.909 -29.106  1.00  0.00     0.210 HD
ENDBRANCH  13  41
BRANCH  10  43
HETATM   43  C19 UNL     1      -8.169  46.506 -34.008  1.00  0.00    -0.045 A 
HETATM   44  C20 UNL     1      -8.101  47.277 -35.100  1.00  0.00     0.087 A 
HETATM   45  C21 UNL     1      -9.265  46.964 -35.921  1.00  0.00     0.283 A 
HETATM   46  O4  UNL     1      -9.532  47.507 -36.975  1.00  0.00    -0.260 OA
HETATM   47  O5  UNL     1     -10.002  45.995 -35.314  1.00  0.00    -0.314 OA
HETATM   48  C22 UNL     1      -9.359  45.623 -34.093  1.00  0.00     0.213 A 
ENDBRANCH  10  43
TORSDOF 12
ENDMDL
MODEL 8
REMARK minimizedAffinity -7.20811224
REMARK CNNscore 0.272520036
REMARK CNNaffinity 6.48306465
REMARK  12 active torsions:
REMARK  status: ('A' for Active; 'I' for Inactive)
REMARK    1  A    between atoms: O1_2  and  C2_3 
REMARK    2  A    between atoms: C4_5  and  O2_6 
REMARK    3  A    between atoms: O2_6  and  C5_7 
REMARK    4  A    between atoms: C8_10  and  C9_11 
REMARK    5  A    between atoms: N1_12  and  C10_14 
REMARK    6  A    between atoms: C10_14  and  C11_15 
REMARK    7  A    between atoms: C11_15  and  C12_16 
REMARK    8  A    between atoms: C12_16  and  O3_17 
REMARK    9  A    between atoms: C18_23  and  C19_24 
REMARK   10  A    between atoms: C25_32  and  O6_33 
REMARK   11  A    between atoms: C29_37  and  O7_38 
REMARK   12  A    between atoms: C33_43  and  O9_44 
ROOT
HETATM    1  C5  UNL     1      -5.834  47.635 -29.469  1.00  0.00     0.127 C 
HETATM    2  C6  UNL     1      -6.839  48.113 -28.437  1.00  0.00     0.033 C 
HETATM    3  C7  UNL     1      -8.237  48.101 -29.021  1.00  0.00     0.021 C 
HETATM    4  C8  UNL     1      -8.709  46.716 -29.589  1.00  0.00     0.026 C 
HETATM    5  C13 UNL     1      -9.896  46.218 -28.655  1.00  0.00     0.009 C 
HETATM    6  C14 UNL     1     -11.221  46.934 -28.927  1.00  0.00     0.007 C 
HETATM    7  C15 UNL     1     -12.176  46.624 -27.789  1.00  0.00     0.013 C 
HETATM    8  C16 UNL     1     -12.598  45.146 -27.754  1.00  0.00    -0.005 C 
HETATM    9  C17 UNL     1     -13.720  44.975 -28.815  1.00  0.00     0.019 C 
HETATM   10  C18 UNL     1     -13.204  44.721 -26.349  1.00  0.00     0.028 C 
HETATM   11  C23 UNL     1     -12.671  43.307 -26.136  1.00  0.00     0.013 C 
HETATM   12  C24 UNL     1     -11.257  43.366 -26.700  1.00  0.00     0.040 C 
HETATM   13  C25 UNL     1     -11.406  44.130 -28.027  1.00  0.00     0.070 C 
HETATM   14  C26 UNL     1     -10.089  44.687 -28.674  1.00  0.00     0.026 C 
HETATM   15  C27 UNL     1      -8.800  43.995 -28.151  1.00  0.00     0.011 C 
HETATM   16  C28 UNL     1      -7.522  44.820 -28.337  1.00  0.00     0.039 C 
HETATM   17  C29 UNL     1      -7.541  45.645 -29.640  1.00  0.00     0.073 C 
HETATM   18  C30 UNL     1      -6.131  46.206 -29.945  1.00  0.00     0.071 C 
ENDROOT
BRANCH   1  19
HETATM   19  O2  UNL     1      -4.536  47.763 -28.881  1.00  0.00    -0.356 OA
BRANCH  19  20
HETATM   20  C4  UNL     1      -4.430  48.853 -27.971  1.00  0.00     0.263 C 
HETATM   21  C3  UNL     1      -4.469  48.274 -26.561  1.00  0.00     0.095 C 
HETATM   22  C2  UNL     1      -4.334  49.394 -25.541  1.00  0.00     0.156 C 
HETATM   23  C33 UNL     1      -3.052  50.196 -25.817  1.00  0.00     0.175 C 
HETATM   24  C31 UNL     1      -3.049  50.665 -27.278  1.00  0.00     0.151 C 
HETATM   25  O8  UNL     1      -3.207  49.559 -28.172  1.00  0.00    -0.354 OA
HETATM   26  C32 UNL     1      -1.742  51.367 -27.635  1.00  0.00     0.042 C 
BRANCH  22  27
HETATM   27  O1  UNL     1      -4.257  48.795 -24.236  1.00  0.00    -0.388 OA
HETATM   28  C1  UNL     1      -2.927  48.461 -23.855  1.00  0.00     0.202 C 
ENDBRANCH  22  27
BRANCH  23  29
HETATM   29  O9  UNL     1      -2.996  51.313 -24.921  1.00  0.00    -0.390 OA
HETATM   30  H51 UNL     1      -2.979  50.926 -24.026  1.00  0.00     0.210 HD
ENDBRANCH  23  29
ENDBRANCH  19  20
ENDBRANCH   1  19
BRANCH  17  31
HETATM   31  O7  UNL     1      -7.792  44.622 -30.634  1.00  0.00    -0.389 OA
HETATM   32  H43 UNL     1      -7.955  45.083 -31.483  1.00  0.00     0.210 HD
ENDBRANCH  17  31
BRANCH   4  33
HETATM   33  C9  UNL     1      -9.219  47.069 -31.011  1.00  0.00     0.068 C 
HETATM   34  N1  UNL     1      -9.612  46.165 -31.842  1.00  0.00    -0.401 N 
ATOM     35  H1  UNL     1      -9.681  45.183 -31.575  1.00  0.00     0.158 HD
BRANCH  34  36
HETATM   36  C10 UNL     1      -9.956  46.625 -33.187  1.00  0.00     0.121 C 
BRANCH  36  37
HETATM   37  C11 UNL     1      -8.953  46.030 -34.184  1.00  0.00     0.045 C 
BRANCH  37  38
HETATM   38  C12 UNL     1      -8.106  47.108 -34.839  1.00  0.00     0.165 C 
BRANCH  38  39
HETATM   39  O3  UNL     1      -7.513  47.955 -33.857  1.00  0.00    -0.401 OA
HETATM   40  H20 UNL     1      -7.021  47.388 -33.239  1.00  0.00     0.209 HD
ENDBRANCH  38  39
ENDBRANCH  37  38
ENDBRANCH  36  37
ENDBRANCH  34  36
ENDBRANCH   4  33
BRANCH  13  41
HETATM   41  O6  UNL     1     -11.869  43.105 -28.947  1.00  0.00    -0.389 OA
HETATM   42  H37 UNL     1     -11.129  42.495 -29.123  1.00  0.00     0.210 HD
ENDBRANCH  13  41
BRANCH  10  43
HETATM   43  C19 UNL     1     -12.943  45.610 -25.151  1.00  0.00    -0.045 A 
HETATM   44  C20 UNL     1     -13.883  46.139 -24.359  1.00  0.00     0.087 A 
HETATM   45  C21 UNL     1     -13.196  46.933 -23.348  1.00  0.00     0.283 A 
HETATM   46  O4  UNL     1     -13.753  47.578 -22.481  1.00  0.00    -0.260 OA
HETATM   47  O5  UNL     1     -11.852  46.852 -23.541  1.00  0.00    -0.314 OA
HETATM   48  C22 UNL     1     -11.598  46.003 -24.662  1.00  0.00     0.213 A 
ENDBRANCH  10  43
TORSDOF 12
ENDMDL
MODEL 9
REMARK minimizedAffinity -7.27810431
REMARK CNNscore 0.269642085
REMARK CNNaffinity 6.19261408
REMARK  12 active torsions:
REMARK  status: ('A' for Active; 'I' for Inactive)
REMARK    1  A    between atoms: O1_2  and  C2_3 
REMARK    2  A    between atoms: C4_5  and  O2_6 
REMARK    3  A    between atoms: O2_6  and  C5_7 
REMARK    4  A    between atoms: C8_10  and  C9_11 
REMARK    5  A    between atoms: N1_12  and  C10_14 
REMARK    6  A    between atoms: C10_14  and  C11_15 
REMARK    7  A    between atoms: C11_15  and  C12_16 
REMARK    8  A    between atoms: C12_16  and  O3_17 
REMARK    9  A    between atoms: C18_23  and  C19_24 
REMARK   10  A    between atoms: C25_32  and  O6_33 
REMARK   11  A    between atoms: C29_37  and  O7_38 
REMARK   12  A    between atoms: C33_43  and  O9_44 
ROOT
HETATM    1  C5  UNL     1      -7.233  45.849 -21.994  1.00  0.00     0.127 C 
HETATM    2  C6  UNL     1      -6.709  47.034 -22.781  1.00  0.00     0.033 C 
HETATM    3  C7  UNL     1      -6.554  48.239 -21.876  1.00  0.00     0.021 C 
HETATM    4  C8  UNL     1      -5.638  48.015 -20.621  1.00  0.00     0.026 C 
HETATM    5  C13 UNL     1      -4.354  48.931 -20.822  1.00  0.00     0.009 C 
HETATM    6  C14 UNL     1      -4.615  50.411 -20.536  1.00  0.00     0.007 C 
HETATM    7  C15 UNL     1      -3.441  51.216 -21.062  1.00  0.00     0.013 C 
HETATM    8  C16 UNL     1      -2.142  50.951 -20.283  1.00  0.00    -0.005 C 
HETATM    9  C17 UNL     1      -2.215  51.804 -18.986  1.00  0.00     0.019 C 
HETATM   10  C18 UNL     1      -0.850  51.413 -21.083  1.00  0.00     0.028 C 
HETATM   11  C23 UNL     1       0.179  50.333 -20.764  1.00  0.00     0.013 C 
HETATM   12  C24 UNL     1      -0.641  49.049 -20.736  1.00  0.00     0.040 C 
HETATM   13  C25 UNL     1      -1.901  49.418 -19.936  1.00  0.00     0.070 C 
HETATM   14  C26 UNL     1      -3.119  48.434 -20.041  1.00  0.00     0.026 C 
HETATM   15  C27 UNL     1      -2.728  47.014 -20.538  1.00  0.00     0.011 C 
HETATM   16  C28 UNL     1      -3.888  46.215 -21.141  1.00  0.00     0.039 C 
HETATM   17  C29 UNL     1      -5.226  46.496 -20.427  1.00  0.00     0.073 C 
HETATM   18  C30 UNL     1      -6.292  45.455 -20.847  1.00  0.00     0.071 C 
ENDROOT
BRANCH   1  19
HETATM   19  O2  UNL     1      -7.442  44.784 -22.927  1.00  0.00    -0.356 OA
BRANCH  19  20
HETATM   20  C4  UNL     1      -8.298  45.138 -24.009  1.00  0.00     0.263 C 
HETATM   21  C3  UNL     1      -8.447  43.906 -24.894  1.00  0.00     0.095 C 
HETATM   22  C2  UNL     1      -9.375  44.217 -26.058  1.00  0.00     0.156 C 
HETATM   23  C33 UNL     1     -10.722  44.731 -25.526  1.00  0.00     0.175 C 
HETATM   24  C31 UNL     1     -10.478  45.912 -24.576  1.00  0.00     0.151 C 
HETATM   25  O8  UNL     1      -9.576  45.548 -23.526  1.00  0.00    -0.354 OA
HETATM   26  C32 UNL     1     -11.777  46.384 -23.929  1.00  0.00     0.042 C 
BRANCH  22  27
HETATM   27  O1  UNL     1      -9.579  43.001 -26.796  1.00  0.00    -0.388 OA
HETATM   28  C1  UNL     1      -9.984  41.913 -25.972  1.00  0.00     0.202 C 
ENDBRANCH  22  27
BRANCH  23  29
HETATM   29  O9  UNL     1     -11.543  45.126 -26.632  1.00  0.00    -0.390 OA
HETATM   30  H51 UNL     1     -11.664  44.319 -27.165  1.00  0.00     0.210 HD
ENDBRANCH  23  29
ENDBRANCH  19  20
ENDBRANCH   1  19
BRANCH  17  31
HETATM   31  O7  UNL     1      -4.895  46.200 -19.049  1.00  0.00    -0.389 OA
HETATM   32  H43 UNL     1      -5.657  46.485 -18.504  1.00  0.00     0.210 HD
ENDBRANCH  17  31
BRANCH   4  33
HETATM   33  C9  UNL     1      -6.514  48.521 -19.445  1.00  0.00     0.068 C 
HETATM   34  N1  UNL     1      -7.802  48.531 -19.505  1.00  0.00    -0.401 N 
ATOM     35  H1  UNL     1      -8.306  48.134 -20.298  1.00  0.00     0.158 HD
BRANCH  34  36
HETATM   36  C10 UNL     1      -8.501  49.143 -18.375  1.00  0.00     0.121 C 
BRANCH  36  37
HETATM   37  C11 UNL     1      -9.845  48.430 -18.180  1.00  0.00     0.045 C 
BRANCH  37  38
HETATM   38  C12 UNL     1     -10.507  48.109 -19.509  1.00  0.00     0.165 C 
BRANCH  38  39
HETATM   39  O3  UNL     1     -11.926  48.213 -19.410  1.00  0.00    -0.401 OA
HETATM   40  H20 UNL     1     -12.131  49.101 -19.070  1.00  0.00     0.209 HD
ENDBRANCH  38  39
ENDBRANCH  37  38
ENDBRANCH  36  37
ENDBRANCH  34  36
ENDBRANCH   4  33
BRANCH  13  41
HETATM   41  O6  UNL     1      -1.458  49.317 -18.556  1.00  0.00    -0.389 OA
HETATM   42  H37 UNL     1      -1.327  48.374 -18.345  1.00  0.00     0.210 HD
ENDBRANCH  13  41
BRANCH  10  43
HETATM   43  C19 UNL     1      -0.972  51.656 -22.572  1.00  0.00    -0.045 A 
HETATM   44  C20 UNL     1      -0.699  52.809 -23.194  1.00  0.00     0.087 A 
HETATM   45  C21 UNL     1      -0.965  52.606 -24.613  1.00  0.00     0.283 A 
HETATM   46  O4  UNL     1      -0.849  53.464 -25.466  1.00  0.00    -0.260 OA
HETATM   47  O5  UNL     1      -1.375  51.326 -24.820  1.00  0.00    -0.314 OA
HETATM   48  C22 UNL     1      -1.385  50.636 -23.569  1.00  0.00     0.213 A 
ENDBRANCH  10  43
TORSDOF 12
ENDMDL
