MODEL 1
REMARK minimizedAffinity -7.65851021
REMARK CNNscore 0.814040124
REMARK CNNaffinity 6.55889511
REMARK  16 active torsions:
REMARK  status: ('A' for Active; 'I' for Inactive)
REMARK    1  A    between atoms: S1_2  and  C2_3 
REMARK    2  A    between atoms: C2_3  and  C3_4 
REMARK    3  A    between atoms: C3_4  and  C4_5 
REMARK    4  A    between atoms: C4_5  and  N1_6 
REMARK    5  A    between atoms: C4_5  and  C33_44 
REMARK       I    between atoms: N1_6  and  C5_7 
REMARK    6  A    between atoms: C5_7  and  C6_9 
REMARK    7  A    between atoms: C6_9  and  N2_11 
REMARK       I    between atoms: N2_11  and  C8_12 
REMARK    8  A    between atoms: C8_12  and  C9_14 
REMARK    9  A    between atoms: C9_14  and  C10_15 
REMARK   10  A    between atoms: C10_15  and  C11_16 
REMARK   11  A    between atoms: C11_16  and  O4_18 
REMARK   12  A    between atoms: O4_18  and  C12_19 
REMARK   13  A    between atoms: C12_19  and  C13_20 
REMARK   14  A    between atoms: C13_20  and  C14_22 
REMARK   15  A    between atoms: C14_22  and  O6_23 
REMARK   16  A    between atoms: C33_44  and  O10_46 
ROOT
HETATM    1  C12 UNL     1      -7.628  46.721 -24.412  1.00  0.00     0.260 C 
ENDROOT
BRANCH   1   2
HETATM    2  O4  UNL     1      -8.927  47.216 -24.712  1.00  0.00    -0.314 OA
BRANCH   2   3
HETATM    3  C11 UNL     1      -9.943  46.340 -24.464  1.00  0.00     0.259 C 
HETATM    4  O3  UNL     1      -9.900  45.455 -23.622  1.00  0.00    -0.265 OA
BRANCH   3   5
HETATM    5  C10 UNL     1     -11.085  46.594 -25.417  1.00  0.00     0.120 C 
BRANCH   5   6
HETATM    6  C9  UNL     1     -12.331  45.828 -24.993  1.00  0.00     0.112 C 
BRANCH   6   7
HETATM    7  C8  UNL     1     -13.119  45.339 -26.192  1.00  0.00     0.218 C 
HETATM    8  N2  UNL     1     -14.460  45.158 -25.926  1.00  0.00    -0.348 N 
HETATM    9  H14 UNL     1     -14.826  45.683 -25.136  1.00  0.00     0.163 HD
HETATM   10  O2  UNL     1     -12.602  45.082 -27.275  1.00  0.00    -0.274 OA
BRANCH   8  11
HETATM   11  C6  UNL     1     -15.408  45.027 -27.028  1.00  0.00     0.172 C 
HETATM   12  C7  UNL     1     -15.083  43.809 -27.879  1.00  0.00     0.042 C 
BRANCH  11  13
HETATM   13  C5  UNL     1     -16.807  44.864 -26.405  1.00  0.00     0.240 C 
HETATM   14  N1  UNL     1     -17.854  45.068 -27.280  1.00  0.00    -0.345 N 
HETATM   15  H9  UNL     1     -17.644  44.969 -28.266  1.00  0.00     0.163 HD
HETATM   16  O1  UNL     1     -16.962  44.527 -25.233  1.00  0.00    -0.271 OA
BRANCH  14  17
HETATM   17  C4  UNL     1     -19.228  44.761 -26.873  1.00  0.00     0.183 C 
BRANCH  17  18
HETATM   18  C3  UNL     1     -19.435  43.244 -26.770  1.00  0.00     0.046 C 
BRANCH  18  19
HETATM   19  C2  UNL     1     -18.815  42.442 -27.915  1.00  0.00     0.076 C 
BRANCH  19  20
HETATM   20  S1  UNL     1     -19.637  40.854 -28.269  1.00  0.00    -0.173 SA
HETATM   21  C1  UNL     1     -18.191  39.786 -28.460  1.00  0.00     0.089 C 
ENDBRANCH  19  20
ENDBRANCH  18  19
ENDBRANCH  17  18
BRANCH  17  22
HETATM   22  C33 UNL     1     -19.541  45.387 -25.508  1.00  0.00     0.163 C 
HETATM   23  O9  UNL     1     -19.894  44.787 -24.504  1.00  0.00    -0.648 OA
BRANCH  22  24
HETATM   24  O10 UNL     1     -19.327  46.722 -25.446  1.00  0.00    -0.775 OA
HETATM   25  H46 UNL     1     -19.595  46.953 -24.532  1.00  0.00     0.167 HD
ENDBRANCH  22  24
ENDBRANCH  17  22
ENDBRANCH  14  17
ENDBRANCH  11  13
ENDBRANCH   8  11
ENDBRANCH   6   7
ENDBRANCH   5   6
ENDBRANCH   3   5
ENDBRANCH   2   3
ENDBRANCH   1   2
BRANCH   1  26
HETATM   26  C13 UNL     1      -6.789  47.446 -23.352  1.00  0.00     0.185 C 
HETATM   27  O5  UNL     1      -6.505  46.878 -22.294  1.00  0.00    -0.292 OA
BRANCH  26  28
HETATM   28  C14 UNL     1      -6.317  48.890 -23.641  1.00  0.00     0.128 C 
HETATM   29  C15 UNL     1      -6.442  49.822 -22.411  1.00  0.00     0.047 C 
HETATM   30  C16 UNL     1      -5.329  50.880 -22.541  1.00  0.00     0.009 C 
HETATM   31  C17 UNL     1      -4.661  50.578 -23.881  1.00  0.00     0.002 C 
HETATM   32  C18 UNL     1      -3.277  51.168 -24.183  1.00  0.00     0.003 C 
HETATM   33  C31 UNL     1      -4.805  49.048 -24.047  1.00  0.00     0.005 C 
HETATM   34  C19 UNL     1      -2.365  51.458 -22.973  1.00  0.00     0.010 C 
HETATM   35  C28 UNL     1      -2.482  50.350 -25.230  1.00  0.00     0.072 C 
HETATM   36  C20 UNL     1      -0.895  51.671 -23.379  1.00  0.00     0.035 C 
HETATM   37  C21 UNL     1      -0.786  52.172 -24.800  1.00  0.00    -0.067 C 
HETATM   38  C22 UNL     1      -0.281  53.392 -25.057  1.00  0.00     0.053 C 
HETATM   39  C26 UNL     1      -1.373  51.251 -25.891  1.00  0.00    -0.009 C 
HETATM   40  C23 UNL     1      -0.250  53.944 -26.430  1.00  0.00     0.149 C 
HETATM   41  O7  UNL     1       0.329  55.011 -26.632  1.00  0.00    -0.293 OA
HETATM   42  C24 UNL     1      -0.897  53.164 -27.546  1.00  0.00     0.084 C 
HETATM   43  C25 UNL     1      -1.920  52.152 -27.030  1.00  0.00     0.022 C 
HETATM   44  C27 UNL     1      -0.243  50.345 -26.427  1.00  0.00     0.021 C 
HETATM   45  C29 UNL     1      -3.397  49.542 -26.153  1.00  0.00     0.133 C 
HETATM   46  O8  UNL     1      -3.223  49.488 -27.370  1.00  0.00    -0.297 OA
HETATM   47  C30 UNL     1      -4.482  48.678 -25.510  1.00  0.00     0.091 C 
HETATM   48  C32 UNL     1      -3.884  48.260 -23.078  1.00  0.00     0.019 C 
BRANCH  28  49
HETATM   49  O6  UNL     1      -7.156  49.457 -24.658  1.00  0.00    -0.381 OA
HETATM   50  H21 UNL     1      -7.345  48.756 -25.318  1.00  0.00     0.211 HD
ENDBRANCH  28  49
ENDBRANCH  26  28
ENDBRANCH   1  26
TORSDOF 16
ENDMDL
MODEL 2
REMARK minimizedAffinity -8.61758995
REMARK CNNscore 0.812721789
REMARK CNNaffinity 6.92197037
REMARK  16 active torsions:
REMARK  status: ('A' for Active; 'I' for Inactive)
REMARK    1  A    between atoms: S1_2  and  C2_3 
REMARK    2  A    between atoms: C2_3  and  C3_4 
REMARK    3  A    between atoms: C3_4  and  C4_5 
REMARK    4  A    between atoms: C4_5  and  N1_6 
REMARK    5  A    between atoms: C4_5  and  C33_44 
REMARK       I    between atoms: N1_6  and  C5_7 
REMARK    6  A    between atoms: C5_7  and  C6_9 
REMARK    7  A    between atoms: C6_9  and  N2_11 
REMARK       I    between atoms: N2_11  and  C8_12 
REMARK    8  A    between atoms: C8_12  and  C9_14 
REMARK    9  A    between atoms: C9_14  and  C10_15 
REMARK   10  A    between atoms: C10_15  and  C11_16 
REMARK   11  A    between atoms: C11_16  and  O4_18 
REMARK   12  A    between atoms: O4_18  and  C12_19 
REMARK   13  A    between atoms: C12_19  and  C13_20 
REMARK   14  A    between atoms: C13_20  and  C14_22 
REMARK   15  A    between atoms: C14_22  and  O6_23 
REMARK   16  A    between atoms: C33_44  and  O10_46 
ROOT
HETATM    1  C12 UNL     1      -7.193  46.933 -24.244  1.00  0.00     0.260 C 
ENDROOT
BRANCH   1   2
HETATM    2  O4  UNL     1      -8.583  47.171 -24.431  1.00  0.00    -0.314 OA
BRANCH   2   3
HETATM    3  C11 UNL     1      -8.963  47.339 -25.730  1.00  0.00     0.259 C 
HETATM    4  O3  UNL     1      -8.485  48.174 -26.486  1.00  0.00    -0.265 OA
BRANCH   3   5
HETATM    5  C10 UNL     1     -10.088  46.391 -26.065  1.00  0.00     0.120 C 
BRANCH   5   6
HETATM    6  C9  UNL     1     -11.373  46.792 -25.352  1.00  0.00     0.112 C 
BRANCH   6   7
HETATM    7  C8  UNL     1     -12.488  47.086 -26.337  1.00  0.00     0.218 C 
HETATM    8  N2  UNL     1     -13.337  46.016 -26.532  1.00  0.00    -0.348 N 
HETATM    9  H14 UNL     1     -13.357  45.329 -25.783  1.00  0.00     0.163 HD
HETATM   10  O2  UNL     1     -12.589  48.151 -26.937  1.00  0.00    -0.274 OA
BRANCH   8  11
HETATM   11  C6  UNL     1     -14.634  46.227 -27.166  1.00  0.00     0.172 C 
HETATM   12  C7  UNL     1     -14.661  45.614 -28.558  1.00  0.00     0.042 C 
BRANCH  11  13
HETATM   13  C5  UNL     1     -15.689  45.540 -26.278  1.00  0.00     0.240 C 
HETATM   14  N1  UNL     1     -16.245  46.352 -25.311  1.00  0.00    -0.345 N 
HETATM   15  H9  UNL     1     -16.184  47.350 -25.471  1.00  0.00     0.163 HD
HETATM   16  O1  UNL     1     -16.035  44.374 -26.463  1.00  0.00    -0.271 OA
BRANCH  14  17
HETATM   17  C4  UNL     1     -17.392  45.886 -24.526  1.00  0.00     0.183 C 
BRANCH  17  18
HETATM   18  C3  UNL     1     -17.355  46.480 -23.111  1.00  0.00     0.046 C 
BRANCH  18  19
HETATM   19  C2  UNL     1     -17.818  45.524 -22.012  1.00  0.00     0.076 C 
BRANCH  19  20
HETATM   20  S1  UNL     1     -18.097  46.304 -20.389  1.00  0.00    -0.173 SA
HETATM   21  C1  UNL     1     -19.078  45.016 -19.583  1.00  0.00     0.089 C 
ENDBRANCH  19  20
ENDBRANCH  18  19
ENDBRANCH  17  18
BRANCH  17  22
HETATM   22  C33 UNL     1     -18.709  46.302 -25.193  1.00  0.00     0.163 C 
HETATM   23  O9  UNL     1     -19.417  47.242 -24.864  1.00  0.00    -0.648 OA
BRANCH  22  24
HETATM   24  O10 UNL     1     -19.038  45.567 -26.281  1.00  0.00    -0.775 OA
HETATM   25  H46 UNL     1     -19.899  45.946 -26.558  1.00  0.00     0.167 HD
ENDBRANCH  22  24
ENDBRANCH  17  22
ENDBRANCH  14  17
ENDBRANCH  11  13
ENDBRANCH   8  11
ENDBRANCH   6   7
ENDBRANCH   5   6
ENDBRANCH   3   5
ENDBRANCH   2   3
ENDBRANCH   1   2
BRANCH   1  26
HETATM   26  C13 UNL     1      -6.450  47.725 -23.160  1.00  0.00     0.185 C 
HETATM   27  O5  UNL     1      -6.210  47.203 -22.069  1.00  0.00    -0.292 OA
BRANCH  26  28
HETATM   28  C14 UNL     1      -6.018  49.177 -23.470  1.00  0.00     0.128 C 
HETATM   29  C15 UNL     1      -6.058  50.096 -22.224  1.00  0.00     0.047 C 
HETATM   30  C16 UNL     1      -4.969  51.168 -22.428  1.00  0.00     0.009 C 
HETATM   31  C17 UNL     1      -4.403  50.887 -23.817  1.00  0.00     0.002 C 
HETATM   32  C18 UNL     1      -3.053  51.495 -24.219  1.00  0.00     0.003 C 
HETATM   33  C31 UNL     1      -4.543  49.357 -23.988  1.00  0.00     0.005 C 
HETATM   34  C19 UNL     1      -2.054  51.784 -23.078  1.00  0.00     0.010 C 
HETATM   35  C28 UNL     1      -2.331  50.697 -25.332  1.00  0.00     0.072 C 
HETATM   36  C20 UNL     1      -0.622  52.019 -23.593  1.00  0.00     0.035 C 
HETATM   37  C21 UNL     1      -0.626  52.534 -25.014  1.00  0.00    -0.067 C 
HETATM   38  C22 UNL     1      -0.156  53.761 -25.296  1.00  0.00     0.053 C 
HETATM   39  C26 UNL     1      -1.286  51.616 -26.065  1.00  0.00    -0.009 C 
HETATM   40  C23 UNL     1      -0.236  54.327 -26.661  1.00  0.00     0.149 C 
HETATM   41  O7  UNL     1       0.315  55.402 -26.896  1.00  0.00    -0.293 OA
HETATM   42  C24 UNL     1      -0.958  53.550 -27.733  1.00  0.00     0.084 C 
HETATM   43  C25 UNL     1      -1.928  52.522 -27.150  1.00  0.00     0.022 C 
HETATM   44  C27 UNL     1      -0.190  50.728 -26.696  1.00  0.00     0.021 C 
HETATM   45  C29 UNL     1      -3.305  49.887 -26.190  1.00  0.00     0.133 C 
HETATM   46  O8  UNL     1      -3.224  49.846 -27.417  1.00  0.00    -0.297 OA
HETATM   47  C30 UNL     1      -4.328  49.004 -25.475  1.00  0.00     0.091 C 
HETATM   48  C32 UNL     1      -3.541  48.570 -23.100  1.00  0.00     0.019 C 
BRANCH  28  49
HETATM   49  O6  UNL     1      -6.937  49.744 -24.414  1.00  0.00    -0.381 OA
HETATM   50  H21 UNL     1      -7.169  49.047 -25.065  1.00  0.00     0.211 HD
ENDBRANCH  28  49
ENDBRANCH  26  28
ENDBRANCH   1  26
TORSDOF 16
ENDMDL
MODEL 3
REMARK minimizedAffinity -7.93498564
REMARK CNNscore 0.588287354
REMARK CNNaffinity 6.33616066
REMARK  16 active torsions:
REMARK  status: ('A' for Active; 'I' for Inactive)
REMARK    1  A    between atoms: S1_2  and  C2_3 
REMARK    2  A    between atoms: C2_3  and  C3_4 
REMARK    3  A    between atoms: C3_4  and  C4_5 
REMARK    4  A    between atoms: C4_5  and  N1_6 
REMARK    5  A    between atoms: C4_5  and  C33_44 
REMARK       I    between atoms: N1_6  and  C5_7 
REMARK    6  A    between atoms: C5_7  and  C6_9 
REMARK    7  A    between atoms: C6_9  and  N2_11 
REMARK       I    between atoms: N2_11  and  C8_12 
REMARK    8  A    between atoms: C8_12  and  C9_14 
REMARK    9  A    between atoms: C9_14  and  C10_15 
REMARK   10  A    between atoms: C10_15  and  C11_16 
REMARK   11  A    between atoms: C11_16  and  O4_18 
REMARK   12  A    between atoms: O4_18  and  C12_19 
REMARK   13  A    between atoms: C12_19  and  C13_20 
REMARK   14  A    between atoms: C13_20  and  C14_22 
REMARK   15  A    between atoms: C14_22  and  O6_23 
REMARK   16  A    between atoms: C33_44  and  O10_46 
ROOT
HETATM    1  C12 UNL     1      -8.756  47.820 -26.168  1.00  0.00     0.260 C 
ENDROOT
BRANCH   1   2
HETATM    2  O4  UNL     1      -7.388  47.453 -26.032  1.00  0.00    -0.314 OA
BRANCH   2   3
HETATM    3  C11 UNL     1      -6.909  47.503 -24.756  1.00  0.00     0.259 C 
HETATM    4  O3  UNL     1      -7.477  47.020 -23.786  1.00  0.00    -0.265 OA
BRANCH   3   5
HETATM    5  C10 UNL     1      -5.619  48.286 -24.720  1.00  0.00     0.120 C 
BRANCH   5   6
HETATM    6  C9  UNL     1      -5.308  48.763 -23.308  1.00  0.00     0.112 C 
BRANCH   6   7
HETATM    7  C8  UNL     1      -3.828  48.652 -22.997  1.00  0.00     0.218 C 
HETATM    8  N2  UNL     1      -3.516  49.012 -21.702  1.00  0.00    -0.348 N 
HETATM    9  H14 UNL     1      -4.280  48.955 -21.034  1.00  0.00     0.163 HD
HETATM   10  O2  UNL     1      -2.990  48.324 -23.831  1.00  0.00    -0.274 OA
BRANCH   8  11
HETATM   11  C6  UNL     1      -2.221  48.644 -21.140  1.00  0.00     0.172 C 
HETATM   12  C7  UNL     1      -1.730  47.329 -21.727  1.00  0.00     0.042 C 
BRANCH  11  13
HETATM   13  C5  UNL     1      -1.234  49.770 -21.500  1.00  0.00     0.240 C 
HETATM   14  N1  UNL     1      -1.577  50.501 -22.620  1.00  0.00    -0.345 N 
HETATM   15  H9  UNL     1      -2.552  50.475 -22.894  1.00  0.00     0.163 HD
HETATM   16  O1  UNL     1      -0.252  50.022 -20.804  1.00  0.00    -0.271 OA
BRANCH  14  17
HETATM   17  C4  UNL     1      -0.835  51.717 -22.965  1.00  0.00     0.183 C 
BRANCH  17  18
HETATM   18  C3  UNL     1       0.429  51.841 -22.104  1.00  0.00     0.046 C 
BRANCH  18  19
HETATM   19  C2  UNL     1       0.938  53.273 -21.930  1.00  0.00     0.076 C 
BRANCH  19  20
HETATM   20  S1  UNL     1       1.244  53.770 -20.204  1.00  0.00    -0.173 SA
HETATM   21  C1  UNL     1      -0.205  53.042 -19.403  1.00  0.00     0.089 C 
ENDBRANCH  19  20
ENDBRANCH  18  19
ENDBRANCH  17  18
BRANCH  17  22
HETATM   22  C33 UNL     1      -0.417  51.695 -24.441  1.00  0.00     0.163 C 
HETATM   23  O9  UNL     1       0.699  51.931 -24.877  1.00  0.00    -0.648 OA
BRANCH  22  24
HETATM   24  O10 UNL     1      -1.398  51.309 -25.290  1.00  0.00    -0.775 OA
HETATM   25  H46 UNL     1      -0.973  51.376 -26.171  1.00  0.00     0.167 HD
ENDBRANCH  22  24
ENDBRANCH  17  22
ENDBRANCH  14  17
ENDBRANCH  11  13
ENDBRANCH   8  11
ENDBRANCH   6   7
ENDBRANCH   5   6
ENDBRANCH   3   5
ENDBRANCH   2   3
ENDBRANCH   1   2
BRANCH   1  26
HETATM   26  C13 UNL     1      -9.574  47.202 -27.310  1.00  0.00     0.185 C 
HETATM   27  O5  UNL     1      -9.042  46.413 -28.095  1.00  0.00    -0.292 OA
BRANCH  26  28
HETATM   28  C14 UNL     1     -11.063  47.594 -27.450  1.00  0.00     0.128 C 
HETATM   29  C15 UNL     1     -11.548  47.604 -28.920  1.00  0.00     0.047 C 
HETATM   30  C16 UNL     1     -13.048  47.248 -28.896  1.00  0.00     0.009 C 
HETATM   31  C17 UNL     1     -13.395  47.133 -27.413  1.00  0.00     0.002 C 
HETATM   32  C18 UNL     1     -14.689  46.423 -26.995  1.00  0.00     0.003 C 
HETATM   33  C31 UNL     1     -12.092  46.631 -26.750  1.00  0.00     0.005 C 
HETATM   34  C19 UNL     1     -15.222  45.331 -27.947  1.00  0.00     0.010 C 
HETATM   35  C28 UNL     1     -14.635  45.855 -25.556  1.00  0.00     0.072 C 
HETATM   36  C20 UNL     1     -16.273  44.426 -27.279  1.00  0.00     0.035 C 
HETATM   37  C21 UNL     1     -16.985  45.147 -26.157  1.00  0.00    -0.067 C 
HETATM   38  C22 UNL     1     -18.303  45.398 -26.236  1.00  0.00     0.053 C 
HETATM   39  C26 UNL     1     -16.094  45.649 -25.001  1.00  0.00    -0.009 C 
HETATM   40  C23 UNL     1     -19.005  46.185 -25.197  1.00  0.00     0.149 C 
HETATM   41  O7  UNL     1     -20.231  46.286 -25.250  1.00  0.00    -0.293 OA
HETATM   42  C24 UNL     1     -18.201  46.808 -24.084  1.00  0.00     0.084 C 
HETATM   43  C25 UNL     1     -16.724  46.955 -24.447  1.00  0.00     0.022 C 
HETATM   44  C27 UNL     1     -16.064  44.566 -23.900  1.00  0.00     0.021 C 
HETATM   45  C29 UNL     1     -13.628  46.598 -24.676  1.00  0.00     0.133 C 
HETATM   46  O8  UNL     1     -13.886  46.935 -23.521  1.00  0.00    -0.297 OA
HETATM   47  C30 UNL     1     -12.216  46.809 -25.222  1.00  0.00     0.091 C 
HETATM   48  C32 UNL     1     -11.789  45.147 -27.095  1.00  0.00     0.019 C 
BRANCH  28  49
HETATM   49  O6  UNL     1     -11.239  48.931 -26.961  1.00  0.00    -0.381 OA
HETATM   50  H21 UNL     1     -10.673  49.038 -26.166  1.00  0.00     0.211 HD
ENDBRANCH  28  49
ENDBRANCH  26  28
ENDBRANCH   1  26
TORSDOF 16
ENDMDL
MODEL 4
REMARK minimizedAffinity -7.57800531
REMARK CNNscore 0.562817514
REMARK CNNaffinity 6.57855034
REMARK  16 active torsions:
REMARK  status: ('A' for Active; 'I' for Inactive)
REMARK    1  A    between atoms: S1_2  and  C2_3 
REMARK    2  A    between atoms: C2_3  and  C3_4 
REMARK    3  A    between atoms: C3_4  and  C4_5 
REMARK    4  A    between atoms: C4_5  and  N1_6 
REMARK    5  A    between atoms: C4_5  and  C33_44 
REMARK       I    between atoms: N1_6  and  C5_7 
REMARK    6  A    between atoms: C5_7  and  C6_9 
REMARK    7  A    between atoms: C6_9  and  N2_11 
REMARK       I    between atoms: N2_11  and  C8_12 
REMARK    8  A    between atoms: C8_12  and  C9_14 
REMARK    9  A    between atoms: C9_14  and  C10_15 
REMARK   10  A    between atoms: C10_15  and  C11_16 
REMARK   11  A    between atoms: C11_16  and  O4_18 
REMARK   12  A    between atoms: O4_18  and  C12_19 
REMARK   13  A    between atoms: C12_19  and  C13_20 
REMARK   14  A    between atoms: C13_20  and  C14_22 
REMARK   15  A    between atoms: C14_22  and  O6_23 
REMARK   16  A    between atoms: C33_44  and  O10_46 
ROOT
HETATM    1  C12 UNL     1      -7.252  46.856 -24.220  1.00  0.00     0.260 C 
ENDROOT
BRANCH   1   2
HETATM    2  O4  UNL     1      -8.591  47.335 -24.267  1.00  0.00    -0.314 OA
BRANCH   2   3
HETATM    3  C11 UNL     1      -9.271  47.245 -23.088  1.00  0.00     0.259 C 
HETATM    4  O3  UNL     1      -9.003  47.893 -22.085  1.00  0.00    -0.265 OA
BRANCH   3   5
HETATM    5  C10 UNL     1     -10.349  46.195 -23.194  1.00  0.00     0.120 C 
BRANCH   5   6
HETATM    6  C9  UNL     1     -11.639  46.667 -22.537  1.00  0.00     0.112 C 
BRANCH   6   7
HETATM    7  C8  UNL     1     -12.807  46.616 -23.504  1.00  0.00     0.218 C 
HETATM    8  N2  UNL     1     -13.878  45.890 -23.025  1.00  0.00    -0.348 N 
HETATM    9  H14 UNL     1     -13.924  45.790 -22.015  1.00  0.00     0.163 HD
HETATM   10  O2  UNL     1     -12.777  47.127 -24.619  1.00  0.00    -0.274 OA
BRANCH   8  11
HETATM   11  C6  UNL     1     -15.185  46.022 -23.660  1.00  0.00     0.172 C 
HETATM   12  C7  UNL     1     -15.489  47.479 -23.973  1.00  0.00     0.042 C 
BRANCH  11  13
HETATM   13  C5  UNL     1     -15.137  45.212 -24.969  1.00  0.00     0.240 C 
HETATM   14  N1  UNL     1     -15.397  45.943 -26.110  1.00  0.00    -0.345 N 
HETATM   15  H9  UNL     1     -15.262  46.945 -26.044  1.00  0.00     0.163 HD
HETATM   16  O1  UNL     1     -14.836  44.019 -24.985  1.00  0.00    -0.271 OA
BRANCH  14  17
HETATM   17  C4  UNL     1     -15.198  45.344 -27.433  1.00  0.00     0.183 C 
BRANCH  17  18
HETATM   18  C3  UNL     1     -13.910  44.511 -27.461  1.00  0.00     0.046 C 
BRANCH  18  19
HETATM   19  C2  UNL     1     -14.122  43.030 -27.775  1.00  0.00     0.076 C 
BRANCH  19  20
HETATM   20  S1  UNL     1     -12.601  42.026 -27.788  1.00  0.00    -0.173 SA
HETATM   21  C1  UNL     1     -13.147  40.637 -28.809  1.00  0.00     0.089 C 
ENDBRANCH  19  20
ENDBRANCH  18  19
ENDBRANCH  17  18
BRANCH  17  22
HETATM   22  C33 UNL     1     -16.376  44.430 -27.796  1.00  0.00     0.163 C 
HETATM   23  O9  UNL     1     -17.089  43.828 -27.008  1.00  0.00    -0.648 OA
BRANCH  22  24
HETATM   24  O10 UNL     1     -16.647  44.372 -29.120  1.00  0.00    -0.775 OA
HETATM   25  H46 UNL     1     -17.394  43.738 -29.171  1.00  0.00     0.167 HD
ENDBRANCH  22  24
ENDBRANCH  17  22
ENDBRANCH  14  17
ENDBRANCH  11  13
ENDBRANCH   8  11
ENDBRANCH   6   7
ENDBRANCH   5   6
ENDBRANCH   3   5
ENDBRANCH   2   3
ENDBRANCH   1   2
BRANCH   1  26
HETATM   26  C13 UNL     1      -6.260  47.534 -23.266  1.00  0.00     0.185 C 
HETATM   27  O5  UNL     1      -5.802  46.910 -22.305  1.00  0.00    -0.292 OA
BRANCH  26  28
HETATM   28  C14 UNL     1      -5.856  49.002 -23.537  1.00  0.00     0.128 C 
HETATM   29  C15 UNL     1      -5.934  49.891 -22.272  1.00  0.00     0.047 C 
HETATM   30  C16 UNL     1      -4.868  50.992 -22.437  1.00  0.00     0.009 C 
HETATM   31  C17 UNL     1      -4.276  50.754 -23.825  1.00  0.00     0.002 C 
HETATM   32  C18 UNL     1      -2.935  51.401 -24.193  1.00  0.00     0.003 C 
HETATM   33  C31 UNL     1      -4.379  49.226 -24.030  1.00  0.00     0.005 C 
HETATM   34  C19 UNL     1      -1.958  51.687 -23.033  1.00  0.00     0.010 C 
HETATM   35  C28 UNL     1      -2.180  50.644 -25.313  1.00  0.00     0.072 C 
HETATM   36  C20 UNL     1      -0.525  51.965 -23.522  1.00  0.00     0.035 C 
HETATM   37  C21 UNL     1      -0.522  52.512 -24.931  1.00  0.00    -0.067 C 
HETATM   38  C22 UNL     1      -0.076  53.756 -25.180  1.00  0.00     0.053 C 
HETATM   39  C26 UNL     1      -1.146  51.603 -26.012  1.00  0.00    -0.009 C 
HETATM   40  C23 UNL     1      -0.150  54.349 -26.534  1.00  0.00     0.149 C 
HETATM   41  O7  UNL     1       0.379  55.441 -26.737  1.00  0.00    -0.293 OA
HETATM   42  C24 UNL     1      -0.840  53.580 -27.632  1.00  0.00     0.084 C 
HETATM   43  C25 UNL     1      -1.794  52.518 -27.086  1.00  0.00     0.022 C 
HETATM   44  C27 UNL     1      -0.022  50.754 -26.646  1.00  0.00     0.021 C 
HETATM   45  C29 UNL     1      -3.124  49.832 -26.203  1.00  0.00     0.133 C 
HETATM   46  O8  UNL     1      -3.025  49.820 -27.429  1.00  0.00    -0.297 OA
HETATM   47  C30 UNL     1      -4.136  48.911 -25.522  1.00  0.00     0.091 C 
HETATM   48  C32 UNL     1      -3.372  48.443 -23.146  1.00  0.00     0.019 C 
BRANCH  28  49
HETATM   49  O6  UNL     1      -6.776  49.569 -24.482  1.00  0.00    -0.381 OA
HETATM   50  H21 UNL     1      -6.983  48.881 -25.151  1.00  0.00     0.211 HD
ENDBRANCH  28  49
ENDBRANCH  26  28
ENDBRANCH   1  26
TORSDOF 16
ENDMDL
MODEL 5
REMARK minimizedAffinity -8.0106926
REMARK CNNscore 0.354525506
REMARK CNNaffinity 6.40114164
REMARK  16 active torsions:
REMARK  status: ('A' for Active; 'I' for Inactive)
REMARK    1  A    between atoms: S1_2  and  C2_3 
REMARK    2  A    between atoms: C2_3  and  C3_4 
REMARK    3  A    between atoms: C3_4  and  C4_5 
REMARK    4  A    between atoms: C4_5  and  N1_6 
REMARK    5  A    between atoms: C4_5  and  C33_44 
REMARK       I    between atoms: N1_6  and  C5_7 
REMARK    6  A    between atoms: C5_7  and  C6_9 
REMARK    7  A    between atoms: C6_9  and  N2_11 
REMARK       I    between atoms: N2_11  and  C8_12 
REMARK    8  A    between atoms: C8_12  and  C9_14 
REMARK    9  A    between atoms: C9_14  and  C10_15 
REMARK   10  A    between atoms: C10_15  and  C11_16 
REMARK   11  A    between atoms: C11_16  and  O4_18 
REMARK   12  A    between atoms: O4_18  and  C12_19 
REMARK   13  A    between atoms: C12_19  and  C13_20 
REMARK   14  A    between atoms: C13_20  and  C14_22 
REMARK   15  A    between atoms: C14_22  and  O6_23 
REMARK   16  A    between atoms: C33_44  and  O10_46 
ROOT
HETATM    1  C12 UNL     1      -6.840  48.260 -19.948  1.00  0.00     0.260 C 
ENDROOT
BRANCH   1   2
HETATM    2  O4  UNL     1      -8.146  48.592 -19.492  1.00  0.00    -0.314 OA
BRANCH   2   3
HETATM    3  C11 UNL     1      -8.913  47.524 -19.132  1.00  0.00     0.259 C 
HETATM    4  O3  UNL     1      -8.466  46.436 -18.795  1.00  0.00    -0.265 OA
BRANCH   3   5
HETATM    5  C10 UNL     1     -10.375  47.870 -19.271  1.00  0.00     0.120 C 
BRANCH   5   6
HETATM    6  C9  UNL     1     -11.254  46.793 -18.649  1.00  0.00     0.112 C 
BRANCH   6   7
HETATM    7  C8  UNL     1     -12.494  47.387 -18.009  1.00  0.00     0.218 C 
HETATM    8  N2  UNL     1     -13.465  47.734 -18.925  1.00  0.00    -0.348 N 
HETATM    9  H14 UNL     1     -13.417  47.254 -19.819  1.00  0.00     0.163 HD
HETATM   10  O2  UNL     1     -12.596  47.584 -16.803  1.00  0.00    -0.274 OA
BRANCH   8  11
HETATM   11  C6  UNL     1     -14.828  47.993 -18.473  1.00  0.00     0.172 C 
HETATM   12  C7  UNL     1     -15.098  49.488 -18.397  1.00  0.00     0.042 C 
BRANCH  11  13
HETATM   13  C5  UNL     1     -15.776  47.347 -19.501  1.00  0.00     0.240 C 
HETATM   14  N1  UNL     1     -16.954  46.860 -18.972  1.00  0.00    -0.345 N 
HETATM   15  H9  UNL     1     -17.242  47.246 -18.081  1.00  0.00     0.163 HD
HETATM   16  O1  UNL     1     -15.514  47.324 -20.702  1.00  0.00    -0.271 OA
BRANCH  14  17
HETATM   17  C4  UNL     1     -18.025  46.395 -19.858  1.00  0.00     0.183 C 
BRANCH  17  18
HETATM   18  C3  UNL     1     -17.892  44.889 -20.123  1.00  0.00     0.046 C 
BRANCH  18  19
HETATM   19  C2  UNL     1     -17.659  44.523 -21.589  1.00  0.00     0.076 C 
BRANCH  19  20
HETATM   20  S1  UNL     1     -19.032  43.622 -22.379  1.00  0.00    -0.173 SA
HETATM   21  C1  UNL     1     -19.716  44.935 -23.418  1.00  0.00     0.089 C 
ENDBRANCH  19  20
ENDBRANCH  18  19
ENDBRANCH  17  18
BRANCH  17  22
HETATM   22  C33 UNL     1     -19.400  46.658 -19.229  1.00  0.00     0.163 C 
HETATM   23  O9  UNL     1     -20.105  45.833 -18.670  1.00  0.00    -0.648 OA
BRANCH  22  24
HETATM   24  O10 UNL     1     -19.790  47.953 -19.269  1.00  0.00    -0.775 OA
HETATM   25  H46 UNL     1     -20.679  47.934 -18.856  1.00  0.00     0.167 HD
ENDBRANCH  22  24
ENDBRANCH  17  22
ENDBRANCH  14  17
ENDBRANCH  11  13
ENDBRANCH   8  11
ENDBRANCH   6   7
ENDBRANCH   5   6
ENDBRANCH   3   5
ENDBRANCH   2   3
ENDBRANCH   1   2
BRANCH   1  26
HETATM   26  C13 UNL     1      -6.518  48.418 -21.440  1.00  0.00     0.185 C 
HETATM   27  O5  UNL     1      -6.693  47.472 -22.213  1.00  0.00    -0.292 OA
BRANCH  26  28
HETATM   28  C14 UNL     1      -5.973  49.775 -21.941  1.00  0.00     0.128 C 
HETATM   29  C15 UNL     1      -5.637  50.752 -20.788  1.00  0.00     0.047 C 
HETATM   30  C16 UNL     1      -4.484  51.646 -21.284  1.00  0.00     0.009 C 
HETATM   31  C17 UNL     1      -4.255  51.216 -22.731  1.00  0.00     0.002 C 
HETATM   32  C18 UNL     1      -2.949  51.603 -23.436  1.00  0.00     0.003 C 
HETATM   33  C31 UNL     1      -4.625  49.715 -22.751  1.00  0.00     0.005 C 
HETATM   34  C19 UNL     1      -1.708  51.803 -22.539  1.00  0.00     0.010 C 
HETATM   35  C28 UNL     1      -2.580  50.655 -24.603  1.00  0.00     0.072 C 
HETATM   36  C20 UNL     1      -0.394  51.804 -23.341  1.00  0.00     0.035 C 
HETATM   37  C21 UNL     1      -0.622  52.243 -24.770  1.00  0.00    -0.067 C 
HETATM   38  C22 UNL     1      -0.064  53.374 -25.233  1.00  0.00     0.053 C 
HETATM   39  C26 UNL     1      -1.597  51.377 -25.596  1.00  0.00    -0.009 C 
HETATM   40  C23 UNL     1      -0.347  53.875 -26.597  1.00  0.00     0.149 C 
HETATM   41  O7  UNL     1       0.278  54.848 -27.018  1.00  0.00    -0.293 OA
HETATM   42  C24 UNL     1      -1.369  53.157 -27.442  1.00  0.00     0.084 C 
HETATM   43  C25 UNL     1      -2.324  52.309 -26.602  1.00  0.00     0.022 C 
HETATM   44  C27 UNL     1      -0.778  50.310 -26.358  1.00  0.00     0.021 C 
HETATM   45  C29 UNL     1      -3.806  49.950 -25.187  1.00  0.00     0.133 C 
HETATM   46  O8  UNL     1      -3.984  49.836 -26.399  1.00  0.00    -0.297 OA
HETATM   47  C30 UNL     1      -4.767  49.261 -24.219  1.00  0.00     0.091 C 
HETATM   48  C32 UNL     1      -3.574  48.839 -22.017  1.00  0.00     0.019 C 
BRANCH  28  49
HETATM   49  O6  UNL     1      -6.985  50.419 -22.729  1.00  0.00    -0.381 OA
HETATM   50  H21 UNL     1      -7.434  49.730 -23.265  1.00  0.00     0.211 HD
ENDBRANCH  28  49
ENDBRANCH  26  28
ENDBRANCH   1  26
TORSDOF 16
ENDMDL
MODEL 6
REMARK minimizedAffinity -8.65438557
REMARK CNNscore 0.332812458
REMARK CNNaffinity 6.4133358
REMARK  16 active torsions:
REMARK  status: ('A' for Active; 'I' for Inactive)
REMARK    1  A    between atoms: S1_2  and  C2_3 
REMARK    2  A    between atoms: C2_3  and  C3_4 
REMARK    3  A    between atoms: C3_4  and  C4_5 
REMARK    4  A    between atoms: C4_5  and  N1_6 
REMARK    5  A    between atoms: C4_5  and  C33_44 
REMARK       I    between atoms: N1_6  and  C5_7 
REMARK    6  A    between atoms: C5_7  and  C6_9 
REMARK    7  A    between atoms: C6_9  and  N2_11 
REMARK       I    between atoms: N2_11  and  C8_12 
REMARK    8  A    between atoms: C8_12  and  C9_14 
REMARK    9  A    between atoms: C9_14  and  C10_15 
REMARK   10  A    between atoms: C10_15  and  C11_16 
REMARK   11  A    between atoms: C11_16  and  O4_18 
REMARK   12  A    between atoms: O4_18  and  C12_19 
REMARK   13  A    between atoms: C12_19  and  C13_20 
REMARK   14  A    between atoms: C13_20  and  C14_22 
REMARK   15  A    between atoms: C14_22  and  O6_23 
REMARK   16  A    between atoms: C33_44  and  O10_46 
ROOT
HETATM    1  C12 UNL     1       0.776  53.157 -23.916  1.00  0.00     0.260 C 
ENDROOT
BRANCH   1   2
HETATM    2  O4  UNL     1       0.922  54.347 -23.151  1.00  0.00    -0.314 OA
BRANCH   2   3
HETATM    3  C11 UNL     1       1.370  54.156 -21.878  1.00  0.00     0.259 C 
HETATM    4  O3  UNL     1       2.408  54.625 -21.434  1.00  0.00    -0.265 OA
BRANCH   3   5
HETATM    5  C10 UNL     1       0.429  53.240 -21.133  1.00  0.00     0.120 C 
BRANCH   5   6
HETATM    6  C9  UNL     1       0.288  53.667 -19.678  1.00  0.00     0.112 C 
BRANCH   6   7
HETATM    7  C8  UNL     1      -0.290  52.553 -18.825  1.00  0.00     0.218 C 
HETATM    8  N2  UNL     1       0.608  52.048 -17.909  1.00  0.00    -0.348 N 
HETATM    9  H14 UNL     1       1.374  52.667 -17.657  1.00  0.00     0.163 HD
HETATM   10  O2  UNL     1      -1.426  52.116 -18.975  1.00  0.00    -0.274 OA
BRANCH   8  11
HETATM   11  C6  UNL     1       0.129  51.230 -16.800  1.00  0.00     0.172 C 
HETATM   12  C7  UNL     1       0.308  49.750 -17.102  1.00  0.00     0.042 C 
BRANCH  11  13
HETATM   13  C5  UNL     1       0.965  51.610 -15.563  1.00  0.00     0.240 C 
HETATM   14  N1  UNL     1       1.674  50.567 -15.003  1.00  0.00    -0.345 N 
HETATM   15  H9  UNL     1       1.858  49.772 -15.604  1.00  0.00     0.163 HD
HETATM   16  O1  UNL     1       1.029  52.767 -15.151  1.00  0.00    -0.271 OA
BRANCH  14  17
HETATM   17  C4  UNL     1       2.654  50.823 -13.944  1.00  0.00     0.183 C 
BRANCH  17  18
HETATM   18  C3  UNL     1       1.950  51.078 -12.605  1.00  0.00     0.046 C 
BRANCH  18  19
HETATM   19  C2  UNL     1       2.572  52.194 -11.766  1.00  0.00     0.076 C 
BRANCH  19  20
HETATM   20  S1  UNL     1       3.459  51.627 -10.278  1.00  0.00    -0.173 SA
HETATM   21  C1  UNL     1       4.087  53.208  -9.662  1.00  0.00     0.089 C 
ENDBRANCH  19  20
ENDBRANCH  18  19
ENDBRANCH  17  18
BRANCH  17  22
HETATM   22  C33 UNL     1       3.596  49.623 -13.777  1.00  0.00     0.163 C 
HETATM   23  O9  UNL     1       4.805  49.627 -13.952  1.00  0.00    -0.648 OA
BRANCH  22  24
HETATM   24  O10 UNL     1       2.990  48.498 -13.333  1.00  0.00    -0.775 OA
HETATM   25  H46 UNL     1       3.718  47.842 -13.309  1.00  0.00     0.167 HD
ENDBRANCH  22  24
ENDBRANCH  17  22
ENDBRANCH  14  17
ENDBRANCH  11  13
ENDBRANCH   8  11
ENDBRANCH   6   7
ENDBRANCH   5   6
ENDBRANCH   3   5
ENDBRANCH   2   3
ENDBRANCH   1   2
BRANCH   1  26
HETATM   26  C13 UNL     1       0.075  53.237 -25.279  1.00  0.00     0.185 C 
HETATM   27  O5  UNL     1       0.470  54.038 -26.130  1.00  0.00    -0.292 OA
BRANCH  26  28
HETATM   28  C14 UNL     1      -1.125  52.301 -25.551  1.00  0.00     0.128 C 
HETATM   29  C15 UNL     1      -0.735  51.042 -26.362  1.00  0.00     0.047 C 
HETATM   30  C16 UNL     1      -1.698  49.918 -25.931  1.00  0.00     0.009 C 
HETATM   31  C17 UNL     1      -2.664  50.589 -24.957  1.00  0.00     0.002 C 
HETATM   32  C18 UNL     1      -3.522  49.720 -24.028  1.00  0.00     0.003 C 
HETATM   33  C31 UNL     1      -1.821  51.692 -24.277  1.00  0.00     0.005 C 
HETATM   34  C19 UNL     1      -2.949  48.340 -23.640  1.00  0.00     0.010 C 
HETATM   35  C28 UNL     1      -3.971  50.459 -22.744  1.00  0.00     0.072 C 
HETATM   36  C20 UNL     1      -3.672  47.720 -22.430  1.00  0.00     0.035 C 
HETATM   37  C21 UNL     1      -5.088  48.234 -22.314  1.00  0.00    -0.067 C 
HETATM   38  C22 UNL     1      -6.131  47.398 -22.451  1.00  0.00     0.053 C 
HETATM   39  C26 UNL     1      -5.242  49.760 -22.134  1.00  0.00    -0.009 C 
HETATM   40  C23 UNL     1      -7.527  47.891 -22.435  1.00  0.00     0.149 C 
HETATM   41  O7  UNL     1      -8.449  47.075 -22.444  1.00  0.00    -0.293 OA
HETATM   42  C24 UNL     1      -7.776  49.377 -22.372  1.00  0.00     0.084 C 
HETATM   43  C25 UNL     1      -6.564  50.189 -22.826  1.00  0.00     0.022 C 
HETATM   44  C27 UNL     1      -5.310  50.070 -20.622  1.00  0.00     0.021 C 
HETATM   45  C29 UNL     1      -4.005  51.978 -22.930  1.00  0.00     0.133 C 
HETATM   46  O8  UNL     1      -4.934  52.671 -22.519  1.00  0.00    -0.297 OA
HETATM   47  C30 UNL     1      -2.774  52.653 -23.535  1.00  0.00     0.091 C 
HETATM   48  C32 UNL     1      -0.771  51.111 -23.293  1.00  0.00     0.019 C 
BRANCH  28  49
HETATM   49  O6  UNL     1      -2.092  53.004 -26.344  1.00  0.00    -0.381 OA
HETATM   50  H21 UNL     1      -2.128  53.931 -26.023  1.00  0.00     0.211 HD
ENDBRANCH  28  49
ENDBRANCH  26  28
ENDBRANCH   1  26
TORSDOF 16
ENDMDL
MODEL 7
REMARK minimizedAffinity -8.62671947
REMARK CNNscore 0.311286926
REMARK CNNaffinity 6.67001963
REMARK  16 active torsions:
REMARK  status: ('A' for Active; 'I' for Inactive)
REMARK    1  A    between atoms: S1_2  and  C2_3 
REMARK    2  A    between atoms: C2_3  and  C3_4 
REMARK    3  A    between atoms: C3_4  and  C4_5 
REMARK    4  A    between atoms: C4_5  and  N1_6 
REMARK    5  A    between atoms: C4_5  and  C33_44 
REMARK       I    between atoms: N1_6  and  C5_7 
REMARK    6  A    between atoms: C5_7  and  C6_9 
REMARK    7  A    between atoms: C6_9  and  N2_11 
REMARK       I    between atoms: N2_11  and  C8_12 
REMARK    8  A    between atoms: C8_12  and  C9_14 
REMARK    9  A    between atoms: C9_14  and  C10_15 
REMARK   10  A    between atoms: C10_15  and  C11_16 
REMARK   11  A    between atoms: C11_16  and  O4_18 
REMARK   12  A    between atoms: O4_18  and  C12_19 
REMARK   13  A    between atoms: C12_19  and  C13_20 
REMARK   14  A    between atoms: C13_20  and  C14_22 
REMARK   15  A    between atoms: C14_22  and  O6_23 
REMARK   16  A    between atoms: C33_44  and  O10_46 
ROOT
HETATM    1  C12 UNL     1      -5.816  48.792 -20.145  1.00  0.00     0.260 C 
ENDROOT
BRANCH   1   2
HETATM    2  O4  UNL     1      -6.933  49.582 -20.533  1.00  0.00    -0.314 OA
BRANCH   2   3
HETATM    3  C11 UNL     1      -7.890  48.911 -21.236  1.00  0.00     0.259 C 
HETATM    4  O3  UNL     1      -8.722  48.168 -20.734  1.00  0.00    -0.265 OA
BRANCH   3   5
HETATM    5  C10 UNL     1      -7.725  49.177 -22.712  1.00  0.00     0.120 C 
BRANCH   5   6
HETATM    6  C9  UNL     1      -7.871  47.894 -23.520  1.00  0.00     0.112 C 
BRANCH   6   7
HETATM    7  C8  UNL     1      -8.484  48.160 -24.881  1.00  0.00     0.218 C 
HETATM    8  N2  UNL     1      -7.780  47.583 -25.917  1.00  0.00    -0.348 N 
HETATM    9  H14 UNL     1      -7.192  46.794 -25.662  1.00  0.00     0.163 HD
HETATM   10  O2  UNL     1      -9.477  48.862 -25.044  1.00  0.00    -0.274 OA
BRANCH   8  11
HETATM   11  C6  UNL     1      -8.401  47.448 -27.230  1.00  0.00     0.172 C 
HETATM   12  C7  UNL     1      -9.095  48.740 -27.635  1.00  0.00     0.042 C 
BRANCH  11  13
HETATM   13  C5  UNL     1      -7.277  47.128 -28.233  1.00  0.00     0.240 C 
HETATM   14  N1  UNL     1      -6.631  48.234 -28.747  1.00  0.00    -0.345 N 
HETATM   15  H9  UNL     1      -6.699  49.088 -28.206  1.00  0.00     0.163 HD
HETATM   16  O1  UNL     1      -6.956  45.972 -28.503  1.00  0.00    -0.271 OA
BRANCH  14  17
HETATM   17  C4  UNL     1      -5.422  48.072 -29.560  1.00  0.00     0.183 C 
BRANCH  17  18
HETATM   18  C3  UNL     1      -5.641  48.635 -30.971  1.00  0.00     0.046 C 
BRANCH  18  19
HETATM   19  C2  UNL     1      -6.075  47.597 -32.006  1.00  0.00     0.076 C 
BRANCH  19  20
HETATM   20  S1  UNL     1      -4.718  46.608 -32.713  1.00  0.00    -0.173 SA
HETATM   21  C1  UNL     1      -3.828  47.895 -33.621  1.00  0.00     0.089 C 
ENDBRANCH  19  20
ENDBRANCH  18  19
ENDBRANCH  17  18
BRANCH  17  22
HETATM   22  C33 UNL     1      -4.238  48.808 -28.921  1.00  0.00     0.163 C 
HETATM   23  O9  UNL     1      -3.538  48.392 -28.011  1.00  0.00    -0.648 OA
BRANCH  22  24
HETATM   24  O10 UNL     1      -3.944  49.996 -29.500  1.00  0.00    -0.775 OA
HETATM   25  H46 UNL     1      -3.196  50.331 -28.962  1.00  0.00     0.167 HD
ENDBRANCH  22  24
ENDBRANCH  17  22
ENDBRANCH  14  17
ENDBRANCH  11  13
ENDBRANCH   8  11
ENDBRANCH   6   7
ENDBRANCH   5   6
ENDBRANCH   3   5
ENDBRANCH   2   3
ENDBRANCH   1   2
BRANCH   1  26
HETATM   26  C13 UNL     1      -4.413  49.408 -20.229  1.00  0.00     0.185 C 
HETATM   27  O5  UNL     1      -4.015  50.162 -19.337  1.00  0.00    -0.292 OA
BRANCH  26  28
HETATM   28  C14 UNL     1      -3.525  49.064 -21.447  1.00  0.00     0.128 C 
HETATM   29  C15 UNL     1      -4.254  48.189 -22.496  1.00  0.00     0.047 C 
HETATM   30  C16 UNL     1      -3.646  48.541 -23.868  1.00  0.00     0.009 C 
HETATM   31  C17 UNL     1      -2.530  49.536 -23.554  1.00  0.00     0.002 C 
HETATM   32  C18 UNL     1      -1.952  50.399 -24.682  1.00  0.00     0.003 C 
HETATM   33  C31 UNL     1      -3.028  50.290 -22.300  1.00  0.00     0.005 C 
HETATM   34  C19 UNL     1      -2.890  50.719 -25.865  1.00  0.00     0.010 C 
HETATM   35  C28 UNL     1      -1.313  51.716 -24.175  1.00  0.00     0.072 C 
HETATM   36  C20 UNL     1      -2.371  51.880 -26.733  1.00  0.00     0.035 C 
HETATM   37  C21 UNL     1      -0.867  52.002 -26.645  1.00  0.00    -0.067 C 
HETATM   38  C22 UNL     1      -0.102  51.801 -27.732  1.00  0.00     0.053 C 
HETATM   39  C26 UNL     1      -0.290  52.265 -25.238  1.00  0.00    -0.009 C 
HETATM   40  C23 UNL     1       1.376  51.822 -27.653  1.00  0.00     0.149 C 
HETATM   41  O7  UNL     1       2.031  51.752 -28.692  1.00  0.00    -0.293 OA
HETATM   42  C24 UNL     1       2.034  51.964 -26.303  1.00  0.00     0.084 C 
HETATM   43  C25 UNL     1       1.099  51.576 -25.158  1.00  0.00     0.022 C 
HETATM   44  C27 UNL     1      -0.138  53.790 -25.048  1.00  0.00     0.021 C 
HETATM   45  C29 UNL     1      -0.853  51.615 -22.719  1.00  0.00     0.133 C 
HETATM   46  O8  UNL     1       0.233  52.049 -22.340  1.00  0.00    -0.297 OA
HETATM   47  C30 UNL     1      -1.844  51.070 -21.690  1.00  0.00     0.091 C 
HETATM   48  C32 UNL     1      -4.200  51.257 -22.619  1.00  0.00     0.019 C 
BRANCH  28  49
HETATM   49  O6  UNL     1      -2.399  48.296 -20.998  1.00  0.00    -0.381 OA
HETATM   50  H21 UNL     1      -2.103  48.668 -20.139  1.00  0.00     0.211 HD
ENDBRANCH  28  49
ENDBRANCH  26  28
ENDBRANCH   1  26
TORSDOF 16
ENDMDL
MODEL 8
REMARK minimizedAffinity -7.51731443
REMARK CNNscore 0.300835162
REMARK CNNaffinity 6.48455095
REMARK  16 active torsions:
REMARK  status: ('A' for Active; 'I' for Inactive)
REMARK    1  A    between atoms: S1_2  and  C2_3 
REMARK    2  A    between atoms: C2_3  and  C3_4 
REMARK    3  A    between atoms: C3_4  and  C4_5 
REMARK    4  A    between atoms: C4_5  and  N1_6 
REMARK    5  A    between atoms: C4_5  and  C33_44 
REMARK       I    between atoms: N1_6  and  C5_7 
REMARK    6  A    between atoms: C5_7  and  C6_9 
REMARK    7  A    between atoms: C6_9  and  N2_11 
REMARK       I    between atoms: N2_11  and  C8_12 
REMARK    8  A    between atoms: C8_12  and  C9_14 
REMARK    9  A    between atoms: C9_14  and  C10_15 
REMARK   10  A    between atoms: C10_15  and  C11_16 
REMARK   11  A    between atoms: C11_16  and  O4_18 
REMARK   12  A    between atoms: O4_18  and  C12_19 
REMARK   13  A    between atoms: C12_19  and  C13_20 
REMARK   14  A    between atoms: C13_20  and  C14_22 
REMARK   15  A    between atoms: C14_22  and  O6_23 
REMARK   16  A    between atoms: C33_44  and  O10_46 
ROOT
HETATM    1  C12 UNL     1      -3.299  49.146 -17.835  1.00  0.00     0.260 C 
ENDROOT
BRANCH   1   2
HETATM    2  O4  UNL     1      -3.546  49.562 -16.498  1.00  0.00    -0.314 OA
BRANCH   2   3
HETATM    3  C11 UNL     1      -2.681  49.053 -15.573  1.00  0.00     0.259 C 
HETATM    4  O3  UNL     1      -1.995  48.055 -15.746  1.00  0.00    -0.265 OA
BRANCH   3   5
HETATM    5  C10 UNL     1      -2.748  49.865 -14.303  1.00  0.00     0.120 C 
BRANCH   5   6
HETATM    6  C9  UNL     1      -1.689  50.959 -14.298  1.00  0.00     0.112 C 
BRANCH   6   7
HETATM    7  C8  UNL     1      -0.580  50.655 -13.309  1.00  0.00     0.218 C 
HETATM    8  N2  UNL     1       0.353  51.666 -13.210  1.00  0.00    -0.348 N 
HETATM    9  H14 UNL     1       0.034  52.588 -13.496  1.00  0.00     0.163 HD
HETATM   10  O2  UNL     1      -0.499  49.594 -12.699  1.00  0.00    -0.274 OA
BRANCH   8  11
HETATM   11  C6  UNL     1       1.276  51.692 -12.080  1.00  0.00     0.172 C 
HETATM   12  C7  UNL     1       2.717  51.579 -12.556  1.00  0.00     0.042 C 
BRANCH  11  13
HETATM   13  C5  UNL     1       1.074  53.039 -11.361  1.00  0.00     0.240 C 
HETATM   14  N1  UNL     1       2.241  53.700 -11.036  1.00  0.00    -0.345 N 
HETATM   15  H9  UNL     1       3.066  53.445 -11.565  1.00  0.00     0.163 HD
HETATM   16  O1  UNL     1      -0.046  53.501 -11.148  1.00  0.00    -0.271 OA
BRANCH  14  17
HETATM   17  C4  UNL     1       2.194  55.073 -10.524  1.00  0.00     0.183 C 
BRANCH  17  18
HETATM   18  C3  UNL     1       2.074  55.075  -8.994  1.00  0.00     0.046 C 
BRANCH  18  19
HETATM   19  C2  UNL     1       2.721  56.280  -8.311  1.00  0.00     0.076 C 
BRANCH  19  20
HETATM   20  S1  UNL     1       4.082  55.872  -7.170  1.00  0.00    -0.173 SA
HETATM   21  C1  UNL     1       4.689  57.533  -6.794  1.00  0.00     0.089 C 
ENDBRANCH  19  20
ENDBRANCH  18  19
ENDBRANCH  17  18
BRANCH  17  22
HETATM   22  C33 UNL     1       3.466  55.838 -10.912  1.00  0.00     0.163 C 
HETATM   23  O9  UNL     1       3.515  56.973 -11.362  1.00  0.00    -0.648 OA
BRANCH  22  24
HETATM   24  O10 UNL     1       4.616  55.174 -10.652  1.00  0.00    -0.775 OA
HETATM   25  H46 UNL     1       5.310  55.785 -10.978  1.00  0.00     0.167 HD
ENDBRANCH  22  24
ENDBRANCH  17  22
ENDBRANCH  14  17
ENDBRANCH  11  13
ENDBRANCH   8  11
ENDBRANCH   6   7
ENDBRANCH   5   6
ENDBRANCH   3   5
ENDBRANCH   2   3
ENDBRANCH   1   2
BRANCH   1  26
HETATM   26  C13 UNL     1      -2.852  50.194 -18.863  1.00  0.00     0.185 C 
HETATM   27  O5  UNL     1      -2.970  51.396 -18.610  1.00  0.00    -0.292 OA
BRANCH  26  28
HETATM   28  C14 UNL     1      -2.259  49.709 -20.206  1.00  0.00     0.128 C 
HETATM   29  C15 UNL     1      -3.164  48.679 -20.926  1.00  0.00     0.047 C 
HETATM   30  C16 UNL     1      -2.920  48.853 -22.438  1.00  0.00     0.009 C 
HETATM   31  C17 UNL     1      -1.822  49.911 -22.534  1.00  0.00     0.002 C 
HETATM   32  C18 UNL     1      -1.579  50.625 -23.869  1.00  0.00     0.003 C 
HETATM   33  C31 UNL     1      -2.052  50.817 -21.303  1.00  0.00     0.005 C 
HETATM   34  C19 UNL     1      -2.788  50.753 -24.820  1.00  0.00     0.010 C 
HETATM   35  C28 UNL     1      -0.917  52.015 -23.705  1.00  0.00     0.072 C 
HETATM   36  C20 UNL     1      -2.559  51.796 -25.929  1.00  0.00     0.035 C 
HETATM   37  C21 UNL     1      -1.087  51.969 -26.225  1.00  0.00    -0.067 C 
HETATM   38  C22 UNL     1      -0.591  51.640 -27.430  1.00  0.00     0.053 C 
HETATM   39  C26 UNL     1      -0.209  52.439 -25.046  1.00  0.00    -0.009 C 
HETATM   40  C23 UNL     1       0.860  51.710 -27.716  1.00  0.00     0.149 C 
HETATM   41  O7  UNL     1       1.253  51.515 -28.866  1.00  0.00    -0.293 OA
HETATM   42  C24 UNL     1       1.809  52.055 -26.596  1.00  0.00     0.084 C 
HETATM   43  C25 UNL     1       1.197  51.805 -25.218  1.00  0.00     0.022 C 
HETATM   44  C27 UNL     1      -0.106  53.979 -25.095  1.00  0.00     0.021 C 
HETATM   45  C29 UNL     1      -0.120  52.129 -22.404  1.00  0.00     0.133 C 
HETATM   46  O8  UNL     1       0.998  52.639 -22.359  1.00  0.00    -0.297 OA
HETATM   47  C30 UNL     1      -0.805  51.705 -21.104  1.00  0.00     0.091 C 
HETATM   48  C32 UNL     1      -3.321  51.700 -21.449  1.00  0.00     0.019 C 
BRANCH  28  49
HETATM   49  O6  UNL     1      -1.016  49.039 -19.950  1.00  0.00    -0.381 OA
HETATM   50  H21 UNL     1      -0.548  49.534 -19.243  1.00  0.00     0.211 HD
ENDBRANCH  28  49
ENDBRANCH  26  28
ENDBRANCH   1  26
TORSDOF 16
ENDMDL
MODEL 9
REMARK minimizedAffinity -7.95008945
REMARK CNNscore 0.287815809
REMARK CNNaffinity 6.28212118
REMARK  16 active torsions:
REMARK  status: ('A' for Active; 'I' for Inactive)
REMARK    1  A    between atoms: S1_2  and  C2_3 
REMARK    2  A    between atoms: C2_3  and  C3_4 
REMARK    3  A    between atoms: C3_4  and  C4_5 
REMARK    4  A    between atoms: C4_5  and  N1_6 
REMARK    5  A    between atoms: C4_5  and  C33_44 
REMARK       I    between atoms: N1_6  and  C5_7 
REMARK    6  A    between atoms: C5_7  and  C6_9 
REMARK    7  A    between atoms: C6_9  and  N2_11 
REMARK       I    between atoms: N2_11  and  C8_12 
REMARK    8  A    between atoms: C8_12  and  C9_14 
REMARK    9  A    between atoms: C9_14  and  C10_15 
REMARK   10  A    between atoms: C10_15  and  C11_16 
REMARK   11  A    between atoms: C11_16  and  O4_18 
REMARK   12  A    between atoms: O4_18  and  C12_19 
REMARK   13  A    between atoms: C12_19  and  C13_20 
REMARK   14  A    between atoms: C13_20  and  C14_22 
REMARK   15  A    between atoms: C14_22  and  O6_23 
REMARK   16  A    between atoms: C33_44  and  O10_46 
ROOT
HETATM    1  C12 UNL     1      -6.969  47.493 -25.740  1.00  0.00     0.260 C 
ENDROOT
BRANCH   1   2
HETATM    2  O4  UNL     1      -6.063  48.420 -26.327  1.00  0.00    -0.314 OA
BRANCH   2   3
HETATM    3  C11 UNL     1      -5.428  47.966 -27.445  1.00  0.00     0.259 C 
HETATM    4  O3  UNL     1      -4.230  48.093 -27.658  1.00  0.00    -0.265 OA
BRANCH   3   5
HETATM    5  C10 UNL     1      -6.428  47.345 -28.390  1.00  0.00     0.120 C 
BRANCH   5   6
HETATM    6  C9  UNL     1      -6.264  47.896 -29.800  1.00  0.00     0.112 C 
BRANCH   6   7
HETATM    7  C8  UNL     1      -7.589  48.359 -30.374  1.00  0.00     0.218 C 
HETATM    8  N2  UNL     1      -8.554  47.374 -30.377  1.00  0.00    -0.348 N 
HETATM    9  H14 UNL     1      -8.415  46.621 -29.709  1.00  0.00     0.163 HD
HETATM   10  O2  UNL     1      -7.763  49.482 -30.836  1.00  0.00    -0.274 OA
BRANCH   8  11
HETATM   11  C6  UNL     1      -9.955  47.733 -30.568  1.00  0.00     0.172 C 
HETATM   12  C7  UNL     1     -10.574  46.918 -31.694  1.00  0.00     0.042 C 
BRANCH  11  13
HETATM   13  C5  UNL     1     -10.686  47.427 -29.247  1.00  0.00     0.240 C 
HETATM   14  N1  UNL     1     -11.895  48.074 -29.094  1.00  0.00    -0.345 N 
HETATM   15  H9  UNL     1     -12.344  48.398 -29.942  1.00  0.00     0.163 HD
HETATM   16  O1  UNL     1     -10.239  46.627 -28.427  1.00  0.00    -0.271 OA
BRANCH  14  17
HETATM   17  C4  UNL     1     -12.781  47.730 -27.978  1.00  0.00     0.183 C 
BRANCH  17  18
HETATM   18  C3  UNL     1     -13.075  46.224 -27.965  1.00  0.00     0.046 C 
BRANCH  18  19
HETATM   19  C2  UNL     1     -14.526  45.861 -28.280  1.00  0.00     0.076 C 
BRANCH  19  20
HETATM   20  S1  UNL     1     -14.935  44.098 -28.068  1.00  0.00    -0.173 SA
HETATM   21  C1  UNL     1     -16.652  44.100 -28.638  1.00  0.00     0.089 C 
ENDBRANCH  19  20
ENDBRANCH  18  19
ENDBRANCH  17  18
BRANCH  17  22
HETATM   22  C33 UNL     1     -12.136  48.111 -26.638  1.00  0.00     0.163 C 
HETATM   23  O9  UNL     1     -12.258  47.507 -25.584  1.00  0.00    -0.648 OA
BRANCH  22  24
HETATM   24  O10 UNL     1     -11.316  49.185 -26.702  1.00  0.00    -0.775 OA
HETATM   25  H46 UNL     1     -11.019  49.298 -25.774  1.00  0.00     0.167 HD
ENDBRANCH  22  24
ENDBRANCH  17  22
ENDBRANCH  14  17
ENDBRANCH  11  13
ENDBRANCH   8  11
ENDBRANCH   6   7
ENDBRANCH   5   6
ENDBRANCH   3   5
ENDBRANCH   2   3
ENDBRANCH   1   2
BRANCH   1  26
HETATM   26  C13 UNL     1      -7.326  47.651 -24.257  1.00  0.00     0.185 C 
HETATM   27  O5  UNL     1      -8.027  46.804 -23.696  1.00  0.00    -0.292 OA
BRANCH  26  28
HETATM   28  C14 UNL     1      -6.792  48.886 -23.493  1.00  0.00     0.128 C 
HETATM   29  C15 UNL     1      -7.716  49.319 -22.329  1.00  0.00     0.047 C 
HETATM   30  C16 UNL     1      -6.810  49.960 -21.259  1.00  0.00     0.009 C 
HETATM   31  C17 UNL     1      -5.415  49.955 -21.878  1.00  0.00     0.002 C 
HETATM   32  C18 UNL     1      -4.189  50.157 -20.978  1.00  0.00     0.003 C 
HETATM   33  C31 UNL     1      -5.400  48.703 -22.784  1.00  0.00     0.005 C 
HETATM   34  C19 UNL     1      -4.326  49.711 -19.506  1.00  0.00     0.010 C 
HETATM   35  C28 UNL     1      -2.891  49.554 -21.569  1.00  0.00     0.072 C 
HETATM   36  C20 UNL     1      -2.965  49.590 -18.797  1.00  0.00     0.035 C 
HETATM   37  C21 UNL     1      -1.934  50.496 -19.430  1.00  0.00    -0.067 C 
HETATM   38  C22 UNL     1      -1.396  51.510 -18.730  1.00  0.00     0.053 C 
HETATM   39  C26 UNL     1      -1.632  50.241 -20.922  1.00  0.00    -0.009 C 
HETATM   40  C23 UNL     1      -0.455  52.468 -19.353  1.00  0.00     0.149 C 
HETATM   41  O7  UNL     1       0.102  53.305 -18.644  1.00  0.00    -0.293 OA
HETATM   42  C24 UNL     1      -0.182  52.366 -20.833  1.00  0.00     0.084 C 
HETATM   43  C25 UNL     1      -1.280  51.605 -21.575  1.00  0.00     0.022 C 
HETATM   44  C27 UNL     1      -0.428  49.279 -21.021  1.00  0.00     0.021 C 
HETATM   45  C29 UNL     1      -2.946  49.442 -23.094  1.00  0.00     0.133 C 
HETATM   46  O8  UNL     1      -2.001  49.764 -23.812  1.00  0.00    -0.297 OA
HETATM   47  C30 UNL     1      -4.176  48.786 -23.722  1.00  0.00     0.091 C 
HETATM   48  C32 UNL     1      -5.361  47.384 -21.967  1.00  0.00     0.019 C 
BRANCH  28  49
HETATM   49  O6  UNL     1      -6.736  50.000 -24.396  1.00  0.00    -0.381 OA
HETATM   50  H21 UNL     1      -6.430  49.667 -25.267  1.00  0.00     0.211 HD
ENDBRANCH  28  49
ENDBRANCH  26  28
ENDBRANCH   1  26
TORSDOF 16
ENDMDL
