MODEL 1
REMARK minimizedAffinity -9.42280293
REMARK  9 active torsions:
REMARK  status: ('A' for Active; 'I' for Inactive)
REMARK    1  A    between atoms: C2_2  and  C3_3 
REMARK    2  A    between atoms: C2_2  and  C9_11 
REMARK    3  A    between atoms: C3_3  and  C4_4 
REMARK    4  A    between atoms: C4_4  and  C5_5 
REMARK    5  A    between atoms: C5_5  and  O1_6 
REMARK    6  A    between atoms: C5_5  and  C6_7 
REMARK    7  A    between atoms: C6_7  and  O2_10 
REMARK    8  A    between atoms: C12_14  and  C13_15 
REMARK    9  A    between atoms: C13_15  and  O4_17 
ROOT
HETATM    1  C9  UNL     1      -1.913  49.602 -18.182  1.00  0.00    -0.001 C 
HETATM    2  C10 UNL     1      -2.934  48.463 -18.416  1.00  0.00     0.007 C 
HETATM    3  C11 UNL     1      -3.431  48.612 -19.863  1.00  0.00     0.022 C 
HETATM    4  C12 UNL     1      -2.215  49.200 -20.610  1.00  0.00     0.057 C 
HETATM    5  C14 UNL     1      -2.557  49.876 -21.960  1.00  0.00     0.014 C 
HETATM    6  C15 UNL     1      -2.944  48.878 -23.064  1.00  0.00     0.007 C 
HETATM    7  C16 UNL     1      -3.307  49.609 -24.355  1.00  0.00     0.007 C 
HETATM    8  C17 UNL     1      -2.057  50.271 -24.954  1.00  0.00     0.010 C 
HETATM    9  C18 UNL     1      -2.305  51.034 -26.296  1.00  0.00     0.018 C 
HETATM   10  C19 UNL     1      -3.406  52.104 -26.203  1.00  0.00     0.023 C 
HETATM   11  C20 UNL     1      -2.666  50.042 -27.416  1.00  0.00     0.023 C 
HETATM   12  C21 UNL     1      -1.009  51.741 -26.723  1.00  0.00     0.135 C 
HETATM   13  O5  UNL     1      -0.972  52.522 -27.675  1.00  0.00    -0.297 OA
HETATM   14  C22 UNL     1       0.251  51.384 -25.976  1.00  0.00     0.080 C 
HETATM   15  C23 UNL     1       0.066  51.613 -24.483  1.00  0.00     0.018 C 
HETATM   16  C24 UNL     1      -1.291  51.145 -23.952  1.00  0.00    -0.026 A 
HETATM   17  C25 UNL     1      -2.037  52.135 -23.093  1.00  0.00     0.021 A 
HETATM   18  C26 UNL     1      -1.476  50.892 -22.425  1.00  0.00    -0.027 A 
HETATM   19  C27 UNL     1      -0.249  51.111 -21.516  1.00  0.00     0.011 C 
HETATM   20  C28 UNL     1      -0.384  50.843 -20.004  1.00  0.00     0.012 C 
HETATM   21  C29 UNL     1      -1.743  50.285 -19.586  1.00  0.00    -0.022 C 
HETATM   22  C30 UNL     1      -2.695  51.541 -19.525  1.00  0.00     0.017 C 
ENDROOT
BRANCH   1  23
HETATM   23  C2  UNL     1      -0.662  49.227 -17.332  1.00  0.00    -0.014 C 
HETATM   24  C1  UNL     1      -0.943  48.467 -16.034  1.00  0.00     0.010 C 
BRANCH  23  25
HETATM   25  C3  UNL     1       0.155  50.513 -17.024  1.00  0.00     0.007 C 
BRANCH  25  26
HETATM   26  C4  UNL     1       0.907  50.462 -15.684  1.00  0.00     0.035 C 
BRANCH  26  27
HETATM   27  C5  UNL     1       1.634  51.782 -15.388  1.00  0.00     0.151 C 
BRANCH  27  28
HETATM   28  O1  UNL     1       0.761  52.612 -14.605  1.00  0.00    -0.393 OA
HETATM   29  H10 UNL     1       1.113  53.517 -14.694  1.00  0.00     0.210 HD
ENDBRANCH  27  28
BRANCH  27  30
HETATM   30  C6  UNL     1       2.984  51.626 -14.636  1.00  0.00     0.076 C 
HETATM   31  C7  UNL     1       4.171  51.995 -15.528  1.00  0.00     0.048 C 
HETATM   32  C8  UNL     1       3.191  50.229 -14.041  1.00  0.00     0.048 C 
BRANCH  30  33
HETATM   33  O2  UNL     1       2.978  52.572 -13.547  1.00  0.00    -0.388 OA
HETATM   34  H17 UNL     1       2.448  52.174 -12.832  1.00  0.00     0.210 HD
ENDBRANCH  30  33
ENDBRANCH  27  30
ENDBRANCH  26  27
ENDBRANCH  25  26
ENDBRANCH  23  25
ENDBRANCH   1  23
BRANCH   4  35
HETATM   35  C13 UNL     1      -1.181  48.080 -20.889  1.00  0.00     0.149 C 
HETATM   36  O3  UNL     1       0.028  48.129 -20.727  1.00  0.00    -0.649 OA
BRANCH  35  37
HETATM   37  O4  UNL     1      -1.692  46.954 -21.423  1.00  0.00    -0.776 OA
HETATM   38  H23 UNL     1      -0.906  46.380 -21.543  1.00  0.00     0.167 HD
ENDBRANCH  35  37
ENDBRANCH   4  35
TORSDOF 9
ENDMDL
MODEL 2
REMARK minimizedAffinity -9.40738392
REMARK  9 active torsions:
REMARK  status: ('A' for Active; 'I' for Inactive)
REMARK    1  A    between atoms: C2_2  and  C3_3 
REMARK    2  A    between atoms: C2_2  and  C9_11 
REMARK    3  A    between atoms: C3_3  and  C4_4 
REMARK    4  A    between atoms: C4_4  and  C5_5 
REMARK    5  A    between atoms: C5_5  and  O1_6 
REMARK    6  A    between atoms: C5_5  and  C6_7 
REMARK    7  A    between atoms: C6_7  and  O2_10 
REMARK    8  A    between atoms: C12_14  and  C13_15 
REMARK    9  A    between atoms: C13_15  and  O4_17 
ROOT
HETATM    1  C9  UNL     1      -4.173  48.429 -23.868  1.00  0.00    -0.001 C 
HETATM    2  C10 UNL     1      -5.434  48.142 -23.017  1.00  0.00     0.007 C 
HETATM    3  C11 UNL     1      -5.001  48.242 -21.546  1.00  0.00     0.022 C 
HETATM    4  C12 UNL     1      -3.878  49.300 -21.565  1.00  0.00     0.057 C 
HETATM    5  C14 UNL     1      -2.952  49.277 -20.325  1.00  0.00     0.014 C 
HETATM    6  C15 UNL     1      -3.629  49.799 -19.046  1.00  0.00     0.007 C 
HETATM    7  C16 UNL     1      -2.679  49.712 -17.854  1.00  0.00     0.007 C 
HETATM    8  C17 UNL     1      -1.523  50.709 -18.028  1.00  0.00     0.010 C 
HETATM    9  C18 UNL     1      -0.494  50.725 -16.852  1.00  0.00     0.018 C 
HETATM   10  C19 UNL     1       0.116  49.346 -16.548  1.00  0.00     0.023 C 
HETATM   11  C20 UNL     1      -1.152  51.272 -15.572  1.00  0.00     0.023 C 
HETATM   12  C21 UNL     1       0.662  51.675 -17.203  1.00  0.00     0.135 C 
HETATM   13  O5  UNL     1       1.672  51.764 -16.503  1.00  0.00    -0.297 OA
HETATM   14  C22 UNL     1       0.484  52.564 -18.408  1.00  0.00     0.080 C 
HETATM   15  C23 UNL     1       0.176  51.729 -19.642  1.00  0.00     0.018 C 
HETATM   16  C24 UNL     1      -0.815  50.590 -19.384  1.00  0.00    -0.026 A 
HETATM   17  C25 UNL     1      -0.408  49.235 -19.904  1.00  0.00     0.021 A 
HETATM   18  C26 UNL     1      -1.570  49.938 -20.582  1.00  0.00    -0.027 A 
HETATM   19  C27 UNL     1      -1.286  50.502 -21.989  1.00  0.00     0.011 C 
HETATM   20  C28 UNL     1      -2.035  49.904 -23.196  1.00  0.00     0.012 C 
HETATM   21  C29 UNL     1      -3.073  48.844 -22.827  1.00  0.00    -0.022 C 
HETATM   22  C30 UNL     1      -2.240  47.526 -22.593  1.00  0.00     0.017 C 
ENDROOT
BRANCH   1  23
HETATM   23  C2  UNL     1      -4.402  49.277 -25.154  1.00  0.00    -0.014 C 
HETATM   24  C1  UNL     1      -4.413  48.497 -26.471  1.00  0.00     0.010 C 
BRANCH  23  25
HETATM   25  C3  UNL     1      -3.339  50.409 -25.220  1.00  0.00     0.007 C 
BRANCH  25  26
HETATM   26  C4  UNL     1      -2.771  50.643 -26.629  1.00  0.00     0.035 C 
BRANCH  26  27
HETATM   27  C5  UNL     1      -2.414  52.119 -26.861  1.00  0.00     0.151 C 
BRANCH  27  28
HETATM   28  O1  UNL     1      -3.185  52.918 -25.950  1.00  0.00    -0.393 OA
HETATM   29  H10 UNL     1      -3.167  53.821 -26.317  1.00  0.00     0.210 HD
ENDBRANCH  27  28
BRANCH  27  30
HETATM   30  C6  UNL     1      -0.910  52.461 -26.677  1.00  0.00     0.076 C 
HETATM   31  C7  UNL     1      -0.338  53.163 -27.910  1.00  0.00     0.048 C 
HETATM   32  C8  UNL     1      -0.049  51.243 -26.323  1.00  0.00     0.048 C 
BRANCH  30  33
HETATM   33  O2  UNL     1      -0.815  53.400 -25.587  1.00  0.00    -0.388 OA
HETATM   34  H17 UNL     1      -0.875  52.881 -24.764  1.00  0.00     0.210 HD
ENDBRANCH  30  33
ENDBRANCH  27  30
ENDBRANCH  26  27
ENDBRANCH  25  26
ENDBRANCH  23  25
ENDBRANCH   1  23
BRANCH   4  35
HETATM   35  C13 UNL     1      -4.497  50.718 -21.669  1.00  0.00     0.149 C 
HETATM   36  O3  UNL     1      -3.948  51.740 -22.049  1.00  0.00    -0.649 OA
BRANCH  35  37
HETATM   37  O4  UNL     1      -5.765  50.818 -21.230  1.00  0.00    -0.776 OA
HETATM   38  H23 UNL     1      -5.977  51.768 -21.354  1.00  0.00     0.167 HD
ENDBRANCH  35  37
ENDBRANCH   4  35
TORSDOF 9
ENDMDL
MODEL 3
REMARK minimizedAffinity -9.00716686
REMARK  9 active torsions:
REMARK  status: ('A' for Active; 'I' for Inactive)
REMARK    1  A    between atoms: C2_2  and  C3_3 
REMARK    2  A    between atoms: C2_2  and  C9_11 
REMARK    3  A    between atoms: C3_3  and  C4_4 
REMARK    4  A    between atoms: C4_4  and  C5_5 
REMARK    5  A    between atoms: C5_5  and  O1_6 
REMARK    6  A    between atoms: C5_5  and  C6_7 
REMARK    7  A    between atoms: C6_7  and  O2_10 
REMARK    8  A    between atoms: C12_14  and  C13_15 
REMARK    9  A    between atoms: C13_15  and  O4_17 
ROOT
HETATM    1  C9  UNL     1      -4.771  48.573 -20.300  1.00  0.00    -0.001 C 
HETATM    2  C10 UNL     1      -4.865  47.306 -21.184  1.00  0.00     0.007 C 
HETATM    3  C11 UNL     1      -4.398  47.717 -22.589  1.00  0.00     0.022 C 
HETATM    4  C12 UNL     1      -3.353  48.821 -22.319  1.00  0.00     0.057 C 
HETATM    5  C14 UNL     1      -3.051  49.729 -23.535  1.00  0.00     0.014 C 
HETATM    6  C15 UNL     1      -2.244  49.026 -24.639  1.00  0.00     0.007 C 
HETATM    7  C16 UNL     1      -2.015  49.961 -25.824  1.00  0.00     0.007 C 
HETATM    8  C17 UNL     1      -1.067  51.101 -25.420  1.00  0.00     0.010 C 
HETATM    9  C18 UNL     1      -0.740  52.113 -26.565  1.00  0.00     0.018 C 
HETATM   10  C19 UNL     1      -1.989  52.744 -27.205  1.00  0.00     0.023 C 
HETATM   11  C20 UNL     1       0.091  51.428 -27.665  1.00  0.00     0.023 C 
HETATM   12  C21 UNL     1       0.118  53.256 -26.001  1.00  0.00     0.135 C 
HETATM   13  O5  UNL     1       0.398  54.255 -26.666  1.00  0.00    -0.297 OA
HETATM   14  C22 UNL     1       0.679  53.079 -24.613  1.00  0.00     0.080 C 
HETATM   15  C23 UNL     1      -0.441  52.803 -23.619  1.00  0.00     0.018 C 
HETATM   16  C24 UNL     1      -1.501  51.829 -24.142  1.00  0.00    -0.026 A 
HETATM   17  C25 UNL     1      -2.934  52.269 -23.976  1.00  0.00     0.021 A 
HETATM   18  C26 UNL     1      -2.444  51.103 -23.135  1.00  0.00    -0.027 A 
HETATM   19  C27 UNL     1      -2.239  51.395 -21.634  1.00  0.00     0.011 C 
HETATM   20  C28 UNL     1      -3.131  50.674 -20.605  1.00  0.00     0.012 C 
HETATM   21  C29 UNL     1      -4.089  49.651 -21.215  1.00  0.00    -0.022 C 
HETATM   22  C30 UNL     1      -5.291  50.505 -21.774  1.00  0.00     0.017 C 
ENDROOT
BRANCH   1  23
HETATM   23  C2  UNL     1      -4.271  48.346 -18.842  1.00  0.00    -0.014 C 
HETATM   24  C1  UNL     1      -3.467  47.066 -18.606  1.00  0.00     0.010 C 
BRANCH  23  25
HETATM   25  C3  UNL     1      -5.483  48.395 -17.869  1.00  0.00     0.007 C 
BRANCH  25  26
HETATM   26  C4  UNL     1      -6.845  48.424 -18.580  1.00  0.00     0.035 C 
BRANCH  26  27
HETATM   27  C5  UNL     1      -7.914  47.650 -17.795  1.00  0.00     0.151 C 
BRANCH  27  28
HETATM   28  O1  UNL     1      -7.427  47.437 -16.460  1.00  0.00    -0.393 OA
HETATM   29  H10 UNL     1      -7.968  46.710 -16.098  1.00  0.00     0.210 HD
ENDBRANCH  27  28
BRANCH  27  30
HETATM   30  C6  UNL     1      -9.299  48.350 -17.716  1.00  0.00     0.076 C 
HETATM   31  C7  UNL     1     -10.185  47.724 -16.637  1.00  0.00     0.048 C 
HETATM   32  C8  UNL     1     -10.044  48.373 -19.055  1.00  0.00     0.048 C 
BRANCH  30  33
HETATM   33  O2  UNL     1      -9.065  49.715 -17.317  1.00  0.00    -0.388 OA
HETATM   34  H17 UNL     1      -8.784  50.197 -18.117  1.00  0.00     0.210 HD
ENDBRANCH  30  33
ENDBRANCH  27  30
ENDBRANCH  26  27
ENDBRANCH  25  26
ENDBRANCH  23  25
ENDBRANCH   1  23
BRANCH   4  35
HETATM   35  C13 UNL     1      -2.018  48.178 -21.863  1.00  0.00     0.149 C 
HETATM   36  O3  UNL     1      -1.035  48.748 -21.415  1.00  0.00    -0.649 OA
BRANCH  35  37
HETATM   37  O4  UNL     1      -1.936  46.847 -22.046  1.00  0.00    -0.776 OA
HETATM   38  H23 UNL     1      -1.037  46.625 -21.724  1.00  0.00     0.167 HD
ENDBRANCH  35  37
ENDBRANCH   4  35
TORSDOF 9
ENDMDL
MODEL 4
REMARK minimizedAffinity -8.96800995
REMARK  9 active torsions:
REMARK  status: ('A' for Active; 'I' for Inactive)
REMARK    1  A    between atoms: C2_2  and  C3_3 
REMARK    2  A    between atoms: C2_2  and  C9_11 
REMARK    3  A    between atoms: C3_3  and  C4_4 
REMARK    4  A    between atoms: C4_4  and  C5_5 
REMARK    5  A    between atoms: C5_5  and  O1_6 
REMARK    6  A    between atoms: C5_5  and  C6_7 
REMARK    7  A    between atoms: C6_7  and  O2_10 
REMARK    8  A    between atoms: C12_14  and  C13_15 
REMARK    9  A    between atoms: C13_15  and  O4_17 
ROOT
HETATM    1  C9  UNL     1      -0.127  51.747 -21.301  1.00  0.00    -0.001 C 
HETATM    2  C10 UNL     1       0.016  51.691 -22.842  1.00  0.00     0.007 C 
HETATM    3  C11 UNL     1      -1.000  50.650 -23.338  1.00  0.00     0.022 C 
HETATM    4  C12 UNL     1      -2.157  50.754 -22.322  1.00  0.00     0.057 C 
HETATM    5  C14 UNL     1      -3.102  49.528 -22.298  1.00  0.00     0.014 C 
HETATM    6  C15 UNL     1      -4.001  49.423 -23.540  1.00  0.00     0.007 C 
HETATM    7  C16 UNL     1      -4.878  48.175 -23.474  1.00  0.00     0.007 C 
HETATM    8  C17 UNL     1      -5.913  48.317 -22.348  1.00  0.00     0.010 C 
HETATM    9  C18 UNL     1      -6.884  47.102 -22.198  1.00  0.00     0.018 C 
HETATM   10  C19 UNL     1      -6.163  45.756 -22.007  1.00  0.00     0.023 C 
HETATM   11  C20 UNL     1      -7.809  47.003 -23.425  1.00  0.00     0.023 C 
HETATM   12  C21 UNL     1      -7.785  47.321 -20.973  1.00  0.00     0.135 C 
HETATM   13  O5  UNL     1      -8.547  46.447 -20.555  1.00  0.00    -0.297 OA
HETATM   14  C22 UNL     1      -7.763  48.687 -20.335  1.00  0.00     0.080 C 
HETATM   15  C23 UNL     1      -6.342  49.066 -19.942  1.00  0.00     0.018 C 
HETATM   16  C24 UNL     1      -5.294  48.703 -20.998  1.00  0.00    -0.026 A 
HETATM   17  C25 UNL     1      -4.079  47.969 -20.489  1.00  0.00     0.021 A 
HETATM   18  C26 UNL     1      -3.899  49.398 -20.970  1.00  0.00    -0.027 A 
HETATM   19  C27 UNL     1      -3.654  50.452 -19.871  1.00  0.00     0.011 C 
HETATM   20  C28 UNL     1      -2.298  51.184 -19.829  1.00  0.00     0.012 C 
HETATM   21  C29 UNL     1      -1.358  50.826 -20.979  1.00  0.00    -0.022 C 
HETATM   22  C30 UNL     1      -0.715  49.448 -20.562  1.00  0.00     0.017 C 
ENDROOT
BRANCH   1  23
HETATM   23  C2  UNL     1      -0.013  53.162 -20.661  1.00  0.00    -0.014 C 
HETATM   24  C1  UNL     1       1.291  53.914 -20.938  1.00  0.00     0.010 C 
BRANCH  23  25
HETATM   25  C3  UNL     1      -0.243  53.052 -19.127  1.00  0.00     0.007 C 
BRANCH  25  26
HETATM   26  C4  UNL     1       0.996  52.584 -18.348  1.00  0.00     0.035 C 
BRANCH  26  27
HETATM   27  C5  UNL     1       0.612  51.820 -17.072  1.00  0.00     0.151 C 
BRANCH  27  28
HETATM   28  O1  UNL     1       0.475  50.428 -17.403  1.00  0.00    -0.393 OA
HETATM   29  H10 UNL     1      -0.046  50.038 -16.678  1.00  0.00     0.210 HD
ENDBRANCH  27  28
BRANCH  27  30
HETATM   30  C6  UNL     1       1.622  51.958 -15.901  1.00  0.00     0.076 C 
HETATM   31  C7  UNL     1       2.998  52.411 -16.395  1.00  0.00     0.048 C 
HETATM   32  C8  UNL     1       1.762  50.681 -15.065  1.00  0.00     0.048 C 
BRANCH  30  33
HETATM   33  O2  UNL     1       1.132  53.001 -15.034  1.00  0.00    -0.388 OA
HETATM   34  H17 UNL     1       0.434  52.603 -14.483  1.00  0.00     0.210 HD
ENDBRANCH  30  33
ENDBRANCH  27  30
ENDBRANCH  26  27
ENDBRANCH  25  26
ENDBRANCH  23  25
ENDBRANCH   1  23
BRANCH   4  35
HETATM   35  C13 UNL     1      -3.015  52.008 -22.632  1.00  0.00     0.149 C 
HETATM   36  O3  UNL     1      -4.059  52.344 -22.095  1.00  0.00    -0.649 OA
BRANCH  35  37
HETATM   37  O4  UNL     1      -2.568  52.765 -23.652  1.00  0.00    -0.776 OA
HETATM   38  H23 UNL     1      -3.230  53.485 -23.712  1.00  0.00     0.167 HD
ENDBRANCH  35  37
ENDBRANCH   4  35
TORSDOF 9
ENDMDL
MODEL 5
REMARK minimizedAffinity -8.95475006
REMARK  9 active torsions:
REMARK  status: ('A' for Active; 'I' for Inactive)
REMARK    1  A    between atoms: C2_2  and  C3_3 
REMARK    2  A    between atoms: C2_2  and  C9_11 
REMARK    3  A    between atoms: C3_3  and  C4_4 
REMARK    4  A    between atoms: C4_4  and  C5_5 
REMARK    5  A    between atoms: C5_5  and  O1_6 
REMARK    6  A    between atoms: C5_5  and  C6_7 
REMARK    7  A    between atoms: C6_7  and  O2_10 
REMARK    8  A    between atoms: C12_14  and  C13_15 
REMARK    9  A    between atoms: C13_15  and  O4_17 
ROOT
HETATM    1  C9  UNL     1      -4.980  48.672 -20.530  1.00  0.00    -0.001 C 
HETATM    2  C10 UNL     1      -5.107  47.418 -21.428  1.00  0.00     0.007 C 
HETATM    3  C11 UNL     1      -4.605  47.825 -22.822  1.00  0.00     0.022 C 
HETATM    4  C12 UNL     1      -3.526  48.889 -22.527  1.00  0.00     0.057 C 
HETATM    5  C14 UNL     1      -3.175  49.797 -23.730  1.00  0.00     0.014 C 
HETATM    6  C15 UNL     1      -2.379  49.077 -24.830  1.00  0.00     0.007 C 
HETATM    7  C16 UNL     1      -2.099  50.014 -26.002  1.00  0.00     0.007 C 
HETATM    8  C17 UNL     1      -1.117  51.115 -25.574  1.00  0.00     0.010 C 
HETATM    9  C18 UNL     1      -0.739  52.126 -26.705  1.00  0.00     0.018 C 
HETATM   10  C19 UNL     1      -1.956  52.807 -27.355  1.00  0.00     0.023 C 
HETATM   11  C20 UNL     1       0.082  51.421 -27.799  1.00  0.00     0.023 C 
HETATM   12  C21 UNL     1       0.151  53.232 -26.117  1.00  0.00     0.135 C 
HETATM   13  O5  UNL     1       0.475  54.227 -26.769  1.00  0.00    -0.297 OA
HETATM   14  C22 UNL     1       0.686  53.022 -24.724  1.00  0.00     0.080 C 
HETATM   15  C23 UNL     1      -0.457  52.776 -23.748  1.00  0.00     0.018 C 
HETATM   16  C24 UNL     1      -1.543  51.846 -24.295  1.00  0.00    -0.026 A 
HETATM   17  C25 UNL     1      -2.962  52.335 -24.144  1.00  0.00     0.021 A 
HETATM   18  C26 UNL     1      -2.525  51.145 -23.308  1.00  0.00    -0.027 A 
HETATM   19  C27 UNL     1      -2.330  51.415 -21.802  1.00  0.00     0.011 C 
HETATM   20  C28 UNL     1      -3.262  50.717 -20.792  1.00  0.00     0.012 C 
HETATM   21  C29 UNL     1      -4.247  49.734 -21.425  1.00  0.00    -0.022 C 
HETATM   22  C30 UNL     1      -5.410  50.636 -21.992  1.00  0.00     0.017 C 
ENDROOT
BRANCH   1  23
HETATM   23  C2  UNL     1      -4.508  48.414 -19.068  1.00  0.00    -0.014 C 
HETATM   24  C1  UNL     1      -5.594  47.960 -18.089  1.00  0.00     0.010 C 
BRANCH  23  25
HETATM   25  C3  UNL     1      -3.806  49.689 -18.521  1.00  0.00     0.007 C 
BRANCH  25  26
HETATM   26  C4  UNL     1      -3.174  49.500 -17.133  1.00  0.00     0.035 C 
BRANCH  26  27
HETATM   27  C5  UNL     1      -2.033  50.498 -16.885  1.00  0.00     0.151 C 
BRANCH  27  28
HETATM   28  O1  UNL     1      -1.989  50.793 -15.480  1.00  0.00    -0.393 OA
HETATM   29  H10 UNL     1      -1.484  51.624 -15.404  1.00  0.00     0.210 HD
ENDBRANCH  27  28
BRANCH  27  30
HETATM   30  C6  UNL     1      -0.630  50.009 -17.337  1.00  0.00     0.076 C 
HETATM   31  C7  UNL     1       0.437  50.306 -16.281  1.00  0.00     0.048 C 
HETATM   32  C8  UNL     1      -0.196  50.577 -18.693  1.00  0.00     0.048 C 
BRANCH  30  33
HETATM   33  O2  UNL     1      -0.697  48.573 -17.461  1.00  0.00    -0.388 OA
HETATM   34  H17 UNL     1      -1.121  48.386 -18.319  1.00  0.00     0.210 HD
ENDBRANCH  30  33
ENDBRANCH  27  30
ENDBRANCH  26  27
ENDBRANCH  25  26
ENDBRANCH  23  25
ENDBRANCH   1  23
BRANCH   4  35
HETATM   35  C13 UNL     1      -2.221  48.194 -22.060  1.00  0.00     0.149 C 
HETATM   36  O3  UNL     1      -2.035  46.999 -21.895  1.00  0.00    -0.649 OA
BRANCH  35  37
HETATM   37  O4  UNL     1      -1.211  49.030 -21.753  1.00  0.00    -0.776 OA
HETATM   38  H23 UNL     1      -0.492  48.427 -21.468  1.00  0.00     0.167 HD
ENDBRANCH  35  37
ENDBRANCH   4  35
TORSDOF 9
ENDMDL
MODEL 6
REMARK minimizedAffinity -8.87014866
REMARK  9 active torsions:
REMARK  status: ('A' for Active; 'I' for Inactive)
REMARK    1  A    between atoms: C2_2  and  C3_3 
REMARK    2  A    between atoms: C2_2  and  C9_11 
REMARK    3  A    between atoms: C3_3  and  C4_4 
REMARK    4  A    between atoms: C4_4  and  C5_5 
REMARK    5  A    between atoms: C5_5  and  O1_6 
REMARK    6  A    between atoms: C5_5  and  C6_7 
REMARK    7  A    between atoms: C6_7  and  O2_10 
REMARK    8  A    between atoms: C12_14  and  C13_15 
REMARK    9  A    between atoms: C13_15  and  O4_17 
ROOT
HETATM    1  C9  UNL     1      -2.513  50.115 -23.560  1.00  0.00    -0.001 C 
HETATM    2  C10 UNL     1      -3.121  49.812 -24.951  1.00  0.00     0.007 C 
HETATM    3  C11 UNL     1      -4.363  48.942 -24.705  1.00  0.00     0.022 C 
HETATM    4  C12 UNL     1      -4.885  49.426 -23.335  1.00  0.00     0.057 C 
HETATM    5  C14 UNL     1      -5.841  48.436 -22.626  1.00  0.00     0.014 C 
HETATM    6  C15 UNL     1      -7.225  48.342 -23.288  1.00  0.00     0.007 C 
HETATM    7  C16 UNL     1      -8.105  47.323 -22.568  1.00  0.00     0.007 C 
HETATM    8  C17 UNL     1      -8.462  47.835 -21.164  1.00  0.00     0.010 C 
HETATM    9  C18 UNL     1      -9.382  46.879 -20.337  1.00  0.00     0.018 C 
HETATM   10  C19 UNL     1      -8.818  45.456 -20.189  1.00  0.00     0.023 C 
HETATM   11  C20 UNL     1     -10.780  46.798 -20.976  1.00  0.00     0.023 C 
HETATM   12  C21 UNL     1      -9.567  47.453 -18.923  1.00  0.00     0.135 C 
HETATM   13  O5  UNL     1     -10.137  46.823 -18.031  1.00  0.00    -0.297 OA
HETATM   14  C22 UNL     1      -9.088  48.861 -18.681  1.00  0.00     0.080 C 
HETATM   15  C23 UNL     1      -7.617  48.993 -19.048  1.00  0.00     0.018 C 
HETATM   16  C24 UNL     1      -7.240  48.274 -20.347  1.00  0.00    -0.026 A 
HETATM   17  C25 UNL     1      -6.023  47.386 -20.276  1.00  0.00     0.021 A 
HETATM   18  C26 UNL     1      -5.927  48.664 -21.091  1.00  0.00    -0.027 A 
HETATM   19  C27 UNL     1      -5.073  49.791 -20.476  1.00  0.00     0.011 C 
HETATM   20  C28 UNL     1      -3.782  50.227 -21.199  1.00  0.00     0.012 C 
HETATM   21  C29 UNL     1      -3.544  49.522 -22.533  1.00  0.00    -0.022 C 
HETATM   22  C30 UNL     1      -2.945  48.116 -22.147  1.00  0.00     0.017 C 
ENDROOT
BRANCH   1  23
HETATM   23  C2  UNL     1      -1.947  51.553 -23.367  1.00  0.00    -0.014 C 
HETATM   24  C1  UNL     1      -2.651  52.657 -24.160  1.00  0.00     0.010 C 
BRANCH  23  25
HETATM   25  C3  UNL     1      -0.427  51.556 -23.693  1.00  0.00     0.007 C 
BRANCH  25  26
HETATM   26  C4  UNL     1       0.087  52.900 -24.234  1.00  0.00     0.035 C 
BRANCH  26  27
HETATM   27  C5  UNL     1      -0.148  53.033 -25.746  1.00  0.00     0.151 C 
BRANCH  27  28
HETATM   28  O1  UNL     1       0.120  54.392 -26.127  1.00  0.00    -0.393 OA
HETATM   29  H10 UNL     1      -0.316  54.511 -26.991  1.00  0.00     0.210 HD
ENDBRANCH  27  28
BRANCH  27  30
HETATM   30  C6  UNL     1       0.717  52.088 -26.624  1.00  0.00     0.076 C 
HETATM   31  C7  UNL     1       0.642  52.470 -28.104  1.00  0.00     0.048 C 
HETATM   32  C8  UNL     1       0.367  50.606 -26.449  1.00  0.00     0.048 C 
BRANCH  30  33
HETATM   33  O2  UNL     1       2.090  52.268 -26.222  1.00  0.00    -0.388 OA
HETATM   34  H17 UNL     1       2.214  51.746 -25.407  1.00  0.00     0.210 HD
ENDBRANCH  30  33
ENDBRANCH  27  30
ENDBRANCH  26  27
ENDBRANCH  25  26
ENDBRANCH  23  25
ENDBRANCH   1  23
BRANCH   4  35
HETATM   35  C13 UNL     1      -5.635  50.771 -23.506  1.00  0.00     0.149 C 
HETATM   36  O3  UNL     1      -5.270  51.749 -24.140  1.00  0.00    -0.649 OA
BRANCH  35  37
HETATM   37  O4  UNL     1      -6.790  50.869 -22.821  1.00  0.00    -0.776 OA
HETATM   38  H23 UNL     1      -7.107  51.772 -23.032  1.00  0.00     0.167 HD
ENDBRANCH  35  37
ENDBRANCH   4  35
TORSDOF 9
ENDMDL
MODEL 7
REMARK minimizedAffinity -8.81418514
REMARK  9 active torsions:
REMARK  status: ('A' for Active; 'I' for Inactive)
REMARK    1  A    between atoms: C2_2  and  C3_3 
REMARK    2  A    between atoms: C2_2  and  C9_11 
REMARK    3  A    between atoms: C3_3  and  C4_4 
REMARK    4  A    between atoms: C4_4  and  C5_5 
REMARK    5  A    between atoms: C5_5  and  O1_6 
REMARK    6  A    between atoms: C5_5  and  C6_7 
REMARK    7  A    between atoms: C6_7  and  O2_10 
REMARK    8  A    between atoms: C12_14  and  C13_15 
REMARK    9  A    between atoms: C13_15  and  O4_17 
ROOT
HETATM    1  C9  UNL     1      -2.273  51.593 -22.064  1.00  0.00    -0.001 C 
HETATM    2  C10 UNL     1      -1.382  50.385 -21.688  1.00  0.00     0.007 C 
HETATM    3  C11 UNL     1      -2.334  49.212 -21.404  1.00  0.00     0.022 C 
HETATM    4  C12 UNL     1      -3.530  49.474 -22.345  1.00  0.00     0.057 C 
HETATM    5  C14 UNL     1      -4.827  48.726 -21.957  1.00  0.00     0.014 C 
HETATM    6  C15 UNL     1      -4.762  47.211 -22.217  1.00  0.00     0.007 C 
HETATM    7  C16 UNL     1      -6.054  46.527 -21.777  1.00  0.00     0.007 C 
HETATM    8  C17 UNL     1      -7.213  46.953 -22.692  1.00  0.00     0.010 C 
HETATM    9  C18 UNL     1      -8.589  46.295 -22.349  1.00  0.00     0.018 C 
HETATM   10  C19 UNL     1      -9.032  46.518 -20.893  1.00  0.00     0.023 C 
HETATM   11  C20 UNL     1      -8.544  44.783 -22.631  1.00  0.00     0.023 C 
HETATM   12  C21 UNL     1      -9.675  46.890 -23.259  1.00  0.00     0.135 C 
HETATM   13  O5  UNL     1     -10.871  46.640 -23.100  1.00  0.00    -0.297 OA
HETATM   14  C22 UNL     1      -9.217  47.740 -24.417  1.00  0.00     0.080 C 
HETATM   15  C23 UNL     1      -8.345  48.885 -23.922  1.00  0.00     0.018 C 
HETATM   16  C24 UNL     1      -7.345  48.474 -22.838  1.00  0.00    -0.026 A 
HETATM   17  C25 UNL     1      -7.306  49.354 -21.614  1.00  0.00     0.021 A 
HETATM   18  C26 UNL     1      -6.109  49.378 -22.548  1.00  0.00    -0.027 A 
HETATM   19  C27 UNL     1      -5.945  50.652 -23.401  1.00  0.00     0.011 C 
HETATM   20  C28 UNL     1      -4.719  51.556 -23.165  1.00  0.00     0.012 C 
HETATM   21  C29 UNL     1      -3.730  51.012 -22.135  1.00  0.00    -0.022 C 
HETATM   22  C30 UNL     1      -4.363  51.374 -20.736  1.00  0.00     0.017 C 
ENDROOT
BRANCH   1  23
HETATM   23  C2  UNL     1      -1.732  52.505 -23.206  1.00  0.00    -0.014 C 
HETATM   24  C1  UNL     1      -2.577  52.546 -24.481  1.00  0.00     0.010 C 
BRANCH  23  25
HETATM   25  C3  UNL     1      -0.275  52.085 -23.552  1.00  0.00     0.007 C 
BRANCH  25  26
HETATM   26  C4  UNL     1       0.503  53.149 -24.344  1.00  0.00     0.035 C 
BRANCH  26  27
HETATM   27  C5  UNL     1       0.037  53.225 -25.805  1.00  0.00     0.151 C 
BRANCH  27  28
HETATM   28  O1  UNL     1       0.250  54.566 -26.277  1.00  0.00    -0.393 OA
HETATM   29  H10 UNL     1      -0.314  54.656 -27.067  1.00  0.00     0.210 HD
ENDBRANCH  27  28
BRANCH  27  30
HETATM   30  C6  UNL     1       0.750  52.237 -26.768  1.00  0.00     0.076 C 
HETATM   31  C7  UNL     1       0.530  52.621 -28.233  1.00  0.00     0.048 C 
HETATM   32  C8  UNL     1       0.349  50.775 -26.545  1.00  0.00     0.048 C 
BRANCH  30  33
HETATM   33  O2  UNL     1       2.167  52.348 -26.522  1.00  0.00    -0.388 OA
HETATM   34  H17 UNL     1       2.355  51.822 -25.722  1.00  0.00     0.210 HD
ENDBRANCH  30  33
ENDBRANCH  27  30
ENDBRANCH  26  27
ENDBRANCH  25  26
ENDBRANCH  23  25
ENDBRANCH   1  23
BRANCH   4  35
HETATM   35  C13 UNL     1      -3.158  49.061 -23.792  1.00  0.00     0.149 C 
HETATM   36  O3  UNL     1      -2.117  49.295 -24.386  1.00  0.00    -0.649 OA
BRANCH  35  37
HETATM   37  O4  UNL     1      -4.132  48.425 -24.469  1.00  0.00    -0.776 OA
HETATM   38  H23 UNL     1      -3.730  48.261 -25.349  1.00  0.00     0.167 HD
ENDBRANCH  35  37
ENDBRANCH   4  35
TORSDOF 9
ENDMDL
MODEL 8
REMARK minimizedAffinity -8.75986862
REMARK  9 active torsions:
REMARK  status: ('A' for Active; 'I' for Inactive)
REMARK    1  A    between atoms: C2_2  and  C3_3 
REMARK    2  A    between atoms: C2_2  and  C9_11 
REMARK    3  A    between atoms: C3_3  and  C4_4 
REMARK    4  A    between atoms: C4_4  and  C5_5 
REMARK    5  A    between atoms: C5_5  and  O1_6 
REMARK    6  A    between atoms: C5_5  and  C6_7 
REMARK    7  A    between atoms: C6_7  and  O2_10 
REMARK    8  A    between atoms: C12_14  and  C13_15 
REMARK    9  A    between atoms: C13_15  and  O4_17 
ROOT
HETATM    1  C9  UNL     1      -1.481  50.350 -22.098  1.00  0.00    -0.001 C 
HETATM    2  C10 UNL     1      -2.879  49.696 -22.211  1.00  0.00     0.007 C 
HETATM    3  C11 UNL     1      -3.167  49.041 -20.851  1.00  0.00     0.022 C 
HETATM    4  C12 UNL     1      -2.433  49.951 -19.843  1.00  0.00     0.057 C 
HETATM    5  C14 UNL     1      -2.163  49.298 -18.466  1.00  0.00     0.014 C 
HETATM    6  C15 UNL     1      -3.431  49.121 -17.613  1.00  0.00     0.007 C 
HETATM    7  C16 UNL     1      -3.104  48.437 -16.288  1.00  0.00     0.007 C 
HETATM    8  C17 UNL     1      -2.261  49.370 -15.407  1.00  0.00     0.010 C 
HETATM    9  C18 UNL     1      -1.883  48.781 -14.009  1.00  0.00     0.018 C 
HETATM   10  C19 UNL     1      -1.159  47.426 -14.087  1.00  0.00     0.023 C 
HETATM   11  C20 UNL     1      -3.141  48.626 -13.137  1.00  0.00     0.023 C 
HETATM   12  C21 UNL     1      -0.950  49.763 -13.282  1.00  0.00     0.135 C 
HETATM   13  O5  UNL     1      -0.398  49.475 -12.218  1.00  0.00    -0.297 OA
HETATM   14  C22 UNL     1      -0.790  51.137 -13.881  1.00  0.00     0.080 C 
HETATM   15  C23 UNL     1      -0.323  51.035 -15.326  1.00  0.00     0.018 C 
HETATM   16  C24 UNL     1      -1.027  49.934 -16.124  1.00  0.00    -0.026 A 
HETATM   17  C25 UNL     1      -0.126  49.013 -16.909  1.00  0.00     0.021 A 
HETATM   18  C26 UNL     1      -1.007  49.979 -17.682  1.00  0.00    -0.027 A 
HETATM   19  C27 UNL     1      -0.281  51.166 -18.348  1.00  0.00     0.011 C 
HETATM   20  C28 UNL     1      -0.265  51.262 -19.886  1.00  0.00     0.012 C 
HETATM   21  C29 UNL     1      -1.076  50.175 -20.590  1.00  0.00    -0.022 C 
HETATM   22  C30 UNL     1      -0.142  48.904 -20.582  1.00  0.00     0.017 C 
ENDROOT
BRANCH   1  23
HETATM   23  C2  UNL     1      -1.320  51.731 -22.801  1.00  0.00    -0.014 C 
HETATM   24  C1  UNL     1      -2.588  52.306 -23.435  1.00  0.00     0.010 C 
BRANCH  23  25
HETATM   25  C3  UNL     1      -0.193  51.636 -23.868  1.00  0.00     0.007 C 
BRANCH  25  26
HETATM   26  C4  UNL     1       0.295  53.003 -24.375  1.00  0.00     0.035 C 
BRANCH  26  27
HETATM   27  C5  UNL     1      -0.142  53.262 -25.825  1.00  0.00     0.151 C 
BRANCH  27  28
HETATM   28  O1  UNL     1       0.123  54.639 -26.137  1.00  0.00    -0.393 OA
HETATM   29  H10 UNL     1      -0.424  54.839 -26.919  1.00  0.00     0.210 HD
ENDBRANCH  27  28
BRANCH  27  30
HETATM   30  C6  UNL     1       0.554  52.366 -26.885  1.00  0.00     0.076 C 
HETATM   31  C7  UNL     1       0.383  52.929 -28.297  1.00  0.00     0.048 C 
HETATM   32  C8  UNL     1       0.091  50.905 -26.844  1.00  0.00     0.048 C 
BRANCH  30  33
HETATM   33  O2  UNL     1       1.968  52.388 -26.601  1.00  0.00    -0.388 OA
HETATM   34  H17 UNL     1       2.117  51.764 -25.867  1.00  0.00     0.210 HD
ENDBRANCH  30  33
ENDBRANCH  27  30
ENDBRANCH  26  27
ENDBRANCH  25  26
ENDBRANCH  23  25
ENDBRANCH   1  23
BRANCH   4  35
HETATM   35  C13 UNL     1      -3.260  51.240 -19.603  1.00  0.00     0.149 C 
HETATM   36  O3  UNL     1      -3.040  52.121 -18.787  1.00  0.00    -0.649 OA
BRANCH  35  37
HETATM   37  O4  UNL     1      -4.374  51.348 -20.352  1.00  0.00    -0.776 OA
HETATM   38  H23 UNL     1      -4.767  52.197 -20.057  1.00  0.00     0.167 HD
ENDBRANCH  35  37
ENDBRANCH   4  35
TORSDOF 9
ENDMDL
MODEL 9
REMARK minimizedAffinity -8.74096298
REMARK  9 active torsions:
REMARK  status: ('A' for Active; 'I' for Inactive)
REMARK    1  A    between atoms: C2_2  and  C3_3 
REMARK    2  A    between atoms: C2_2  and  C9_11 
REMARK    3  A    between atoms: C3_3  and  C4_4 
REMARK    4  A    between atoms: C4_4  and  C5_5 
REMARK    5  A    between atoms: C5_5  and  O1_6 
REMARK    6  A    between atoms: C5_5  and  C6_7 
REMARK    7  A    between atoms: C6_7  and  O2_10 
REMARK    8  A    between atoms: C12_14  and  C13_15 
REMARK    9  A    between atoms: C13_15  and  O4_17 
ROOT
HETATM    1  C9  UNL     1      -1.543  49.157 -17.633  1.00  0.00    -0.001 C 
HETATM    2  C10 UNL     1      -0.234  49.924 -17.329  1.00  0.00     0.007 C 
HETATM    3  C11 UNL     1       0.300  50.429 -18.679  1.00  0.00     0.022 C 
HETATM    4  C12 UNL     1      -0.977  50.675 -19.510  1.00  0.00     0.057 C 
HETATM    5  C14 UNL     1      -0.744  50.747 -21.038  1.00  0.00     0.014 C 
HETATM    6  C15 UNL     1      -0.023  52.028 -21.489  1.00  0.00     0.007 C 
HETATM    7  C16 UNL     1       0.212  52.019 -22.997  1.00  0.00     0.007 C 
HETATM    8  C17 UNL     1      -1.128  52.136 -23.739  1.00  0.00     0.010 C 
HETATM    9  C18 UNL     1      -1.010  52.159 -25.298  1.00  0.00     0.018 C 
HETATM   10  C19 UNL     1      -0.255  50.950 -25.877  1.00  0.00     0.023 C 
HETATM   11  C20 UNL     1      -0.314  53.451 -25.762  1.00  0.00     0.023 C 
HETATM   12  C21 UNL     1      -2.419  52.162 -25.912  1.00  0.00     0.135 C 
HETATM   13  O5  UNL     1      -2.604  52.042 -27.125  1.00  0.00    -0.297 OA
HETATM   14  C22 UNL     1      -3.579  52.397 -24.979  1.00  0.00     0.080 C 
HETATM   15  C23 UNL     1      -3.566  51.377 -23.849  1.00  0.00     0.018 C 
HETATM   16  C24 UNL     1      -2.172  51.111 -23.276  1.00  0.00    -0.026 A 
HETATM   17  C25 UNL     1      -1.788  49.659 -23.132  1.00  0.00     0.021 A 
HETATM   18  C26 UNL     1      -2.028  50.463 -21.866  1.00  0.00    -0.027 A 
HETATM   19  C27 UNL     1      -3.327  50.139 -21.100  1.00  0.00     0.011 C 
HETATM   20  C28 UNL     1      -3.227  49.525 -19.689  1.00  0.00     0.012 C 
HETATM   21  C29 UNL     1      -1.798  49.388 -19.166  1.00  0.00    -0.022 C 
HETATM   22  C30 UNL     1      -1.237  48.087 -19.856  1.00  0.00     0.017 C 
ENDROOT
BRANCH   1  23
HETATM   23  C2  UNL     1      -2.697  49.350 -16.605  1.00  0.00    -0.014 C 
HETATM   24  C1  UNL     1      -4.114  49.176 -17.154  1.00  0.00     0.010 C 
BRANCH  23  25
HETATM   25  C3  UNL     1      -2.559  50.745 -15.933  1.00  0.00     0.007 C 
BRANCH  25  26
HETATM   26  C4  UNL     1      -3.126  50.803 -14.505  1.00  0.00     0.035 C 
BRANCH  26  27
HETATM   27  C5  UNL     1      -2.948  52.193 -13.878  1.00  0.00     0.151 C 
BRANCH  27  28
HETATM   28  O1  UNL     1      -4.090  52.994 -14.223  1.00  0.00    -0.393 OA
HETATM   29  H10 UNL     1      -3.813  53.918 -14.079  1.00  0.00     0.210 HD
ENDBRANCH  27  28
BRANCH  27  30
HETATM   30  C6  UNL     1      -2.785  52.194 -12.333  1.00  0.00     0.076 C 
HETATM   31  C7  UNL     1      -2.626  50.775 -11.783  1.00  0.00     0.048 C 
HETATM   32  C8  UNL     1      -3.925  52.913 -11.603  1.00  0.00     0.048 C 
BRANCH  30  33
HETATM   33  O2  UNL     1      -1.559  52.892 -12.033  1.00  0.00    -0.388 OA
HETATM   34  H17 UNL     1      -1.759  53.845 -12.087  1.00  0.00     0.210 HD
ENDBRANCH  30  33
ENDBRANCH  27  30
ENDBRANCH  26  27
ENDBRANCH  25  26
ENDBRANCH  23  25
ENDBRANCH   1  23
BRANCH   4  35
HETATM   35  C13 UNL     1      -1.641  52.005 -19.068  1.00  0.00     0.149 C 
HETATM   36  O3  UNL     1      -1.085  53.059 -18.803  1.00  0.00    -0.649 OA
BRANCH  35  37
HETATM   37  O4  UNL     1      -2.977  51.948 -18.912  1.00  0.00    -0.776 OA
HETATM   38  H23 UNL     1      -3.212  52.855 -18.620  1.00  0.00     0.167 HD
ENDBRANCH  35  37
ENDBRANCH   4  35
TORSDOF 9
ENDMDL
