MODEL 1
REMARK minimizedAffinity -8.84274483
REMARK CNNscore 0.723562777
REMARK CNNaffinity 7.66394043
REMARK  19 active torsions:
REMARK  status: ('A' for Active; 'I' for Inactive)
REMARK    1  A    between atoms: C2_2  and  C3_3 
REMARK    2  A    between atoms: C3_3  and  C5_5 
REMARK    3  A    between atoms: C5_5  and  N1_6 
REMARK    4  A    between atoms: C5_5  and  C37_46 
REMARK       I    between atoms: N1_6  and  C6_7 
REMARK    5  A    between atoms: C6_7  and  C7_9 
REMARK    6  A    between atoms: C7_9  and  C8_10 
REMARK    7  A    between atoms: C8_10  and  C9_11 
REMARK    8  A    between atoms: C9_11  and  C10_12 
REMARK    9  A    between atoms: C10_12  and  C11_13 
REMARK   10  A    between atoms: C11_13  and  N2_14 
REMARK       I    between atoms: N2_14  and  C12_15 
REMARK   11  A    between atoms: C12_15  and  C13_17 
REMARK   12  A    between atoms: C13_17  and  C14_18 
REMARK   13  A    between atoms: C14_18  and  C15_19 
REMARK   14  A    between atoms: C15_19  and  O4_21 
REMARK   15  A    between atoms: O4_21  and  C16_22 
REMARK   16  A    between atoms: C16_22  and  C17_23 
REMARK   17  A    between atoms: C17_23  and  C18_25 
REMARK   18  A    between atoms: C18_25  and  O6_26 
REMARK   19  A    between atoms: C37_46  and  O9_48 
ROOT
HETATM    1  C15 UNL     1       1.209  54.014 -21.853  1.00  0.00     0.259 C 
HETATM    2  O3  UNL     1       2.172  54.762 -21.748  1.00  0.00    -0.265 OA
ENDROOT
BRANCH   1   3
HETATM    3  C14 UNL     1       0.933  52.861 -20.917  1.00  0.00     0.120 C 
BRANCH   3   4
HETATM    4  C13 UNL     1      -0.025  53.192 -19.774  1.00  0.00     0.112 C 
BRANCH   4   5
HETATM    5  C12 UNL     1       0.359  52.493 -18.484  1.00  0.00     0.217 C 
HETATM    6  N2  UNL     1       1.514  52.989 -17.911  1.00  0.00    -0.361 N 
HETATM    7  H22 UNL     1       1.816  53.914 -18.193  1.00  0.00     0.162 HD
HETATM    8  O2  UNL     1      -0.278  51.558 -18.013  1.00  0.00    -0.274 OA
BRANCH   6   9
HETATM    9  C11 UNL     1       1.911  52.536 -16.591  1.00  0.00     0.122 C 
BRANCH   9  10
HETATM   10  C10 UNL     1       3.422  52.370 -16.438  1.00  0.00     0.020 C 
BRANCH  10  11
HETATM   11  C9  UNL     1       3.859  51.639 -15.164  1.00  0.00     0.002 C 
BRANCH  11  12
HETATM   12  C8  UNL     1       3.071  52.029 -13.908  1.00  0.00     0.009 C 
BRANCH  12  13
HETATM   13  C7  UNL     1       2.463  50.807 -13.212  1.00  0.00     0.103 C 
BRANCH  13  14
HETATM   14  C6  UNL     1       1.957  51.096 -11.809  1.00  0.00     0.218 C 
HETATM   15  N1  UNL     1       1.793  52.444 -11.567  1.00  0.00    -0.346 N 
HETATM   16  H11 UNL     1       1.663  53.027 -12.386  1.00  0.00     0.163 HD
HETATM   17  O1  UNL     1       1.703  50.224 -10.985  1.00  0.00    -0.274 OA
BRANCH  15  18
HETATM   18  C5  UNL     1       1.137  52.907 -10.335  1.00  0.00     0.186 C 
BRANCH  18  19
HETATM   19  C3  UNL     1       1.979  54.014  -9.649  1.00  0.00     0.014 C 
HETATM   20  C4  UNL     1       1.677  54.068  -8.146  1.00  0.00     0.012 C 
BRANCH  19  21
HETATM   21  C2  UNL     1       1.823  55.401 -10.314  1.00  0.00     0.002 C 
HETATM   22  C1  UNL     1       3.142  55.997 -10.794  1.00  0.00     0.005 C 
ENDBRANCH  19  21
ENDBRANCH  18  19
BRANCH  18  23
HETATM   23  C37 UNL     1      -0.279  53.368 -10.698  1.00  0.00     0.163 C 
HETATM   24  O8  UNL     1      -1.182  53.606  -9.910  1.00  0.00    -0.648 OA
BRANCH  23  25
HETATM   25  O9  UNL     1      -0.485  53.463 -12.027  1.00  0.00    -0.775 OA
HETATM   26  H56 UNL     1      -1.408  53.785 -12.106  1.00  0.00     0.167 HD
ENDBRANCH  23  25
ENDBRANCH  18  23
ENDBRANCH  15  18
ENDBRANCH  13  14
ENDBRANCH  12  13
ENDBRANCH  11  12
ENDBRANCH  10  11
ENDBRANCH   9  10
ENDBRANCH   6   9
ENDBRANCH   4   5
ENDBRANCH   3   4
ENDBRANCH   1   3
BRANCH   1  27
HETATM   27  O4  UNL     1       0.324  54.034 -22.882  1.00  0.00    -0.314 OA
BRANCH  27  28
HETATM   28  C16 UNL     1       0.832  53.543 -24.116  1.00  0.00     0.260 C 
BRANCH  28  29
HETATM   29  C17 UNL     1       0.073  53.772 -25.430  1.00  0.00     0.185 C 
HETATM   30  O5  UNL     1       0.154  54.868 -25.998  1.00  0.00    -0.292 OA
BRANCH  29  31
HETATM   31  C18 UNL     1      -0.889  52.666 -25.928  1.00  0.00     0.128 C 
HETATM   32  C19 UNL     1      -0.091  51.597 -26.725  1.00  0.00     0.047 C 
HETATM   33  C20 UNL     1      -0.810  50.255 -26.499  1.00  0.00     0.009 C 
HETATM   34  C21 UNL     1      -2.028  50.588 -25.631  1.00  0.00     0.002 C 
HETATM   35  C22 UNL     1      -2.619  49.435 -24.792  1.00  0.00    -0.004 C 
HETATM   36  C35 UNL     1      -1.570  51.809 -24.800  1.00  0.00    -0.002 C 
HETATM   37  C23 UNL     1      -3.263  48.376 -25.716  1.00  0.00     0.010 C 
HETATM   38  C32 UNL     1      -3.592  49.990 -23.680  1.00  0.00     0.002 C 
HETATM   39  C24 UNL     1      -4.750  48.614 -25.938  1.00  0.00     0.035 C 
HETATM   40  C25 UNL     1      -5.527  48.613 -24.646  1.00  0.00    -0.068 C 
HETATM   41  C26 UNL     1      -6.829  48.271 -24.653  1.00  0.00     0.053 C 
HETATM   42  C30 UNL     1      -4.789  49.015 -23.370  1.00  0.00    -0.016 C 
HETATM   43  C27 UNL     1      -7.652  48.277 -23.416  1.00  0.00     0.149 C 
HETATM   44  O7  UNL     1      -8.812  47.870 -23.465  1.00  0.00    -0.293 OA
HETATM   45  C28 UNL     1      -7.026  48.755 -22.127  1.00  0.00     0.084 C 
HETATM   46  C29 UNL     1      -5.824  49.657 -22.399  1.00  0.00     0.022 C 
HETATM   47  C31 UNL     1      -4.223  47.747 -22.670  1.00  0.00     0.020 C 
HETATM   48  C33 UNL     1      -4.000  51.458 -23.976  1.00  0.00     0.007 C 
HETATM   49  C34 UNL     1      -2.807  52.424 -24.110  1.00  0.00     0.013 C 
HETATM   50  C36 UNL     1      -0.551  51.408 -23.697  1.00  0.00     0.019 C 
BRANCH  31  51
HETATM   51  O6  UNL     1      -1.826  53.190 -26.874  1.00  0.00    -0.381 OA
HETATM   52  H29 UNL     1      -2.733  53.134 -26.526  1.00  0.00     0.211 HD
ENDBRANCH  31  51
ENDBRANCH  29  31
ENDBRANCH  28  29
ENDBRANCH  27  28
ENDBRANCH   1  27
TORSDOF 19
ENDMDL
MODEL 2
REMARK minimizedAffinity -8.04710865
REMARK CNNscore 0.623572707
REMARK CNNaffinity 7.2902813
REMARK  19 active torsions:
REMARK  status: ('A' for Active; 'I' for Inactive)
REMARK    1  A    between atoms: C2_2  and  C3_3 
REMARK    2  A    between atoms: C3_3  and  C5_5 
REMARK    3  A    between atoms: C5_5  and  N1_6 
REMARK    4  A    between atoms: C5_5  and  C37_46 
REMARK       I    between atoms: N1_6  and  C6_7 
REMARK    5  A    between atoms: C6_7  and  C7_9 
REMARK    6  A    between atoms: C7_9  and  C8_10 
REMARK    7  A    between atoms: C8_10  and  C9_11 
REMARK    8  A    between atoms: C9_11  and  C10_12 
REMARK    9  A    between atoms: C10_12  and  C11_13 
REMARK   10  A    between atoms: C11_13  and  N2_14 
REMARK       I    between atoms: N2_14  and  C12_15 
REMARK   11  A    between atoms: C12_15  and  C13_17 
REMARK   12  A    between atoms: C13_17  and  C14_18 
REMARK   13  A    between atoms: C14_18  and  C15_19 
REMARK   14  A    between atoms: C15_19  and  O4_21 
REMARK   15  A    between atoms: O4_21  and  C16_22 
REMARK   16  A    between atoms: C16_22  and  C17_23 
REMARK   17  A    between atoms: C17_23  and  C18_25 
REMARK   18  A    between atoms: C18_25  and  O6_26 
REMARK   19  A    between atoms: C37_46  and  O9_48 
ROOT
HETATM    1  C15 UNL     1       1.145  53.830 -22.035  1.00  0.00     0.259 C 
HETATM    2  O3  UNL     1       1.812  54.825 -21.782  1.00  0.00    -0.265 OA
ENDROOT
BRANCH   1   3
HETATM    3  C14 UNL     1       0.827  52.753 -21.025  1.00  0.00     0.120 C 
BRANCH   3   4
HETATM    4  C13 UNL     1       0.274  53.274 -19.700  1.00  0.00     0.112 C 
BRANCH   4   5
HETATM    5  C12 UNL     1       0.654  52.385 -18.531  1.00  0.00     0.217 C 
HETATM    6  N2  UNL     1       1.487  53.000 -17.618  1.00  0.00    -0.361 N 
HETATM    7  H22 UNL     1       1.520  54.012 -17.624  1.00  0.00     0.162 HD
HETATM    8  O2  UNL     1       0.281  51.222 -18.426  1.00  0.00    -0.274 OA
BRANCH   6   9
HETATM    9  C11 UNL     1       1.797  52.334 -16.368  1.00  0.00     0.122 C 
BRANCH   9  10
HETATM   10  C10 UNL     1       0.911  51.120 -16.094  1.00  0.00     0.020 C 
BRANCH  10  11
HETATM   11  C9  UNL     1      -0.007  51.259 -14.875  1.00  0.00     0.002 C 
BRANCH  11  12
HETATM   12  C8  UNL     1       0.362  52.412 -13.933  1.00  0.00     0.009 C 
BRANCH  12  13
HETATM   13  C7  UNL     1       0.992  51.908 -12.631  1.00  0.00     0.103 C 
BRANCH  13  14
HETATM   14  C6  UNL     1       0.212  52.300 -11.387  1.00  0.00     0.218 C 
HETATM   15  N1  UNL     1      -0.435  53.511 -11.522  1.00  0.00    -0.346 N 
HETATM   16  H11 UNL     1      -0.630  53.804 -12.472  1.00  0.00     0.163 HD
HETATM   17  O1  UNL     1       0.148  51.606 -10.379  1.00  0.00    -0.274 OA
BRANCH  15  18
HETATM   18  C5  UNL     1      -1.387  53.967 -10.498  1.00  0.00     0.186 C 
BRANCH  18  19
HETATM   19  C3  UNL     1      -2.623  53.032 -10.445  1.00  0.00     0.014 C 
HETATM   20  C4  UNL     1      -3.920  53.848 -10.532  1.00  0.00     0.012 C 
BRANCH  19  21
HETATM   21  C2  UNL     1      -2.623  52.087  -9.222  1.00  0.00     0.002 C 
HETATM   22  C1  UNL     1      -3.383  50.786  -9.459  1.00  0.00     0.005 C 
ENDBRANCH  19  21
ENDBRANCH  18  19
BRANCH  18  23
HETATM   23  C37 UNL     1      -0.640  54.051  -9.163  1.00  0.00     0.163 C 
HETATM   24  O8  UNL     1      -1.125  53.875  -8.054  1.00  0.00    -0.648 OA
BRANCH  23  25
HETATM   25  O9  UNL     1       0.658  54.388  -9.296  1.00  0.00    -0.775 OA
HETATM   26  H56 UNL     1       1.007  54.379  -8.380  1.00  0.00     0.167 HD
ENDBRANCH  23  25
ENDBRANCH  18  23
ENDBRANCH  15  18
ENDBRANCH  13  14
ENDBRANCH  12  13
ENDBRANCH  11  12
ENDBRANCH  10  11
ENDBRANCH   9  10
ENDBRANCH   6   9
ENDBRANCH   4   5
ENDBRANCH   3   4
ENDBRANCH   1   3
BRANCH   1  27
HETATM   27  O4  UNL     1       0.700  53.492 -23.272  1.00  0.00    -0.314 OA
BRANCH  27  28
HETATM   28  C16 UNL     1       0.482  52.101 -23.468  1.00  0.00     0.260 C 
BRANCH  28  29
HETATM   29  C17 UNL     1      -0.661  51.600 -24.362  1.00  0.00     0.185 C 
HETATM   30  O5  UNL     1      -0.433  51.322 -25.546  1.00  0.00    -0.292 OA
BRANCH  29  31
HETATM   31  C18 UNL     1      -2.098  51.595 -23.786  1.00  0.00     0.128 C 
HETATM   32  C19 UNL     1      -3.023  52.469 -24.678  1.00  0.00     0.047 C 
HETATM   33  C20 UNL     1      -4.426  51.840 -24.601  1.00  0.00     0.009 C 
HETATM   34  C21 UNL     1      -4.291  50.662 -23.631  1.00  0.00     0.002 C 
HETATM   35  C22 UNL     1      -5.332  49.529 -23.763  1.00  0.00    -0.004 C 
HETATM   36  C35 UNL     1      -2.825  50.202 -23.806  1.00  0.00    -0.002 C 
HETATM   37  C23 UNL     1      -6.730  50.035 -23.337  1.00  0.00     0.010 C 
HETATM   38  C32 UNL     1      -4.857  48.236 -22.993  1.00  0.00     0.002 C 
HETATM   39  C24 UNL     1      -7.029  49.770 -21.868  1.00  0.00     0.035 C 
HETATM   40  C25 UNL     1      -6.960  48.303 -21.528  1.00  0.00    -0.068 C 
HETATM   41  C26 UNL     1      -7.682  47.823 -20.498  1.00  0.00     0.053 C 
HETATM   42  C30 UNL     1      -6.051  47.415 -22.378  1.00  0.00    -0.016 C 
HETATM   43  C27 UNL     1      -7.635  46.393 -20.100  1.00  0.00     0.149 C 
HETATM   44  O7  UNL     1      -8.383  45.994 -19.209  1.00  0.00    -0.293 OA
HETATM   45  C28 UNL     1      -6.689  45.466 -20.825  1.00  0.00     0.084 C 
HETATM   46  C29 UNL     1      -5.550  46.244 -21.482  1.00  0.00     0.022 C 
HETATM   47  C31 UNL     1      -6.870  46.790 -23.543  1.00  0.00     0.020 C 
HETATM   48  C33 UNL     1      -3.708  48.565 -22.003  1.00  0.00     0.007 C 
HETATM   49  C34 UNL     1      -2.480  49.220 -22.665  1.00  0.00     0.013 C 
HETATM   50  C36 UNL     1      -2.608  49.466 -25.159  1.00  0.00     0.019 C 
BRANCH  31  51
HETATM   51  O6  UNL     1      -2.138  52.227 -22.503  1.00  0.00    -0.381 OA
HETATM   52  H29 UNL     1      -2.389  51.589 -21.813  1.00  0.00     0.211 HD
ENDBRANCH  31  51
ENDBRANCH  29  31
ENDBRANCH  28  29
ENDBRANCH  27  28
ENDBRANCH   1  27
TORSDOF 19
ENDMDL
MODEL 3
REMARK minimizedAffinity -8.10259342
REMARK CNNscore 0.563300669
REMARK CNNaffinity 7.18339729
REMARK  19 active torsions:
REMARK  status: ('A' for Active; 'I' for Inactive)
REMARK    1  A    between atoms: C2_2  and  C3_3 
REMARK    2  A    between atoms: C3_3  and  C5_5 
REMARK    3  A    between atoms: C5_5  and  N1_6 
REMARK    4  A    between atoms: C5_5  and  C37_46 
REMARK       I    between atoms: N1_6  and  C6_7 
REMARK    5  A    between atoms: C6_7  and  C7_9 
REMARK    6  A    between atoms: C7_9  and  C8_10 
REMARK    7  A    between atoms: C8_10  and  C9_11 
REMARK    8  A    between atoms: C9_11  and  C10_12 
REMARK    9  A    between atoms: C10_12  and  C11_13 
REMARK   10  A    between atoms: C11_13  and  N2_14 
REMARK       I    between atoms: N2_14  and  C12_15 
REMARK   11  A    between atoms: C12_15  and  C13_17 
REMARK   12  A    between atoms: C13_17  and  C14_18 
REMARK   13  A    between atoms: C14_18  and  C15_19 
REMARK   14  A    between atoms: C15_19  and  O4_21 
REMARK   15  A    between atoms: O4_21  and  C16_22 
REMARK   16  A    between atoms: C16_22  and  C17_23 
REMARK   17  A    between atoms: C17_23  and  C18_25 
REMARK   18  A    between atoms: C18_25  and  O6_26 
REMARK   19  A    between atoms: C37_46  and  O9_48 
ROOT
HETATM    1  C15 UNL     1       1.064  53.700 -21.637  1.00  0.00     0.259 C 
HETATM    2  O3  UNL     1       1.783  54.577 -21.179  1.00  0.00    -0.265 OA
ENDROOT
BRANCH   1   3
HETATM    3  C14 UNL     1       0.067  52.916 -20.816  1.00  0.00     0.120 C 
BRANCH   3   4
HETATM    4  C13 UNL     1      -0.055  53.376 -19.364  1.00  0.00     0.112 C 
BRANCH   4   5
HETATM    5  C12 UNL     1       0.601  52.407 -18.399  1.00  0.00     0.217 C 
HETATM    6  N2  UNL     1       1.565  52.991 -17.601  1.00  0.00    -0.361 N 
HETATM    7  H22 UNL     1       1.539  53.998 -17.499  1.00  0.00     0.162 HD
HETATM    8  O2  UNL     1       0.323  51.214 -18.356  1.00  0.00    -0.274 OA
BRANCH   6   9
HETATM    9  C11 UNL     1       2.156  52.229 -16.517  1.00  0.00     0.122 C 
BRANCH   9  10
HETATM   10  C10 UNL     1       1.296  52.206 -15.255  1.00  0.00     0.020 C 
BRANCH  10  11
HETATM   11  C9  UNL     1       0.949  50.805 -14.742  1.00  0.00     0.002 C 
BRANCH  11  12
HETATM   12  C8  UNL     1       1.434  50.516 -13.316  1.00  0.00     0.009 C 
BRANCH  12  13
HETATM   13  C7  UNL     1       2.356  51.621 -12.790  1.00  0.00     0.103 C 
BRANCH  13  14
HETATM   14  C6  UNL     1       1.826  52.314 -11.547  1.00  0.00     0.218 C 
HETATM   15  N1  UNL     1       1.546  53.649 -11.758  1.00  0.00    -0.346 N 
HETATM   16  H11 UNL     1       1.367  53.916 -12.719  1.00  0.00     0.163 HD
HETATM   17  O1  UNL     1       1.647  51.746 -10.476  1.00  0.00    -0.274 OA
BRANCH  15  18
HETATM   18  C5  UNL     1       0.852  54.438 -10.729  1.00  0.00     0.186 C 
BRANCH  18  19
HETATM   19  C3  UNL     1      -0.677  54.186 -10.785  1.00  0.00     0.014 C 
HETATM   20  C4  UNL     1      -1.441  55.368 -10.174  1.00  0.00     0.012 C 
BRANCH  19  21
HETATM   21  C2  UNL     1      -1.099  52.842 -10.149  1.00  0.00     0.002 C 
HETATM   22  C1  UNL     1      -2.421  52.915  -9.393  1.00  0.00     0.005 C 
ENDBRANCH  19  21
ENDBRANCH  18  19
BRANCH  18  23
HETATM   23  C37 UNL     1       1.469  54.090  -9.371  1.00  0.00     0.163 C 
HETATM   24  O8  UNL     1       0.856  53.762  -8.365  1.00  0.00    -0.648 OA
BRANCH  23  25
HETATM   25  O9  UNL     1       2.811  54.211  -9.346  1.00  0.00    -0.775 OA
HETATM   26  H56 UNL     1       3.063  53.938  -8.439  1.00  0.00     0.167 HD
ENDBRANCH  23  25
ENDBRANCH  18  23
ENDBRANCH  15  18
ENDBRANCH  13  14
ENDBRANCH  12  13
ENDBRANCH  11  12
ENDBRANCH  10  11
ENDBRANCH   9  10
ENDBRANCH   6   9
ENDBRANCH   4   5
ENDBRANCH   3   4
ENDBRANCH   1   3
BRANCH   1  27
HETATM   27  O4  UNL     1       1.138  53.224 -22.906  1.00  0.00    -0.314 OA
BRANCH  27  28
HETATM   28  C16 UNL     1       0.052  52.394 -23.297  1.00  0.00     0.260 C 
BRANCH  28  29
HETATM   29  C17 UNL     1      -0.847  52.776 -24.481  1.00  0.00     0.185 C 
HETATM   30  O5  UNL     1      -0.611  53.810 -25.118  1.00  0.00    -0.292 OA
BRANCH  29  31
HETATM   31  C18 UNL     1      -2.111  51.924 -24.751  1.00  0.00     0.128 C 
HETATM   32  C19 UNL     1      -1.816  50.888 -25.871  1.00  0.00     0.047 C 
HETATM   33  C20 UNL     1      -2.682  49.653 -25.563  1.00  0.00     0.009 C 
HETATM   34  C21 UNL     1      -3.492  50.025 -24.317  1.00  0.00     0.002 C 
HETATM   35  C22 UNL     1      -4.016  48.856 -23.455  1.00  0.00    -0.004 C 
HETATM   36  C35 UNL     1      -2.575  51.012 -23.558  1.00  0.00    -0.002 C 
HETATM   37  C23 UNL     1      -5.104  48.070 -24.224  1.00  0.00     0.010 C 
HETATM   38  C32 UNL     1      -4.480  49.368 -22.036  1.00  0.00     0.002 C 
HETATM   39  C24 UNL     1      -6.512  48.566 -23.924  1.00  0.00     0.035 C 
HETATM   40  C25 UNL     1      -6.847  48.476 -22.458  1.00  0.00    -0.068 C 
HETATM   41  C26 UNL     1      -8.131  48.344 -22.076  1.00  0.00     0.053 C 
HETATM   42  C30 UNL     1      -5.695  48.551 -21.456  1.00  0.00    -0.016 C 
HETATM   43  C27 UNL     1      -8.525  48.277 -20.645  1.00  0.00     0.149 C 
HETATM   44  O7  UNL     1      -9.702  48.065 -20.356  1.00  0.00    -0.293 OA
HETATM   45  C28 UNL     1      -7.459  48.440 -19.587  1.00  0.00     0.084 C 
HETATM   46  C29 UNL     1      -6.243  49.180 -20.141  1.00  0.00     0.022 C 
HETATM   47  C31 UNL     1      -5.205  47.115 -21.114  1.00  0.00     0.020 C 
HETATM   48  C33 UNL     1      -4.663  50.909 -22.030  1.00  0.00     0.007 C 
HETATM   49  C34 UNL     1      -3.400  51.691 -22.444  1.00  0.00     0.013 C 
HETATM   50  C36 UNL     1      -1.370  50.288 -22.894  1.00  0.00     0.019 C 
BRANCH  31  51
HETATM   51  O6  UNL     1      -3.168  52.731 -25.281  1.00  0.00    -0.381 OA
HETATM   52  H29 UNL     1      -3.920  52.759 -24.665  1.00  0.00     0.211 HD
ENDBRANCH  31  51
ENDBRANCH  29  31
ENDBRANCH  28  29
ENDBRANCH  27  28
ENDBRANCH   1  27
TORSDOF 19
ENDMDL
MODEL 4
REMARK minimizedAffinity -7.8872695
REMARK CNNscore 0.448613346
REMARK CNNaffinity 7.5515914
REMARK  19 active torsions:
REMARK  status: ('A' for Active; 'I' for Inactive)
REMARK    1  A    between atoms: C2_2  and  C3_3 
REMARK    2  A    between atoms: C3_3  and  C5_5 
REMARK    3  A    between atoms: C5_5  and  N1_6 
REMARK    4  A    between atoms: C5_5  and  C37_46 
REMARK       I    between atoms: N1_6  and  C6_7 
REMARK    5  A    between atoms: C6_7  and  C7_9 
REMARK    6  A    between atoms: C7_9  and  C8_10 
REMARK    7  A    between atoms: C8_10  and  C9_11 
REMARK    8  A    between atoms: C9_11  and  C10_12 
REMARK    9  A    between atoms: C10_12  and  C11_13 
REMARK   10  A    between atoms: C11_13  and  N2_14 
REMARK       I    between atoms: N2_14  and  C12_15 
REMARK   11  A    between atoms: C12_15  and  C13_17 
REMARK   12  A    between atoms: C13_17  and  C14_18 
REMARK   13  A    between atoms: C14_18  and  C15_19 
REMARK   14  A    between atoms: C15_19  and  O4_21 
REMARK   15  A    between atoms: O4_21  and  C16_22 
REMARK   16  A    between atoms: C16_22  and  C17_23 
REMARK   17  A    between atoms: C17_23  and  C18_25 
REMARK   18  A    between atoms: C18_25  and  O6_26 
REMARK   19  A    between atoms: C37_46  and  O9_48 
ROOT
HETATM    1  C15 UNL     1       1.253  53.968 -21.768  1.00  0.00     0.259 C 
HETATM    2  O3  UNL     1       2.115  54.832 -21.848  1.00  0.00    -0.265 OA
ENDROOT
BRANCH   1   3
HETATM    3  C14 UNL     1       1.159  52.977 -20.632  1.00  0.00     0.120 C 
BRANCH   3   4
HETATM    4  C13 UNL     1       0.323  53.454 -19.446  1.00  0.00     0.112 C 
BRANCH   4   5
HETATM    5  C12 UNL     1       0.451  52.533 -18.248  1.00  0.00     0.217 C 
HETATM    6  N2  UNL     1       1.265  53.035 -17.251  1.00  0.00    -0.361 N 
HETATM    7  H22 UNL     1       1.442  54.032 -17.250  1.00  0.00     0.162 HD
HETATM    8  O2  UNL     1      -0.093  51.436 -18.186  1.00  0.00    -0.274 OA
BRANCH   6   9
HETATM    9  C11 UNL     1       1.346  52.345 -15.978  1.00  0.00     0.122 C 
BRANCH   9  10
HETATM   10  C10 UNL     1       2.655  51.581 -15.787  1.00  0.00     0.020 C 
BRANCH  10  11
HETATM   11  C9  UNL     1       3.446  51.968 -14.532  1.00  0.00     0.002 C 
BRANCH  11  12
HETATM   12  C8  UNL     1       2.913  51.351 -13.233  1.00  0.00     0.009 C 
BRANCH  12  13
HETATM   13  C7  UNL     1       2.383  49.931 -13.450  1.00  0.00     0.103 C 
BRANCH  13  14
HETATM   14  C6  UNL     1       1.406  49.476 -12.379  1.00  0.00     0.218 C 
HETATM   15  N1  UNL     1       0.212  49.023 -12.902  1.00  0.00    -0.346 N 
HETATM   16  H11 UNL     1       0.245  48.701 -13.863  1.00  0.00     0.163 HD
HETATM   17  O1  UNL     1       1.656  49.493 -11.180  1.00  0.00    -0.274 OA
BRANCH  15  18
HETATM   18  C5  UNL     1      -0.783  48.370 -12.038  1.00  0.00     0.186 C 
BRANCH  18  19
HETATM   19  C3  UNL     1      -2.160  49.072 -12.161  1.00  0.00     0.014 C 
HETATM   20  C4  UNL     1      -2.019  50.580 -11.912  1.00  0.00     0.012 C 
BRANCH  19  21
HETATM   21  C2  UNL     1      -3.250  48.443 -11.263  1.00  0.00     0.002 C 
HETATM   22  C1  UNL     1      -4.669  48.750 -11.726  1.00  0.00     0.005 C 
ENDBRANCH  19  21
ENDBRANCH  18  19
BRANCH  18  23
HETATM   23  C37 UNL     1      -0.830  46.885 -12.410  1.00  0.00     0.163 C 
HETATM   24  O8  UNL     1      -1.081  46.428 -13.516  1.00  0.00    -0.648 OA
BRANCH  23  25
HETATM   25  O9  UNL     1      -0.597  46.064 -11.367  1.00  0.00    -0.775 OA
HETATM   26  H56 UNL     1      -0.634  45.163 -11.754  1.00  0.00     0.167 HD
ENDBRANCH  23  25
ENDBRANCH  18  23
ENDBRANCH  15  18
ENDBRANCH  13  14
ENDBRANCH  12  13
ENDBRANCH  11  12
ENDBRANCH  10  11
ENDBRANCH   9  10
ENDBRANCH   6   9
ENDBRANCH   4   5
ENDBRANCH   3   4
ENDBRANCH   1   3
BRANCH   1  27
HETATM   27  O4  UNL     1       0.338  53.697 -22.734  1.00  0.00    -0.314 OA
BRANCH  27  28
HETATM   28  C16 UNL     1       0.882  53.507 -24.034  1.00  0.00     0.260 C 
BRANCH  28  29
HETATM   29  C17 UNL     1       0.040  53.775 -25.288  1.00  0.00     0.185 C 
HETATM   30  O5  UNL     1      -0.013  54.919 -25.755  1.00  0.00    -0.292 OA
BRANCH  29  31
HETATM   31  C18 UNL     1      -0.836  52.627 -25.848  1.00  0.00     0.128 C 
HETATM   32  C19 UNL     1       0.073  51.522 -26.453  1.00  0.00     0.047 C 
HETATM   33  C20 UNL     1      -0.666  50.187 -26.247  1.00  0.00     0.009 C 
HETATM   34  C21 UNL     1      -1.997  50.557 -25.585  1.00  0.00     0.002 C 
HETATM   35  C22 UNL     1      -2.698  49.451 -24.767  1.00  0.00    -0.004 C 
HETATM   36  C35 UNL     1      -1.669  51.834 -24.777  1.00  0.00    -0.002 C 
HETATM   37  C23 UNL     1      -3.198  48.328 -25.704  1.00  0.00     0.010 C 
HETATM   38  C32 UNL     1      -3.822  50.061 -23.843  1.00  0.00     0.002 C 
HETATM   39  C24 UNL     1      -4.639  48.532 -26.152  1.00  0.00     0.035 C 
HETATM   40  C25 UNL     1      -5.593  48.601 -24.986  1.00  0.00    -0.068 C 
HETATM   41  C26 UNL     1      -6.879  48.243 -25.157  1.00  0.00     0.053 C 
HETATM   42  C30 UNL     1      -5.048  49.092 -23.646  1.00  0.00    -0.016 C 
HETATM   43  C27 UNL     1      -7.871  48.315 -24.054  1.00  0.00     0.149 C 
HETATM   44  O7  UNL     1      -9.010  47.890 -24.242  1.00  0.00    -0.293 OA
HETATM   45  C28 UNL     1      -7.438  48.881 -22.722  1.00  0.00     0.084 C 
HETATM   46  C29 UNL     1      -6.214  49.780 -22.876  1.00  0.00     0.022 C 
HETATM   47  C31 UNL     1      -4.582  47.878 -22.794  1.00  0.00     0.020 C 
HETATM   48  C33 UNL     1      -4.190  51.502 -24.288  1.00  0.00     0.007 C 
HETATM   49  C34 UNL     1      -2.994  52.474 -24.311  1.00  0.00     0.013 C 
HETATM   50  C36 UNL     1      -0.816  51.516 -23.516  1.00  0.00     0.019 C 
BRANCH  31  51
HETATM   51  O6  UNL     1      -1.630  53.079 -26.949  1.00  0.00    -0.381 OA
HETATM   52  H29 UNL     1      -2.577  53.033 -26.732  1.00  0.00     0.211 HD
ENDBRANCH  31  51
ENDBRANCH  29  31
ENDBRANCH  28  29
ENDBRANCH  27  28
ENDBRANCH   1  27
TORSDOF 19
ENDMDL
MODEL 5
REMARK minimizedAffinity -8.49278355
REMARK CNNscore 0.374129832
REMARK CNNaffinity 7.45370674
REMARK  19 active torsions:
REMARK  status: ('A' for Active; 'I' for Inactive)
REMARK    1  A    between atoms: C2_2  and  C3_3 
REMARK    2  A    between atoms: C3_3  and  C5_5 
REMARK    3  A    between atoms: C5_5  and  N1_6 
REMARK    4  A    between atoms: C5_5  and  C37_46 
REMARK       I    between atoms: N1_6  and  C6_7 
REMARK    5  A    between atoms: C6_7  and  C7_9 
REMARK    6  A    between atoms: C7_9  and  C8_10 
REMARK    7  A    between atoms: C8_10  and  C9_11 
REMARK    8  A    between atoms: C9_11  and  C10_12 
REMARK    9  A    between atoms: C10_12  and  C11_13 
REMARK   10  A    between atoms: C11_13  and  N2_14 
REMARK       I    between atoms: N2_14  and  C12_15 
REMARK   11  A    between atoms: C12_15  and  C13_17 
REMARK   12  A    between atoms: C13_17  and  C14_18 
REMARK   13  A    between atoms: C14_18  and  C15_19 
REMARK   14  A    between atoms: C15_19  and  O4_21 
REMARK   15  A    between atoms: O4_21  and  C16_22 
REMARK   16  A    between atoms: C16_22  and  C17_23 
REMARK   17  A    between atoms: C17_23  and  C18_25 
REMARK   18  A    between atoms: C18_25  and  O6_26 
REMARK   19  A    between atoms: C37_46  and  O9_48 
ROOT
HETATM    1  C15 UNL     1       0.815  53.725 -24.903  1.00  0.00     0.259 C 
HETATM    2  O3  UNL     1       1.595  52.974 -25.473  1.00  0.00    -0.265 OA
ENDROOT
BRANCH   1   3
HETATM    3  C14 UNL     1       0.919  54.095 -23.442  1.00  0.00     0.120 C 
BRANCH   3   4
HETATM    4  C13 UNL     1       1.097  52.904 -22.502  1.00  0.00     0.112 C 
BRANCH   4   5
HETATM    5  C12 UNL     1       0.872  53.282 -21.050  1.00  0.00     0.217 C 
HETATM    6  N2  UNL     1       0.082  52.383 -20.362  1.00  0.00    -0.361 N 
HETATM    7  H22 UNL     1      -0.013  51.453 -20.750  1.00  0.00     0.162 HD
HETATM    8  O2  UNL     1       1.324  54.305 -20.547  1.00  0.00    -0.274 OA
BRANCH   6   9
HETATM    9  C11 UNL     1      -0.079  52.523 -18.927  1.00  0.00     0.122 C 
BRANCH   9  10
HETATM   10  C10 UNL     1       0.177  51.226 -18.161  1.00  0.00     0.020 C 
BRANCH  10  11
HETATM   11  C9  UNL     1       0.928  51.403 -16.837  1.00  0.00     0.002 C 
BRANCH  11  12
HETATM   12  C8  UNL     1       0.029  51.402 -15.594  1.00  0.00     0.009 C 
BRANCH  12  13
HETATM   13  C7  UNL     1       0.677  52.141 -14.419  1.00  0.00     0.103 C 
BRANCH  13  14
HETATM   14  C6  UNL     1       0.045  51.819 -13.076  1.00  0.00     0.218 C 
HETATM   15  N1  UNL     1      -0.927  52.728 -12.710  1.00  0.00    -0.346 N 
HETATM   16  H11 UNL     1      -1.356  53.245 -13.470  1.00  0.00     0.163 HD
HETATM   17  O1  UNL     1       0.350  50.845 -12.397  1.00  0.00    -0.274 OA
BRANCH  15  18
HETATM   18  C5  UNL     1      -1.777  52.481 -11.536  1.00  0.00     0.186 C 
BRANCH  18  19
HETATM   19  C3  UNL     1      -1.577  53.591 -10.472  1.00  0.00     0.014 C 
HETATM   20  C4  UNL     1      -2.888  54.351 -10.233  1.00  0.00     0.012 C 
BRANCH  19  21
HETATM   21  C2  UNL     1      -0.411  54.551 -10.801  1.00  0.00     0.002 C 
HETATM   22  C1  UNL     1       0.728  54.494  -9.789  1.00  0.00     0.005 C 
ENDBRANCH  19  21
ENDBRANCH  18  19
BRANCH  18  23
HETATM   23  C37 UNL     1      -3.227  52.367 -12.020  1.00  0.00     0.163 C 
HETATM   24  O8  UNL     1      -4.131  51.776 -11.447  1.00  0.00    -0.648 OA
BRANCH  23  25
HETATM   25  O9  UNL     1      -3.444  52.966 -13.207  1.00  0.00    -0.775 OA
HETATM   26  H56 UNL     1      -4.401  52.835 -13.374  1.00  0.00     0.167 HD
ENDBRANCH  23  25
ENDBRANCH  18  23
ENDBRANCH  15  18
ENDBRANCH  13  14
ENDBRANCH  12  13
ENDBRANCH  11  12
ENDBRANCH  10  11
ENDBRANCH   9  10
ENDBRANCH   6   9
ENDBRANCH   4   5
ENDBRANCH   3   4
ENDBRANCH   1   3
BRANCH   1  27
HETATM   27  O4  UNL     1      -0.313  54.234 -25.460  1.00  0.00    -0.314 OA
BRANCH  27  28
HETATM   28  C16 UNL     1      -0.466  53.968 -26.849  1.00  0.00     0.260 C 
BRANCH  28  29
HETATM   29  C17 UNL     1      -0.918  52.588 -27.343  1.00  0.00     0.185 C 
HETATM   30  O5  UNL     1      -0.386  52.093 -28.344  1.00  0.00    -0.292 OA
BRANCH  29  31
HETATM   31  C18 UNL     1      -2.131  51.919 -26.652  1.00  0.00     0.128 C 
HETATM   32  C19 UNL     1      -2.863  50.990 -27.660  1.00  0.00     0.047 C 
HETATM   33  C20 UNL     1      -3.458  49.833 -26.836  1.00  0.00     0.009 C 
HETATM   34  C21 UNL     1      -3.107  50.150 -25.379  1.00  0.00     0.002 C 
HETATM   35  C22 UNL     1      -3.067  48.957 -24.399  1.00  0.00    -0.004 C 
HETATM   36  C35 UNL     1      -1.779  50.936 -25.477  1.00  0.00    -0.002 C 
HETATM   37  C23 UNL     1      -4.490  48.390 -24.188  1.00  0.00     0.010 C 
HETATM   38  C32 UNL     1      -2.332  49.353 -23.060  1.00  0.00     0.002 C 
HETATM   39  C24 UNL     1      -5.196  49.003 -22.987  1.00  0.00     0.035 C 
HETATM   40  C25 UNL     1      -4.433  48.786 -21.705  1.00  0.00    -0.068 C 
HETATM   41  C26 UNL     1      -5.095  48.756 -20.534  1.00  0.00     0.053 C 
HETATM   42  C30 UNL     1      -2.917  48.617 -21.797  1.00  0.00    -0.016 C 
HETATM   43  C27 UNL     1      -4.394  48.572 -19.237  1.00  0.00     0.149 C 
HETATM   44  O7  UNL     1      -5.058  48.462 -18.207  1.00  0.00    -0.293 OA
HETATM   45  C28 UNL     1      -2.886  48.494 -19.229  1.00  0.00     0.084 C 
HETATM   46  C29 UNL     1      -2.294  49.150 -20.474  1.00  0.00     0.022 C 
HETATM   47  C31 UNL     1      -2.564  47.106 -21.901  1.00  0.00     0.020 C 
HETATM   48  C33 UNL     1      -2.210  50.895 -22.924  1.00  0.00     0.007 C 
HETATM   49  C34 UNL     1      -1.482  51.572 -24.103  1.00  0.00     0.013 C 
HETATM   50  C36 UNL     1      -0.586  50.010 -25.850  1.00  0.00     0.019 C 
BRANCH  31  51
HETATM   51  O6  UNL     1      -3.114  52.894 -26.287  1.00  0.00    -0.381 OA
HETATM   52  H29 UNL     1      -3.214  52.936 -25.321  1.00  0.00     0.211 HD
ENDBRANCH  31  51
ENDBRANCH  29  31
ENDBRANCH  28  29
ENDBRANCH  27  28
ENDBRANCH   1  27
TORSDOF 19
ENDMDL
MODEL 6
REMARK minimizedAffinity -8.41214848
REMARK CNNscore 0.319951028
REMARK CNNaffinity 7.24354029
REMARK  19 active torsions:
REMARK  status: ('A' for Active; 'I' for Inactive)
REMARK    1  A    between atoms: C2_2  and  C3_3 
REMARK    2  A    between atoms: C3_3  and  C5_5 
REMARK    3  A    between atoms: C5_5  and  N1_6 
REMARK    4  A    between atoms: C5_5  and  C37_46 
REMARK       I    between atoms: N1_6  and  C6_7 
REMARK    5  A    between atoms: C6_7  and  C7_9 
REMARK    6  A    between atoms: C7_9  and  C8_10 
REMARK    7  A    between atoms: C8_10  and  C9_11 
REMARK    8  A    between atoms: C9_11  and  C10_12 
REMARK    9  A    between atoms: C10_12  and  C11_13 
REMARK   10  A    between atoms: C11_13  and  N2_14 
REMARK       I    between atoms: N2_14  and  C12_15 
REMARK   11  A    between atoms: C12_15  and  C13_17 
REMARK   12  A    between atoms: C13_17  and  C14_18 
REMARK   13  A    between atoms: C14_18  and  C15_19 
REMARK   14  A    between atoms: C15_19  and  O4_21 
REMARK   15  A    between atoms: O4_21  and  C16_22 
REMARK   16  A    between atoms: C16_22  and  C17_23 
REMARK   17  A    between atoms: C17_23  and  C18_25 
REMARK   18  A    between atoms: C18_25  and  O6_26 
REMARK   19  A    between atoms: C37_46  and  O9_48 
ROOT
HETATM    1  C15 UNL     1       0.265  52.033 -24.228  1.00  0.00     0.259 C 
HETATM    2  O3  UNL     1       0.472  52.677 -23.208  1.00  0.00    -0.265 OA
ENDROOT
BRANCH   1   3
HETATM    3  C14 UNL     1       0.856  52.379 -25.575  1.00  0.00     0.120 C 
BRANCH   3   4
HETATM    4  C13 UNL     1       0.109  53.477 -26.328  1.00  0.00     0.112 C 
BRANCH   4   5
HETATM    5  C12 UNL     1      -1.059  52.931 -27.127  1.00  0.00     0.217 C 
HETATM    6  N2  UNL     1      -1.071  51.553 -27.215  1.00  0.00    -0.361 N 
HETATM    7  H22 UNL     1      -0.533  51.037 -26.530  1.00  0.00     0.162 HD
HETATM    8  O2  UNL     1      -1.892  53.648 -27.669  1.00  0.00    -0.274 OA
BRANCH   6   9
HETATM    9  C11 UNL     1      -2.216  50.883 -27.802  1.00  0.00     0.122 C 
BRANCH   9  10
HETATM   10  C10 UNL     1      -3.114  50.204 -26.769  1.00  0.00     0.020 C 
BRANCH  10  11
HETATM   11  C9  UNL     1      -3.280  48.693 -26.960  1.00  0.00     0.002 C 
BRANCH  11  12
HETATM   12  C8  UNL     1      -4.733  48.233 -27.133  1.00  0.00     0.009 C 
BRANCH  12  13
HETATM   13  C7  UNL     1      -5.125  48.119 -28.610  1.00  0.00     0.103 C 
BRANCH  13  14
HETATM   14  C6  UNL     1      -6.506  47.526 -28.828  1.00  0.00     0.218 C 
HETATM   15  N1  UNL     1      -7.515  48.321 -28.326  1.00  0.00    -0.346 N 
HETATM   16  H11 UNL     1      -7.292  49.305 -28.223  1.00  0.00     0.163 HD
HETATM   17  O1  UNL     1      -6.705  46.463 -29.405  1.00  0.00    -0.274 OA
BRANCH  15  18
HETATM   18  C5  UNL     1      -8.924  48.006 -28.607  1.00  0.00     0.186 C 
BRANCH  18  19
HETATM   19  C3  UNL     1      -9.213  48.097 -30.127  1.00  0.00     0.014 C 
HETATM   20  C4  UNL     1      -8.539  49.336 -30.730  1.00  0.00     0.012 C 
BRANCH  19  21
HETATM   21  C2  UNL     1     -10.720  48.043 -30.468  1.00  0.00     0.002 C 
HETATM   22  C1  UNL     1     -11.103  46.856 -31.344  1.00  0.00     0.005 C 
ENDBRANCH  19  21
ENDBRANCH  18  19
BRANCH  18  23
HETATM   23  C37 UNL     1      -9.224  46.623 -28.020  1.00  0.00     0.163 C 
HETATM   24  O8  UNL     1      -9.531  45.623 -28.653  1.00  0.00    -0.648 OA
BRANCH  23  25
HETATM   25  O9  UNL     1      -9.158  46.587 -26.674  1.00  0.00    -0.775 OA
HETATM   26  H56 UNL     1      -9.344  45.651 -26.447  1.00  0.00     0.167 HD
ENDBRANCH  23  25
ENDBRANCH  18  23
ENDBRANCH  15  18
ENDBRANCH  13  14
ENDBRANCH  12  13
ENDBRANCH  11  12
ENDBRANCH  10  11
ENDBRANCH   9  10
ENDBRANCH   6   9
ENDBRANCH   4   5
ENDBRANCH   3   4
ENDBRANCH   1   3
BRANCH   1  27
HETATM   27  O4  UNL     1      -0.609  50.999 -24.324  1.00  0.00    -0.314 OA
BRANCH  27  28
HETATM   28  C16 UNL     1      -1.746  51.098 -23.477  1.00  0.00     0.260 C 
BRANCH  28  29
HETATM   29  C17 UNL     1      -2.334  49.855 -22.797  1.00  0.00     0.185 C 
HETATM   30  O5  UNL     1      -2.573  48.845 -23.471  1.00  0.00    -0.292 OA
BRANCH  29  31
HETATM   31  C18 UNL     1      -2.744  49.955 -21.307  1.00  0.00     0.128 C 
HETATM   32  C19 UNL     1      -3.692  48.778 -20.944  1.00  0.00     0.047 C 
HETATM   33  C20 UNL     1      -3.430  48.446 -19.464  1.00  0.00     0.009 C 
HETATM   34  C21 UNL     1      -2.388  49.467 -18.997  1.00  0.00     0.002 C 
HETATM   35  C22 UNL     1      -1.528  49.073 -17.777  1.00  0.00    -0.004 C 
HETATM   36  C35 UNL     1      -1.573  49.779 -20.274  1.00  0.00    -0.002 C 
HETATM   37  C23 UNL     1      -2.401  49.019 -16.502  1.00  0.00     0.010 C 
HETATM   38  C32 UNL     1      -0.267  50.015 -17.649  1.00  0.00     0.002 C 
HETATM   39  C24 UNL     1      -2.404  50.333 -15.733  1.00  0.00     0.035 C 
HETATM   40  C25 UNL     1      -1.019  50.748 -15.310  1.00  0.00    -0.068 C 
HETATM   41  C26 UNL     1      -0.860  51.525 -14.222  1.00  0.00     0.053 C 
HETATM   42  C30 UNL     1       0.160  50.268 -16.155  1.00  0.00    -0.016 C 
HETATM   43  C27 UNL     1       0.477  51.989 -13.771  1.00  0.00     0.149 C 
HETATM   44  O7  UNL     1       0.570  52.621 -12.720  1.00  0.00    -0.293 OA
HETATM   45  C28 UNL     1       1.688  51.639 -14.605  1.00  0.00     0.084 C 
HETATM   46  C29 UNL     1       1.293  51.332 -16.047  1.00  0.00     0.022 C 
HETATM   47  C31 UNL     1       0.716  48.939 -15.570  1.00  0.00     0.020 C 
HETATM   48  C33 UNL     1      -0.438  51.296 -18.509  1.00  0.00     0.007 C 
HETATM   49  C34 UNL     1      -0.691  51.017 -20.004  1.00  0.00     0.013 C 
HETATM   50  C36 UNL     1      -0.641  48.598 -20.667  1.00  0.00     0.019 C 
BRANCH  31  51
HETATM   51  O6  UNL     1      -3.527  51.129 -21.069  1.00  0.00    -0.381 OA
HETATM   52  H29 UNL     1      -3.060  51.738 -20.471  1.00  0.00     0.211 HD
ENDBRANCH  31  51
ENDBRANCH  29  31
ENDBRANCH  28  29
ENDBRANCH  27  28
ENDBRANCH   1  27
TORSDOF 19
ENDMDL
MODEL 7
REMARK minimizedAffinity -7.64257717
REMARK CNNscore 0.319377631
REMARK CNNaffinity 6.62349939
REMARK  19 active torsions:
REMARK  status: ('A' for Active; 'I' for Inactive)
REMARK    1  A    between atoms: C2_2  and  C3_3 
REMARK    2  A    between atoms: C3_3  and  C5_5 
REMARK    3  A    between atoms: C5_5  and  N1_6 
REMARK    4  A    between atoms: C5_5  and  C37_46 
REMARK       I    between atoms: N1_6  and  C6_7 
REMARK    5  A    between atoms: C6_7  and  C7_9 
REMARK    6  A    between atoms: C7_9  and  C8_10 
REMARK    7  A    between atoms: C8_10  and  C9_11 
REMARK    8  A    between atoms: C9_11  and  C10_12 
REMARK    9  A    between atoms: C10_12  and  C11_13 
REMARK   10  A    between atoms: C11_13  and  N2_14 
REMARK       I    between atoms: N2_14  and  C12_15 
REMARK   11  A    between atoms: C12_15  and  C13_17 
REMARK   12  A    between atoms: C13_17  and  C14_18 
REMARK   13  A    between atoms: C14_18  and  C15_19 
REMARK   14  A    between atoms: C15_19  and  O4_21 
REMARK   15  A    between atoms: O4_21  and  C16_22 
REMARK   16  A    between atoms: C16_22  and  C17_23 
REMARK   17  A    between atoms: C17_23  and  C18_25 
REMARK   18  A    between atoms: C18_25  and  O6_26 
REMARK   19  A    between atoms: C37_46  and  O9_48 
ROOT
HETATM    1  C15 UNL     1       1.430  51.550 -14.342  1.00  0.00     0.259 C 
HETATM    2  O3  UNL     1       2.315  50.705 -14.373  1.00  0.00    -0.265 OA
ENDROOT
BRANCH   1   3
HETATM    3  C14 UNL     1       0.690  52.036 -15.566  1.00  0.00     0.120 C 
BRANCH   3   4
HETATM    4  C13 UNL     1       1.398  51.746 -16.888  1.00  0.00     0.112 C 
BRANCH   4   5
HETATM    5  C12 UNL     1       0.562  52.152 -18.087  1.00  0.00     0.217 C 
HETATM    6  N2  UNL     1       0.980  53.329 -18.677  1.00  0.00    -0.361 N 
HETATM    7  H22 UNL     1       1.926  53.637 -18.485  1.00  0.00     0.162 HD
HETATM    8  O2  UNL     1      -0.410  51.513 -18.473  1.00  0.00    -0.274 OA
BRANCH   6   9
HETATM    9  C11 UNL     1       0.385  53.753 -19.930  1.00  0.00     0.122 C 
BRANCH   9  10
HETATM   10  C10 UNL     1       1.350  53.682 -21.112  1.00  0.00     0.020 C 
BRANCH  10  11
HETATM   11  C9  UNL     1       0.829  52.893 -22.318  1.00  0.00     0.002 C 
BRANCH  11  12
HETATM   12  C8  UNL     1       0.784  53.692 -23.625  1.00  0.00     0.009 C 
BRANCH  12  13
HETATM   13  C7  UNL     1       0.774  52.778 -24.854  1.00  0.00     0.103 C 
BRANCH  13  14
HETATM   14  C6  UNL     1      -0.607  52.255 -25.212  1.00  0.00     0.218 C 
HETATM   15  N1  UNL     1      -0.567  51.030 -25.847  1.00  0.00    -0.346 N 
HETATM   16  H11 UNL     1       0.264  50.474 -25.680  1.00  0.00     0.163 HD
HETATM   17  O1  UNL     1      -1.647  52.846 -24.947  1.00  0.00    -0.274 OA
BRANCH  15  18
HETATM   18  C5  UNL     1      -1.806  50.280 -26.102  1.00  0.00     0.186 C 
BRANCH  18  19
HETATM   19  C3  UNL     1      -2.784  50.416 -24.907  1.00  0.00     0.014 C 
HETATM   20  C4  UNL     1      -2.220  49.709 -23.667  1.00  0.00     0.012 C 
BRANCH  19  21
HETATM   21  C2  UNL     1      -4.219  49.943 -25.233  1.00  0.00     0.002 C 
HETATM   22  C1  UNL     1      -4.351  48.427 -25.330  1.00  0.00     0.005 C 
ENDBRANCH  19  21
ENDBRANCH  18  19
BRANCH  18  23
HETATM   23  C37 UNL     1      -2.398  50.782 -27.423  1.00  0.00     0.163 C 
HETATM   24  O8  UNL     1      -3.083  50.131 -28.198  1.00  0.00    -0.648 OA
BRANCH  23  25
HETATM   25  O9  UNL     1      -2.064  52.056 -27.710  1.00  0.00    -0.775 OA
HETATM   26  H56 UNL     1      -2.525  52.244 -28.554  1.00  0.00     0.167 HD
ENDBRANCH  23  25
ENDBRANCH  18  23
ENDBRANCH  15  18
ENDBRANCH  13  14
ENDBRANCH  12  13
ENDBRANCH  11  12
ENDBRANCH  10  11
ENDBRANCH   9  10
ENDBRANCH   6   9
ENDBRANCH   4   5
ENDBRANCH   3   4
ENDBRANCH   1   3
BRANCH   1  27
HETATM   27  O4  UNL     1       1.071  52.253 -13.238  1.00  0.00    -0.314 OA
BRANCH  27  28
HETATM   28  C16 UNL     1       1.535  51.710 -12.008  1.00  0.00     0.260 C 
BRANCH  28  29
HETATM   29  C17 UNL     1       2.897  52.115 -11.431  1.00  0.00     0.185 C 
HETATM   30  O5  UNL     1       3.825  51.297 -11.425  1.00  0.00    -0.292 OA
BRANCH  29  31
HETATM   31  C18 UNL     1       3.024  53.495 -10.739  1.00  0.00     0.128 C 
HETATM   32  C19 UNL     1       1.610  54.050 -10.413  1.00  0.00     0.047 C 
HETATM   33  C20 UNL     1       1.755  54.891  -9.132  1.00  0.00     0.009 C 
HETATM   34  C21 UNL     1       3.247  54.848  -8.785  1.00  0.00     0.002 C 
HETATM   35  C22 UNL     1       3.625  55.108  -7.310  1.00  0.00    -0.004 C 
HETATM   36  C35 UNL     1       3.717  53.479  -9.329  1.00  0.00    -0.002 C 
HETATM   37  C23 UNL     1       3.332  56.579  -6.934  1.00  0.00     0.010 C 
HETATM   38  C32 UNL     1       5.110  54.658  -7.022  1.00  0.00     0.002 C 
HETATM   39  C24 UNL     1       4.539  57.487  -7.121  1.00  0.00     0.035 C 
HETATM   40  C25 UNL     1       5.720  57.041  -6.297  1.00  0.00    -0.068 C 
HETATM   41  C26 UNL     1       6.638  57.944  -5.906  1.00  0.00     0.053 C 
HETATM   42  C30 UNL     1       5.826  55.557  -5.946  1.00  0.00    -0.016 C 
HETATM   43  C27 UNL     1       7.836  57.560  -5.116  1.00  0.00     0.149 C 
HETATM   44  O7  UNL     1       8.594  58.440  -4.710  1.00  0.00    -0.293 OA
HETATM   45  C28 UNL     1       8.068  56.100  -4.808  1.00  0.00     0.084 C 
HETATM   46  C29 UNL     1       7.336  55.204  -5.805  1.00  0.00     0.022 C 
HETATM   47  C31 UNL     1       5.158  55.297  -4.565  1.00  0.00     0.020 C 
HETATM   48  C33 UNL     1       5.901  54.462  -8.344  1.00  0.00     0.007 C 
HETATM   49  C34 UNL     1       5.260  53.447  -9.311  1.00  0.00     0.013 C 
HETATM   50  C36 UNL     1       3.200  52.301  -8.455  1.00  0.00     0.019 C 
BRANCH  31  51
HETATM   51  O6  UNL     1       3.591  54.463 -11.629  1.00  0.00    -0.381 OA
HETATM   52  H29 UNL     1       4.453  54.769 -11.299  1.00  0.00     0.211 HD
ENDBRANCH  31  51
ENDBRANCH  29  31
ENDBRANCH  28  29
ENDBRANCH  27  28
ENDBRANCH   1  27
TORSDOF 19
ENDMDL
MODEL 8
REMARK minimizedAffinity -7.53362465
REMARK CNNscore 0.275769472
REMARK CNNaffinity 6.49008703
REMARK  19 active torsions:
REMARK  status: ('A' for Active; 'I' for Inactive)
REMARK    1  A    between atoms: C2_2  and  C3_3 
REMARK    2  A    between atoms: C3_3  and  C5_5 
REMARK    3  A    between atoms: C5_5  and  N1_6 
REMARK    4  A    between atoms: C5_5  and  C37_46 
REMARK       I    between atoms: N1_6  and  C6_7 
REMARK    5  A    between atoms: C6_7  and  C7_9 
REMARK    6  A    between atoms: C7_9  and  C8_10 
REMARK    7  A    between atoms: C8_10  and  C9_11 
REMARK    8  A    between atoms: C9_11  and  C10_12 
REMARK    9  A    between atoms: C10_12  and  C11_13 
REMARK   10  A    between atoms: C11_13  and  N2_14 
REMARK       I    between atoms: N2_14  and  C12_15 
REMARK   11  A    between atoms: C12_15  and  C13_17 
REMARK   12  A    between atoms: C13_17  and  C14_18 
REMARK   13  A    between atoms: C14_18  and  C15_19 
REMARK   14  A    between atoms: C15_19  and  O4_21 
REMARK   15  A    between atoms: O4_21  and  C16_22 
REMARK   16  A    between atoms: C16_22  and  C17_23 
REMARK   17  A    between atoms: C17_23  and  C18_25 
REMARK   18  A    between atoms: C18_25  and  O6_26 
REMARK   19  A    between atoms: C37_46  and  O9_48 
ROOT
HETATM    1  C15 UNL     1      -1.209  51.340 -22.362  1.00  0.00     0.259 C 
HETATM    2  O3  UNL     1      -1.691  52.393 -22.757  1.00  0.00    -0.265 OA
ENDROOT
BRANCH   1   3
HETATM    3  C14 UNL     1      -0.065  51.256 -21.379  1.00  0.00     0.120 C 
BRANCH   3   4
HETATM    4  C13 UNL     1       0.540  52.605 -20.998  1.00  0.00     0.112 C 
BRANCH   4   5
HETATM    5  C12 UNL     1       0.380  52.910 -19.521  1.00  0.00     0.217 C 
HETATM    6  N2  UNL     1       0.685  51.841 -18.702  1.00  0.00    -0.361 N 
HETATM    7  H22 UNL     1       1.254  51.101 -19.092  1.00  0.00     0.162 HD
HETATM    8  O2  UNL     1      -0.014  53.992 -19.100  1.00  0.00    -0.274 OA
BRANCH   6   9
HETATM    9  C11 UNL     1       0.741  52.034 -17.265  1.00  0.00     0.122 C 
BRANCH   9  10
HETATM   10  C10 UNL     1       0.477  50.755 -16.473  1.00  0.00     0.020 C 
BRANCH  10  11
HETATM   11  C9  UNL     1       1.389  50.555 -15.257  1.00  0.00     0.002 C 
BRANCH  11  12
HETATM   12  C8  UNL     1       1.397  51.731 -14.273  1.00  0.00     0.009 C 
BRANCH  12  13
HETATM   13  C7  UNL     1       2.789  51.970 -13.680  1.00  0.00     0.103 C 
BRANCH  13  14
HETATM   14  C6  UNL     1       2.788  52.123 -12.168  1.00  0.00     0.218 C 
HETATM   15  N1  UNL     1       2.950  53.432 -11.763  1.00  0.00    -0.346 N 
HETATM   16  H11 UNL     1       2.686  54.139 -12.440  1.00  0.00     0.163 HD
HETATM   17  O1  UNL     1       2.641  51.187 -11.391  1.00  0.00    -0.274 OA
BRANCH  15  18
HETATM   18  C5  UNL     1       2.789  53.801 -10.349  1.00  0.00     0.186 C 
BRANCH  18  19
HETATM   19  C3  UNL     1       3.880  54.815  -9.920  1.00  0.00     0.014 C 
HETATM   20  C4  UNL     1       3.810  56.080 -10.787  1.00  0.00     0.012 C 
BRANCH  19  21
HETATM   21  C2  UNL     1       5.303  54.212  -9.903  1.00  0.00     0.002 C 
HETATM   22  C1  UNL     1       6.268  54.956  -8.988  1.00  0.00     0.005 C 
ENDBRANCH  19  21
ENDBRANCH  18  19
BRANCH  18  23
HETATM   23  C37 UNL     1       1.365  54.335 -10.160  1.00  0.00     0.163 C 
HETATM   24  O8  UNL     1       0.796  54.503  -9.091  1.00  0.00    -0.648 OA
BRANCH  23  25
HETATM   25  O9  UNL     1       0.730  54.588 -11.321  1.00  0.00    -0.775 OA
HETATM   26  H56 UNL     1      -0.144  54.940 -11.049  1.00  0.00     0.167 HD
ENDBRANCH  23  25
ENDBRANCH  18  23
ENDBRANCH  15  18
ENDBRANCH  13  14
ENDBRANCH  12  13
ENDBRANCH  11  12
ENDBRANCH  10  11
ENDBRANCH   9  10
ENDBRANCH   6   9
ENDBRANCH   4   5
ENDBRANCH   3   4
ENDBRANCH   1   3
BRANCH   1  27
HETATM   27  O4  UNL     1      -1.545  50.112 -22.832  1.00  0.00    -0.314 OA
BRANCH  27  28
HETATM   28  C16 UNL     1      -2.730  49.561 -22.270  1.00  0.00     0.260 C 
BRANCH  28  29
HETATM   29  C17 UNL     1      -4.105  50.168 -22.577  1.00  0.00     0.185 C 
HETATM   30  O5  UNL     1      -4.714  50.780 -21.691  1.00  0.00    -0.292 OA
BRANCH  29  31
HETATM   31  C18 UNL     1      -4.752  49.872 -23.952  1.00  0.00     0.128 C 
HETATM   32  C19 UNL     1      -3.715  49.183 -24.881  1.00  0.00     0.047 C 
HETATM   33  C20 UNL     1      -4.511  48.243 -25.805  1.00  0.00     0.009 C 
HETATM   34  C21 UNL     1      -5.981  48.454 -25.429  1.00  0.00     0.002 C 
HETATM   35  C22 UNL     1      -6.955  47.302 -25.759  1.00  0.00    -0.004 C 
HETATM   36  C35 UNL     1      -5.931  48.834 -23.931  1.00  0.00    -0.002 C 
HETATM   37  C23 UNL     1      -7.116  47.160 -27.290  1.00  0.00     0.010 C 
HETATM   38  C32 UNL     1      -8.320  47.480 -24.987  1.00  0.00     0.002 C 
HETATM   39  C24 UNL     1      -8.296  47.952 -27.835  1.00  0.00     0.035 C 
HETATM   40  C25 UNL     1      -9.601  47.534 -27.207  1.00  0.00    -0.068 C 
HETATM   41  C26 UNL     1     -10.750  47.696 -27.889  1.00  0.00     0.053 C 
HETATM   42  C30 UNL     1      -9.558  46.945 -25.798  1.00  0.00    -0.016 C 
HETATM   43  C27 UNL     1     -12.069  47.327 -27.313  1.00  0.00     0.149 C 
HETATM   44  O7  UNL     1     -13.075  47.413 -28.014  1.00  0.00    -0.293 OA
HETATM   45  C28 UNL     1     -12.126  46.827 -25.888  1.00  0.00     0.084 C 
HETATM   46  C29 UNL     1     -10.905  47.285 -25.094  1.00  0.00     0.022 C 
HETATM   47  C31 UNL     1      -9.459  45.395 -25.881  1.00  0.00     0.020 C 
HETATM   48  C33 UNL     1      -8.469  48.926 -24.441  1.00  0.00     0.007 C 
HETATM   49  C34 UNL     1      -7.319  49.365 -23.513  1.00  0.00     0.013 C 
HETATM   50  C36 UNL     1      -5.594  47.608 -23.035  1.00  0.00     0.019 C 
BRANCH  31  51
HETATM   51  O6  UNL     1      -5.089  51.085 -24.632  1.00  0.00    -0.381 OA
HETATM   52  H29 UNL     1      -6.051  51.158 -24.748  1.00  0.00     0.211 HD
ENDBRANCH  31  51
ENDBRANCH  29  31
ENDBRANCH  28  29
ENDBRANCH  27  28
ENDBRANCH   1  27
TORSDOF 19
ENDMDL
MODEL 9
REMARK minimizedAffinity -8.05608559
REMARK CNNscore 0.256744266
REMARK CNNaffinity 7.17307997
REMARK  19 active torsions:
REMARK  status: ('A' for Active; 'I' for Inactive)
REMARK    1  A    between atoms: C2_2  and  C3_3 
REMARK    2  A    between atoms: C3_3  and  C5_5 
REMARK    3  A    between atoms: C5_5  and  N1_6 
REMARK    4  A    between atoms: C5_5  and  C37_46 
REMARK       I    between atoms: N1_6  and  C6_7 
REMARK    5  A    between atoms: C6_7  and  C7_9 
REMARK    6  A    between atoms: C7_9  and  C8_10 
REMARK    7  A    between atoms: C8_10  and  C9_11 
REMARK    8  A    between atoms: C9_11  and  C10_12 
REMARK    9  A    between atoms: C10_12  and  C11_13 
REMARK   10  A    between atoms: C11_13  and  N2_14 
REMARK       I    between atoms: N2_14  and  C12_15 
REMARK   11  A    between atoms: C12_15  and  C13_17 
REMARK   12  A    between atoms: C13_17  and  C14_18 
REMARK   13  A    between atoms: C14_18  and  C15_19 
REMARK   14  A    between atoms: C15_19  and  O4_21 
REMARK   15  A    between atoms: O4_21  and  C16_22 
REMARK   16  A    between atoms: C16_22  and  C17_23 
REMARK   17  A    between atoms: C17_23  and  C18_25 
REMARK   18  A    between atoms: C18_25  and  O6_26 
REMARK   19  A    between atoms: C37_46  and  O9_48 
ROOT
HETATM    1  C15 UNL     1       0.441  50.562 -15.018  1.00  0.00     0.259 C 
HETATM    2  O3  UNL     1       1.229  49.627 -15.047  1.00  0.00    -0.265 OA
ENDROOT
BRANCH   1   3
HETATM    3  C14 UNL     1      -0.325  51.054 -16.223  1.00  0.00     0.120 C 
BRANCH   3   4
HETATM    4  C13 UNL     1       0.497  51.118 -17.510  1.00  0.00     0.112 C 
BRANCH   4   5
HETATM    5  C12 UNL     1      -0.040  52.150 -18.482  1.00  0.00     0.217 C 
HETATM    6  N2  UNL     1       0.895  53.095 -18.855  1.00  0.00    -0.361 N 
HETATM    7  H22 UNL     1       1.872  52.864 -18.720  1.00  0.00     0.162 HD
HETATM    8  O2  UNL     1      -1.202  52.161 -18.873  1.00  0.00    -0.274 OA
BRANCH   6   9
HETATM    9  C11 UNL     1       0.576  54.042 -19.907  1.00  0.00     0.122 C 
BRANCH   9  10
HETATM   10  C10 UNL     1       1.450  53.882 -21.150  1.00  0.00     0.020 C 
BRANCH  10  11
HETATM   11  C9  UNL     1       0.730  53.288 -22.365  1.00  0.00     0.002 C 
BRANCH  11  12
HETATM   12  C8  UNL     1       0.295  51.828 -22.192  1.00  0.00     0.009 C 
BRANCH  12  13
HETATM   13  C7  UNL     1      -1.174  51.620 -22.576  1.00  0.00     0.103 C 
BRANCH  13  14
HETATM   14  C6  UNL     1      -1.554  52.267 -23.897  1.00  0.00     0.218 C 
HETATM   15  N1  UNL     1      -0.805  51.798 -24.957  1.00  0.00    -0.346 N 
HETATM   16  H11 UNL     1      -0.389  50.882 -24.833  1.00  0.00     0.163 HD
HETATM   17  O1  UNL     1      -2.444  53.102 -24.014  1.00  0.00    -0.274 OA
BRANCH  15  18
HETATM   18  C5  UNL     1      -1.152  52.167 -26.338  1.00  0.00     0.186 C 
BRANCH  18  19
HETATM   19  C3  UNL     1       0.085  52.733 -27.081  1.00  0.00     0.014 C 
HETATM   20  C4  UNL     1      -0.347  53.725 -28.169  1.00  0.00     0.012 C 
BRANCH  19  21
HETATM   21  C2  UNL     1       1.016  51.634 -27.645  1.00  0.00     0.002 C 
HETATM   22  C1  UNL     1       2.289  51.440 -26.830  1.00  0.00     0.005 C 
ENDBRANCH  19  21
ENDBRANCH  18  19
BRANCH  18  23
HETATM   23  C37 UNL     1      -1.750  50.932 -27.020  1.00  0.00     0.163 C 
HETATM   24  O8  UNL     1      -2.356  50.919 -28.082  1.00  0.00    -0.648 OA
BRANCH  23  25
HETATM   25  O9  UNL     1      -1.585  49.797 -26.312  1.00  0.00    -0.775 OA
HETATM   26  H56 UNL     1      -1.988  49.101 -26.872  1.00  0.00     0.167 HD
ENDBRANCH  23  25
ENDBRANCH  18  23
ENDBRANCH  15  18
ENDBRANCH  13  14
ENDBRANCH  12  13
ENDBRANCH  11  12
ENDBRANCH  10  11
ENDBRANCH   9  10
ENDBRANCH   6   9
ENDBRANCH   4   5
ENDBRANCH   3   4
ENDBRANCH   1   3
BRANCH   1  27
HETATM   27  O4  UNL     1       0.232  51.362 -13.942  1.00  0.00    -0.314 OA
BRANCH  27  28
HETATM   28  C16 UNL     1      -1.104  51.829 -13.796  1.00  0.00     0.260 C 
BRANCH  28  29
HETATM   29  C17 UNL     1      -1.965  51.397 -12.602  1.00  0.00     0.185 C 
HETATM   30  O5  UNL     1      -2.690  50.400 -12.701  1.00  0.00    -0.292 OA
BRANCH  29  31
HETATM   31  C18 UNL     1      -2.005  52.312 -11.353  1.00  0.00     0.128 C 
HETATM   32  C19 UNL     1      -2.769  51.598 -10.204  1.00  0.00     0.047 C 
HETATM   33  C20 UNL     1      -2.136  52.086  -8.888  1.00  0.00     0.009 C 
HETATM   34  C21 UNL     1      -1.070  53.105  -9.304  1.00  0.00     0.002 C 
HETATM   35  C22 UNL     1       0.082  53.351  -8.305  1.00  0.00    -0.004 C 
HETATM   36  C35 UNL     1      -0.609  52.615 -10.696  1.00  0.00    -0.002 C 
HETATM   37  C23 UNL     1      -0.451  54.062  -7.039  1.00  0.00     0.010 C 
HETATM   38  C32 UNL     1       1.281  54.103  -9.004  1.00  0.00     0.002 C 
HETATM   39  C24 UNL     1      -0.340  55.577  -7.123  1.00  0.00     0.035 C 
HETATM   40  C25 UNL     1       1.082  56.034  -7.328  1.00  0.00    -0.068 C 
HETATM   41  C26 UNL     1       1.457  57.255  -6.903  1.00  0.00     0.053 C 
HETATM   42  C30 UNL     1       2.045  55.077  -8.031  1.00  0.00    -0.016 C 
HETATM   43  C27 UNL     1       2.837  57.769  -7.101  1.00  0.00     0.149 C 
HETATM   44  O7  UNL     1       3.148  58.855  -6.612  1.00  0.00    -0.293 OA
HETATM   45  C28 UNL     1       3.825  56.926  -7.871  1.00  0.00     0.084 C 
HETATM   46  C29 UNL     1       3.109  55.931  -8.781  1.00  0.00     0.022 C 
HETATM   47  C31 UNL     1       2.799  54.223  -6.972  1.00  0.00     0.020 C 
HETATM   48  C33 UNL     1       0.836  54.736 -10.349  1.00  0.00     0.007 C 
HETATM   49  C34 UNL     1       0.242  53.724 -11.350  1.00  0.00     0.013 C 
HETATM   50  C36 UNL     1       0.263  51.331 -10.598  1.00  0.00     0.019 C 
BRANCH  31  51
HETATM   51  O6  UNL     1      -2.769  53.495 -11.609  1.00  0.00    -0.381 OA
HETATM   52  H29 UNL     1      -2.206  54.285 -11.561  1.00  0.00     0.211 HD
ENDBRANCH  31  51
ENDBRANCH  29  31
ENDBRANCH  28  29
ENDBRANCH  27  28
ENDBRANCH   1  27
TORSDOF 19
ENDMDL
