MODEL 1
REMARK minimizedAffinity -9.6376791
REMARK  6 active torsions:
REMARK  status: ('A' for Active; 'I' for Inactive)
REMARK    1  A    between atoms: C2_2  and  C30_31 
REMARK    2  A    between atoms: C3_3  and  C4_4 
REMARK    3  A    between atoms: C4_4  and  C5_5 
REMARK    4  A    between atoms: C5_5  and  C6_6 
REMARK    5  A    between atoms: C6_6  and  C8_8 
REMARK    6  A    between atoms: C30_31  and  O3_33 
ROOT
HETATM    1  C8  UNL     1       0.915   6.569  12.378  1.00  0.00    -0.002 C 
HETATM    2  C9  UNL     1       1.000   5.087  11.925  1.00  0.00     0.007 C 
HETATM    3  C10 UNL     1      -0.377   4.446  12.222  1.00  0.00     0.015 C 
HETATM    4  C11 UNL     1      -1.132   5.490  13.075  1.00  0.00    -0.013 C 
HETATM    5  C12 UNL     1      -0.674   5.255  14.552  1.00  0.00     0.021 C 
HETATM    6  C13 UNL     1      -2.655   5.452  13.104  1.00  0.00    -0.070 C 
HETATM    7  C14 UNL     1      -3.344   4.298  13.037  1.00  0.00    -0.022 C 
HETATM    8  C15 UNL     1      -4.831   4.186  13.200  1.00  0.00     0.034 C 
HETATM    9  C16 UNL     1      -5.574   5.540  13.202  1.00  0.00     0.013 C 
HETATM   10  C17 UNL     1      -7.121   5.459  13.502  1.00  0.00     0.018 C 
HETATM   11  C18 UNL     1      -7.909   5.769  12.210  1.00  0.00     0.023 C 
HETATM   12  C19 UNL     1      -7.578   4.068  13.994  1.00  0.00     0.023 C 
HETATM   13  C20 UNL     1      -7.584   6.496  14.538  1.00  0.00     0.135 C 
HETATM   14  O1  UNL     1      -8.512   6.263  15.319  1.00  0.00    -0.297 OA
HETATM   15  C21 UNL     1      -6.966   7.872  14.535  1.00  0.00     0.080 C 
HETATM   16  C22 UNL     1      -5.579   7.938  13.920  1.00  0.00     0.017 C 
HETATM   17  C23 UNL     1      -4.779   6.619  14.017  1.00  0.00    -0.031 C 
HETATM   18  C24 UNL     1      -4.590   6.216  15.500  1.00  0.00     0.016 C 
HETATM   19  C25 UNL     1      -3.376   6.792  13.304  1.00  0.00     0.024 C 
HETATM   20  C26 UNL     1      -2.464   7.884  13.920  1.00  0.00     0.010 C 
HETATM   21  C27 UNL     1      -1.055   8.021  13.292  1.00  0.00     0.011 C 
HETATM   22  C28 UNL     1      -0.626   6.823  12.425  1.00  0.00    -0.029 C 
HETATM   23  C29 UNL     1      -1.145   7.047  10.969  1.00  0.00     0.016 C 
ENDROOT
BRANCH   1  24
HETATM   24  C6  UNL     1       1.787   7.616  11.623  1.00  0.00    -0.014 C 
HETATM   25  C7  UNL     1       1.067   8.451  10.561  1.00  0.00     0.010 C 
BRANCH  24  26
HETATM   26  C5  UNL     1       3.091   6.985  11.058  1.00  0.00     0.008 C 
BRANCH  26  27
HETATM   27  C4  UNL     1       3.781   7.698   9.884  1.00  0.00     0.028 C 
BRANCH  27  28
HETATM   28  C3  UNL     1       2.953   7.714   8.628  1.00  0.00    -0.013 C 
HETATM   29  C2  UNL     1       2.586   6.676   7.851  1.00  0.00     0.008 C 
HETATM   30  C1  UNL     1       1.720   6.860   6.638  1.00  0.00     0.055 C 
BRANCH  29  31
HETATM   31  C30 UNL     1       3.035   5.293   8.128  1.00  0.00     0.171 C 
HETATM   32  O2  UNL     1       3.068   4.730   9.206  1.00  0.00    -0.646 OA
BRANCH  31  33
HETATM   33  O3  UNL     1       3.437   4.677   7.002  1.00  0.00    -0.773 OA
HETATM   34  H46 UNL     1       3.700   3.785   7.309  1.00  0.00     0.167 HD
ENDBRANCH  31  33
ENDBRANCH  29  31
ENDBRANCH  27  28
ENDBRANCH  26  27
ENDBRANCH  24  26
ENDBRANCH   1  24
TORSDOF 6
ENDMDL
MODEL 2
REMARK minimizedAffinity -9.45986748
REMARK  6 active torsions:
REMARK  status: ('A' for Active; 'I' for Inactive)
REMARK    1  A    between atoms: C2_2  and  C30_31 
REMARK    2  A    between atoms: C3_3  and  C4_4 
REMARK    3  A    between atoms: C4_4  and  C5_5 
REMARK    4  A    between atoms: C5_5  and  C6_6 
REMARK    5  A    between atoms: C6_6  and  C8_8 
REMARK    6  A    between atoms: C30_31  and  O3_33 
ROOT
HETATM    1  C8  UNL     1      -5.151   7.962  15.382  1.00  0.00    -0.002 C 
HETATM    2  C9  UNL     1      -4.867   9.464  15.656  1.00  0.00     0.007 C 
HETATM    3  C10 UNL     1      -3.434   9.750  15.149  1.00  0.00     0.015 C 
HETATM    4  C11 UNL     1      -2.831   8.362  14.839  1.00  0.00    -0.013 C 
HETATM    5  C12 UNL     1      -2.271   7.821  16.195  1.00  0.00     0.021 C 
HETATM    6  C13 UNL     1      -1.676   8.266  13.849  1.00  0.00    -0.070 C 
HETATM    7  C14 UNL     1      -0.743   9.230  13.742  1.00  0.00    -0.022 C 
HETATM    8  C15 UNL     1       0.487   9.130  12.890  1.00  0.00     0.034 C 
HETATM    9  C16 UNL     1       0.494   7.926  11.922  1.00  0.00     0.013 C 
HETATM   10  C17 UNL     1       1.831   7.723  11.109  1.00  0.00     0.018 C 
HETATM   11  C18 UNL     1       1.585   8.079   9.626  1.00  0.00     0.023 C 
HETATM   12  C19 UNL     1       2.992   8.612  11.606  1.00  0.00     0.023 C 
HETATM   13  C20 UNL     1       2.321   6.266  11.118  1.00  0.00     0.135 C 
HETATM   14  O1  UNL     1       3.524   5.986  11.087  1.00  0.00    -0.297 OA
HETATM   15  C21 UNL     1       1.313   5.146  11.054  1.00  0.00     0.080 C 
HETATM   16  C22 UNL     1      -0.071   5.514  11.559  1.00  0.00     0.017 C 
HETATM   17  C23 UNL     1      -0.081   6.641  12.617  1.00  0.00    -0.031 C 
HETATM   18  C24 UNL     1       0.748   6.220  13.854  1.00  0.00     0.016 C 
HETATM   19  C25 UNL     1      -1.572   6.972  13.031  1.00  0.00     0.024 C 
HETATM   20  C26 UNL     1      -2.346   5.790  13.669  1.00  0.00     0.010 C 
HETATM   21  C27 UNL     1      -3.782   6.106  14.156  1.00  0.00     0.011 C 
HETATM   22  C28 UNL     1      -4.090   7.609  14.291  1.00  0.00    -0.029 C 
HETATM   23  C29 UNL     1      -4.590   8.143  12.911  1.00  0.00     0.016 C 
ENDROOT
BRANCH   1  24
HETATM   24  C6  UNL     1      -6.624   7.534  15.110  1.00  0.00    -0.014 C 
HETATM   25  C7  UNL     1      -7.676   8.641  15.213  1.00  0.00     0.010 C 
BRANCH  24  26
HETATM   26  C5  UNL     1      -7.030   6.289  15.949  1.00  0.00     0.008 C 
BRANCH  26  27
HETATM   27  C4  UNL     1      -7.374   4.997  15.191  1.00  0.00     0.028 C 
BRANCH  27  28
HETATM   28  C3  UNL     1      -6.477   4.743  14.009  1.00  0.00    -0.013 C 
HETATM   29  C2  UNL     1      -6.643   3.862  13.004  1.00  0.00     0.008 C 
HETATM   30  C1  UNL     1      -5.663   3.757  11.871  1.00  0.00     0.055 C 
BRANCH  29  31
HETATM   31  C30 UNL     1      -7.787   2.923  12.965  1.00  0.00     0.171 C 
HETATM   32  O2  UNL     1      -7.744   1.708  12.923  1.00  0.00    -0.646 OA
BRANCH  31  33
HETATM   33  O3  UNL     1      -8.958   3.584  12.973  1.00  0.00    -0.773 OA
HETATM   34  H46 UNL     1      -9.627   2.867  12.950  1.00  0.00     0.167 HD
ENDBRANCH  31  33
ENDBRANCH  29  31
ENDBRANCH  27  28
ENDBRANCH  26  27
ENDBRANCH  24  26
ENDBRANCH   1  24
TORSDOF 6
ENDMDL
MODEL 3
REMARK minimizedAffinity -9.134758
REMARK  6 active torsions:
REMARK  status: ('A' for Active; 'I' for Inactive)
REMARK    1  A    between atoms: C2_2  and  C30_31 
REMARK    2  A    between atoms: C3_3  and  C4_4 
REMARK    3  A    between atoms: C4_4  and  C5_5 
REMARK    4  A    between atoms: C5_5  and  C6_6 
REMARK    5  A    between atoms: C6_6  and  C8_8 
REMARK    6  A    between atoms: C30_31  and  O3_33 
ROOT
HETATM    1  C8  UNL     1       1.029   6.700  12.405  1.00  0.00    -0.002 C 
HETATM    2  C9  UNL     1       1.124   5.258  11.838  1.00  0.00     0.007 C 
HETATM    3  C10 UNL     1      -0.246   4.584  12.093  1.00  0.00     0.015 C 
HETATM    4  C11 UNL     1      -1.004   5.552  13.028  1.00  0.00    -0.013 C 
HETATM    5  C12 UNL     1      -0.535   5.208  14.480  1.00  0.00     0.021 C 
HETATM    6  C13 UNL     1      -2.527   5.499  13.063  1.00  0.00    -0.070 C 
HETATM    7  C14 UNL     1      -3.206   4.348  12.911  1.00  0.00    -0.022 C 
HETATM    8  C15 UNL     1      -4.691   4.210  13.073  1.00  0.00     0.034 C 
HETATM    9  C16 UNL     1      -5.446   5.554  13.183  1.00  0.00     0.013 C 
HETATM   10  C17 UNL     1      -6.990   5.436  13.486  1.00  0.00     0.018 C 
HETATM   11  C18 UNL     1      -7.788   5.838  12.226  1.00  0.00     0.023 C 
HETATM   12  C19 UNL     1      -7.432   4.007  13.871  1.00  0.00     0.023 C 
HETATM   13  C20 UNL     1      -7.455   6.385  14.601  1.00  0.00     0.135 C 
HETATM   14  O1  UNL     1      -8.376   6.085  15.368  1.00  0.00    -0.297 OA
HETATM   15  C21 UNL     1      -6.848   7.763  14.701  1.00  0.00     0.080 C 
HETATM   16  C22 UNL     1      -5.466   7.889  14.086  1.00  0.00     0.017 C 
HETATM   17  C23 UNL     1      -4.654   6.574  14.075  1.00  0.00    -0.031 C 
HETATM   18  C24 UNL     1      -4.452   6.058  15.521  1.00  0.00     0.016 C 
HETATM   19  C25 UNL     1      -3.257   6.813  13.370  1.00  0.00     0.024 C 
HETATM   20  C26 UNL     1      -2.351   7.862  14.063  1.00  0.00     0.010 C 
HETATM   21  C27 UNL     1      -0.947   8.060  13.440  1.00  0.00     0.011 C 
HETATM   22  C28 UNL     1      -0.514   6.936  12.480  1.00  0.00    -0.029 C 
HETATM   23  C29 UNL     1      -1.043   7.268  11.049  1.00  0.00     0.016 C 
ENDROOT
BRANCH   1  24
HETATM   24  C6  UNL     1       1.888   7.810  11.728  1.00  0.00    -0.014 C 
HETATM   25  C7  UNL     1       1.793   9.206  12.348  1.00  0.00     0.010 C 
BRANCH  24  26
HETATM   26  C5  UNL     1       1.664   7.858  10.189  1.00  0.00     0.008 C 
BRANCH  26  27
HETATM   27  C4  UNL     1       2.878   7.603   9.282  1.00  0.00     0.028 C 
BRANCH  27  28
HETATM   28  C3  UNL     1       4.117   8.333   9.725  1.00  0.00    -0.013 C 
HETATM   29  C2  UNL     1       5.175   7.852  10.407  1.00  0.00     0.008 C 
HETATM   30  C1  UNL     1       6.359   8.712  10.743  1.00  0.00     0.055 C 
BRANCH  29  31
HETATM   31  C30 UNL     1       5.227   6.454  10.889  1.00  0.00     0.171 C 
HETATM   32  O2  UNL     1       5.291   5.443  10.215  1.00  0.00    -0.646 OA
BRANCH  31  33
HETATM   33  O3  UNL     1       5.187   6.401  12.232  1.00  0.00    -0.773 OA
HETATM   34  H46 UNL     1       5.231   5.441  12.426  1.00  0.00     0.167 HD
ENDBRANCH  31  33
ENDBRANCH  29  31
ENDBRANCH  27  28
ENDBRANCH  26  27
ENDBRANCH  24  26
ENDBRANCH   1  24
TORSDOF 6
ENDMDL
MODEL 4
REMARK minimizedAffinity -8.84699726
REMARK  6 active torsions:
REMARK  status: ('A' for Active; 'I' for Inactive)
REMARK    1  A    between atoms: C2_2  and  C30_31 
REMARK    2  A    between atoms: C3_3  and  C4_4 
REMARK    3  A    between atoms: C4_4  and  C5_5 
REMARK    4  A    between atoms: C5_5  and  C6_6 
REMARK    5  A    between atoms: C6_6  and  C8_8 
REMARK    6  A    between atoms: C30_31  and  O3_33 
ROOT
HETATM    1  C8  UNL     1      -2.915   7.133  14.036  1.00  0.00    -0.002 C 
HETATM    2  C9  UNL     1      -3.114   5.842  13.198  1.00  0.00     0.007 C 
HETATM    3  C10 UNL     1      -4.632   5.540  13.192  1.00  0.00     0.015 C 
HETATM    4  C11 UNL     1      -5.239   6.503  14.236  1.00  0.00    -0.013 C 
HETATM    5  C12 UNL     1      -5.077   5.796  15.622  1.00  0.00     0.021 C 
HETATM    6  C13 UNL     1      -6.715   6.868  14.129  1.00  0.00    -0.070 C 
HETATM    7  C14 UNL     1      -7.638   5.994  13.688  1.00  0.00    -0.022 C 
HETATM    8  C15 UNL     1      -9.117   6.246  13.691  1.00  0.00     0.034 C 
HETATM    9  C16 UNL     1      -9.511   7.706  14.008  1.00  0.00     0.013 C 
HETATM   10  C17 UNL     1     -11.061   7.969  14.147  1.00  0.00     0.018 C 
HETATM   11  C18 UNL     1     -11.550   8.789  12.932  1.00  0.00     0.023 C 
HETATM   12  C19 UNL     1     -11.901   6.674  14.193  1.00  0.00     0.023 C 
HETATM   13  C20 UNL     1     -11.417   8.802  15.388  1.00  0.00     0.135 C 
HETATM   14  O1  UNL     1     -12.480   8.640  15.996  1.00  0.00    -0.297 OA
HETATM   15  C21 UNL     1     -10.499   9.920  15.819  1.00  0.00     0.080 C 
HETATM   16  C22 UNL     1      -9.059   9.763  15.362  1.00  0.00     0.017 C 
HETATM   17  C23 UNL     1      -8.616   8.297  15.153  1.00  0.00    -0.031 C 
HETATM   18  C24 UNL     1      -8.753   7.504  16.476  1.00  0.00     0.016 C 
HETATM   19  C25 UNL     1      -7.121   8.259  14.633  1.00  0.00     0.024 C 
HETATM   20  C26 UNL     1      -6.081   8.880  15.601  1.00  0.00     0.010 C 
HETATM   21  C27 UNL     1      -4.602   8.786  15.154  1.00  0.00     0.011 C 
HETATM   22  C28 UNL     1      -4.342   7.770  14.025  1.00  0.00    -0.029 C 
HETATM   23  C29 UNL     1      -4.568   8.478  12.653  1.00  0.00     0.016 C 
ENDROOT
BRANCH   1  24
HETATM   24  C6  UNL     1      -1.717   8.062  13.676  1.00  0.00    -0.014 C 
HETATM   25  C7  UNL     1      -1.067   8.806  14.845  1.00  0.00     0.010 C 
BRANCH  24  26
HETATM   26  C5  UNL     1      -2.067   9.033  12.512  1.00  0.00     0.008 C 
BRANCH  26  27
HETATM   27  C4  UNL     1      -1.358   8.821  11.165  1.00  0.00     0.028 C 
BRANCH  27  28
HETATM   28  C3  UNL     1       0.083   8.409  11.310  1.00  0.00    -0.013 C 
HETATM   29  C2  UNL     1       0.997   8.200  10.342  1.00  0.00     0.008 C 
HETATM   30  C1  UNL     1       2.415   7.824  10.659  1.00  0.00     0.055 C 
BRANCH  29  31
HETATM   31  C30 UNL     1       0.655   8.304   8.905  1.00  0.00     0.171 C 
HETATM   32  O2  UNL     1       1.158   7.693   7.981  1.00  0.00    -0.646 OA
BRANCH  31  33
HETATM   33  O3  UNL     1      -0.324   9.203   8.702  1.00  0.00    -0.773 OA
HETATM   34  H46 UNL     1      -0.461   9.178   7.732  1.00  0.00     0.167 HD
ENDBRANCH  31  33
ENDBRANCH  29  31
ENDBRANCH  27  28
ENDBRANCH  26  27
ENDBRANCH  24  26
ENDBRANCH   1  24
TORSDOF 6
ENDMDL
MODEL 5
REMARK minimizedAffinity -8.82042599
REMARK  6 active torsions:
REMARK  status: ('A' for Active; 'I' for Inactive)
REMARK    1  A    between atoms: C2_2  and  C30_31 
REMARK    2  A    between atoms: C3_3  and  C4_4 
REMARK    3  A    between atoms: C4_4  and  C5_5 
REMARK    4  A    between atoms: C5_5  and  C6_6 
REMARK    5  A    between atoms: C6_6  and  C8_8 
REMARK    6  A    between atoms: C30_31  and  O3_33 
ROOT
HETATM    1  C8  UNL     1      -2.887   8.603  15.323  1.00  0.00    -0.002 C 
HETATM    2  C9  UNL     1      -1.931   8.960  16.493  1.00  0.00     0.007 C 
HETATM    3  C10 UNL     1      -0.501   8.584  16.036  1.00  0.00     0.015 C 
HETATM    4  C11 UNL     1      -0.693   7.782  14.729  1.00  0.00    -0.013 C 
HETATM    5  C12 UNL     1      -0.970   6.305  15.165  1.00  0.00     0.021 C 
HETATM    6  C13 UNL     1       0.460   7.709  13.735  1.00  0.00    -0.070 C 
HETATM    7  C14 UNL     1       1.746   7.682  14.131  1.00  0.00    -0.022 C 
HETATM    8  C15 UNL     1       2.913   7.472  13.212  1.00  0.00     0.034 C 
HETATM    9  C16 UNL     1       2.559   7.539  11.709  1.00  0.00     0.013 C 
HETATM   10  C17 UNL     1       3.741   7.192  10.723  1.00  0.00     0.018 C 
HETATM   11  C18 UNL     1       4.200   8.481  10.005  1.00  0.00     0.023 C 
HETATM   12  C19 UNL     1       4.978   6.599  11.433  1.00  0.00     0.023 C 
HETATM   13  C20 UNL     1       3.325   6.215   9.613  1.00  0.00     0.135 C 
HETATM   14  O1  UNL     1       4.119   5.395   9.139  1.00  0.00    -0.297 OA
HETATM   15  C21 UNL     1       1.948   6.325   9.007  1.00  0.00     0.080 C 
HETATM   16  C22 UNL     1       0.915   6.979   9.906  1.00  0.00     0.017 C 
HETATM   17  C23 UNL     1       1.196   6.818  11.418  1.00  0.00    -0.031 C 
HETATM   18  C24 UNL     1       1.231   5.318  11.798  1.00  0.00     0.016 C 
HETATM   19  C25 UNL     1       0.086   7.578  12.252  1.00  0.00     0.024 C 
HETATM   20  C26 UNL     1      -1.358   7.060  12.035  1.00  0.00     0.010 C 
HETATM   21  C27 UNL     1      -2.454   7.733  12.897  1.00  0.00     0.011 C 
HETATM   22  C28 UNL     1      -1.916   8.531  14.100  1.00  0.00    -0.029 C 
HETATM   23  C29 UNL     1      -1.589   9.983  13.630  1.00  0.00     0.016 C 
ENDROOT
BRANCH   1  24
HETATM   24  C6  UNL     1      -4.185   9.448  15.154  1.00  0.00    -0.014 C 
HETATM   25  C7  UNL     1      -4.254  10.743  15.967  1.00  0.00     0.010 C 
BRANCH  24  26
HETATM   26  C5  UNL     1      -5.466   8.588  15.350  1.00  0.00     0.008 C 
BRANCH  26  27
HETATM   27  C4  UNL     1      -5.338   7.066  15.179  1.00  0.00     0.028 C 
BRANCH  27  28
HETATM   28  C3  UNL     1      -6.199   6.516  14.074  1.00  0.00    -0.013 C 
HETATM   29  C2  UNL     1      -7.433   5.982  14.158  1.00  0.00     0.008 C 
HETATM   30  C1  UNL     1      -8.177   5.508  12.943  1.00  0.00     0.055 C 
BRANCH  29  31
HETATM   31  C30 UNL     1      -8.123   5.804  15.455  1.00  0.00     0.171 C 
HETATM   32  O2  UNL     1      -8.861   6.594  16.013  1.00  0.00    -0.646 OA
BRANCH  31  33
HETATM   33  O3  UNL     1      -7.833   4.609  16.001  1.00  0.00    -0.773 OA
HETATM   34  H46 UNL     1      -8.343   4.608  16.838  1.00  0.00     0.167 HD
ENDBRANCH  31  33
ENDBRANCH  29  31
ENDBRANCH  27  28
ENDBRANCH  26  27
ENDBRANCH  24  26
ENDBRANCH   1  24
TORSDOF 6
ENDMDL
MODEL 6
REMARK minimizedAffinity -8.80448818
REMARK  6 active torsions:
REMARK  status: ('A' for Active; 'I' for Inactive)
REMARK    1  A    between atoms: C2_2  and  C30_31 
REMARK    2  A    between atoms: C3_3  and  C4_4 
REMARK    3  A    between atoms: C4_4  and  C5_5 
REMARK    4  A    between atoms: C5_5  and  C6_6 
REMARK    5  A    between atoms: C6_6  and  C8_8 
REMARK    6  A    between atoms: C30_31  and  O3_33 
ROOT
HETATM    1  C8  UNL     1      -1.440   5.972  12.310  1.00  0.00    -0.002 C 
HETATM    2  C9  UNL     1      -0.040   6.400  11.793  1.00  0.00     0.007 C 
HETATM    3  C10 UNL     1       0.356   7.677  12.573  1.00  0.00     0.015 C 
HETATM    4  C11 UNL     1      -0.924   8.104  13.325  1.00  0.00    -0.013 C 
HETATM    5  C12 UNL     1      -1.760   8.952  12.310  1.00  0.00     0.021 C 
HETATM    6  C13 UNL     1      -0.791   8.969  14.572  1.00  0.00    -0.070 C 
HETATM    7  C14 UNL     1       0.173   9.900  14.698  1.00  0.00    -0.022 C 
HETATM    8  C15 UNL     1       0.271  10.872  15.836  1.00  0.00     0.034 C 
HETATM    9  C16 UNL     1      -0.681  10.570  17.014  1.00  0.00     0.013 C 
HETATM   10  C17 UNL     1      -0.692  11.649  18.165  1.00  0.00     0.018 C 
HETATM   11  C18 UNL     1      -0.008  11.063  19.420  1.00  0.00     0.023 C 
HETATM   12  C19 UNL     1       0.062  12.946  17.797  1.00  0.00     0.023 C 
HETATM   13  C20 UNL     1      -2.112  12.042  18.603  1.00  0.00     0.135 C 
HETATM   14  O1  UNL     1      -2.377  13.182  19.000  1.00  0.00    -0.297 OA
HETATM   15  C21 UNL     1      -3.190  10.988  18.653  1.00  0.00     0.080 C 
HETATM   16  C22 UNL     1      -2.948   9.796  17.744  1.00  0.00     0.017 C 
HETATM   17  C23 UNL     1      -2.091  10.113  16.497  1.00  0.00    -0.031 C 
HETATM   18  C24 UNL     1      -2.782  11.198  15.635  1.00  0.00     0.016 C 
HETATM   19  C25 UNL     1      -1.865   8.793  15.654  1.00  0.00     0.024 C 
HETATM   20  C26 UNL     1      -3.162   8.135  15.117  1.00  0.00     0.010 C 
HETATM   21  C27 UNL     1      -2.967   6.886  14.223  1.00  0.00     0.011 C 
HETATM   22  C28 UNL     1      -1.534   6.707  13.686  1.00  0.00    -0.029 C 
HETATM   23  C29 UNL     1      -0.701   5.912  14.740  1.00  0.00     0.016 C 
ENDROOT
BRANCH   1  24
HETATM   24  C6  UNL     1      -1.797   4.456  12.285  1.00  0.00    -0.014 C 
HETATM   25  C7  UNL     1      -0.741   3.526  11.683  1.00  0.00     0.010 C 
BRANCH  24  26
HETATM   26  C5  UNL     1      -3.198   4.201  11.660  1.00  0.00     0.008 C 
BRANCH  26  27
HETATM   27  C4  UNL     1      -4.303   3.658  12.580  1.00  0.00     0.028 C 
BRANCH  27  28
HETATM   28  C3  UNL     1      -5.386   4.663  12.868  1.00  0.00    -0.013 C 
HETATM   29  C2  UNL     1      -6.715   4.463  12.952  1.00  0.00     0.008 C 
HETATM   30  C1  UNL     1      -7.665   5.577  13.286  1.00  0.00     0.055 C 
BRANCH  29  31
HETATM   31  C30 UNL     1      -7.327   3.139  12.697  1.00  0.00     0.171 C 
HETATM   32  O2  UNL     1      -6.816   2.186  12.140  1.00  0.00    -0.646 OA
BRANCH  31  33
HETATM   33  O3  UNL     1      -8.588   3.089  13.161  1.00  0.00    -0.773 OA
HETATM   34  H46 UNL     1      -8.878   2.179  12.941  1.00  0.00     0.167 HD
ENDBRANCH  31  33
ENDBRANCH  29  31
ENDBRANCH  27  28
ENDBRANCH  26  27
ENDBRANCH  24  26
ENDBRANCH   1  24
TORSDOF 6
ENDMDL
MODEL 7
REMARK minimizedAffinity -8.67986774
REMARK  6 active torsions:
REMARK  status: ('A' for Active; 'I' for Inactive)
REMARK    1  A    between atoms: C2_2  and  C30_31 
REMARK    2  A    between atoms: C3_3  and  C4_4 
REMARK    3  A    between atoms: C4_4  and  C5_5 
REMARK    4  A    between atoms: C5_5  and  C6_6 
REMARK    5  A    between atoms: C6_6  and  C8_8 
REMARK    6  A    between atoms: C30_31  and  O3_33 
ROOT
HETATM    1  C8  UNL     1       1.357   6.530  11.606  1.00  0.00    -0.002 C 
HETATM    2  C9  UNL     1       1.365   5.028  11.214  1.00  0.00     0.007 C 
HETATM    3  C10 UNL     1       0.018   4.432  11.688  1.00  0.00     0.015 C 
HETATM    4  C11 UNL     1      -0.620   5.530  12.569  1.00  0.00    -0.013 C 
HETATM    5  C12 UNL     1      -0.009   5.349  13.997  1.00  0.00     0.021 C 
HETATM    6  C13 UNL     1      -2.132   5.529  12.764  1.00  0.00    -0.070 C 
HETATM    7  C14 UNL     1      -2.845   4.389  12.825  1.00  0.00    -0.022 C 
HETATM    8  C15 UNL     1      -4.307   4.318  13.152  1.00  0.00     0.034 C 
HETATM    9  C16 UNL     1      -5.021   5.688  13.172  1.00  0.00     0.013 C 
HETATM   10  C17 UNL     1      -6.527   5.656  13.642  1.00  0.00     0.018 C 
HETATM   11  C18 UNL     1      -7.445   5.928  12.430  1.00  0.00     0.023 C 
HETATM   12  C19 UNL     1      -6.953   4.298  14.243  1.00  0.00     0.023 C 
HETATM   13  C20 UNL     1      -6.855   6.747  14.673  1.00  0.00     0.135 C 
HETATM   14  O1  UNL     1      -7.697   6.570  15.560  1.00  0.00    -0.297 OA
HETATM   15  C21 UNL     1      -6.216   8.107  14.541  1.00  0.00     0.080 C 
HETATM   16  C22 UNL     1      -4.903   8.115  13.777  1.00  0.00     0.017 C 
HETATM   17  C23 UNL     1      -4.122   6.783  13.847  1.00  0.00    -0.031 C 
HETATM   18  C24 UNL     1      -3.780   6.440  15.317  1.00  0.00     0.016 C 
HETATM   19  C25 UNL     1      -2.802   6.892  12.979  1.00  0.00     0.024 C 
HETATM   20  C26 UNL     1      -1.809   7.989  13.443  1.00  0.00     0.010 C 
HETATM   21  C27 UNL     1      -0.475   8.066  12.661  1.00  0.00     0.011 C 
HETATM   22  C28 UNL     1      -0.165   6.821  11.808  1.00  0.00    -0.029 C 
HETATM   23  C29 UNL     1      -0.834   6.994  10.408  1.00  0.00     0.016 C 
ENDROOT
BRANCH   1  24
HETATM   24  C6  UNL     1       2.161   7.523  10.714  1.00  0.00    -0.014 C 
HETATM   25  C7  UNL     1       2.923   6.906   9.539  1.00  0.00     0.010 C 
BRANCH  24  26
HETATM   26  C5  UNL     1       3.080   8.449  11.561  1.00  0.00     0.008 C 
BRANCH  26  27
HETATM   27  C4  UNL     1       3.698   7.867  12.841  1.00  0.00     0.028 C 
BRANCH  27  28
HETATM   28  C3  UNL     1       5.198   7.763  12.784  1.00  0.00    -0.013 C 
HETATM   29  C2  UNL     1       6.081   7.793  13.801  1.00  0.00     0.008 C 
HETATM   30  C1  UNL     1       7.558   7.639  13.575  1.00  0.00     0.055 C 
BRANCH  29  31
HETATM   31  C30 UNL     1       5.655   8.006  15.203  1.00  0.00     0.171 C 
HETATM   32  O2  UNL     1       5.628   9.057  15.814  1.00  0.00    -0.646 OA
BRANCH  31  33
HETATM   33  O3  UNL     1       5.284   6.849  15.779  1.00  0.00    -0.773 OA
HETATM   34  H46 UNL     1       5.024   7.116  16.685  1.00  0.00     0.167 HD
ENDBRANCH  31  33
ENDBRANCH  29  31
ENDBRANCH  27  28
ENDBRANCH  26  27
ENDBRANCH  24  26
ENDBRANCH   1  24
TORSDOF 6
ENDMDL
MODEL 8
REMARK minimizedAffinity -8.59059525
REMARK  6 active torsions:
REMARK  status: ('A' for Active; 'I' for Inactive)
REMARK    1  A    between atoms: C2_2  and  C30_31 
REMARK    2  A    between atoms: C3_3  and  C4_4 
REMARK    3  A    between atoms: C4_4  and  C5_5 
REMARK    4  A    between atoms: C5_5  and  C6_6 
REMARK    5  A    between atoms: C6_6  and  C8_8 
REMARK    6  A    between atoms: C30_31  and  O3_33 
ROOT
HETATM    1  C8  UNL     1      -3.176   8.122  14.803  1.00  0.00    -0.002 C 
HETATM    2  C9  UNL     1      -2.594   8.241  16.237  1.00  0.00     0.007 C 
HETATM    3  C10 UNL     1      -1.061   8.067  16.117  1.00  0.00     0.015 C 
HETATM    4  C11 UNL     1      -0.823   7.593  14.666  1.00  0.00    -0.013 C 
HETATM    5  C12 UNL     1      -1.024   6.042  14.679  1.00  0.00     0.021 C 
HETATM    6  C13 UNL     1       0.543   7.826  14.031  1.00  0.00    -0.070 C 
HETATM    7  C14 UNL     1       1.682   7.777  14.747  1.00  0.00    -0.022 C 
HETATM    8  C15 UNL     1       3.059   7.860  14.157  1.00  0.00     0.034 C 
HETATM    9  C16 UNL     1       3.090   8.266  12.667  1.00  0.00     0.013 C 
HETATM   10  C17 UNL     1       4.514   8.233  11.989  1.00  0.00     0.018 C 
HETATM   11  C18 UNL     1       4.984   9.680  11.720  1.00  0.00     0.023 C 
HETATM   12  C19 UNL     1       5.593   7.557  12.863  1.00  0.00     0.023 C 
HETATM   13  C20 UNL     1       4.510   7.529  10.623  1.00  0.00     0.135 C 
HETATM   14  O1  UNL     1       5.488   6.894  10.217  1.00  0.00    -0.297 OA
HETATM   15  C21 UNL     1       3.326   7.704   9.704  1.00  0.00     0.080 C 
HETATM   16  C22 UNL     1       2.030   8.064  10.408  1.00  0.00     0.017 C 
HETATM   17  C23 UNL     1       1.939   7.561  11.867  1.00  0.00    -0.031 C 
HETATM   18  C24 UNL     1       2.054   6.017  11.908  1.00  0.00     0.016 C 
HETATM   19  C25 UNL     1       0.573   8.035  12.511  1.00  0.00     0.024 C 
HETATM   20  C26 UNL     1      -0.699   7.503  11.803  1.00  0.00     0.010 C 
HETATM   21  C27 UNL     1      -2.048   7.886  12.458  1.00  0.00     0.011 C 
HETATM   22  C28 UNL     1      -1.928   8.401  13.905  1.00  0.00    -0.029 C 
HETATM   23  C29 UNL     1      -1.667   9.940  13.869  1.00  0.00     0.016 C 
ENDROOT
BRANCH   1  24
HETATM   24  C6  UNL     1      -4.480   8.909  14.475  1.00  0.00    -0.014 C 
HETATM   25  C7  UNL     1      -4.998   9.841  15.574  1.00  0.00     0.010 C 
BRANCH  24  26
HETATM   26  C5  UNL     1      -5.606   7.972  13.951  1.00  0.00     0.008 C 
BRANCH  26  27
HETATM   27  C4  UNL     1      -5.688   6.555  14.537  1.00  0.00     0.028 C 
BRANCH  27  28
HETATM   28  C3  UNL     1      -5.530   5.472  13.504  1.00  0.00    -0.013 C 
HETATM   29  C2  UNL     1      -6.482   4.695  12.951  1.00  0.00     0.008 C 
HETATM   30  C1  UNL     1      -6.160   3.676  11.896  1.00  0.00     0.055 C 
BRANCH  29  31
HETATM   31  C30 UNL     1      -7.900   4.777  13.366  1.00  0.00     0.171 C 
HETATM   32  O2  UNL     1      -8.567   5.783  13.520  1.00  0.00    -0.646 OA
BRANCH  31  33
HETATM   33  O3  UNL     1      -8.416   3.554  13.581  1.00  0.00    -0.773 OA
HETATM   34  H46 UNL     1      -9.343   3.737  13.841  1.00  0.00     0.167 HD
ENDBRANCH  31  33
ENDBRANCH  29  31
ENDBRANCH  27  28
ENDBRANCH  26  27
ENDBRANCH  24  26
ENDBRANCH   1  24
TORSDOF 6
ENDMDL
MODEL 9
REMARK minimizedAffinity -8.57594872
REMARK  6 active torsions:
REMARK  status: ('A' for Active; 'I' for Inactive)
REMARK    1  A    between atoms: C2_2  and  C30_31 
REMARK    2  A    between atoms: C3_3  and  C4_4 
REMARK    3  A    between atoms: C4_4  and  C5_5 
REMARK    4  A    between atoms: C5_5  and  C6_6 
REMARK    5  A    between atoms: C6_6  and  C8_8 
REMARK    6  A    between atoms: C30_31  and  O3_33 
ROOT
HETATM    1  C8  UNL     1      -4.020   6.259  13.180  1.00  0.00    -0.002 C 
HETATM    2  C9  UNL     1      -2.609   5.740  12.790  1.00  0.00     0.007 C 
HETATM    3  C10 UNL     1      -1.582   6.698  13.441  1.00  0.00     0.015 C 
HETATM    4  C11 UNL     1      -2.417   7.887  13.966  1.00  0.00    -0.013 C 
HETATM    5  C12 UNL     1      -2.594   8.860  12.754  1.00  0.00     0.021 C 
HETATM    6  C13 UNL     1      -1.853   8.738  15.098  1.00  0.00    -0.070 C 
HETATM    7  C14 UNL     1      -0.536   8.984  15.221  1.00  0.00    -0.022 C 
HETATM    8  C15 UNL     1       0.063   9.922  16.227  1.00  0.00     0.034 C 
HETATM    9  C16 UNL     1      -0.927  10.412  17.306  1.00  0.00     0.013 C 
HETATM   10  C17 UNL     1      -0.358  11.501  18.297  1.00  0.00     0.018 C 
HETATM   11  C18 UNL     1      -0.164  10.867  19.693  1.00  0.00     0.023 C 
HETATM   12  C19 UNL     1       1.009  12.072  17.861  1.00  0.00     0.023 C 
HETATM   13  C20 UNL     1      -1.317  12.684  18.501  1.00  0.00     0.135 C 
HETATM   14  O1  UNL     1      -0.901  13.828  18.711  1.00  0.00    -0.297 OA
HETATM   15  C21 UNL     1      -2.803  12.432  18.553  1.00  0.00     0.080 C 
HETATM   16  C22 UNL     1      -3.253  11.167  17.842  1.00  0.00     0.017 C 
HETATM   17  C23 UNL     1      -2.331  10.730  16.682  1.00  0.00    -0.031 C 
HETATM   18  C24 UNL     1      -2.260  11.843  15.608  1.00  0.00     0.016 C 
HETATM   19  C25 UNL     1      -2.869   9.381  16.051  1.00  0.00     0.024 C 
HETATM   20  C26 UNL     1      -4.294   9.470  15.447  1.00  0.00     0.010 C 
HETATM   21  C27 UNL     1      -4.815   8.187  14.753  1.00  0.00     0.011 C 
HETATM   22  C28 UNL     1      -3.721   7.152  14.426  1.00  0.00    -0.029 C 
HETATM   23  C29 UNL     1      -3.517   6.231  15.669  1.00  0.00     0.016 C 
ENDROOT
BRANCH   1  24
HETATM   24  C6  UNL     1      -5.172   5.219  13.307  1.00  0.00    -0.014 C 
HETATM   25  C7  UNL     1      -5.055   3.973  12.425  1.00  0.00     0.010 C 
BRANCH  24  26
HETATM   26  C5  UNL     1      -6.571   5.883  13.165  1.00  0.00     0.008 C 
BRANCH  26  27
HETATM   27  C4  UNL     1      -7.809   4.989  13.339  1.00  0.00     0.028 C 
BRANCH  27  28
HETATM   28  C3  UNL     1      -9.096   5.675  12.968  1.00  0.00    -0.013 C 
HETATM   29  C2  UNL     1      -9.749   6.650  13.631  1.00  0.00     0.008 C 
HETATM   30  C1  UNL     1     -11.016   7.258  13.102  1.00  0.00     0.055 C 
BRANCH  29  31
HETATM   31  C30 UNL     1      -9.273   7.165  14.935  1.00  0.00     0.171 C 
HETATM   32  O2  UNL     1      -8.659   8.195  15.141  1.00  0.00    -0.646 OA
BRANCH  31  33
HETATM   33  O3  UNL     1      -9.597   6.329  15.936  1.00  0.00    -0.773 OA
HETATM   34  H46 UNL     1      -9.240   6.773  16.732  1.00  0.00     0.167 HD
ENDBRANCH  31  33
ENDBRANCH  29  31
ENDBRANCH  27  28
ENDBRANCH  26  27
ENDBRANCH  24  26
ENDBRANCH   1  24
TORSDOF 6
ENDMDL
