MODEL 1
REMARK minimizedAffinity -6.50181532
REMARK CNNscore 0.757131517
REMARK CNNaffinity 6.47258759
REMARK  9 active torsions:
REMARK  status: ('A' for Active; 'I' for Inactive)
REMARK    1  A    between atoms: C2_2  and  C30_33 
REMARK    2  A    between atoms: C3_3  and  C4_4 
REMARK    3  A    between atoms: C4_4  and  C5_5 
REMARK    4  A    between atoms: C5_5  and  C6_6 
REMARK    5  A    between atoms: C6_6  and  C8_8 
REMARK    6  A    between atoms: C10_10  and  O1_11 
REMARK    7  A    between atoms: C23_24  and  O2_25 
REMARK    8  A    between atoms: C29_31  and  O3_32 
REMARK    9  A    between atoms: C30_33  and  O4_34 
ROOT
HETATM    1  C8  UNL     1      -3.480  14.747  18.186  1.00  0.00     0.001 C 
HETATM    2  C9  UNL     1      -2.165  15.400  17.681  1.00  0.00     0.038 C 
HETATM    3  C10 UNL     1      -1.548  14.412  16.664  1.00  0.00     0.132 C 
HETATM    4  C11 UNL     1      -2.720  13.477  16.267  1.00  0.00     0.016 C 
HETATM    5  C12 UNL     1      -3.624  14.215  15.220  1.00  0.00     0.023 C 
HETATM    6  C13 UNL     1      -2.414  12.117  15.644  1.00  0.00    -0.037 C 
HETATM    7  C14 UNL     1      -3.316  11.106  15.776  1.00  0.00    -0.065 C 
HETATM    8  C15 UNL     1      -4.564  11.257  16.669  1.00  0.00     0.036 C 
HETATM    9  C16 UNL     1      -4.727  12.565  17.475  1.00  0.00     0.015 C 
HETATM   10  C17 UNL     1      -3.384  13.274  17.682  1.00  0.00    -0.026 C 
HETATM   11  C18 UNL     1      -2.523  12.405  18.641  1.00  0.00     0.016 C 
HETATM   12  C19 UNL     1      -3.103   9.722  15.090  1.00  0.00    -0.016 C 
HETATM   13  C20 UNL     1      -2.639   8.774  16.222  1.00  0.00     0.020 C 
HETATM   14  C21 UNL     1      -4.438   9.205  14.469  1.00  0.00     0.016 C 
HETATM   15  C22 UNL     1      -4.320   8.460  13.133  1.00  0.00     0.033 C 
HETATM   16  C23 UNL     1      -3.043   7.641  12.998  1.00  0.00     0.126 C 
HETATM   17  C24 UNL     1      -1.766   8.529  13.109  1.00  0.00    -0.017 C 
HETATM   18  C25 UNL     1      -1.384   8.962  11.663  1.00  0.00     0.018 C 
HETATM   19  C26 UNL     1      -0.567   7.712  13.640  1.00  0.00     0.018 C 
HETATM   20  C27 UNL     1      -2.051   9.848  13.932  1.00  0.00     0.011 C 
HETATM   21  C28 UNL     1      -0.781  10.560  14.424  1.00  0.00     0.043 C 
HETATM   22  C29 UNL     1      -1.096  11.975  14.911  1.00  0.00     0.148 C 
ENDROOT
BRANCH   1  23
HETATM   23  C6  UNL     1      -3.894  15.071  19.654  1.00  0.00    -0.013 C 
HETATM   24  C7  UNL     1      -3.750  16.536  20.087  1.00  0.00     0.010 C 
BRANCH  23  25
HETATM   25  C5  UNL     1      -5.370  14.619  19.881  1.00  0.00     0.008 C 
BRANCH  25  26
HETATM   26  C4  UNL     1      -5.522  13.339  20.721  1.00  0.00     0.028 C 
BRANCH  26  27
HETATM   27  C3  UNL     1      -6.397  13.493  21.932  1.00  0.00    -0.022 C 
HETATM   28  C2  UNL     1      -7.742  13.428  22.008  1.00  0.00    -0.064 C 
HETATM   29  C1  UNL     1      -8.668  13.170  20.849  1.00  0.00     0.045 C 
BRANCH  28  30
HETATM   30  C30 UNL     1      -8.444  13.634  23.328  1.00  0.00     0.197 C 
BRANCH  30  31
HETATM   31  O4  UNL     1      -8.512  12.399  24.022  1.00  0.00    -0.397 OA
HETATM   32  H50 UNL     1      -7.621  12.010  23.987  1.00  0.00     0.209 HD
ENDBRANCH  30  31
ENDBRANCH  28  30
ENDBRANCH  26  27
ENDBRANCH  25  26
ENDBRANCH  23  25
ENDBRANCH   1  23
BRANCH   3  33
HETATM   33  O1  UNL     1      -0.979  15.088  15.549  1.00  0.00    -0.394 OA
HETATM   34  H17 UNL     1      -0.378  15.768  15.901  1.00  0.00     0.210 HD
ENDBRANCH   3  33
BRANCH  22  35
HETATM   35  O3  UNL     1      -1.091  12.843  13.783  1.00  0.00    -0.391 OA
HETATM   36  H47 UNL     1      -1.017  13.751  14.145  1.00  0.00     0.210 HD
ENDBRANCH  22  35
BRANCH  16  37
HETATM   37  O2  UNL     1      -3.061   6.601  13.973  1.00  0.00    -0.395 OA
HETATM   38  H36 UNL     1      -3.848   6.054  13.806  1.00  0.00     0.210 HD
ENDBRANCH  16  37
TORSDOF 9
ENDMDL
MODEL 2
REMARK minimizedAffinity -6.64389896
REMARK CNNscore 0.748891175
REMARK CNNaffinity 6.32910776
REMARK  9 active torsions:
REMARK  status: ('A' for Active; 'I' for Inactive)
REMARK    1  A    between atoms: C2_2  and  C30_33 
REMARK    2  A    between atoms: C3_3  and  C4_4 
REMARK    3  A    between atoms: C4_4  and  C5_5 
REMARK    4  A    between atoms: C5_5  and  C6_6 
REMARK    5  A    between atoms: C6_6  and  C8_8 
REMARK    6  A    between atoms: C10_10  and  O1_11 
REMARK    7  A    between atoms: C23_24  and  O2_25 
REMARK    8  A    between atoms: C29_31  and  O3_32 
REMARK    9  A    between atoms: C30_33  and  O4_34 
ROOT
HETATM    1  C8  UNL     1     -15.122   6.718  21.065  1.00  0.00     0.001 C 
HETATM    2  C9  UNL     1     -15.414   8.042  21.822  1.00  0.00     0.038 C 
HETATM    3  C10 UNL     1     -15.262   7.728  23.329  1.00  0.00     0.132 C 
HETATM    4  C11 UNL     1     -14.448   6.410  23.373  1.00  0.00     0.016 C 
HETATM    5  C12 UNL     1     -12.933   6.742  23.142  1.00  0.00     0.023 C 
HETATM    6  C13 UNL     1     -14.481   5.551  24.635  1.00  0.00    -0.037 C 
HETATM    7  C14 UNL     1     -14.249   4.213  24.538  1.00  0.00    -0.065 C 
HETATM    8  C15 UNL     1     -14.105   3.523  23.167  1.00  0.00     0.036 C 
HETATM    9  C16 UNL     1     -14.309   4.380  21.896  1.00  0.00     0.015 C 
HETATM   10  C17 UNL     1     -15.140   5.635  22.187  1.00  0.00    -0.026 C 
HETATM   11  C18 UNL     1     -16.591   5.187  22.516  1.00  0.00     0.016 C 
HETATM   12  C19 UNL     1     -14.182   3.298  25.798  1.00  0.00    -0.016 C 
HETATM   13  C20 UNL     1     -15.534   2.545  25.825  1.00  0.00     0.020 C 
HETATM   14  C21 UNL     1     -13.004   2.283  25.679  1.00  0.00     0.016 C 
HETATM   15  C22 UNL     1     -12.247   1.969  26.976  1.00  0.00     0.033 C 
HETATM   16  C23 UNL     1     -13.127   1.979  28.219  1.00  0.00     0.126 C 
HETATM   17  C24 UNL     1     -13.804   3.366  28.441  1.00  0.00    -0.017 C 
HETATM   18  C25 UNL     1     -12.860   4.191  29.367  1.00  0.00     0.018 C 
HETATM   19  C26 UNL     1     -15.133   3.217  29.213  1.00  0.00     0.018 C 
HETATM   20  C27 UNL     1     -13.943   4.165  27.084  1.00  0.00     0.011 C 
HETATM   21  C28 UNL     1     -14.940   5.332  27.149  1.00  0.00     0.043 C 
HETATM   22  C29 UNL     1     -14.786   6.256  25.941  1.00  0.00     0.148 C 
ENDROOT
BRANCH   1  23
HETATM   23  C6  UNL     1     -15.889   6.503  19.725  1.00  0.00    -0.013 C 
HETATM   24  C7  UNL     1     -17.327   7.040  19.678  1.00  0.00     0.010 C 
BRANCH  23  25
HETATM   25  C5  UNL     1     -15.072   7.144  18.560  1.00  0.00     0.008 C 
BRANCH  25  26
HETATM   26  C4  UNL     1     -15.692   6.947  17.166  1.00  0.00     0.028 C 
BRANCH  26  27
HETATM   27  C3  UNL     1     -14.694   6.908  16.044  1.00  0.00    -0.022 C 
HETATM   28  C2  UNL     1     -14.622   6.039  15.016  1.00  0.00    -0.064 C 
HETATM   29  C1  UNL     1     -15.571   4.894  14.776  1.00  0.00     0.045 C 
BRANCH  28  30
HETATM   30  C30 UNL     1     -13.519   6.154  13.992  1.00  0.00     0.197 C 
BRANCH  30  31
HETATM   31  O4  UNL     1     -12.491   6.989  14.502  1.00  0.00    -0.397 OA
HETATM   32  H50 UNL     1     -12.303   6.680  15.404  1.00  0.00     0.209 HD
ENDBRANCH  30  31
ENDBRANCH  28  30
ENDBRANCH  26  27
ENDBRANCH  25  26
ENDBRANCH  23  25
ENDBRANCH   1  23
BRANCH   3  33
HETATM   33  O1  UNL     1     -14.628   8.792  24.029  1.00  0.00    -0.394 OA
HETATM   34  H17 UNL     1     -15.111   9.609  23.810  1.00  0.00     0.210 HD
ENDBRANCH   3  33
BRANCH  22  35
HETATM   35  O3  UNL     1     -13.747   7.188  26.224  1.00  0.00    -0.391 OA
HETATM   36  H47 UNL     1     -13.857   7.916  25.577  1.00  0.00     0.210 HD
ENDBRANCH  22  35
BRANCH  16  37
HETATM   37  O2  UNL     1     -14.083   0.926  28.112  1.00  0.00    -0.395 OA
HETATM   38  H36 UNL     1     -13.591   0.090  28.037  1.00  0.00     0.210 HD
ENDBRANCH  16  37
TORSDOF 9
ENDMDL
MODEL 3
REMARK minimizedAffinity -7.75399017
REMARK CNNscore 0.726537168
REMARK CNNaffinity 7.22770834
REMARK  9 active torsions:
REMARK  status: ('A' for Active; 'I' for Inactive)
REMARK    1  A    between atoms: C2_2  and  C30_33 
REMARK    2  A    between atoms: C3_3  and  C4_4 
REMARK    3  A    between atoms: C4_4  and  C5_5 
REMARK    4  A    between atoms: C5_5  and  C6_6 
REMARK    5  A    between atoms: C6_6  and  C8_8 
REMARK    6  A    between atoms: C10_10  and  O1_11 
REMARK    7  A    between atoms: C23_24  and  O2_25 
REMARK    8  A    between atoms: C29_31  and  O3_32 
REMARK    9  A    between atoms: C30_33  and  O4_34 
ROOT
HETATM    1  C8  UNL     1     -10.069   8.190  15.004  1.00  0.00     0.001 C 
HETATM    2  C9  UNL     1      -9.895   9.723  14.821  1.00  0.00     0.038 C 
HETATM    3  C10 UNL     1     -11.253  10.260  14.315  1.00  0.00     0.132 C 
HETATM    4  C11 UNL     1     -12.271   9.145  14.667  1.00  0.00     0.016 C 
HETATM    5  C12 UNL     1     -12.633   9.252  16.189  1.00  0.00     0.023 C 
HETATM    6  C13 UNL     1     -13.613   9.099  13.939  1.00  0.00    -0.037 C 
HETATM    7  C14 UNL     1     -14.266   7.910  13.822  1.00  0.00    -0.065 C 
HETATM    8  C15 UNL     1     -13.612   6.588  14.271  1.00  0.00     0.036 C 
HETATM    9  C16 UNL     1     -12.157   6.637  14.790  1.00  0.00     0.015 C 
HETATM   10  C17 UNL     1     -11.415   7.878  14.282  1.00  0.00    -0.026 C 
HETATM   11  C18 UNL     1     -11.210   7.724  12.749  1.00  0.00     0.016 C 
HETATM   12  C19 UNL     1     -15.678   7.811  13.169  1.00  0.00    -0.016 C 
HETATM   13  C20 UNL     1     -15.432   7.235  11.754  1.00  0.00     0.020 C 
HETATM   14  C21 UNL     1     -16.597   6.852  13.987  1.00  0.00     0.016 C 
HETATM   15  C22 UNL     1     -18.073   7.258  14.096  1.00  0.00     0.033 C 
HETATM   16  C23 UNL     1     -18.609   7.962  12.856  1.00  0.00     0.126 C 
HETATM   17  C24 UNL     1     -17.825   9.273  12.546  1.00  0.00    -0.017 C 
HETATM   18  C25 UNL     1     -18.575  10.434  13.265  1.00  0.00     0.018 C 
HETATM   19  C26 UNL     1     -17.873   9.605  11.039  1.00  0.00     0.018 C 
HETATM   20  C27 UNL     1     -16.361   9.224  13.139  1.00  0.00     0.011 C 
HETATM   21  C28 UNL     1     -15.413  10.276  12.544  1.00  0.00     0.043 C 
HETATM   22  C29 UNL     1     -14.137  10.403  13.376  1.00  0.00     0.148 C 
ENDROOT
BRANCH   1  23
HETATM   23  C6  UNL     1      -8.801   7.316  14.759  1.00  0.00    -0.013 C 
HETATM   24  C7  UNL     1      -8.299   6.505  15.962  1.00  0.00     0.010 C 
BRANCH  23  25
HETATM   25  C5  UNL     1      -9.074   6.343  13.571  1.00  0.00     0.008 C 
BRANCH  25  26
HETATM   26  C4  UNL     1      -7.807   5.837  12.860  1.00  0.00     0.028 C 
BRANCH  26  27
HETATM   27  C3  UNL     1      -7.753   4.347  12.675  1.00  0.00    -0.022 C 
HETATM   28  C2  UNL     1      -6.669   3.560  12.524  1.00  0.00    -0.064 C 
HETATM   29  C1  UNL     1      -5.240   4.037  12.519  1.00  0.00     0.045 C 
BRANCH  28  30
HETATM   30  C30 UNL     1      -6.825   2.072  12.325  1.00  0.00     0.197 C 
BRANCH  30  31
HETATM   31  O4  UNL     1      -8.185   1.714  12.512  1.00  0.00    -0.397 OA
HETATM   32  H50 UNL     1      -8.713   2.344  11.993  1.00  0.00     0.209 HD
ENDBRANCH  30  31
ENDBRANCH  28  30
ENDBRANCH  26  27
ENDBRANCH  25  26
ENDBRANCH  23  25
ENDBRANCH   1  23
BRANCH   3  33
HETATM   33  O1  UNL     1     -11.580  11.512  14.906  1.00  0.00    -0.394 OA
HETATM   34  H17 UNL     1     -10.814  12.100  14.778  1.00  0.00     0.210 HD
ENDBRANCH   3  33
BRANCH  22  35
HETATM   35  O3  UNL     1     -14.393  11.307  14.446  1.00  0.00    -0.391 OA
HETATM   36  H47 UNL     1     -13.514  11.578  14.783  1.00  0.00     0.210 HD
ENDBRANCH  22  35
BRANCH  16  37
HETATM   37  O2  UNL     1     -18.581   7.048  11.763  1.00  0.00    -0.395 OA
HETATM   38  H36 UNL     1     -19.137   6.286  12.002  1.00  0.00     0.210 HD
ENDBRANCH  16  37
TORSDOF 9
ENDMDL
MODEL 4
REMARK minimizedAffinity -6.4509387
REMARK CNNscore 0.650915384
REMARK CNNaffinity 6.5108819
REMARK  9 active torsions:
REMARK  status: ('A' for Active; 'I' for Inactive)
REMARK    1  A    between atoms: C2_2  and  C30_33 
REMARK    2  A    between atoms: C3_3  and  C4_4 
REMARK    3  A    between atoms: C4_4  and  C5_5 
REMARK    4  A    between atoms: C5_5  and  C6_6 
REMARK    5  A    between atoms: C6_6  and  C8_8 
REMARK    6  A    between atoms: C10_10  and  O1_11 
REMARK    7  A    between atoms: C23_24  and  O2_25 
REMARK    8  A    between atoms: C29_31  and  O3_32 
REMARK    9  A    between atoms: C30_33  and  O4_34 
ROOT
HETATM    1  C8  UNL     1     -14.264   3.293  25.298  1.00  0.00     0.001 C 
HETATM    2  C9  UNL     1     -15.295   2.139  25.168  1.00  0.00     0.038 C 
HETATM    3  C10 UNL     1     -15.734   1.779  26.606  1.00  0.00     0.132 C 
HETATM    4  C11 UNL     1     -15.324   3.007  27.459  1.00  0.00     0.016 C 
HETATM    5  C12 UNL     1     -16.392   4.139  27.263  1.00  0.00     0.023 C 
HETATM    6  C13 UNL     1     -15.177   2.854  28.971  1.00  0.00    -0.037 C 
HETATM    7  C14 UNL     1     -14.346   3.694  29.648  1.00  0.00    -0.065 C 
HETATM    8  C15 UNL     1     -13.437   4.693  28.905  1.00  0.00     0.036 C 
HETATM    9  C16 UNL     1     -13.436   4.664  27.360  1.00  0.00     0.015 C 
HETATM   10  C17 UNL     1     -13.916   3.313  26.818  1.00  0.00    -0.026 C 
HETATM   11  C18 UNL     1     -12.842   2.245  27.166  1.00  0.00     0.016 C 
HETATM   12  C19 UNL     1     -14.219   3.646  31.201  1.00  0.00    -0.016 C 
HETATM   13  C20 UNL     1     -12.880   2.921  31.477  1.00  0.00     0.020 C 
HETATM   14  C21 UNL     1     -14.182   5.088  31.795  1.00  0.00     0.016 C 
HETATM   15  C22 UNL     1     -14.910   5.290  33.131  1.00  0.00     0.033 C 
HETATM   16  C23 UNL     1     -14.847   4.079  34.053  1.00  0.00     0.126 C 
HETATM   17  C24 UNL     1     -15.488   2.816  33.400  1.00  0.00    -0.017 C 
HETATM   18  C25 UNL     1     -16.986   2.793  33.827  1.00  0.00     0.018 C 
HETATM   19  C26 UNL     1     -14.864   1.522  33.966  1.00  0.00     0.018 C 
HETATM   20  C27 UNL     1     -15.453   2.901  31.823  1.00  0.00     0.011 C 
HETATM   21  C28 UNL     1     -15.687   1.554  31.121  1.00  0.00     0.043 C 
HETATM   22  C29 UNL     1     -15.974   1.749  29.632  1.00  0.00     0.148 C 
ENDROOT
BRANCH   1  23
HETATM   23  C6  UNL     1     -13.144   3.344  24.214  1.00  0.00    -0.013 C 
HETATM   24  C7  UNL     1     -12.028   2.299  24.347  1.00  0.00     0.010 C 
BRANCH  23  25
HETATM   25  C5  UNL     1     -13.794   3.214  22.802  1.00  0.00     0.008 C 
BRANCH  25  26
HETATM   26  C4  UNL     1     -14.298   4.540  22.208  1.00  0.00     0.028 C 
BRANCH  26  27
HETATM   27  C3  UNL     1     -13.558   5.756  22.687  1.00  0.00    -0.022 C 
HETATM   28  C2  UNL     1     -13.453   6.961  22.093  1.00  0.00    -0.064 C 
HETATM   29  C1  UNL     1     -14.090   7.345  20.783  1.00  0.00     0.045 C 
BRANCH  28  30
HETATM   30  C30 UNL     1     -12.636   8.059  22.730  1.00  0.00     0.197 C 
BRANCH  30  31
HETATM   31  O4  UNL     1     -11.556   7.484  23.448  1.00  0.00    -0.397 OA
HETATM   32  H50 UNL     1     -11.141   6.835  22.854  1.00  0.00     0.209 HD
ENDBRANCH  30  31
ENDBRANCH  28  30
ENDBRANCH  26  27
ENDBRANCH  25  26
ENDBRANCH  23  25
ENDBRANCH   1  23
BRANCH   3  33
HETATM   33  O1  UNL     1     -17.126   1.495  26.680  1.00  0.00    -0.394 OA
HETATM   34  H17 UNL     1     -17.321   0.831  25.996  1.00  0.00     0.210 HD
ENDBRANCH   3  33
BRANCH  22  35
HETATM   35  O3  UNL     1     -17.364   2.017  29.480  1.00  0.00    -0.391 OA
HETATM   36  H47 UNL     1     -17.563   1.863  28.533  1.00  0.00     0.210 HD
ENDBRANCH  22  35
BRANCH  16  37
HETATM   37  O2  UNL     1     -13.489   3.859  34.428  1.00  0.00    -0.395 OA
HETATM   38  H36 UNL     1     -13.176   4.661  34.880  1.00  0.00     0.210 HD
ENDBRANCH  16  37
TORSDOF 9
ENDMDL
MODEL 5
REMARK minimizedAffinity -6.78080225
REMARK CNNscore 0.634185076
REMARK CNNaffinity 6.67756605
REMARK  9 active torsions:
REMARK  status: ('A' for Active; 'I' for Inactive)
REMARK    1  A    between atoms: C2_2  and  C30_33 
REMARK    2  A    between atoms: C3_3  and  C4_4 
REMARK    3  A    between atoms: C4_4  and  C5_5 
REMARK    4  A    between atoms: C5_5  and  C6_6 
REMARK    5  A    between atoms: C6_6  and  C8_8 
REMARK    6  A    between atoms: C10_10  and  O1_11 
REMARK    7  A    between atoms: C23_24  and  O2_25 
REMARK    8  A    between atoms: C29_31  and  O3_32 
REMARK    9  A    between atoms: C30_33  and  O4_34 
ROOT
HETATM    1  C8  UNL     1      -2.129  13.200  17.872  1.00  0.00     0.001 C 
HETATM    2  C9  UNL     1      -0.640  13.481  17.533  1.00  0.00     0.038 C 
HETATM    3  C10 UNL     1      -0.166  12.312  16.640  1.00  0.00     0.132 C 
HETATM    4  C11 UNL     1      -1.474  11.667  16.114  1.00  0.00     0.016 C 
HETATM    5  C12 UNL     1      -2.026  12.535  14.931  1.00  0.00     0.023 C 
HETATM    6  C13 UNL     1      -1.440  10.237  15.578  1.00  0.00    -0.037 C 
HETATM    7  C14 UNL     1      -2.575   9.485  15.615  1.00  0.00    -0.065 C 
HETATM    8  C15 UNL     1      -3.848   9.990  16.323  1.00  0.00     0.036 C 
HETATM    9  C16 UNL     1      -3.780  11.347  17.060  1.00  0.00     0.015 C 
HETATM   10  C17 UNL     1      -2.340  11.720  17.429  1.00  0.00    -0.026 C 
HETATM   11  C18 UNL     1      -1.851  10.729  18.522  1.00  0.00     0.016 C 
HETATM   12  C19 UNL     1      -2.629   8.051  15.006  1.00  0.00    -0.016 C 
HETATM   13  C20 UNL     1      -2.562   7.092  16.218  1.00  0.00     0.020 C 
HETATM   14  C21 UNL     1      -3.962   7.837  14.223  1.00  0.00     0.016 C 
HETATM   15  C22 UNL     1      -3.865   7.003  12.938  1.00  0.00     0.033 C 
HETATM   16  C23 UNL     1      -2.826   5.891  13.004  1.00  0.00     0.126 C 
HETATM   17  C24 UNL     1      -1.393   6.448  13.264  1.00  0.00    -0.017 C 
HETATM   18  C25 UNL     1      -0.736   6.684  11.871  1.00  0.00     0.018 C 
HETATM   19  C26 UNL     1      -0.512   5.399  13.977  1.00  0.00     0.018 C 
HETATM   20  C27 UNL     1      -1.441   7.845  14.001  1.00  0.00     0.011 C 
HETATM   21  C28 UNL     1      -0.107   8.257  14.641  1.00  0.00     0.043 C 
HETATM   22  C29 UNL     1      -0.118   9.733  15.038  1.00  0.00     0.148 C 
ENDROOT
BRANCH   1  23
HETATM   23  C6  UNL     1      -2.630  13.706  19.259  1.00  0.00    -0.013 C 
HETATM   24  C7  UNL     1      -1.790  14.808  19.919  1.00  0.00     0.010 C 
BRANCH  23  25
HETATM   25  C5  UNL     1      -4.101  14.208  19.119  1.00  0.00     0.008 C 
BRANCH  25  26
HETATM   26  C4  UNL     1      -5.164  13.209  19.607  1.00  0.00     0.028 C 
BRANCH  26  27
HETATM   27  C3  UNL     1      -5.570  13.387  21.042  1.00  0.00    -0.022 C 
HETATM   28  C2  UNL     1      -6.811  13.530  21.550  1.00  0.00    -0.064 C 
HETATM   29  C1  UNL     1      -8.085  13.532  20.748  1.00  0.00     0.045 C 
BRANCH  28  30
HETATM   30  C30 UNL     1      -7.012  13.723  23.034  1.00  0.00     0.197 C 
BRANCH  30  31
HETATM   31  O4  UNL     1      -7.693  12.597  23.565  1.00  0.00    -0.397 OA
HETATM   32  H50 UNL     1      -7.238  11.809  23.222  1.00  0.00     0.209 HD
ENDBRANCH  30  31
ENDBRANCH  28  30
ENDBRANCH  26  27
ENDBRANCH  25  26
ENDBRANCH  23  25
ENDBRANCH   1  23
BRANCH   3  33
HETATM   33  O1  UNL     1       0.690  12.758  15.594  1.00  0.00    -0.394 OA
HETATM   34  H17 UNL     1       1.392  13.293  16.005  1.00  0.00     0.210 HD
ENDBRANCH   3  33
BRANCH  22  35
HETATM   35  O3  UNL     1       0.245  10.502  13.896  1.00  0.00    -0.391 OA
HETATM   36  H47 UNL     1       0.496  11.386  14.238  1.00  0.00     0.210 HD
ENDBRANCH  22  35
BRANCH  16  37
HETATM   37  O2  UNL     1      -3.225   4.950  13.997  1.00  0.00    -0.395 OA
HETATM   38  H36 UNL     1      -4.096   4.602  13.739  1.00  0.00     0.210 HD
ENDBRANCH  16  37
TORSDOF 9
ENDMDL
MODEL 6
REMARK minimizedAffinity -8.89384651
REMARK CNNscore 0.624751091
REMARK CNNaffinity 7.29788828
REMARK  9 active torsions:
REMARK  status: ('A' for Active; 'I' for Inactive)
REMARK    1  A    between atoms: C2_2  and  C30_33 
REMARK    2  A    between atoms: C3_3  and  C4_4 
REMARK    3  A    between atoms: C4_4  and  C5_5 
REMARK    4  A    between atoms: C5_5  and  C6_6 
REMARK    5  A    between atoms: C6_6  and  C8_8 
REMARK    6  A    between atoms: C10_10  and  O1_11 
REMARK    7  A    between atoms: C23_24  and  O2_25 
REMARK    8  A    between atoms: C29_31  and  O3_32 
REMARK    9  A    between atoms: C30_33  and  O4_34 
ROOT
HETATM    1  C8  UNL     1       1.145   8.035  13.204  1.00  0.00     0.001 C 
HETATM    2  C9  UNL     1       1.290   8.748  14.576  1.00  0.00     0.038 C 
HETATM    3  C10 UNL     1      -0.104   8.700  15.244  1.00  0.00     0.132 C 
HETATM    4  C11 UNL     1      -0.864   7.584  14.483  1.00  0.00     0.016 C 
HETATM    5  C12 UNL     1      -0.396   6.190  15.028  1.00  0.00     0.023 C 
HETATM    6  C13 UNL     1      -2.390   7.544  14.540  1.00  0.00    -0.037 C 
HETATM    7  C14 UNL     1      -3.080   6.964  13.520  1.00  0.00    -0.065 C 
HETATM    8  C15 UNL     1      -2.366   6.484  12.241  1.00  0.00     0.036 C 
HETATM    9  C16 UNL     1      -0.849   6.750  12.111  1.00  0.00     0.015 C 
HETATM   10  C17 UNL     1      -0.397   7.905  13.011  1.00  0.00    -0.026 C 
HETATM   11  C18 UNL     1      -1.009   9.220  12.451  1.00  0.00     0.016 C 
HETATM   12  C19 UNL     1      -4.631   6.813  13.560  1.00  0.00    -0.016 C 
HETATM   13  C20 UNL     1      -5.171   7.917  12.620  1.00  0.00     0.020 C 
HETATM   14  C21 UNL     1      -5.060   5.406  13.040  1.00  0.00     0.016 C 
HETATM   15  C22 UNL     1      -6.250   4.754  13.756  1.00  0.00     0.033 C 
HETATM   16  C23 UNL     1      -7.300   5.749  14.234  1.00  0.00     0.126 C 
HETATM   17  C24 UNL     1      -6.708   6.783  15.240  1.00  0.00    -0.017 C 
HETATM   18  C25 UNL     1      -6.920   6.202  16.669  1.00  0.00     0.018 C 
HETATM   19  C26 UNL     1      -7.496   8.110  15.198  1.00  0.00     0.018 C 
HETATM   20  C27 UNL     1      -5.151   6.961  15.034  1.00  0.00     0.011 C 
HETATM   21  C28 UNL     1      -4.577   8.226  15.690  1.00  0.00     0.043 C 
HETATM   22  C29 UNL     1      -3.051   8.174  15.748  1.00  0.00     0.148 C 
ENDROOT
BRANCH   1  23
HETATM   23  C6  UNL     1       2.059   8.556  12.054  1.00  0.00    -0.013 C 
HETATM   24  C7  UNL     1       3.278   9.385  12.484  1.00  0.00     0.010 C 
BRANCH  23  25
HETATM   25  C5  UNL     1       2.548   7.344  11.201  1.00  0.00     0.008 C 
BRANCH  25  26
HETATM   26  C4  UNL     1       1.798   7.159   9.871  1.00  0.00     0.028 C 
BRANCH  26  27
HETATM   27  C3  UNL     1       2.397   6.126   8.960  1.00  0.00    -0.022 C 
HETATM   28  C2  UNL     1       2.477   6.140   7.614  1.00  0.00    -0.064 C 
HETATM   29  C1  UNL     1       1.969   7.243   6.723  1.00  0.00     0.045 C 
BRANCH  28  30
HETATM   30  C30 UNL     1       3.102   4.983   6.872  1.00  0.00     0.197 C 
BRANCH  30  31
HETATM   31  O4  UNL     1       3.574   4.026   7.807  1.00  0.00    -0.397 OA
HETATM   32  H50 UNL     1       2.853   3.879   8.443  1.00  0.00     0.209 HD
ENDBRANCH  30  31
ENDBRANCH  28  30
ENDBRANCH  26  27
ENDBRANCH  25  26
ENDBRANCH  23  25
ENDBRANCH   1  23
BRANCH   3  33
HETATM   33  O1  UNL     1      -0.012   8.452  16.642  1.00  0.00    -0.394 OA
HETATM   34  H17 UNL     1       0.615   9.100  17.009  1.00  0.00     0.210 HD
ENDBRANCH   3  33
BRANCH  22  35
HETATM   35  O3  UNL     1      -2.676   7.453  16.917  1.00  0.00    -0.391 OA
HETATM   36  H47 UNL     1      -1.733   7.670  17.074  1.00  0.00     0.210 HD
ENDBRANCH  22  35
BRANCH  16  37
HETATM   37  O2  UNL     1      -7.885   6.379  13.097  1.00  0.00    -0.395 OA
HETATM   38  H36 UNL     1      -8.285   5.683  12.548  1.00  0.00     0.210 HD
ENDBRANCH  16  37
TORSDOF 9
ENDMDL
MODEL 7
REMARK minimizedAffinity -6.64171171
REMARK CNNscore 0.549292088
REMARK CNNaffinity 6.69826126
REMARK  9 active torsions:
REMARK  status: ('A' for Active; 'I' for Inactive)
REMARK    1  A    between atoms: C2_2  and  C30_33 
REMARK    2  A    between atoms: C3_3  and  C4_4 
REMARK    3  A    between atoms: C4_4  and  C5_5 
REMARK    4  A    between atoms: C5_5  and  C6_6 
REMARK    5  A    between atoms: C6_6  and  C8_8 
REMARK    6  A    between atoms: C10_10  and  O1_11 
REMARK    7  A    between atoms: C23_24  and  O2_25 
REMARK    8  A    between atoms: C29_31  and  O3_32 
REMARK    9  A    between atoms: C30_33  and  O4_34 
ROOT
HETATM    1  C8  UNL     1     -11.350   9.657  14.817  1.00  0.00     0.001 C 
HETATM    2  C9  UNL     1     -11.208   9.861  13.284  1.00  0.00     0.038 C 
HETATM    3  C10 UNL     1     -12.445   9.196  12.637  1.00  0.00     0.132 C 
HETATM    4  C11 UNL     1     -13.465   9.057  13.797  1.00  0.00     0.016 C 
HETATM    5  C12 UNL     1     -14.155  10.444  14.034  1.00  0.00     0.023 C 
HETATM    6  C13 UNL     1     -14.611   8.056  13.669  1.00  0.00    -0.037 C 
HETATM    7  C14 UNL     1     -15.170   7.535  14.796  1.00  0.00    -0.065 C 
HETATM    8  C15 UNL     1     -14.572   7.815  16.190  1.00  0.00     0.036 C 
HETATM    9  C16 UNL     1     -13.269   8.643  16.269  1.00  0.00     0.015 C 
HETATM   10  C17 UNL     1     -12.490   8.601  14.949  1.00  0.00    -0.026 C 
HETATM   11  C18 UNL     1     -11.948   7.157  14.755  1.00  0.00     0.016 C 
HETATM   12  C19 UNL     1     -16.399   6.578  14.736  1.00  0.00    -0.016 C 
HETATM   13  C20 UNL     1     -15.823   5.162  14.980  1.00  0.00     0.020 C 
HETATM   14  C21 UNL     1     -17.431   6.938  15.849  1.00  0.00     0.016 C 
HETATM   15  C22 UNL     1     -18.912   6.801  15.470  1.00  0.00     0.033 C 
HETATM   16  C23 UNL     1     -19.194   5.660  14.501  1.00  0.00     0.126 C 
HETATM   17  C24 UNL     1     -18.420   5.831  13.158  1.00  0.00    -0.017 C 
HETATM   18  C25 UNL     1     -19.360   6.603  12.185  1.00  0.00     0.018 C 
HETATM   19  C26 UNL     1     -18.152   4.463  12.495  1.00  0.00     0.018 C 
HETATM   20  C27 UNL     1     -17.121   6.710  13.349  1.00  0.00     0.011 C 
HETATM   21  C28 UNL     1     -16.112   6.590  12.196  1.00  0.00     0.043 C 
HETATM   22  C29 UNL     1     -15.057   7.693  12.268  1.00  0.00     0.148 C 
ENDROOT
BRANCH   1  23
HETATM   23  C6  UNL     1     -10.022   9.514  15.621  1.00  0.00    -0.013 C 
HETATM   24  C7  UNL     1     -10.139   8.859  17.005  1.00  0.00     0.010 C 
BRANCH  23  25
HETATM   25  C5  UNL     1      -8.991   8.712  14.768  1.00  0.00     0.008 C 
BRANCH  25  26
HETATM   26  C4  UNL     1      -8.431   7.457  15.459  1.00  0.00     0.028 C 
BRANCH  26  27
HETATM   27  C3  UNL     1      -8.566   6.194  14.658  1.00  0.00    -0.022 C 
HETATM   28  C2  UNL     1      -7.654   5.611  13.854  1.00  0.00    -0.064 C 
HETATM   29  C1  UNL     1      -6.263   6.126  13.597  1.00  0.00     0.045 C 
BRANCH  28  30
HETATM   30  C30 UNL     1      -7.993   4.342  13.108  1.00  0.00     0.197 C 
BRANCH  30  31
HETATM   31  O4  UNL     1      -7.788   3.228  13.962  1.00  0.00    -0.397 OA
HETATM   32  H50 UNL     1      -8.222   3.440  14.806  1.00  0.00     0.209 HD
ENDBRANCH  30  31
ENDBRANCH  28  30
ENDBRANCH  26  27
ENDBRANCH  25  26
ENDBRANCH  23  25
ENDBRANCH   1  23
BRANCH   3  33
HETATM   33  O1  UNL     1     -12.948   9.961  11.549  1.00  0.00    -0.394 OA
HETATM   34  H17 UNL     1     -12.200  10.141  10.952  1.00  0.00     0.210 HD
ENDBRANCH   3  33
BRANCH  22  35
HETATM   35  O3  UNL     1     -15.581   8.851  11.627  1.00  0.00    -0.391 OA
HETATM   36  H47 UNL     1     -14.809   9.428  11.445  1.00  0.00     0.210 HD
ENDBRANCH  22  35
BRANCH  16  37
HETATM   37  O2  UNL     1     -18.887   4.426  15.144  1.00  0.00    -0.395 OA
HETATM   38  H36 UNL     1     -19.448   4.360  15.937  1.00  0.00     0.210 HD
ENDBRANCH  16  37
TORSDOF 9
ENDMDL
MODEL 8
REMARK minimizedAffinity -6.46206808
REMARK CNNscore 0.483785063
REMARK CNNaffinity 6.24479294
REMARK  9 active torsions:
REMARK  status: ('A' for Active; 'I' for Inactive)
REMARK    1  A    between atoms: C2_2  and  C30_33 
REMARK    2  A    between atoms: C3_3  and  C4_4 
REMARK    3  A    between atoms: C4_4  and  C5_5 
REMARK    4  A    between atoms: C5_5  and  C6_6 
REMARK    5  A    between atoms: C6_6  and  C8_8 
REMARK    6  A    between atoms: C10_10  and  O1_11 
REMARK    7  A    between atoms: C23_24  and  O2_25 
REMARK    8  A    between atoms: C29_31  and  O3_32 
REMARK    9  A    between atoms: C30_33  and  O4_34 
ROOT
HETATM    1  C8  UNL     1      -9.471  -8.472  -3.917  1.00  0.00     0.001 C 
HETATM    2  C9  UNL     1     -10.849  -8.033  -3.351  1.00  0.00     0.038 C 
HETATM    3  C10 UNL     1     -10.800  -8.291  -1.827  1.00  0.00     0.132 C 
HETATM    4  C11 UNL     1      -9.289  -8.414  -1.501  1.00  0.00     0.016 C 
HETATM    5  C12 UNL     1      -8.669  -6.976  -1.423  1.00  0.00     0.023 C 
HETATM    6  C13 UNL     1      -8.856  -9.107  -0.211  1.00  0.00    -0.037 C 
HETATM    7  C14 UNL     1      -7.627  -9.688  -0.147  1.00  0.00    -0.065 C 
HETATM    8  C15 UNL     1      -6.726  -9.796  -1.394  1.00  0.00     0.036 C 
HETATM    9  C16 UNL     1      -7.288  -9.293  -2.743  1.00  0.00     0.015 C 
HETATM   10  C17 UNL     1      -8.821  -9.265  -2.742  1.00  0.00    -0.026 C 
HETATM   11  C18 UNL     1      -9.330 -10.733  -2.702  1.00  0.00     0.016 C 
HETATM   12  C19 UNL     1      -7.091 -10.334   1.167  1.00  0.00    -0.016 C 
HETATM   13  C20 UNL     1      -7.241 -11.860   0.960  1.00  0.00     0.020 C 
HETATM   14  C21 UNL     1      -5.592  -9.966   1.390  1.00  0.00     0.016 C 
HETATM   15  C22 UNL     1      -5.165  -9.712   2.842  1.00  0.00     0.033 C 
HETATM   16  C23 UNL     1      -5.902 -10.575   3.858  1.00  0.00     0.126 C 
HETATM   17  C24 UNL     1      -7.443 -10.337   3.815  1.00  0.00    -0.017 C 
HETATM   18  C25 UNL     1      -7.761  -9.221   4.854  1.00  0.00     0.018 C 
HETATM   19  C26 UNL     1      -8.210 -11.590   4.288  1.00  0.00     0.018 C 
HETATM   20  C27 UNL     1      -7.905  -9.805   2.401  1.00  0.00     0.011 C 
HETATM   21  C28 UNL     1      -9.416  -9.931   2.152  1.00  0.00     0.043 C 
HETATM   22  C29 UNL     1      -9.846  -9.110   0.936  1.00  0.00     0.148 C 
ENDROOT
BRANCH   1  23
HETATM   23  C6  UNL     1      -9.468  -9.037  -5.370  1.00  0.00    -0.013 C 
HETATM   24  C7  UNL     1     -10.819  -9.535  -5.902  1.00  0.00     0.010 C 
BRANCH  23  25
HETATM   25  C5  UNL     1      -8.912  -7.949  -6.340  1.00  0.00     0.008 C 
BRANCH  25  26
HETATM   26  C4  UNL     1      -9.930  -6.863  -6.729  1.00  0.00     0.028 C 
BRANCH  26  27
HETATM   27  C3  UNL     1      -9.655  -5.513  -6.134  1.00  0.00    -0.022 C 
HETATM   28  C2  UNL     1     -10.536  -4.618  -5.642  1.00  0.00    -0.064 C 
HETATM   29  C1  UNL     1     -12.029  -4.808  -5.583  1.00  0.00     0.045 C 
BRANCH  28  30
HETATM   30  C30 UNL     1     -10.059  -3.291  -5.103  1.00  0.00     0.197 C 
BRANCH  30  31
HETATM   31  O4  UNL     1     -10.873  -2.911  -4.005  1.00  0.00    -0.397 OA
HETATM   32  H50 UNL     1     -10.940  -3.689  -3.425  1.00  0.00     0.209 HD
ENDBRANCH  30  31
ENDBRANCH  28  30
ENDBRANCH  26  27
ENDBRANCH  25  26
ENDBRANCH  23  25
ENDBRANCH   1  23
BRANCH   3  33
HETATM   33  O1  UNL     1     -11.440  -7.254  -1.094  1.00  0.00    -0.394 OA
HETATM   34  H17 UNL     1     -12.327  -7.136  -1.478  1.00  0.00     0.210 HD
ENDBRANCH   3  33
BRANCH  22  35
HETATM   35  O3  UNL     1     -10.074  -7.771   1.362  1.00  0.00    -0.391 OA
HETATM   36  H47 UNL     1     -10.600  -7.350   0.650  1.00  0.00     0.210 HD
ENDBRANCH  22  35
BRANCH  16  37
HETATM   37  O2  UNL     1      -5.563 -11.941   3.631  1.00  0.00    -0.395 OA
HETATM   38  H36 UNL     1      -4.599 -12.025   3.733  1.00  0.00     0.210 HD
ENDBRANCH  16  37
TORSDOF 9
ENDMDL
MODEL 9
REMARK minimizedAffinity -7.54332495
REMARK CNNscore 0.438958973
REMARK CNNaffinity 6.35668135
REMARK  9 active torsions:
REMARK  status: ('A' for Active; 'I' for Inactive)
REMARK    1  A    between atoms: C2_2  and  C30_33 
REMARK    2  A    between atoms: C3_3  and  C4_4 
REMARK    3  A    between atoms: C4_4  and  C5_5 
REMARK    4  A    between atoms: C5_5  and  C6_6 
REMARK    5  A    between atoms: C6_6  and  C8_8 
REMARK    6  A    between atoms: C10_10  and  O1_11 
REMARK    7  A    between atoms: C23_24  and  O2_25 
REMARK    8  A    between atoms: C29_31  and  O3_32 
REMARK    9  A    between atoms: C30_33  and  O4_34 
ROOT
HETATM    1  C8  UNL     1       7.176  13.377  21.052  1.00  0.00     0.001 C 
HETATM    2  C9  UNL     1       8.328  12.601  21.745  1.00  0.00     0.038 C 
HETATM    3  C10 UNL     1       8.937  11.669  20.672  1.00  0.00     0.132 C 
HETATM    4  C11 UNL     1       8.455  12.261  19.322  1.00  0.00     0.016 C 
HETATM    5  C12 UNL     1       9.350  13.498  18.963  1.00  0.00     0.023 C 
HETATM    6  C13 UNL     1       8.467  11.382  18.073  1.00  0.00    -0.037 C 
HETATM    7  C14 UNL     1       7.602  11.657  17.058  1.00  0.00    -0.065 C 
HETATM    8  C15 UNL     1       6.511  12.736  17.204  1.00  0.00     0.036 C 
HETATM    9  C16 UNL     1       6.373  13.450  18.568  1.00  0.00     0.015 C 
HETATM   10  C17 UNL     1       6.968  12.615  19.707  1.00  0.00    -0.026 C 
HETATM   11  C18 UNL     1       6.073  11.359  19.903  1.00  0.00     0.016 C 
HETATM   12  C19 UNL     1       7.625  10.854  15.722  1.00  0.00    -0.016 C 
HETATM   13  C20 UNL     1       6.418   9.888  15.808  1.00  0.00     0.020 C 
HETATM   14  C21 UNL     1       7.460  11.811  14.501  1.00  0.00     0.016 C 
HETATM   15  C22 UNL     1       8.276  11.459  13.250  1.00  0.00     0.033 C 
HETATM   16  C23 UNL     1       8.450   9.961  13.032  1.00  0.00     0.126 C 
HETATM   17  C24 UNL     1       9.183   9.280  14.228  1.00  0.00    -0.017 C 
HETATM   18  C25 UNL     1      10.704   9.287  13.894  1.00  0.00     0.018 C 
HETATM   19  C26 UNL     1       8.780   7.795  14.351  1.00  0.00     0.018 C 
HETATM   20  C27 UNL     1       8.994  10.103  15.564  1.00  0.00     0.011 C 
HETATM   21  C28 UNL     1       9.330   9.309  16.836  1.00  0.00     0.043 C 
HETATM   22  C29 UNL     1       9.453  10.234  18.047  1.00  0.00     0.148 C 
ENDROOT
BRANCH   1  23
HETATM   23  C6  UNL     1       5.964  13.767  21.952  1.00  0.00    -0.013 C 
HETATM   24  C7  UNL     1       4.692  14.212  21.216  1.00  0.00     0.010 C 
BRANCH  23  25
HETATM   25  C5  UNL     1       5.615  12.568  22.887  1.00  0.00     0.008 C 
BRANCH  25  26
HETATM   26  C4  UNL     1       4.115  12.233  22.959  1.00  0.00     0.028 C 
BRANCH  26  27
HETATM   27  C3  UNL     1       3.815  10.786  23.224  1.00  0.00    -0.022 C 
HETATM   28  C2  UNL     1       3.008   9.956  22.532  1.00  0.00    -0.064 C 
HETATM   29  C1  UNL     1       2.225  10.330  21.301  1.00  0.00     0.045 C 
BRANCH  28  30
HETATM   30  C30 UNL     1       2.818   8.527  22.977  1.00  0.00     0.197 C 
BRANCH  30  31
HETATM   31  O4  UNL     1       1.791   7.927  22.204  1.00  0.00    -0.397 OA
HETATM   32  H50 UNL     1       1.983   8.138  21.274  1.00  0.00     0.209 HD
ENDBRANCH  30  31
ENDBRANCH  28  30
ENDBRANCH  26  27
ENDBRANCH  25  26
ENDBRANCH  23  25
ENDBRANCH   1  23
BRANCH   3  33
HETATM   33  O1  UNL     1      10.354  11.604  20.771  1.00  0.00    -0.394 OA
HETATM   34  H17 UNL     1      10.569  11.386  21.696  1.00  0.00     0.210 HD
ENDBRANCH   3  33
BRANCH  22  35
HETATM   35  O3  UNL     1      10.779  10.753  18.076  1.00  0.00    -0.391 OA
HETATM   36  H47 UNL     1      10.909  11.103  18.982  1.00  0.00     0.210 HD
ENDBRANCH  22  35
BRANCH  16  37
HETATM   37  O2  UNL     1       7.170   9.382  12.786  1.00  0.00    -0.395 OA
HETATM   38  H36 UNL     1       6.801   9.811  11.995  1.00  0.00     0.210 HD
ENDBRANCH  16  37
TORSDOF 9
ENDMDL
