MODEL 1
REMARK minimizedAffinity -8.01667976
REMARK  8 active torsions:
REMARK  status: ('A' for Active; 'I' for Inactive)
REMARK    1  A    between atoms: C2_2  and  O2_4 
REMARK    2  A    between atoms: O2_4  and  C3_5 
REMARK    3  A    between atoms: C12_15  and  C13_16 
REMARK    4  A    between atoms: C13_16  and  O5_18 
REMARK    5  A    between atoms: O5_18  and  C14_19 
REMARK    6  A    between atoms: C14_19  and  C15_20 
REMARK    7  A    between atoms: C15_20  and  N1_21 
REMARK    8  A    between atoms: C25_31  and  O6_32 
ROOT
HETATM    1  C3  UNL     1      -5.898   6.521  13.979  1.00  0.00     0.097 C 
HETATM    2  C4  UNL     1      -6.997   6.394  12.896  1.00  0.00     0.050 C 
HETATM    3  C5  UNL     1      -4.506   6.238  13.302  1.00  0.00     0.038 C 
HETATM    4  C6  UNL     1      -4.321   4.759  12.895  1.00  0.00     0.087 C 
HETATM    5  C7  UNL     1      -2.994   4.582  12.182  1.00  0.00     0.132 C 
HETATM    6  O3  UNL     1      -2.938   4.157  11.032  1.00  0.00    -0.298 OA
HETATM    7  C8  UNL     1      -1.785   4.985  13.009  1.00  0.00     0.068 C 
HETATM    8  C9  UNL     1      -0.364   4.625  12.496  1.00  0.00     0.022 C 
HETATM    9  C10 UNL     1      -0.275   3.251  11.821  1.00  0.00     0.015 C 
HETATM   10  C11 UNL     1       0.313   5.807  11.799  1.00  0.00    -0.070 C 
HETATM   11  C12 UNL     1       0.780   5.733  10.533  1.00  0.00     0.085 C 
HETATM   12  C18 UNL     1       0.396   7.048  12.679  1.00  0.00     0.035 C 
HETATM   13  C19 UNL     1      -0.654   7.074  13.807  1.00  0.00     0.010 C 
HETATM   14  C20 UNL     1      -1.976   6.502  13.278  1.00  0.00     0.006 C 
HETATM   15  C21 UNL     1      -3.277   6.801  14.115  1.00  0.00    -0.033 C 
HETATM   16  C22 UNL     1      -3.158   6.165  15.521  1.00  0.00     0.016 C 
HETATM   17  C23 UNL     1      -3.449   8.346  14.277  1.00  0.00     0.012 C 
HETATM   18  C24 UNL     1      -4.864   8.870  14.008  1.00  0.00     0.035 C 
HETATM   19  C25 UNL     1      -5.950   7.969  14.587  1.00  0.00     0.153 C 
ENDROOT
BRANCH  11  20
HETATM   20  C13 UNL     1       1.493   6.724   9.692  1.00  0.00     0.283 C 
HETATM   21  O4  UNL     1       1.072   7.864   9.552  1.00  0.00    -0.260 OA
BRANCH  20  22
HETATM   22  O5  UNL     1       2.608   6.225   9.116  1.00  0.00    -0.316 OA
BRANCH  22  23
HETATM   23  C14 UNL     1       3.572   5.698  10.042  1.00  0.00     0.209 C 
BRANCH  23  24
HETATM   24  C15 UNL     1       4.389   6.873  10.603  1.00  0.00     0.298 C 
BRANCH  24  25
HETATM   25  N1  UNL     1       5.364   6.587  11.666  1.00  0.00     0.082 N 
HETATM   26  C16 UNL     1       6.642   6.112  11.139  1.00  0.00     0.309 C 
HETATM   27  C17 UNL     1       5.563   7.722  12.564  1.00  0.00     0.309 C 
ENDBRANCH  24  25
ENDBRANCH  23  24
ENDBRANCH  22  23
ENDBRANCH  20  22
ENDBRANCH  11  20
BRANCH   1  28
HETATM   28  O2  UNL     1      -6.109   5.459  14.954  1.00  0.00    -0.308 OA
BRANCH  28  29
HETATM   29  C2  UNL     1      -7.353   4.976  15.200  1.00  0.00     0.255 C 
HETATM   30  C1  UNL     1      -7.572   3.711  14.430  1.00  0.00     0.126 C 
HETATM   31  O1  UNL     1      -8.173   5.476  15.957  1.00  0.00    -0.266 OA
ENDBRANCH  28  29
ENDBRANCH   1  28
BRANCH  19  32
HETATM   32  O6  UNL     1      -5.810   7.997  16.008  1.00  0.00    -0.393 OA
HETATM   33  H39 UNL     1      -6.697   7.782  16.363  1.00  0.00     0.210 HD
ENDBRANCH  19  32
TORSDOF 8
ENDMDL
MODEL 2
REMARK minimizedAffinity -7.45547485
REMARK  8 active torsions:
REMARK  status: ('A' for Active; 'I' for Inactive)
REMARK    1  A    between atoms: C2_2  and  O2_4 
REMARK    2  A    between atoms: O2_4  and  C3_5 
REMARK    3  A    between atoms: C12_15  and  C13_16 
REMARK    4  A    between atoms: C13_16  and  O5_18 
REMARK    5  A    between atoms: O5_18  and  C14_19 
REMARK    6  A    between atoms: C14_19  and  C15_20 
REMARK    7  A    between atoms: C15_20  and  N1_21 
REMARK    8  A    between atoms: C25_31  and  O6_32 
ROOT
HETATM    1  C3  UNL     1      -0.082   7.405  11.948  1.00  0.00     0.097 C 
HETATM    2  C4  UNL     1       0.029   8.565  10.928  1.00  0.00     0.050 C 
HETATM    3  C5  UNL     1      -1.593   7.258  12.362  1.00  0.00     0.038 C 
HETATM    4  C6  UNL     1      -2.101   8.433  13.225  1.00  0.00     0.087 C 
HETATM    5  C7  UNL     1      -3.580   8.259  13.518  1.00  0.00     0.132 C 
HETATM    6  O3  UNL     1      -4.403   9.099  13.171  1.00  0.00    -0.298 OA
HETATM    7  C8  UNL     1      -3.921   6.971  14.248  1.00  0.00     0.068 C 
HETATM    8  C9  UNL     1      -5.352   6.784  14.822  1.00  0.00     0.022 C 
HETATM    9  C10 UNL     1      -5.957   8.062  15.417  1.00  0.00     0.015 C 
HETATM   10  C11 UNL     1      -6.236   5.939  13.902  1.00  0.00    -0.070 C 
HETATM   11  C12 UNL     1      -7.421   6.381  13.427  1.00  0.00     0.085 C 
HETATM   12  C18 UNL     1      -5.637   4.573  13.593  1.00  0.00     0.035 C 
HETATM   13  C19 UNL     1      -4.106   4.518  13.767  1.00  0.00     0.010 C 
HETATM   14  C20 UNL     1      -3.496   5.838  13.275  1.00  0.00     0.006 C 
HETATM   15  C21 UNL     1      -1.948   5.852  12.983  1.00  0.00    -0.033 C 
HETATM   16  C22 UNL     1      -1.162   5.566  14.286  1.00  0.00     0.016 C 
HETATM   17  C23 UNL     1      -1.605   4.742  11.938  1.00  0.00     0.012 C 
HETATM   18  C24 UNL     1      -0.679   5.189  10.801  1.00  0.00     0.035 C 
HETATM   19  C25 UNL     1       0.455   6.089  11.280  1.00  0.00     0.153 C 
ENDROOT
BRANCH  11  20
HETATM   20  C13 UNL     1      -8.440   5.727  12.571  1.00  0.00     0.283 C 
HETATM   21  O4  UNL     1      -8.143   4.819  11.806  1.00  0.00    -0.260 OA
BRANCH  20  22
HETATM   22  O5  UNL     1      -9.676   6.246  12.728  1.00  0.00    -0.316 OA
BRANCH  22  23
HETATM   23  C14 UNL     1      -9.926   6.808  14.027  1.00  0.00     0.209 C 
BRANCH  23  24
HETATM   24  C15 UNL     1     -10.802   8.058  13.847  1.00  0.00     0.298 C 
BRANCH  24  25
HETATM   25  N1  UNL     1     -11.819   8.037  12.785  1.00  0.00     0.082 N 
HETATM   26  C16 UNL     1     -12.988   7.239  13.145  1.00  0.00     0.309 C 
HETATM   27  C17 UNL     1     -12.217   9.379  12.365  1.00  0.00     0.309 C 
ENDBRANCH  24  25
ENDBRANCH  23  24
ENDBRANCH  22  23
ENDBRANCH  20  22
ENDBRANCH  11  20
BRANCH   1  28
HETATM   28  O2  UNL     1       0.641   7.800  13.150  1.00  0.00    -0.308 OA
BRANCH  28  29
HETATM   29  C2  UNL     1       1.925   8.235  13.080  1.00  0.00     0.255 C 
HETATM   30  C1  UNL     1       2.696   7.744  14.265  1.00  0.00     0.126 C 
HETATM   31  O1  UNL     1       2.399   8.907  12.175  1.00  0.00    -0.266 OA
ENDBRANCH  28  29
ENDBRANCH   1  28
BRANCH  19  32
HETATM   32  O6  UNL     1       1.281   5.307  12.142  1.00  0.00    -0.393 OA
HETATM   33  H39 UNL     1       2.167   5.724  12.107  1.00  0.00     0.210 HD
ENDBRANCH  19  32
TORSDOF 8
ENDMDL
MODEL 3
REMARK minimizedAffinity -7.21735954
REMARK  8 active torsions:
REMARK  status: ('A' for Active; 'I' for Inactive)
REMARK    1  A    between atoms: C2_2  and  O2_4 
REMARK    2  A    between atoms: O2_4  and  C3_5 
REMARK    3  A    between atoms: C12_15  and  C13_16 
REMARK    4  A    between atoms: C13_16  and  O5_18 
REMARK    5  A    between atoms: O5_18  and  C14_19 
REMARK    6  A    between atoms: C14_19  and  C15_20 
REMARK    7  A    between atoms: C15_20  and  N1_21 
REMARK    8  A    between atoms: C25_31  and  O6_32 
ROOT
HETATM    1  C3  UNL     1       1.044   7.161  11.152  1.00  0.00     0.097 C 
HETATM    2  C4  UNL     1       0.976   8.077   9.905  1.00  0.00     0.050 C 
HETATM    3  C5  UNL     1      -0.157   7.532  12.100  1.00  0.00     0.038 C 
HETATM    4  C6  UNL     1       0.004   8.916  12.766  1.00  0.00     0.087 C 
HETATM    5  C7  UNL     1      -1.223   9.234  13.600  1.00  0.00     0.132 C 
HETATM    6  O3  UNL     1      -1.912  10.223  13.371  1.00  0.00    -0.298 OA
HETATM    7  C8  UNL     1      -1.506   8.225  14.699  1.00  0.00     0.068 C 
HETATM    8  C9  UNL     1      -2.579   8.557  15.773  1.00  0.00     0.022 C 
HETATM    9  C10 UNL     1      -2.591  10.028  16.206  1.00  0.00     0.015 C 
HETATM   10  C11 UNL     1      -3.923   7.892  15.469  1.00  0.00    -0.070 C 
HETATM   11  C12 UNL     1      -5.071   8.595  15.353  1.00  0.00     0.085 C 
HETATM   12  C18 UNL     1      -3.817   6.380  15.317  1.00  0.00     0.035 C 
HETATM   13  C19 UNL     1      -2.402   5.896  14.941  1.00  0.00     0.010 C 
HETATM   14  C20 UNL     1      -1.777   6.890  13.953  1.00  0.00     0.006 C 
HETATM   15  C21 UNL     1      -0.522   6.399  13.135  1.00  0.00    -0.033 C 
HETATM   16  C22 UNL     1       0.646   6.080  14.099  1.00  0.00     0.016 C 
HETATM   17  C23 UNL     1      -0.890   5.100  12.347  1.00  0.00     0.012 C 
HETATM   18  C24 UNL     1      -0.439   5.084  10.882  1.00  0.00     0.035 C 
HETATM   19  C25 UNL     1       0.958   5.663  10.686  1.00  0.00     0.153 C 
ENDROOT
BRANCH  11  20
HETATM   20  C13 UNL     1      -6.467   8.160  15.108  1.00  0.00     0.283 C 
HETATM   21  O4  UNL     1      -7.389   8.963  15.068  1.00  0.00    -0.260 OA
BRANCH  20  22
HETATM   22  O5  UNL     1      -6.586   6.823  14.953  1.00  0.00    -0.316 OA
BRANCH  22  23
HETATM   23  C14 UNL     1      -7.073   6.413  13.665  1.00  0.00     0.209 C 
BRANCH  23  24
HETATM   24  C15 UNL     1      -7.688   5.012  13.810  1.00  0.00     0.298 C 
BRANCH  24  25
HETATM   25  N1  UNL     1      -6.827   3.851  13.532  1.00  0.00     0.082 N 
HETATM   26  C16 UNL     1      -7.552   2.759  12.888  1.00  0.00     0.309 C 
HETATM   27  C17 UNL     1      -5.637   4.209  12.764  1.00  0.00     0.309 C 
ENDBRANCH  24  25
ENDBRANCH  23  24
ENDBRANCH  22  23
ENDBRANCH  20  22
ENDBRANCH  11  20
BRANCH   1  28
HETATM   28  O2  UNL     1       2.263   7.489  11.879  1.00  0.00    -0.308 OA
BRANCH  28  29
HETATM   29  C2  UNL     1       3.442   7.650  11.226  1.00  0.00     0.255 C 
HETATM   30  C1  UNL     1       4.060   8.960  11.602  1.00  0.00     0.126 C 
HETATM   31  O1  UNL     1       3.947   6.840  10.461  1.00  0.00    -0.266 OA
ENDBRANCH  28  29
ENDBRANCH   1  28
BRANCH  19  32
HETATM   32  O6  UNL     1       1.873   4.801  11.363  1.00  0.00    -0.393 OA
HETATM   33  H39 UNL     1       2.733   4.926  10.912  1.00  0.00     0.210 HD
ENDBRANCH  19  32
TORSDOF 8
ENDMDL
MODEL 4
REMARK minimizedAffinity -7.19780827
REMARK  8 active torsions:
REMARK  status: ('A' for Active; 'I' for Inactive)
REMARK    1  A    between atoms: C2_2  and  O2_4 
REMARK    2  A    between atoms: O2_4  and  C3_5 
REMARK    3  A    between atoms: C12_15  and  C13_16 
REMARK    4  A    between atoms: C13_16  and  O5_18 
REMARK    5  A    between atoms: O5_18  and  C14_19 
REMARK    6  A    between atoms: C14_19  and  C15_20 
REMARK    7  A    between atoms: C15_20  and  N1_21 
REMARK    8  A    between atoms: C25_31  and  O6_32 
ROOT
HETATM    1  C3  UNL     1       3.813   7.586  10.635  1.00  0.00     0.097 C 
HETATM    2  C4  UNL     1       4.674   8.870  10.723  1.00  0.00     0.050 C 
HETATM    3  C5  UNL     1       2.574   7.758  11.588  1.00  0.00     0.038 C 
HETATM    4  C6  UNL     1       2.954   7.731  13.085  1.00  0.00     0.087 C 
HETATM    5  C7  UNL     1       1.723   7.979  13.936  1.00  0.00     0.132 C 
HETATM    6  O3  UNL     1       1.661   8.931  14.708  1.00  0.00    -0.298 OA
HETATM    7  C8  UNL     1       0.609   6.968  13.727  1.00  0.00     0.068 C 
HETATM    8  C9  UNL     1      -0.599   6.961  14.704  1.00  0.00     0.022 C 
HETATM    9  C10 UNL     1      -0.220   7.235  16.165  1.00  0.00     0.015 C 
HETATM   10  C11 UNL     1      -1.808   7.702  14.130  1.00  0.00    -0.070 C 
HETATM   11  C12 UNL     1      -2.403   8.730  14.775  1.00  0.00     0.085 C 
HETATM   12  C18 UNL     1      -2.253   7.157  12.779  1.00  0.00     0.035 C 
HETATM   13  C19 UNL     1      -1.139   6.409  12.020  1.00  0.00     0.010 C 
HETATM   14  C20 UNL     1       0.195   7.135  12.240  1.00  0.00     0.006 C 
HETATM   15  C21 UNL     1       1.373   6.792  11.251  1.00  0.00    -0.033 C 
HETATM   16  C22 UNL     1       1.759   5.299  11.386  1.00  0.00     0.016 C 
HETATM   17  C23 UNL     1       0.914   7.059   9.781  1.00  0.00     0.012 C 
HETATM   18  C24 UNL     1       1.920   7.831   8.920  1.00  0.00     0.035 C 
HETATM   19  C25 UNL     1       3.360   7.382   9.144  1.00  0.00     0.153 C 
ENDROOT
BRANCH  11  20
HETATM   20  C13 UNL     1      -3.589   9.550  14.429  1.00  0.00     0.283 C 
HETATM   21  O4  UNL     1      -3.714  10.697  14.838  1.00  0.00    -0.260 OA
BRANCH  20  22
HETATM   22  O5  UNL     1      -4.478   8.895  13.652  1.00  0.00    -0.316 OA
BRANCH  22  23
HETATM   23  C14 UNL     1      -5.530   8.236  14.376  1.00  0.00     0.209 C 
BRANCH  23  24
HETATM   24  C15 UNL     1      -5.922   6.967  13.601  1.00  0.00     0.298 C 
BRANCH  24  25
HETATM   25  N1  UNL     1      -7.287   6.449  13.776  1.00  0.00     0.082 N 
HETATM   26  C16 UNL     1      -7.308   5.024  14.093  1.00  0.00     0.309 C 
HETATM   27  C17 UNL     1      -8.053   7.211  14.761  1.00  0.00     0.309 C 
ENDBRANCH  24  25
ENDBRANCH  23  24
ENDBRANCH  22  23
ENDBRANCH  20  22
ENDBRANCH  11  20
BRANCH   1  28
HETATM   28  O2  UNL     1       4.602   6.485  11.172  1.00  0.00    -0.308 OA
BRANCH  28  29
HETATM   29  C2  UNL     1       5.956   6.561  11.233  1.00  0.00     0.255 C 
HETATM   30  C1  UNL     1       6.396   6.725  12.654  1.00  0.00     0.126 C 
HETATM   31  O1  UNL     1       6.715   6.481  10.277  1.00  0.00    -0.266 OA
ENDBRANCH  28  29
ENDBRANCH   1  28
BRANCH  19  32
HETATM   32  O6  UNL     1       3.455   6.029   8.699  1.00  0.00    -0.393 OA
HETATM   33  H39 UNL     1       4.396   5.896   8.464  1.00  0.00     0.210 HD
ENDBRANCH  19  32
TORSDOF 8
ENDMDL
MODEL 5
REMARK minimizedAffinity -7.18929958
REMARK  8 active torsions:
REMARK  status: ('A' for Active; 'I' for Inactive)
REMARK    1  A    between atoms: C2_2  and  O2_4 
REMARK    2  A    between atoms: O2_4  and  C3_5 
REMARK    3  A    between atoms: C12_15  and  C13_16 
REMARK    4  A    between atoms: C13_16  and  O5_18 
REMARK    5  A    between atoms: O5_18  and  C14_19 
REMARK    6  A    between atoms: C14_19  and  C15_20 
REMARK    7  A    between atoms: C15_20  and  N1_21 
REMARK    8  A    between atoms: C25_31  and  O6_32 
ROOT
HETATM    1  C3  UNL     1       1.225   7.140  10.786  1.00  0.00     0.097 C 
HETATM    2  C4  UNL     1       0.863   7.767   9.417  1.00  0.00     0.050 C 
HETATM    3  C5  UNL     1       0.007   7.351  11.760  1.00  0.00     0.038 C 
HETATM    4  C6  UNL     1      -0.187   8.826  12.176  1.00  0.00     0.087 C 
HETATM    5  C7  UNL     1      -1.421   8.959  13.048  1.00  0.00     0.132 C 
HETATM    6  O3  UNL     1      -2.360   9.678  12.722  1.00  0.00    -0.298 OA
HETATM    7  C8  UNL     1      -1.377   8.126  14.317  1.00  0.00     0.068 C 
HETATM    8  C9  UNL     1      -2.456   8.356  15.410  1.00  0.00     0.022 C 
HETATM    9  C10 UNL     1      -2.849   9.827  15.598  1.00  0.00     0.015 C 
HETATM   10  C11 UNL     1      -3.581   7.322  15.336  1.00  0.00    -0.070 C 
HETATM   11  C12 UNL     1      -4.880   7.670  15.206  1.00  0.00     0.085 C 
HETATM   12  C18 UNL     1      -3.076   5.887  15.424  1.00  0.00     0.035 C 
HETATM   13  C19 UNL     1      -1.599   5.728  15.012  1.00  0.00     0.010 C 
HETATM   14  C20 UNL     1      -1.305   6.655  13.825  1.00  0.00     0.006 C 
HETATM   15  C21 UNL     1       0.003   6.368  12.994  1.00  0.00    -0.033 C 
HETATM   16  C22 UNL     1       1.250   6.542  13.893  1.00  0.00     0.016 C 
HETATM   17  C23 UNL     1      -0.031   4.898  12.463  1.00  0.00     0.012 C 
HETATM   18  C24 UNL     1       0.351   4.736  10.987  1.00  0.00     0.035 C 
HETATM   19  C25 UNL     1       1.530   5.613  10.579  1.00  0.00     0.153 C 
ENDROOT
BRANCH  11  20
HETATM   20  C13 UNL     1      -6.115   6.850  15.155  1.00  0.00     0.283 C 
HETATM   21  O4  UNL     1      -6.539   6.273  16.147  1.00  0.00    -0.260 OA
BRANCH  20  22
HETATM   22  O5  UNL     1      -6.678   6.816  13.928  1.00  0.00    -0.316 OA
BRANCH  22  23
HETATM   23  C14 UNL     1      -7.813   5.942  13.818  1.00  0.00     0.209 C 
BRANCH  23  24
HETATM   24  C15 UNL     1      -7.741   5.234  12.455  1.00  0.00     0.298 C 
BRANCH  24  25
HETATM   25  N1  UNL     1      -7.031   3.948  12.385  1.00  0.00     0.082 N 
HETATM   26  C16 UNL     1      -5.593   4.091  12.601  1.00  0.00     0.309 C 
HETATM   27  C17 UNL     1      -7.595   2.947  13.289  1.00  0.00     0.309 C 
ENDBRANCH  24  25
ENDBRANCH  23  24
ENDBRANCH  22  23
ENDBRANCH  20  22
ENDBRANCH  11  20
BRANCH   1  28
HETATM   28  O2  UNL     1       2.337   7.899  11.342  1.00  0.00    -0.308 OA
BRANCH  28  29
HETATM   29  C2  UNL     1       3.608   7.689  10.913  1.00  0.00     0.255 C 
HETATM   30  C1  UNL     1       3.789   8.273   9.546  1.00  0.00     0.126 C 
HETATM   31  O1  UNL     1       4.490   7.131  11.550  1.00  0.00    -0.266 OA
ENDBRANCH  28  29
ENDBRANCH   1  28
BRANCH  19  32
HETATM   32  O6  UNL     1       2.669   5.155  11.307  1.00  0.00    -0.393 OA
HETATM   33  H39 UNL     1       3.446   5.415  10.769  1.00  0.00     0.210 HD
ENDBRANCH  19  32
TORSDOF 8
ENDMDL
MODEL 6
REMARK minimizedAffinity -7.18649435
REMARK  8 active torsions:
REMARK  status: ('A' for Active; 'I' for Inactive)
REMARK    1  A    between atoms: C2_2  and  O2_4 
REMARK    2  A    between atoms: O2_4  and  C3_5 
REMARK    3  A    between atoms: C12_15  and  C13_16 
REMARK    4  A    between atoms: C13_16  and  O5_18 
REMARK    5  A    between atoms: O5_18  and  C14_19 
REMARK    6  A    between atoms: C14_19  and  C15_20 
REMARK    7  A    between atoms: C15_20  and  N1_21 
REMARK    8  A    between atoms: C25_31  and  O6_32 
ROOT
HETATM    1  C3  UNL     1       1.281   8.085  14.379  1.00  0.00     0.097 C 
HETATM    2  C4  UNL     1       1.946   7.519  15.658  1.00  0.00     0.050 C 
HETATM    3  C5  UNL     1      -0.215   7.598  14.347  1.00  0.00     0.038 C 
HETATM    4  C6  UNL     1      -0.352   6.083  14.080  1.00  0.00     0.087 C 
HETATM    5  C7  UNL     1      -1.813   5.677  14.140  1.00  0.00     0.132 C 
HETATM    6  O3  UNL     1      -2.211   4.842  14.945  1.00  0.00    -0.298 OA
HETATM    7  C8  UNL     1      -2.700   6.402  13.143  1.00  0.00     0.068 C 
HETATM    8  C9  UNL     1      -4.158   5.909  12.931  1.00  0.00     0.022 C 
HETATM    9  C10 UNL     1      -4.311   4.383  12.967  1.00  0.00     0.015 C 
HETATM   10  C11 UNL     1      -5.169   6.746  13.718  1.00  0.00    -0.070 C 
HETATM   11  C12 UNL     1      -6.032   6.199  14.602  1.00  0.00     0.085 C 
HETATM   12  C18 UNL     1      -5.090   8.232  13.395  1.00  0.00     0.035 C 
HETATM   13  C19 UNL     1      -3.726   8.667  12.823  1.00  0.00     0.010 C 
HETATM   14  C20 UNL     1      -2.610   7.899  13.545  1.00  0.00     0.006 C 
HETATM   15  C21 UNL     1      -1.145   8.464  13.413  1.00  0.00    -0.033 C 
HETATM   16  C22 UNL     1      -0.696   8.428  11.932  1.00  0.00     0.016 C 
HETATM   17  C23 UNL     1      -1.112   9.946  13.909  1.00  0.00     0.012 C 
HETATM   18  C24 UNL     1       0.051  10.287  14.848  1.00  0.00     0.035 C 
HETATM   19  C25 UNL     1       1.368   9.653  14.415  1.00  0.00     0.153 C 
ENDROOT
BRANCH  11  20
HETATM   20  C13 UNL     1      -7.104   6.804  15.430  1.00  0.00     0.283 C 
HETATM   21  O4  UNL     1      -7.179   6.592  16.632  1.00  0.00    -0.260 OA
BRANCH  20  22
HETATM   22  O5  UNL     1      -7.953   7.573  14.715  1.00  0.00    -0.316 OA
BRANCH  22  23
HETATM   23  C14 UNL     1      -9.316   7.117  14.719  1.00  0.00     0.209 C 
BRANCH  23  24
HETATM   24  C15 UNL     1     -10.230   8.341  14.547  1.00  0.00     0.298 C 
BRANCH  24  25
HETATM   25  N1  UNL     1     -11.684   8.118  14.542  1.00  0.00     0.082 N 
HETATM   26  C16 UNL     1     -12.376   8.964  13.573  1.00  0.00     0.309 C 
HETATM   27  C17 UNL     1     -12.034   6.713  14.346  1.00  0.00     0.309 C 
ENDBRANCH  24  25
ENDBRANCH  23  24
ENDBRANCH  22  23
ENDBRANCH  20  22
ENDBRANCH  11  20
BRANCH   1  28
HETATM   28  O2  UNL     1       1.940   7.479  13.230  1.00  0.00    -0.308 OA
BRANCH  28  29
HETATM   29  C2  UNL     1       3.268   7.659  13.012  1.00  0.00     0.255 C 
HETATM   30  C1  UNL     1       3.661   7.036  11.709  1.00  0.00     0.126 C 
HETATM   31  O1  UNL     1       4.034   8.263  13.750  1.00  0.00    -0.266 OA
ENDBRANCH  28  29
ENDBRANCH   1  28
BRANCH  19  32
HETATM   32  O6  UNL     1       1.725  10.234  13.161  1.00  0.00    -0.393 OA
HETATM   33  H39 UNL     1       2.699  10.150  13.100  1.00  0.00     0.210 HD
ENDBRANCH  19  32
TORSDOF 8
ENDMDL
MODEL 7
REMARK minimizedAffinity -7.17748642
REMARK  8 active torsions:
REMARK  status: ('A' for Active; 'I' for Inactive)
REMARK    1  A    between atoms: C2_2  and  O2_4 
REMARK    2  A    between atoms: O2_4  and  C3_5 
REMARK    3  A    between atoms: C12_15  and  C13_16 
REMARK    4  A    between atoms: C13_16  and  O5_18 
REMARK    5  A    between atoms: O5_18  and  C14_19 
REMARK    6  A    between atoms: C14_19  and  C15_20 
REMARK    7  A    between atoms: C15_20  and  N1_21 
REMARK    8  A    between atoms: C25_31  and  O6_32 
ROOT
HETATM    1  C3  UNL     1     -11.751   9.181  14.035  1.00  0.00     0.097 C 
HETATM    2  C4  UNL     1     -12.315   9.388  12.608  1.00  0.00     0.050 C 
HETATM    3  C5  UNL     1     -10.411   8.365  13.920  1.00  0.00     0.038 C 
HETATM    4  C6  UNL     1     -10.632   6.896  13.497  1.00  0.00     0.087 C 
HETATM    5  C7  UNL     1      -9.294   6.198  13.333  1.00  0.00     0.132 C 
HETATM    6  O3  UNL     1      -8.960   5.703  12.261  1.00  0.00    -0.298 OA
HETATM    7  C8  UNL     1      -8.440   6.191  14.588  1.00  0.00     0.068 C 
HETATM    8  C9  UNL     1      -7.165   5.304  14.629  1.00  0.00     0.022 C 
HETATM    9  C10 UNL     1      -7.327   3.948  13.931  1.00  0.00     0.015 C 
HETATM   10  C11 UNL     1      -5.895   6.107  14.340  1.00  0.00    -0.070 C 
HETATM   11  C12 UNL     1      -5.039   5.780  13.347  1.00  0.00     0.085 C 
HETATM   12  C18 UNL     1      -5.713   7.291  15.282  1.00  0.00     0.035 C 
HETATM   13  C19 UNL     1      -7.029   7.776  15.922  1.00  0.00     0.010 C 
HETATM   14  C20 UNL     1      -8.156   7.688  14.884  1.00  0.00     0.006 C 
HETATM   15  C21 UNL     1      -9.475   8.497  15.183  1.00  0.00    -0.033 C 
HETATM   16  C22 UNL     1     -10.143   7.962  16.472  1.00  0.00     0.016 C 
HETATM   17  C23 UNL     1      -9.124  10.006  15.390  1.00  0.00     0.012 C 
HETATM   18  C24 UNL     1     -10.034  10.989  14.644  1.00  0.00     0.035 C 
HETATM   19  C25 UNL     1     -11.505  10.588  14.690  1.00  0.00     0.153 C 
ENDROOT
BRANCH  11  20
HETATM   20  C13 UNL     1      -3.752   6.382  12.924  1.00  0.00     0.283 C 
HETATM   21  O4  UNL     1      -3.592   7.595  12.899  1.00  0.00    -0.260 OA
BRANCH  20  22
HETATM   22  O5  UNL     1      -2.827   5.463  12.573  1.00  0.00    -0.316 OA
BRANCH  22  23
HETATM   23  C14 UNL     1      -1.632   5.485  13.371  1.00  0.00     0.209 C 
BRANCH  23  24
HETATM   24  C15 UNL     1      -0.473   5.969  12.484  1.00  0.00     0.298 C 
BRANCH  24  25
HETATM   25  N1  UNL     1       0.065   5.032  11.485  1.00  0.00     0.082 N 
HETATM   26  C16 UNL     1       1.448   5.333  11.125  1.00  0.00     0.309 C 
HETATM   27  C17 UNL     1      -0.072   3.636  11.897  1.00  0.00     0.309 C 
ENDBRANCH  24  25
ENDBRANCH  23  24
ENDBRANCH  22  23
ENDBRANCH  20  22
ENDBRANCH  11  20
BRANCH   1  28
HETATM   28  O2  UNL     1     -12.688   8.340  14.766  1.00  0.00    -0.308 OA
BRANCH  28  29
HETATM   29  C2  UNL     1     -13.995   8.274  14.405  1.00  0.00     0.255 C 
HETATM   30  C1  UNL     1     -14.362   6.862  14.069  1.00  0.00     0.126 C 
HETATM   31  O1  UNL     1     -14.773   9.217  14.380  1.00  0.00    -0.266 OA
ENDBRANCH  28  29
ENDBRANCH   1  28
BRANCH  19  32
HETATM   32  O6  UNL     1     -11.921  10.663  16.054  1.00  0.00    -0.393 OA
HETATM   33  H39 UNL     1     -12.888  10.810  16.026  1.00  0.00     0.210 HD
ENDBRANCH  19  32
TORSDOF 8
ENDMDL
MODEL 8
REMARK minimizedAffinity -6.72992897
REMARK  8 active torsions:
REMARK  status: ('A' for Active; 'I' for Inactive)
REMARK    1  A    between atoms: C2_2  and  O2_4 
REMARK    2  A    between atoms: O2_4  and  C3_5 
REMARK    3  A    between atoms: C12_15  and  C13_16 
REMARK    4  A    between atoms: C13_16  and  O5_18 
REMARK    5  A    between atoms: O5_18  and  C14_19 
REMARK    6  A    between atoms: C14_19  and  C15_20 
REMARK    7  A    between atoms: C15_20  and  N1_21 
REMARK    8  A    between atoms: C25_31  and  O6_32 
ROOT
HETATM    1  C3  UNL     1      -0.967   6.571  12.510  1.00  0.00     0.097 C 
HETATM    2  C4  UNL     1      -0.531   7.801  11.676  1.00  0.00     0.050 C 
HETATM    3  C5  UNL     1      -2.517   6.671  12.758  1.00  0.00     0.038 C 
HETATM    4  C6  UNL     1      -2.903   7.810  13.727  1.00  0.00     0.087 C 
HETATM    5  C7  UNL     1      -4.413   7.892  13.855  1.00  0.00     0.132 C 
HETATM    6  O3  UNL     1      -5.025   8.912  13.554  1.00  0.00    -0.298 OA
HETATM    7  C8  UNL     1      -5.063   6.617  14.363  1.00  0.00     0.068 C 
HETATM    8  C9  UNL     1      -6.561   6.643  14.771  1.00  0.00     0.022 C 
HETATM    9  C10 UNL     1      -6.991   7.934  15.481  1.00  0.00     0.015 C 
HETATM   10  C11 UNL     1      -7.469   6.102  13.665  1.00  0.00    -0.070 C 
HETATM   11  C12 UNL     1      -8.492   6.820  13.149  1.00  0.00     0.085 C 
HETATM   12  C18 UNL     1      -7.094   4.693  13.224  1.00  0.00     0.035 C 
HETATM   13  C19 UNL     1      -5.629   4.322  13.528  1.00  0.00     0.010 C 
HETATM   14  C20 UNL     1      -4.739   5.548  13.284  1.00  0.00     0.006 C 
HETATM   15  C21 UNL     1      -3.190   5.296  13.141  1.00  0.00    -0.033 C 
HETATM   16  C22 UNL     1      -2.626   4.709  14.457  1.00  0.00     0.016 C 
HETATM   17  C23 UNL     1      -2.933   4.275  11.986  1.00  0.00     0.012 C 
HETATM   18  C24 UNL     1      -1.815   4.667  11.013  1.00  0.00     0.035 C 
HETATM   19  C25 UNL     1      -0.601   5.266  11.716  1.00  0.00     0.153 C 
ENDROOT
BRANCH  11  20
HETATM   20  C13 UNL     1      -9.505   6.483  12.120  1.00  0.00     0.283 C 
HETATM   21  O4  UNL     1      -9.189   5.960  11.060  1.00  0.00    -0.260 OA
BRANCH  20  22
HETATM   22  O5  UNL     1     -10.760   6.824  12.481  1.00  0.00    -0.316 OA
BRANCH  22  23
HETATM   23  C14 UNL     1     -11.034   6.687  13.885  1.00  0.00     0.209 C 
BRANCH  23  24
HETATM   24  C15 UNL     1     -12.560   6.699  14.078  1.00  0.00     0.298 C 
BRANCH  24  25
HETATM   25  N1  UNL     1     -13.189   7.960  14.497  1.00  0.00     0.082 N 
HETATM   26  C16 UNL     1     -13.838   8.657  13.389  1.00  0.00     0.309 C 
HETATM   27  C17 UNL     1     -14.118   7.779  15.611  1.00  0.00     0.309 C 
ENDBRANCH  24  25
ENDBRANCH  23  24
ENDBRANCH  22  23
ENDBRANCH  20  22
ENDBRANCH  11  20
BRANCH   1  28
HETATM   28  O2  UNL     1      -0.330   6.671  13.816  1.00  0.00    -0.308 OA
BRANCH  28  29
HETATM   29  C2  UNL     1       0.966   7.058  13.933  1.00  0.00     0.255 C 
HETATM   30  C1  UNL     1       1.058   8.286  14.782  1.00  0.00     0.126 C 
HETATM   31  O1  UNL     1       1.926   6.481  13.442  1.00  0.00    -0.266 OA
ENDBRANCH  28  29
ENDBRANCH   1  28
BRANCH  19  32
HETATM   32  O6  UNL     1      -0.036   4.240  12.533  1.00  0.00    -0.393 OA
HETATM   33  H39 UNL     1       0.908   4.479  12.638  1.00  0.00     0.210 HD
ENDBRANCH  19  32
TORSDOF 8
ENDMDL
MODEL 9
REMARK minimizedAffinity -6.71287441
REMARK  8 active torsions:
REMARK  status: ('A' for Active; 'I' for Inactive)
REMARK    1  A    between atoms: C2_2  and  O2_4 
REMARK    2  A    between atoms: O2_4  and  C3_5 
REMARK    3  A    between atoms: C12_15  and  C13_16 
REMARK    4  A    between atoms: C13_16  and  O5_18 
REMARK    5  A    between atoms: O5_18  and  C14_19 
REMARK    6  A    between atoms: C14_19  and  C15_20 
REMARK    7  A    between atoms: C15_20  and  N1_21 
REMARK    8  A    between atoms: C25_31  and  O6_32 
ROOT
HETATM    1  C3  UNL     1      -2.966   7.503  13.925  1.00  0.00     0.097 C 
HETATM    2  C4  UNL     1      -3.869   8.480  13.134  1.00  0.00     0.050 C 
HETATM    3  C5  UNL     1      -1.475   7.741  13.480  1.00  0.00     0.038 C 
HETATM    4  C6  UNL     1      -1.192   7.269  12.037  1.00  0.00     0.087 C 
HETATM    5  C7  UNL     1       0.238   7.602  11.655  1.00  0.00     0.132 C 
HETATM    6  O3  UNL     1       0.492   8.329  10.701  1.00  0.00    -0.298 OA
HETATM    7  C8  UNL     1       1.284   6.971  12.558  1.00  0.00     0.068 C 
HETATM    8  C9  UNL     1       2.779   7.028  12.138  1.00  0.00     0.022 C 
HETATM    9  C10 UNL     1       3.009   6.848  10.632  1.00  0.00     0.015 C 
HETATM   10  C11 UNL     1       3.534   8.155  12.845  1.00  0.00    -0.070 C 
HETATM   11  C12 UNL     1       4.205   9.114  12.170  1.00  0.00     0.085 C 
HETATM   12  C18 UNL     1       3.443   8.071  14.363  1.00  0.00     0.035 C 
HETATM   13  C19 UNL     1       2.221   7.275  14.864  1.00  0.00     0.010 C 
HETATM   14  C20 UNL     1       1.018   7.581  13.961  1.00  0.00     0.006 C 
HETATM   15  C21 UNL     1      -0.410   7.205  14.513  1.00  0.00    -0.033 C 
HETATM   16  C22 UNL     1      -0.509   5.675  14.724  1.00  0.00     0.016 C 
HETATM   17  C23 UNL     1      -0.641   7.916  15.885  1.00  0.00     0.012 C 
HETATM   18  C24 UNL     1      -2.005   8.601  16.036  1.00  0.00     0.035 C 
HETATM   19  C25 UNL     1      -3.150   7.774  15.461  1.00  0.00     0.153 C 
ENDROOT
BRANCH  11  20
HETATM   20  C13 UNL     1       5.023  10.256  12.643  1.00  0.00     0.283 C 
HETATM   21  O4  UNL     1       5.053  11.317  12.034  1.00  0.00    -0.260 OA
BRANCH  20  22
HETATM   22  O5  UNL     1       5.710   9.983  13.774  1.00  0.00    -0.316 OA
BRANCH  22  23
HETATM   23  C14 UNL     1       6.954   9.295  13.564  1.00  0.00     0.209 C 
BRANCH  23  24
HETATM   24  C15 UNL     1       7.603   9.052  14.936  1.00  0.00     0.298 C 
BRANCH  24  25
HETATM   25  N1  UNL     1       8.530   7.917  15.066  1.00  0.00     0.082 N 
HETATM   26  C16 UNL     1       9.450   7.815  13.936  1.00  0.00     0.309 C 
HETATM   27  C17 UNL     1       9.262   7.935  16.331  1.00  0.00     0.309 C 
ENDBRANCH  24  25
ENDBRANCH  23  24
ENDBRANCH  22  23
ENDBRANCH  20  22
ENDBRANCH  11  20
BRANCH   1  28
HETATM   28  O2  UNL     1      -3.310   6.148  13.515  1.00  0.00    -0.308 OA
BRANCH  28  29
HETATM   29  C2  UNL     1      -4.605   5.779  13.343  1.00  0.00     0.255 C 
HETATM   30  C1  UNL     1      -4.677   4.530  12.522  1.00  0.00     0.126 C 
HETATM   31  O1  UNL     1      -5.577   6.359  13.808  1.00  0.00    -0.266 OA
ENDBRANCH  28  29
ENDBRANCH   1  28
BRANCH  19  32
HETATM   32  O6  UNL     1      -3.247   6.584  16.244  1.00  0.00    -0.393 OA
HETATM   33  H39 UNL     1      -4.175   6.284  16.153  1.00  0.00     0.210 HD
ENDBRANCH  19  32
TORSDOF 8
ENDMDL
