MODEL 1
REMARK minimizedAffinity -9.89277935
REMARK  6 active torsions:
REMARK  status: ('A' for Active; 'I' for Inactive)
REMARK    1  A    between atoms: C2_2  and  C30_31 
REMARK    2  A    between atoms: C3_3  and  C4_4 
REMARK    3  A    between atoms: C4_4  and  C5_5 
REMARK    4  A    between atoms: C5_5  and  C6_6 
REMARK    5  A    between atoms: C6_6  and  C8_8 
REMARK    6  A    between atoms: C30_31  and  O3_33 
ROOT
HETATM    1  C8  UNL     1      -3.158  48.728 -19.750  1.00  0.00    -0.002 C 
HETATM    2  C9  UNL     1      -3.739  47.575 -20.609  1.00  0.00     0.007 C 
HETATM    3  C10 UNL     1      -3.431  47.926 -22.084  1.00  0.00     0.015 C 
HETATM    4  C11 UNL     1      -2.982  49.405 -22.060  1.00  0.00    -0.013 C 
HETATM    5  C12 UNL     1      -4.298  50.252 -22.069  1.00  0.00     0.021 C 
HETATM    6  C13 UNL     1      -2.144  49.942 -23.212  1.00  0.00    -0.070 C 
HETATM    7  C14 UNL     1      -2.292  49.501 -24.476  1.00  0.00    -0.022 C 
HETATM    8  C15 UNL     1      -1.603  50.099 -25.670  1.00  0.00     0.034 C 
HETATM    9  C16 UNL     1      -0.503  51.125 -25.317  1.00  0.00     0.013 C 
HETATM   10  C17 UNL     1       0.153  51.870 -26.543  1.00  0.00     0.018 C 
HETATM   11  C18 UNL     1       1.632  51.443 -26.673  1.00  0.00     0.023 C 
HETATM   12  C19 UNL     1      -0.529  51.556 -27.892  1.00  0.00     0.023 C 
HETATM   13  C20 UNL     1       0.171  53.395 -26.361  1.00  0.00     0.135 C 
HETATM   14  O1  UNL     1      -0.004  54.167 -27.307  1.00  0.00    -0.297 OA
HETATM   15  C21 UNL     1       0.510  53.964 -25.003  1.00  0.00     0.080 C 
HETATM   16  C22 UNL     1       0.199  53.031 -23.844  1.00  0.00     0.017 C 
HETATM   17  C23 UNL     1      -0.956  52.045 -24.127  1.00  0.00    -0.031 C 
HETATM   18  C24 UNL     1      -2.253  52.833 -24.446  1.00  0.00     0.016 C 
HETATM   19  C25 UNL     1      -1.179  51.092 -22.884  1.00  0.00     0.024 C 
HETATM   20  C26 UNL     1      -1.514  51.819 -21.556  1.00  0.00     0.010 C 
HETATM   21  C27 UNL     1      -1.857  50.912 -20.349  1.00  0.00     0.011 C 
HETATM   22  C28 UNL     1      -2.170  49.449 -20.721  1.00  0.00    -0.029 C 
HETATM   23  C29 UNL     1      -0.827  48.662 -20.775  1.00  0.00     0.016 C 
ENDROOT
BRANCH   1  24
HETATM   24  C6  UNL     1      -2.670  48.362 -18.316  1.00  0.00    -0.014 C 
HETATM   25  C7  UNL     1      -2.819  46.838 -18.131  1.00  0.00     0.010 C 
BRANCH  24  26
HETATM   26  C5  UNL     1      -1.217  48.781 -17.977  1.00  0.00     0.008 C 
BRANCH  26  27
HETATM   27  C4  UNL     1      -1.104  50.033 -17.091  1.00  0.00     0.028 C 
BRANCH  27  28
HETATM   28  C3  UNL     1       0.053  50.032 -16.134  1.00  0.00    -0.013 C 
HETATM   29  C2  UNL     1       1.012  50.967 -15.978  1.00  0.00     0.008 C 
HETATM   30  C1  UNL     1       2.085  50.806 -14.937  1.00  0.00     0.055 C 
BRANCH  29  31
HETATM   31  C30 UNL     1       1.083  52.178 -16.836  1.00  0.00     0.171 C 
HETATM   32  O2  UNL     1       0.851  52.259 -18.029  1.00  0.00    -0.646 OA
BRANCH  31  33
HETATM   33  O3  UNL     1       1.458  53.266 -16.141  1.00  0.00    -0.773 OA
HETATM   34  H46 UNL     1       1.458  53.974 -16.819  1.00  0.00     0.167 HD
ENDBRANCH  31  33
ENDBRANCH  29  31
ENDBRANCH  27  28
ENDBRANCH  26  27
ENDBRANCH  24  26
ENDBRANCH   1  24
TORSDOF 6
ENDMDL
MODEL 2
REMARK minimizedAffinity -9.59126759
REMARK  6 active torsions:
REMARK  status: ('A' for Active; 'I' for Inactive)
REMARK    1  A    between atoms: C2_2  and  C30_31 
REMARK    2  A    between atoms: C3_3  and  C4_4 
REMARK    3  A    between atoms: C4_4  and  C5_5 
REMARK    4  A    between atoms: C5_5  and  C6_6 
REMARK    5  A    between atoms: C6_6  and  C8_8 
REMARK    6  A    between atoms: C30_31  and  O3_33 
ROOT
HETATM    1  C8  UNL     1      -0.872  51.587 -21.556  1.00  0.00    -0.002 C 
HETATM    2  C9  UNL     1      -0.143  50.350 -20.970  1.00  0.00     0.007 C 
HETATM    3  C10 UNL     1      -1.167  49.191 -20.973  1.00  0.00     0.015 C 
HETATM    4  C11 UNL     1      -2.533  49.863 -21.247  1.00  0.00    -0.013 C 
HETATM    5  C12 UNL     1      -3.037  50.387 -19.861  1.00  0.00     0.021 C 
HETATM    6  C13 UNL     1      -3.673  49.021 -21.804  1.00  0.00    -0.070 C 
HETATM    7  C14 UNL     1      -3.827  47.721 -21.489  1.00  0.00    -0.022 C 
HETATM    8  C15 UNL     1      -5.012  46.887 -21.886  1.00  0.00     0.034 C 
HETATM    9  C16 UNL     1      -5.953  47.567 -22.906  1.00  0.00     0.013 C 
HETATM   10  C17 UNL     1      -7.274  46.777 -23.247  1.00  0.00     0.018 C 
HETATM   11  C18 UNL     1      -7.229  46.313 -24.720  1.00  0.00     0.023 C 
HETATM   12  C19 UNL     1      -7.479  45.516 -22.381  1.00  0.00     0.023 C 
HETATM   13  C20 UNL     1      -8.529  47.653 -23.121  1.00  0.00     0.135 C 
HETATM   14  O1  UNL     1      -9.597  47.204 -22.696  1.00  0.00    -0.297 OA
HETATM   15  C21 UNL     1      -8.480  49.077 -23.624  1.00  0.00     0.080 C 
HETATM   16  C22 UNL     1      -7.086  49.685 -23.630  1.00  0.00     0.017 C 
HETATM   17  C23 UNL     1      -6.140  49.089 -22.564  1.00  0.00    -0.031 C 
HETATM   18  C24 UNL     1      -6.735  49.311 -21.149  1.00  0.00     0.016 C 
HETATM   19  C25 UNL     1      -4.708  49.752 -22.672  1.00  0.00     0.024 C 
HETATM   20  C26 UNL     1      -4.687  51.292 -22.493  1.00  0.00     0.010 C 
HETATM   21  C27 UNL     1      -3.289  51.958 -22.473  1.00  0.00     0.011 C 
HETATM   22  C28 UNL     1      -2.119  50.975 -22.270  1.00  0.00    -0.029 C 
HETATM   23  C29 UNL     1      -1.701  50.422 -23.664  1.00  0.00     0.016 C 
ENDROOT
BRANCH   1  24
HETATM   24  C6  UNL     1       0.003  52.622 -22.326  1.00  0.00    -0.014 C 
HETATM   25  C7  UNL     1       1.083  53.152 -21.361  1.00  0.00     0.010 C 
BRANCH  24  26
HETATM   26  C5  UNL     1       0.680  52.097 -23.617  1.00  0.00     0.008 C 
BRANCH  26  27
HETATM   27  C4  UNL     1       0.908  53.165 -24.699  1.00  0.00     0.028 C 
BRANCH  27  28
HETATM   28  C3  UNL     1       0.466  52.775 -26.080  1.00  0.00    -0.013 C 
HETATM   29  C2  UNL     1       1.140  52.065 -27.007  1.00  0.00     0.008 C 
HETATM   30  C1  UNL     1       0.518  51.745 -28.338  1.00  0.00     0.055 C 
BRANCH  29  31
HETATM   31  C30 UNL     1       2.531  51.593 -26.783  1.00  0.00     0.171 C 
HETATM   32  O2  UNL     1       2.903  50.693 -26.051  1.00  0.00    -0.646 OA
BRANCH  31  33
HETATM   33  O3  UNL     1       3.423  52.296 -27.503  1.00  0.00    -0.773 OA
HETATM   34  H46 UNL     1       4.278  51.881 -27.263  1.00  0.00     0.167 HD
ENDBRANCH  31  33
ENDBRANCH  29  31
ENDBRANCH  27  28
ENDBRANCH  26  27
ENDBRANCH  24  26
ENDBRANCH   1  24
TORSDOF 6
ENDMDL
MODEL 3
REMARK minimizedAffinity -9.48730564
REMARK  6 active torsions:
REMARK  status: ('A' for Active; 'I' for Inactive)
REMARK    1  A    between atoms: C2_2  and  C30_31 
REMARK    2  A    between atoms: C3_3  and  C4_4 
REMARK    3  A    between atoms: C4_4  and  C5_5 
REMARK    4  A    between atoms: C5_5  and  C6_6 
REMARK    5  A    between atoms: C6_6  and  C8_8 
REMARK    6  A    between atoms: C30_31  and  O3_33 
ROOT
HETATM    1  C8  UNL     1      -4.320  47.897 -20.729  1.00  0.00    -0.002 C 
HETATM    2  C9  UNL     1      -5.025  47.111 -21.865  1.00  0.00     0.007 C 
HETATM    3  C10 UNL     1      -4.521  47.715 -23.197  1.00  0.00     0.015 C 
HETATM    4  C11 UNL     1      -3.807  49.028 -22.798  1.00  0.00    -0.013 C 
HETATM    5  C12 UNL     1      -4.934  50.105 -22.664  1.00  0.00     0.021 C 
HETATM    6  C13 UNL     1      -2.780  49.629 -23.748  1.00  0.00    -0.070 C 
HETATM    7  C14 UNL     1      -2.890  49.524 -25.086  1.00  0.00    -0.022 C 
HETATM    8  C15 UNL     1      -1.994  50.223 -26.069  1.00  0.00     0.034 C 
HETATM    9  C16 UNL     1      -0.758  50.896 -25.431  1.00  0.00     0.013 C 
HETATM   10  C17 UNL     1       0.137  51.749 -26.410  1.00  0.00     0.018 C 
HETATM   11  C18 UNL     1       1.515  51.070 -26.571  1.00  0.00     0.023 C 
HETATM   12  C19 UNL     1      -0.464  51.893 -27.825  1.00  0.00     0.023 C 
HETATM   13  C20 UNL     1       0.423  53.156 -25.868  1.00  0.00     0.135 C 
HETATM   14  O1  UNL     1       0.484  54.141 -26.608  1.00  0.00    -0.297 OA
HETATM   15  C21 UNL     1       0.735  53.323 -24.399  1.00  0.00     0.080 C 
HETATM   16  C22 UNL     1       0.149  52.235 -23.512  1.00  0.00     0.017 C 
HETATM   17  C23 UNL     1      -1.140  51.596 -24.077  1.00  0.00    -0.031 C 
HETATM   18  C24 UNL     1      -2.230  52.683 -24.257  1.00  0.00     0.016 C 
HETATM   19  C25 UNL     1      -1.651  50.453 -23.110  1.00  0.00     0.024 C 
HETATM   20  C26 UNL     1      -1.966  50.914 -21.664  1.00  0.00     0.010 C 
HETATM   21  C27 UNL     1      -2.583  49.847 -20.726  1.00  0.00     0.011 C 
HETATM   22  C28 UNL     1      -3.128  48.601 -21.452  1.00  0.00    -0.029 C 
HETATM   23  C29 UNL     1      -1.958  47.590 -21.631  1.00  0.00     0.016 C 
ENDROOT
BRANCH   1  24
HETATM   24  C6  UNL     1      -4.044  47.124 -19.403  1.00  0.00    -0.014 C 
HETATM   25  C7  UNL     1      -4.392  45.640 -19.630  1.00  0.00     0.010 C 
BRANCH  24  26
HETATM   26  C5  UNL     1      -2.600  47.236 -18.852  1.00  0.00     0.008 C 
BRANCH  26  27
HETATM   27  C4  UNL     1      -2.476  48.032 -17.543  1.00  0.00     0.028 C 
BRANCH  27  28
HETATM   28  C3  UNL     1      -1.250  48.892 -17.435  1.00  0.00    -0.013 C 
HETATM   29  C2  UNL     1      -1.175  50.229 -17.271  1.00  0.00     0.008 C 
HETATM   30  C1  UNL     1       0.156  50.919 -17.154  1.00  0.00     0.055 C 
BRANCH  29  31
HETATM   31  C30 UNL     1      -2.385  51.089 -17.232  1.00  0.00     0.171 C 
HETATM   32  O2  UNL     1      -2.881  51.719 -18.148  1.00  0.00    -0.646 OA
BRANCH  31  33
HETATM   33  O3  UNL     1      -2.935  51.127 -16.004  1.00  0.00    -0.773 OA
HETATM   34  H46 UNL     1      -3.709  51.716 -16.127  1.00  0.00     0.167 HD
ENDBRANCH  31  33
ENDBRANCH  29  31
ENDBRANCH  27  28
ENDBRANCH  26  27
ENDBRANCH  24  26
ENDBRANCH   1  24
TORSDOF 6
ENDMDL
MODEL 4
REMARK minimizedAffinity -9.43248558
REMARK  6 active torsions:
REMARK  status: ('A' for Active; 'I' for Inactive)
REMARK    1  A    between atoms: C2_2  and  C30_31 
REMARK    2  A    between atoms: C3_3  and  C4_4 
REMARK    3  A    between atoms: C4_4  and  C5_5 
REMARK    4  A    between atoms: C5_5  and  C6_6 
REMARK    5  A    between atoms: C6_6  and  C8_8 
REMARK    6  A    between atoms: C30_31  and  O3_33 
ROOT
HETATM    1  C8  UNL     1      -4.109  48.463 -20.176  1.00  0.00    -0.002 C 
HETATM    2  C9  UNL     1      -4.688  47.437 -21.185  1.00  0.00     0.007 C 
HETATM    3  C10 UNL     1      -4.191  47.867 -22.585  1.00  0.00     0.015 C 
HETATM    4  C11 UNL     1      -3.622  49.292 -22.389  1.00  0.00    -0.013 C 
HETATM    5  C12 UNL     1      -4.851  50.257 -22.462  1.00  0.00     0.021 C 
HETATM    6  C13 UNL     1      -2.619  49.833 -23.399  1.00  0.00    -0.070 C 
HETATM    7  C14 UNL     1      -2.663  49.504 -24.704  1.00  0.00    -0.022 C 
HETATM    8  C15 UNL     1      -1.798  50.123 -25.765  1.00  0.00     0.034 C 
HETATM    9  C16 UNL     1      -0.660  51.011 -25.215  1.00  0.00     0.013 C 
HETATM   10  C17 UNL     1       0.189  51.781 -26.299  1.00  0.00     0.018 C 
HETATM   11  C18 UNL     1       1.631  51.228 -26.311  1.00  0.00     0.023 C 
HETATM   12  C19 UNL     1      -0.364  51.635 -27.733  1.00  0.00     0.023 C 
HETATM   13  C20 UNL     1       0.316  53.279 -25.987  1.00  0.00     0.135 C 
HETATM   14  O1  UNL     1       0.313  54.134 -26.878  1.00  0.00    -0.297 OA
HETATM   15  C21 UNL     1       0.550  53.711 -24.558  1.00  0.00     0.080 C 
HETATM   16  C22 UNL     1       0.035  52.726 -23.520  1.00  0.00     0.017 C 
HETATM   17  C23 UNL     1      -1.162  51.878 -24.005  1.00  0.00    -0.031 C 
HETATM   18  C24 UNL     1      -2.343  52.805 -24.388  1.00  0.00     0.016 C 
HETATM   19  C25 UNL     1      -1.602  50.859 -22.877  1.00  0.00     0.024 C 
HETATM   20  C26 UNL     1      -2.018  51.512 -21.533  1.00  0.00     0.010 C 
HETATM   21  C27 UNL     1      -2.568  50.553 -20.449  1.00  0.00     0.011 C 
HETATM   22  C28 UNL     1      -2.962  49.158 -20.975  1.00  0.00    -0.029 C 
HETATM   23  C29 UNL     1      -1.693  48.255 -20.956  1.00  0.00     0.016 C 
ENDROOT
BRANCH   1  24
HETATM   24  C6  UNL     1      -3.816  47.945 -18.735  1.00  0.00    -0.014 C 
HETATM   25  C7  UNL     1      -2.867  46.735 -18.842  1.00  0.00     0.010 C 
BRANCH  24  26
HETATM   26  C5  UNL     1      -3.212  48.987 -17.760  1.00  0.00     0.008 C 
BRANCH  26  27
HETATM   27  C4  UNL     1      -1.802  48.645 -17.252  1.00  0.00     0.028 C 
BRANCH  27  28
HETATM   28  C3  UNL     1      -0.825  49.785 -17.270  1.00  0.00    -0.013 C 
HETATM   29  C2  UNL     1       0.236  49.993 -16.464  1.00  0.00     0.008 C 
HETATM   30  C1  UNL     1       1.126  51.190 -16.653  1.00  0.00     0.055 C 
BRANCH  29  31
HETATM   31  C30 UNL     1       0.562  49.082 -15.337  1.00  0.00     0.171 C 
HETATM   32  O2  UNL     1       0.706  49.372 -14.163  1.00  0.00    -0.646 OA
BRANCH  31  33
HETATM   33  O3  UNL     1       0.704  47.808 -15.745  1.00  0.00    -0.773 OA
HETATM   34  H46 UNL     1       0.909  47.331 -14.914  1.00  0.00     0.167 HD
ENDBRANCH  31  33
ENDBRANCH  29  31
ENDBRANCH  27  28
ENDBRANCH  26  27
ENDBRANCH  24  26
ENDBRANCH   1  24
TORSDOF 6
ENDMDL
MODEL 5
REMARK minimizedAffinity -9.29417324
REMARK  6 active torsions:
REMARK  status: ('A' for Active; 'I' for Inactive)
REMARK    1  A    between atoms: C2_2  and  C30_31 
REMARK    2  A    between atoms: C3_3  and  C4_4 
REMARK    3  A    between atoms: C4_4  and  C5_5 
REMARK    4  A    between atoms: C5_5  and  C6_6 
REMARK    5  A    between atoms: C6_6  and  C8_8 
REMARK    6  A    between atoms: C30_31  and  O3_33 
ROOT
HETATM    1  C8  UNL     1      -2.996  49.503 -23.159  1.00  0.00    -0.002 C 
HETATM    2  C9  UNL     1      -1.762  50.353 -23.557  1.00  0.00     0.007 C 
HETATM    3  C10 UNL     1      -1.003  50.669 -22.248  1.00  0.00     0.015 C 
HETATM    4  C11 UNL     1      -1.980  50.282 -21.113  1.00  0.00    -0.013 C 
HETATM    5  C12 UNL     1      -2.932  51.509 -20.930  1.00  0.00     0.021 C 
HETATM    6  C13 UNL     1      -1.423  49.987 -19.726  1.00  0.00    -0.070 C 
HETATM    7  C14 UNL     1      -0.339  50.619 -19.237  1.00  0.00    -0.022 C 
HETATM    8  C15 UNL     1       0.160  50.479 -17.827  1.00  0.00     0.034 C 
HETATM    9  C16 UNL     1      -0.525  49.353 -17.022  1.00  0.00     0.013 C 
HETATM   10  C17 UNL     1      -0.121  49.260 -15.500  1.00  0.00     0.018 C 
HETATM   11  C18 UNL     1       0.656  47.947 -15.254  1.00  0.00     0.023 C 
HETATM   12  C19 UNL     1       0.787  50.417 -15.032  1.00  0.00     0.023 C 
HETATM   13  C20 UNL     1      -1.343  49.205 -14.572  1.00  0.00     0.135 C 
HETATM   14  O1  UNL     1      -1.351  49.762 -13.470  1.00  0.00    -0.297 OA
HETATM   15  C21 UNL     1      -2.531  48.364 -14.976  1.00  0.00     0.080 C 
HETATM   16  C22 UNL     1      -2.666  48.163 -16.478  1.00  0.00     0.017 C 
HETATM   17  C23 UNL     1      -2.068  49.313 -17.318  1.00  0.00    -0.031 C 
HETATM   18  C24 UNL     1      -2.775  50.647 -16.965  1.00  0.00     0.016 C 
HETATM   19  C25 UNL     1      -2.219  48.998 -18.861  1.00  0.00     0.024 C 
HETATM   20  C26 UNL     1      -3.677  48.790 -19.345  1.00  0.00     0.010 C 
HETATM   21  C27 UNL     1      -3.871  48.599 -20.869  1.00  0.00     0.011 C 
HETATM   22  C28 UNL     1      -2.650  49.002 -21.720  1.00  0.00    -0.029 C 
HETATM   23  C29 UNL     1      -1.694  47.776 -21.812  1.00  0.00     0.016 C 
ENDROOT
BRANCH   1  24
HETATM   24  C6  UNL     1      -3.512  48.473 -24.209  1.00  0.00    -0.014 C 
HETATM   25  C7  UNL     1      -5.027  48.691 -24.393  1.00  0.00     0.010 C 
BRANCH  24  26
HETATM   26  C5  UNL     1      -2.814  48.522 -25.592  1.00  0.00     0.008 C 
BRANCH  26  27
HETATM   27  C4  UNL     1      -2.881  49.888 -26.293  1.00  0.00     0.028 C 
BRANCH  27  28
HETATM   28  C3  UNL     1      -1.618  50.310 -26.987  1.00  0.00    -0.013 C 
HETATM   29  C2  UNL     1      -1.239  51.550 -27.357  1.00  0.00     0.008 C 
HETATM   30  C1  UNL     1       0.089  51.785 -28.023  1.00  0.00     0.055 C 
BRANCH  29  31
HETATM   31  C30 UNL     1      -2.113  52.735 -27.162  1.00  0.00     0.171 C 
HETATM   32  O2  UNL     1      -2.881  52.950 -26.241  1.00  0.00    -0.646 OA
BRANCH  31  33
HETATM   33  O3  UNL     1      -1.988  53.623 -28.164  1.00  0.00    -0.773 OA
HETATM   34  H46 UNL     1      -2.607  54.338 -27.906  1.00  0.00     0.167 HD
ENDBRANCH  31  33
ENDBRANCH  29  31
ENDBRANCH  27  28
ENDBRANCH  26  27
ENDBRANCH  24  26
ENDBRANCH   1  24
TORSDOF 6
ENDMDL
MODEL 6
REMARK minimizedAffinity -9.24851418
REMARK  6 active torsions:
REMARK  status: ('A' for Active; 'I' for Inactive)
REMARK    1  A    between atoms: C2_2  and  C30_31 
REMARK    2  A    between atoms: C3_3  and  C4_4 
REMARK    3  A    between atoms: C4_4  and  C5_5 
REMARK    4  A    between atoms: C5_5  and  C6_6 
REMARK    5  A    between atoms: C6_6  and  C8_8 
REMARK    6  A    between atoms: C30_31  and  O3_33 
ROOT
HETATM    1  C8  UNL     1      -1.735  49.801 -22.913  1.00  0.00    -0.002 C 
HETATM    2  C9  UNL     1      -2.938  48.823 -22.911  1.00  0.00     0.007 C 
HETATM    3  C10 UNL     1      -3.245  48.504 -21.428  1.00  0.00     0.015 C 
HETATM    4  C11 UNL     1      -2.023  49.036 -20.643  1.00  0.00    -0.013 C 
HETATM    5  C12 UNL     1      -0.939  47.911 -20.724  1.00  0.00     0.021 C 
HETATM    6  C13 UNL     1      -2.176  49.348 -19.160  1.00  0.00    -0.070 C 
HETATM    7  C14 UNL     1      -3.000  48.645 -18.359  1.00  0.00    -0.022 C 
HETATM    8  C15 UNL     1      -3.076  48.809 -16.867  1.00  0.00     0.034 C 
HETATM    9  C16 UNL     1      -2.303  50.032 -16.324  1.00  0.00     0.013 C 
HETATM   10  C17 UNL     1      -2.252  50.164 -14.754  1.00  0.00     0.018 C 
HETATM   11  C18 UNL     1      -3.052  51.411 -14.316  1.00  0.00     0.023 C 
HETATM   12  C19 UNL     1      -2.860  48.954 -14.013  1.00  0.00     0.023 C 
HETATM   13  C20 UNL     1      -0.824  50.376 -14.230  1.00  0.00     0.135 C 
HETATM   14  O1  UNL     1      -0.437  49.878 -13.169  1.00  0.00    -0.297 OA
HETATM   15  C21 UNL     1       0.101  51.301 -14.986  1.00  0.00     0.080 C 
HETATM   16  C22 UNL     1      -0.230  51.438 -16.464  1.00  0.00     0.017 C 
HETATM   17  C23 UNL     1      -0.927  50.197 -17.065  1.00  0.00    -0.031 C 
HETATM   18  C24 UNL     1      -0.016  48.953 -16.909  1.00  0.00     0.016 C 
HETATM   19  C25 UNL     1      -1.268  50.447 -18.590  1.00  0.00     0.024 C 
HETATM   20  C26 UNL     1      -0.044  50.763 -19.488  1.00  0.00     0.010 C 
HETATM   21  C27 UNL     1      -0.325  50.894 -21.005  1.00  0.00     0.011 C 
HETATM   22  C28 UNL     1      -1.694  50.339 -21.448  1.00  0.00    -0.029 C 
HETATM   23  C29 UNL     1      -2.754  51.467 -21.278  1.00  0.00     0.016 C 
ENDROOT
BRANCH   1  24
HETATM   24  C6  UNL     1      -1.657  50.819 -24.091  1.00  0.00    -0.014 C 
HETATM   25  C7  UNL     1      -3.095  51.188 -24.505  1.00  0.00     0.010 C 
BRANCH  24  26
HETATM   26  C5  UNL     1      -0.857  52.115 -23.802  1.00  0.00     0.008 C 
BRANCH  26  27
HETATM   27  C4  UNL     1       0.432  52.267 -24.627  1.00  0.00     0.028 C 
BRANCH  27  28
HETATM   28  C3  UNL     1       0.242  52.228 -26.116  1.00  0.00    -0.013 C 
HETATM   29  C2  UNL     1       1.127  51.859 -27.064  1.00  0.00     0.008 C 
HETATM   30  C1  UNL     1       0.745  51.857 -28.518  1.00  0.00     0.055 C 
BRANCH  29  31
HETATM   31  C30 UNL     1       2.523  51.470 -26.734  1.00  0.00     0.171 C 
HETATM   32  O2  UNL     1       2.891  50.617 -25.946  1.00  0.00    -0.646 OA
BRANCH  31  33
HETATM   33  O3  UNL     1       3.423  52.194 -27.423  1.00  0.00    -0.773 OA
HETATM   34  H46 UNL     1       4.280  51.834 -27.113  1.00  0.00     0.167 HD
ENDBRANCH  31  33
ENDBRANCH  29  31
ENDBRANCH  27  28
ENDBRANCH  26  27
ENDBRANCH  24  26
ENDBRANCH   1  24
TORSDOF 6
ENDMDL
MODEL 7
REMARK minimizedAffinity -9.06338501
REMARK  6 active torsions:
REMARK  status: ('A' for Active; 'I' for Inactive)
REMARK    1  A    between atoms: C2_2  and  C30_31 
REMARK    2  A    between atoms: C3_3  and  C4_4 
REMARK    3  A    between atoms: C4_4  and  C5_5 
REMARK    4  A    between atoms: C5_5  and  C6_6 
REMARK    5  A    between atoms: C6_6  and  C8_8 
REMARK    6  A    between atoms: C30_31  and  O3_33 
ROOT
HETATM    1  C8  UNL     1      -1.221  50.915 -21.243  1.00  0.00    -0.002 C 
HETATM    2  C9  UNL     1      -0.229  49.743 -21.024  1.00  0.00     0.007 C 
HETATM    3  C10 UNL     1      -1.084  48.460 -20.896  1.00  0.00     0.015 C 
HETATM    4  C11 UNL     1      -2.535  48.961 -20.716  1.00  0.00    -0.013 C 
HETATM    5  C12 UNL     1      -2.690  49.290 -19.194  1.00  0.00     0.021 C 
HETATM    6  C13 UNL     1      -3.688  48.023 -21.049  1.00  0.00    -0.070 C 
HETATM    7  C14 UNL     1      -3.608  46.692 -20.863  1.00  0.00    -0.022 C 
HETATM    8  C15 UNL     1      -4.760  45.741 -21.030  1.00  0.00     0.034 C 
HETATM    9  C16 UNL     1      -6.013  46.372 -21.676  1.00  0.00     0.013 C 
HETATM   10  C17 UNL     1      -7.285  45.442 -21.749  1.00  0.00     0.018 C 
HETATM   11  C18 UNL     1      -7.600  45.117 -23.226  1.00  0.00     0.023 C 
HETATM   12  C19 UNL     1      -7.106  44.095 -21.017  1.00  0.00     0.023 C 
HETATM   13  C20 UNL     1      -8.543  46.125 -21.191  1.00  0.00     0.135 C 
HETATM   14  O1  UNL     1      -9.397  45.500 -20.556  1.00  0.00    -0.297 OA
HETATM   15  C21 UNL     1      -8.788  47.580 -21.515  1.00  0.00     0.080 C 
HETATM   16  C22 UNL     1      -7.524  48.370 -21.816  1.00  0.00     0.017 C 
HETATM   17  C23 UNL     1      -6.262  47.820 -21.117  1.00  0.00    -0.031 C 
HETATM   18  C24 UNL     1      -6.462  47.836 -19.579  1.00  0.00     0.016 C 
HETATM   19  C25 UNL     1      -4.995  48.678 -21.519  1.00  0.00     0.024 C 
HETATM   20  C26 UNL     1      -5.091  50.186 -21.168  1.00  0.00     0.010 C 
HETATM   21  C27 UNL     1      -3.822  51.032 -21.439  1.00  0.00     0.011 C 
HETATM   22  C28 UNL     1      -2.543  50.203 -21.671  1.00  0.00    -0.029 C 
HETATM   23  C29 UNL     1      -2.470  49.834 -23.182  1.00  0.00     0.016 C 
ENDROOT
BRANCH   1  24
HETATM   24  C6  UNL     1      -0.710  52.122 -22.087  1.00  0.00    -0.014 C 
HETATM   25  C7  UNL     1       0.645  52.576 -21.507  1.00  0.00     0.010 C 
BRANCH  24  26
HETATM   26  C5  UNL     1      -0.556  51.858 -23.606  1.00  0.00     0.008 C 
BRANCH  26  27
HETATM   27  C4  UNL     1       0.700  52.479 -24.239  1.00  0.00     0.028 C 
BRANCH  27  28
HETATM   28  C3  UNL     1       1.039  51.972 -25.611  1.00  0.00    -0.013 C 
HETATM   29  C2  UNL     1       0.725  52.513 -26.806  1.00  0.00     0.008 C 
HETATM   30  C1  UNL     1       1.180  51.872 -28.087  1.00  0.00     0.055 C 
BRANCH  29  31
HETATM   31  C30 UNL     1      -0.104  53.740 -26.924  1.00  0.00     0.171 C 
HETATM   32  O2  UNL     1       0.188  54.872 -26.584  1.00  0.00    -0.646 OA
BRANCH  31  33
HETATM   33  O3  UNL     1      -1.304  53.485 -27.475  1.00  0.00    -0.773 OA
HETATM   34  H46 UNL     1      -1.732  54.366 -27.493  1.00  0.00     0.167 HD
ENDBRANCH  31  33
ENDBRANCH  29  31
ENDBRANCH  27  28
ENDBRANCH  26  27
ENDBRANCH  24  26
ENDBRANCH   1  24
TORSDOF 6
ENDMDL
MODEL 8
REMARK minimizedAffinity -9.05968857
REMARK  6 active torsions:
REMARK  status: ('A' for Active; 'I' for Inactive)
REMARK    1  A    between atoms: C2_2  and  C30_31 
REMARK    2  A    between atoms: C3_3  and  C4_4 
REMARK    3  A    between atoms: C4_4  and  C5_5 
REMARK    4  A    between atoms: C5_5  and  C6_6 
REMARK    5  A    between atoms: C6_6  and  C8_8 
REMARK    6  A    between atoms: C30_31  and  O3_33 
ROOT
HETATM    1  C8  UNL     1      -1.809  51.492 -23.116  1.00  0.00    -0.002 C 
HETATM    2  C9  UNL     1      -2.815  52.513 -23.709  1.00  0.00     0.007 C 
HETATM    3  C10 UNL     1      -4.229  51.957 -23.420  1.00  0.00     0.015 C 
HETATM    4  C11 UNL     1      -4.002  50.495 -22.970  1.00  0.00    -0.013 C 
HETATM    5  C12 UNL     1      -3.875  49.657 -24.285  1.00  0.00     0.021 C 
HETATM    6  C13 UNL     1      -5.078  49.800 -22.146  1.00  0.00    -0.070 C 
HETATM    7  C14 UNL     1      -6.389  50.058 -22.311  1.00  0.00    -0.022 C 
HETATM    8  C15 UNL     1      -7.495  49.297 -21.637  1.00  0.00     0.034 C 
HETATM    9  C16 UNL     1      -7.016  48.330 -20.531  1.00  0.00     0.013 C 
HETATM   10  C17 UNL     1      -8.132  47.418 -19.891  1.00  0.00     0.018 C 
HETATM   11  C18 UNL     1      -8.340  47.821 -18.414  1.00  0.00     0.023 C 
HETATM   12  C19 UNL     1      -9.503  47.540 -20.590  1.00  0.00     0.023 C 
HETATM   13  C20 UNL     1      -7.737  45.935 -19.870  1.00  0.00     0.135 C 
HETATM   14  O1  UNL     1      -8.562  45.037 -20.057  1.00  0.00    -0.297 OA
HETATM   15  C21 UNL     1      -6.317  45.562 -19.513  1.00  0.00     0.080 C 
HETATM   16  C22 UNL     1      -5.297  46.651 -19.809  1.00  0.00     0.017 C 
HETATM   17  C23 UNL     1      -5.702  47.587 -20.969  1.00  0.00    -0.031 C 
HETATM   18  C24 UNL     1      -5.890  46.764 -22.269  1.00  0.00     0.016 C 
HETATM   19  C25 UNL     1      -4.603  48.707 -21.176  1.00  0.00     0.024 C 
HETATM   20  C26 UNL     1      -3.182  48.175 -21.494  1.00  0.00     0.010 C 
HETATM   21  C27 UNL     1      -2.110  49.244 -21.821  1.00  0.00     0.011 C 
HETATM   22  C28 UNL     1      -2.681  50.640 -22.140  1.00  0.00    -0.029 C 
HETATM   23  C29 UNL     1      -2.863  51.410 -20.798  1.00  0.00     0.016 C 
ENDROOT
BRANCH   1  24
HETATM   24  C6  UNL     1      -0.447  52.057 -22.610  1.00  0.00    -0.014 C 
HETATM   25  C7  UNL     1      -0.064  51.305 -21.319  1.00  0.00     0.010 C 
BRANCH  24  26
HETATM   26  C5  UNL     1       0.726  51.977 -23.619  1.00  0.00     0.008 C 
BRANCH  26  27
HETATM   27  C4  UNL     1       0.755  53.111 -24.656  1.00  0.00     0.028 C 
BRANCH  27  28
HETATM   28  C3  UNL     1       0.349  52.712 -26.046  1.00  0.00    -0.013 C 
HETATM   29  C2  UNL     1       1.054  52.012 -26.957  1.00  0.00     0.008 C 
HETATM   30  C1  UNL     1       0.466  51.680 -28.300  1.00  0.00     0.055 C 
BRANCH  29  31
HETATM   31  C30 UNL     1       2.448  51.564 -26.703  1.00  0.00     0.171 C 
HETATM   32  O2  UNL     1       2.821  50.687 -25.944  1.00  0.00    -0.646 OA
BRANCH  31  33
HETATM   33  O3  UNL     1       3.341  52.260 -27.429  1.00  0.00    -0.773 OA
HETATM   34  H46 UNL     1       4.197  51.863 -27.167  1.00  0.00     0.167 HD
ENDBRANCH  31  33
ENDBRANCH  29  31
ENDBRANCH  27  28
ENDBRANCH  26  27
ENDBRANCH  24  26
ENDBRANCH   1  24
TORSDOF 6
ENDMDL
MODEL 9
REMARK minimizedAffinity -8.93035793
REMARK  6 active torsions:
REMARK  status: ('A' for Active; 'I' for Inactive)
REMARK    1  A    between atoms: C2_2  and  C30_31 
REMARK    2  A    between atoms: C3_3  and  C4_4 
REMARK    3  A    between atoms: C4_4  and  C5_5 
REMARK    4  A    between atoms: C5_5  and  C6_6 
REMARK    5  A    between atoms: C6_6  and  C8_8 
REMARK    6  A    between atoms: C30_31  and  O3_33 
ROOT
HETATM    1  C8  UNL     1      -1.338  51.412 -22.678  1.00  0.00    -0.002 C 
HETATM    2  C9  UNL     1      -2.622  51.955 -23.358  1.00  0.00     0.007 C 
HETATM    3  C10 UNL     1      -3.782  51.037 -22.908  1.00  0.00     0.015 C 
HETATM    4  C11 UNL     1      -3.096  49.813 -22.257  1.00  0.00    -0.013 C 
HETATM    5  C12 UNL     1      -2.716  48.857 -23.435  1.00  0.00     0.021 C 
HETATM    6  C13 UNL     1      -3.887  48.957 -21.276  1.00  0.00    -0.070 C 
HETATM    7  C14 UNL     1      -5.213  48.759 -21.402  1.00  0.00    -0.022 C 
HETATM    8  C15 UNL     1      -6.013  47.807 -20.558  1.00  0.00     0.034 C 
HETATM    9  C16 UNL     1      -5.242  47.232 -19.349  1.00  0.00     0.013 C 
HETATM   10  C17 UNL     1      -6.004  46.131 -18.516  1.00  0.00     0.018 C 
HETATM   11  C18 UNL     1      -6.319  46.680 -17.107  1.00  0.00     0.023 C 
HETATM   12  C19 UNL     1      -7.346  45.701 -19.145  1.00  0.00     0.023 C 
HETATM   13  C20 UNL     1      -5.155  44.871 -18.295  1.00  0.00     0.135 C 
HETATM   14  O1  UNL     1      -5.651  43.741 -18.296  1.00  0.00    -0.297 OA
HETATM   15  C21 UNL     1      -3.687  45.027 -17.969  1.00  0.00     0.080 C 
HETATM   16  C22 UNL     1      -3.071  46.318 -18.484  1.00  0.00     0.017 C 
HETATM   17  C23 UNL     1      -3.763  46.880 -19.746  1.00  0.00    -0.031 C 
HETATM   18  C24 UNL     1      -3.686  45.842 -20.894  1.00  0.00     0.016 C 
HETATM   19  C25 UNL     1      -3.081  48.240 -20.183  1.00  0.00     0.024 C 
HETATM   20  C26 UNL     1      -1.566  48.139 -20.498  1.00  0.00     0.010 C 
HETATM   21  C27 UNL     1      -0.895  49.423 -21.044  1.00  0.00     0.011 C 
HETATM   22  C28 UNL     1      -1.885  50.498 -21.535  1.00  0.00    -0.029 C 
HETATM   23  C29 UNL     1      -2.294  51.377 -20.317  1.00  0.00     0.016 C 
ENDROOT
BRANCH   1  24
HETATM   24  C6  UNL     1      -0.225  52.450 -22.342  1.00  0.00    -0.014 C 
HETATM   25  C7  UNL     1       0.468  52.008 -21.037  1.00  0.00     0.010 C 
BRANCH  24  26
HETATM   26  C5  UNL     1       0.843  52.666 -23.444  1.00  0.00     0.008 C 
BRANCH  26  27
HETATM   27  C4  UNL     1       0.306  53.301 -24.737  1.00  0.00     0.028 C 
BRANCH  27  28
HETATM   28  C3  UNL     1       0.509  52.482 -25.980  1.00  0.00    -0.013 C 
HETATM   29  C2  UNL     1       0.153  52.778 -27.247  1.00  0.00     0.008 C 
HETATM   30  C1  UNL     1       0.468  51.838 -28.377  1.00  0.00     0.055 C 
BRANCH  29  31
HETATM   31  C30 UNL     1      -0.590  54.018 -27.589  1.00  0.00     0.171 C 
HETATM   32  O2  UNL     1      -0.229  55.170 -27.430  1.00  0.00    -0.646 OA
BRANCH  31  33
HETATM   33  O3  UNL     1      -1.794  53.750 -28.126  1.00  0.00    -0.773 OA
HETATM   34  H46 UNL     1      -2.161  54.641 -28.301  1.00  0.00     0.167 HD
ENDBRANCH  31  33
ENDBRANCH  29  31
ENDBRANCH  27  28
ENDBRANCH  26  27
ENDBRANCH  24  26
ENDBRANCH   1  24
TORSDOF 6
ENDMDL
