MODEL 1
REMARK minimizedAffinity -5.68842936
REMARK CNNscore 0.649363518
REMARK CNNaffinity 6.40423822
REMARK  10 active torsions:
REMARK  status: ('A' for Active; 'I' for Inactive)
REMARK    1  A    between atoms: C2_2  and  O1_3 
REMARK    2  A    between atoms: O1_3  and  C3_4 
REMARK    3  A    between atoms: C3_4  and  C4_6 
REMARK    4  A    between atoms: C4_6  and  C5_7 
REMARK    5  A    between atoms: C5_7  and  C6_8 
REMARK    6  A    between atoms: C6_8  and  C8_10 
REMARK    7  A    between atoms: C13_15  and  O3_16 
REMARK    8  A    between atoms: C17_21  and  O4_22 
REMARK    9  A    between atoms: C24_29  and  O5_30 
REMARK   10  A    between atoms: O5_30  and  C25_31 
ROOT
HETATM    1  C8  UNL     1     -17.421   1.111  14.235  1.00  0.00     0.000 C 
HETATM    2  C9  UNL     1     -17.430   1.513  12.726  1.00  0.00     0.006 C 
HETATM    3  C10 UNL     1     -16.211   0.884  12.065  1.00  0.00     0.006 C 
HETATM    4  C11 UNL     1     -15.784  -0.232  13.018  1.00  0.00     0.003 C 
HETATM    5  C12 UNL     1     -16.599  -1.554  12.759  1.00  0.00     0.025 C 
HETATM    6  C13 UNL     1     -16.225  -2.179  11.388  1.00  0.00     0.137 C 
HETATM    7  C14 UNL     1     -16.315  -3.706  11.327  1.00  0.00     0.092 C 
HETATM    8 BR1  UNL     1     -18.174  -4.321  11.413  1.00  0.00    -0.088 Br
HETATM    9  C15 UNL     1     -15.390  -4.343  12.372  1.00  0.00     0.013 C 
HETATM   10  C16 UNL     1     -15.411  -5.886  12.320  1.00  0.00     0.038 C 
HETATM   11  C17 UNL     1     -14.499  -6.490  13.377  1.00  0.00     0.118 C 
HETATM   12  C18 UNL     1     -14.945  -6.104  14.785  1.00  0.00     0.032 C 
HETATM   13  C19 UNL     1     -15.849  -4.869  14.833  1.00  0.00     0.012 C 
HETATM   14  C20 UNL     1     -15.479  -3.732  13.827  1.00  0.00    -0.035 C 
HETATM   15  C21 UNL     1     -14.077  -3.207  14.215  1.00  0.00     0.016 C 
HETATM   16  C22 UNL     1     -16.566  -2.585  13.922  1.00  0.00     0.003 C 
HETATM   17  C23 UNL     1     -16.727  -1.886  15.283  1.00  0.00     0.039 C 
HETATM   18  C24 UNL     1     -15.833  -0.669  15.496  1.00  0.00     0.141 C 
HETATM   19  C27 UNL     1     -16.010   0.437  14.421  1.00  0.00    -0.009 C 
HETATM   20  C28 UNL     1     -14.925   1.519  14.681  1.00  0.00     0.018 C 
ENDROOT
BRANCH   1  21
HETATM   21  C6  UNL     1     -17.891   2.338  15.096  1.00  0.00    -0.013 C 
HETATM   22  C7  UNL     1     -16.919   2.532  16.282  1.00  0.00     0.010 C 
BRANCH  21  23
HETATM   23  C5  UNL     1     -18.013   3.654  14.303  1.00  0.00     0.014 C 
BRANCH  23  24
HETATM   24  C4  UNL     1     -16.930   4.707  14.543  1.00  0.00     0.111 C 
BRANCH  24  25
HETATM   25  C3  UNL     1     -16.798   5.644  13.369  1.00  0.00     0.258 C 
HETATM   26  O2  UNL     1     -17.231   5.404  12.251  1.00  0.00    -0.265 OA
BRANCH  25  27
HETATM   27  O1  UNL     1     -16.158   6.787  13.737  1.00  0.00    -0.322 OA
BRANCH  27  28
HETATM   28  C2  UNL     1     -14.955   6.575  14.483  1.00  0.00     0.174 C 
HETATM   29  C1  UNL     1     -13.790   6.576  13.513  1.00  0.00     0.034 C 
ENDBRANCH  27  28
ENDBRANCH  25  27
ENDBRANCH  24  25
ENDBRANCH  23  24
ENDBRANCH  21  23
ENDBRANCH   1  21
BRANCH  18  30
HETATM   30  O5  UNL     1     -16.073  -0.164  16.819  1.00  0.00    -0.316 OA
BRANCH  30  31
HETATM   31  C25 UNL     1     -16.824  -0.936  17.651  1.00  0.00     0.255 C 
HETATM   32  C26 UNL     1     -18.278  -0.645  17.441  1.00  0.00     0.126 C 
HETATM   33  O6  UNL     1     -16.389  -1.738  18.465  1.00  0.00    -0.266 OA
ENDBRANCH  30  31
ENDBRANCH  18  30
BRANCH   6  34
HETATM   34  O3  UNL     1     -17.017  -1.582  10.357  1.00  0.00    -0.394 OA
HETATM   35  H22 UNL     1     -16.900  -2.090   9.537  1.00  0.00     0.210 HD
ENDBRANCH   6  34
BRANCH  11  36
HETATM   36  O4  UNL     1     -14.510  -7.907  13.237  1.00  0.00    -0.396 OA
HETATM   37  H28 UNL     1     -13.960  -8.276  13.948  1.00  0.00     0.210 HD
ENDBRANCH  11  36
TORSDOF 10
ENDMDL
MODEL 2
REMARK minimizedAffinity -7.9823246
REMARK CNNscore 0.570930719
REMARK CNNaffinity 7.15445852
REMARK  10 active torsions:
REMARK  status: ('A' for Active; 'I' for Inactive)
REMARK    1  A    between atoms: C2_2  and  O1_3 
REMARK    2  A    between atoms: O1_3  and  C3_4 
REMARK    3  A    between atoms: C3_4  and  C4_6 
REMARK    4  A    between atoms: C4_6  and  C5_7 
REMARK    5  A    between atoms: C5_7  and  C6_8 
REMARK    6  A    between atoms: C6_8  and  C8_10 
REMARK    7  A    between atoms: C13_15  and  O3_16 
REMARK    8  A    between atoms: C17_21  and  O4_22 
REMARK    9  A    between atoms: C24_29  and  O5_30 
REMARK   10  A    between atoms: O5_30  and  C25_31 
ROOT
HETATM    1  C8  UNL     1      -7.222   6.538  13.535  1.00  0.00     0.000 C 
HETATM    2  C9  UNL     1      -7.607   7.462  14.733  1.00  0.00     0.006 C 
HETATM    3  C10 UNL     1      -6.683   7.131  15.897  1.00  0.00     0.006 C 
HETATM    4  C11 UNL     1      -5.498   6.407  15.259  1.00  0.00     0.003 C 
HETATM    5  C12 UNL     1      -4.429   7.423  14.708  1.00  0.00     0.025 C 
HETATM    6  C13 UNL     1      -3.725   8.174  15.870  1.00  0.00     0.137 C 
HETATM    7  C14 UNL     1      -2.272   8.573  15.595  1.00  0.00     0.092 C 
HETATM    8 BR1  UNL     1      -2.159   9.987  14.242  1.00  0.00    -0.088 Br
HETATM    9  C15 UNL     1      -1.422   7.335  15.287  1.00  0.00     0.013 C 
HETATM   10  C16 UNL     1       0.063   7.680  15.046  1.00  0.00     0.038 C 
HETATM   11  C17 UNL     1       0.878   6.436  14.727  1.00  0.00     0.118 C 
HETATM   12  C18 UNL     1       0.386   5.759  13.450  1.00  0.00     0.032 C 
HETATM   13  C19 UNL     1      -1.041   6.148  13.053  1.00  0.00     0.012 C 
HETATM   14  C20 UNL     1      -2.040   6.323  14.241  1.00  0.00    -0.035 C 
HETATM   15  C21 UNL     1      -2.187   4.947  14.931  1.00  0.00     0.016 C 
HETATM   16  C22 UNL     1      -3.430   6.831  13.677  1.00  0.00     0.003 C 
HETATM   17  C23 UNL     1      -4.151   5.918  12.670  1.00  0.00     0.039 C 
HETATM   18  C24 UNL     1      -5.097   4.894  13.288  1.00  0.00     0.141 C 
HETATM   19  C27 UNL     1      -6.207   5.518  14.176  1.00  0.00    -0.009 C 
HETATM   20  C28 UNL     1      -6.974   4.350  14.856  1.00  0.00     0.018 C 
ENDROOT
BRANCH   1  21
HETATM   21  C6  UNL     1      -8.531   6.077  12.800  1.00  0.00    -0.013 C 
HETATM   22  C7  UNL     1      -8.526   4.537  12.664  1.00  0.00     0.010 C 
BRANCH  21  23
HETATM   23  C5  UNL     1      -9.833   6.535  13.487  1.00  0.00     0.014 C 
BRANCH  23  24
HETATM   24  C4  UNL     1     -10.942   7.069  12.577  1.00  0.00     0.111 C 
BRANCH  24  25
HETATM   25  C3  UNL     1     -11.556   8.328  13.132  1.00  0.00     0.258 C 
HETATM   26  O2  UNL     1     -10.937   9.167  13.771  1.00  0.00    -0.265 OA
BRANCH  25  27
HETATM   27  O1  UNL     1     -12.874   8.405  12.803  1.00  0.00    -0.322 OA
BRANCH  27  28
HETATM   28  C2  UNL     1     -13.619   7.212  13.071  1.00  0.00     0.174 C 
HETATM   29  C1  UNL     1     -15.021   7.396  12.523  1.00  0.00     0.034 C 
ENDBRANCH  27  28
ENDBRANCH  25  27
ENDBRANCH  24  25
ENDBRANCH  23  24
ENDBRANCH  21  23
ENDBRANCH   1  21
BRANCH  18  30
HETATM   30  O5  UNL     1      -5.652   4.100  12.228  1.00  0.00    -0.316 OA
BRANCH  30  31
HETATM   31  C25 UNL     1      -5.028   2.924  11.943  1.00  0.00     0.255 C 
HETATM   32  C26 UNL     1      -6.028   1.927  11.444  1.00  0.00     0.126 C 
HETATM   33  O6  UNL     1      -3.835   2.696  12.085  1.00  0.00    -0.266 OA
ENDBRANCH  30  31
ENDBRANCH  18  30
BRANCH   6  34
HETATM   34  O3  UNL     1      -4.502   9.315  16.245  1.00  0.00    -0.394 OA
HETATM   35  H22 UNL     1      -3.978   9.868  16.848  1.00  0.00     0.210 HD
ENDBRANCH   6  34
BRANCH  11  36
HETATM   36  O4  UNL     1       2.246   6.809  14.580  1.00  0.00    -0.396 OA
HETATM   37  H28 UNL     1       2.742   6.011  14.332  1.00  0.00     0.210 HD
ENDBRANCH  11  36
TORSDOF 10
ENDMDL
MODEL 3
REMARK minimizedAffinity -5.71358204
REMARK CNNscore 0.566604257
REMARK CNNaffinity 6.29309273
REMARK  10 active torsions:
REMARK  status: ('A' for Active; 'I' for Inactive)
REMARK    1  A    between atoms: C2_2  and  O1_3 
REMARK    2  A    between atoms: O1_3  and  C3_4 
REMARK    3  A    between atoms: C3_4  and  C4_6 
REMARK    4  A    between atoms: C4_6  and  C5_7 
REMARK    5  A    between atoms: C5_7  and  C6_8 
REMARK    6  A    between atoms: C6_8  and  C8_10 
REMARK    7  A    between atoms: C13_15  and  O3_16 
REMARK    8  A    between atoms: C17_21  and  O4_22 
REMARK    9  A    between atoms: C24_29  and  O5_30 
REMARK   10  A    between atoms: O5_30  and  C25_31 
ROOT
HETATM    1  C8  UNL     1     -13.422   3.033  24.725  1.00  0.00     0.000 C 
HETATM    2  C9  UNL     1     -13.263   2.825  23.186  1.00  0.00     0.006 C 
HETATM    3  C10 UNL     1     -14.427   3.522  22.495  1.00  0.00     0.006 C 
HETATM    4  C11 UNL     1     -14.964   4.506  23.534  1.00  0.00     0.003 C 
HETATM    5  C12 UNL     1     -14.156   5.857  23.521  1.00  0.00     0.025 C 
HETATM    6  C13 UNL     1     -14.412   6.646  22.209  1.00  0.00     0.137 C 
HETATM    7  C14 UNL     1     -14.347   8.170  22.347  1.00  0.00     0.092 C 
HETATM    8 BR1  UNL     1     -12.517   8.784  22.687  1.00  0.00    -0.088 Br
HETATM    9  C15 UNL     1     -15.378   8.662  23.370  1.00  0.00     0.013 C 
HETATM   10  C16 UNL     1     -15.383  10.200  23.514  1.00  0.00     0.038 C 
HETATM   11  C17 UNL     1     -16.403  10.658  24.545  1.00  0.00     0.118 C 
HETATM   12  C18 UNL     1     -16.083  10.102  25.931  1.00  0.00     0.032 C 
HETATM   13  C19 UNL     1     -15.163   8.878  25.910  1.00  0.00     0.012 C 
HETATM   14  C20 UNL     1     -15.414   7.874  24.740  1.00  0.00    -0.035 C 
HETATM   15  C21 UNL     1     -16.836   7.292  24.924  1.00  0.00     0.016 C 
HETATM   16  C22 UNL     1     -14.318   6.732  24.795  1.00  0.00     0.003 C 
HETATM   17  C23 UNL     1     -14.271   5.869  26.067  1.00  0.00     0.039 C 
HETATM   18  C24 UNL     1     -15.156   4.628  26.041  1.00  0.00     0.141 C 
HETATM   19  C27 UNL     1     -14.858   3.668  24.858  1.00  0.00    -0.009 C 
HETATM   20  C28 UNL     1     -15.940   2.553  24.876  1.00  0.00     0.018 C 
ENDROOT
BRANCH   1  21
HETATM   21  C6  UNL     1     -13.011   1.712  25.468  1.00  0.00    -0.013 C 
HETATM   22  C7  UNL     1     -11.536   1.382  25.145  1.00  0.00     0.010 C 
BRANCH  21  23
HETATM   23  C5  UNL     1     -13.211   1.761  26.996  1.00  0.00     0.014 C 
BRANCH  23  24
HETATM   24  C4  UNL     1     -11.951   1.915  27.851  1.00  0.00     0.111 C 
BRANCH  24  25
HETATM   25  C3  UNL     1     -12.192   2.818  29.034  1.00  0.00     0.258 C 
HETATM   26  O2  UNL     1     -11.980   4.022  29.029  1.00  0.00    -0.265 OA
BRANCH  25  27
HETATM   27  O1  UNL     1     -12.695   2.111  30.083  1.00  0.00    -0.322 OA
BRANCH  27  28
HETATM   28  C2  UNL     1     -12.570   2.768  31.349  1.00  0.00     0.174 C 
HETATM   29  C1  UNL     1     -13.941   2.811  31.996  1.00  0.00     0.034 C 
ENDBRANCH  27  28
ENDBRANCH  25  27
ENDBRANCH  24  25
ENDBRANCH  23  24
ENDBRANCH  21  23
ENDBRANCH   1  21
BRANCH  18  30
HETATM   30  O5  UNL     1     -15.031   3.962  27.307  1.00  0.00    -0.316 OA
BRANCH  30  31
HETATM   31  C25 UNL     1     -15.994   4.211  28.236  1.00  0.00     0.255 C 
HETATM   32  C26 UNL     1     -15.406   4.966  29.388  1.00  0.00     0.126 C 
HETATM   33  O6  UNL     1     -17.164   3.861  28.163  1.00  0.00    -0.266 OA
ENDBRANCH  30  31
ENDBRANCH  18  30
BRANCH   6  34
HETATM   34  O3  UNL     1     -13.515   6.190  21.192  1.00  0.00    -0.394 OA
HETATM   35  H22 UNL     1     -13.564   6.797  20.434  1.00  0.00     0.210 HD
ENDBRANCH   6  34
BRANCH  11  36
HETATM   36  O4  UNL     1     -16.407  12.082  24.585  1.00  0.00    -0.396 OA
HETATM   37  H28 UNL     1     -17.029  12.354  25.280  1.00  0.00     0.210 HD
ENDBRANCH  11  36
TORSDOF 10
ENDMDL
MODEL 4
REMARK minimizedAffinity -8.872962
REMARK CNNscore 0.556824327
REMARK CNNaffinity 7.22908354
REMARK  10 active torsions:
REMARK  status: ('A' for Active; 'I' for Inactive)
REMARK    1  A    between atoms: C2_2  and  O1_3 
REMARK    2  A    between atoms: O1_3  and  C3_4 
REMARK    3  A    between atoms: C3_4  and  C4_6 
REMARK    4  A    between atoms: C4_6  and  C5_7 
REMARK    5  A    between atoms: C5_7  and  C6_8 
REMARK    6  A    between atoms: C6_8  and  C8_10 
REMARK    7  A    between atoms: C13_15  and  O3_16 
REMARK    8  A    between atoms: C17_21  and  O4_22 
REMARK    9  A    between atoms: C24_29  and  O5_30 
REMARK   10  A    between atoms: O5_30  and  C25_31 
ROOT
HETATM    1  C8  UNL     1      -2.340   5.866  12.353  1.00  0.00     0.000 C 
HETATM    2  C9  UNL     1      -2.622   4.390  11.928  1.00  0.00     0.006 C 
HETATM    3  C10 UNL     1      -3.491   3.750  13.002  1.00  0.00     0.006 C 
HETATM    4  C11 UNL     1      -4.098   4.928  13.764  1.00  0.00     0.003 C 
HETATM    5  C12 UNL     1      -5.392   5.471  13.050  1.00  0.00     0.025 C 
HETATM    6  C13 UNL     1      -6.549   4.439  13.133  1.00  0.00     0.137 C 
HETATM    7  C14 UNL     1      -7.954   5.045  13.186  1.00  0.00     0.092 C 
HETATM    8 BR1  UNL     1      -8.445   5.874  11.479  1.00  0.00    -0.088 Br
HETATM    9  C15 UNL     1      -8.096   5.970  14.401  1.00  0.00     0.013 C 
HETATM   10  C16 UNL     1      -9.513   6.572  14.525  1.00  0.00     0.038 C 
HETATM   11  C17 UNL     1      -9.620   7.497  15.728  1.00  0.00     0.118 C 
HETATM   12  C18 UNL     1      -8.662   8.680  15.609  1.00  0.00     0.032 C 
HETATM   13  C19 UNL     1      -7.512   8.450  14.624  1.00  0.00     0.012 C 
HETATM   14  C20 UNL     1      -6.920   7.005  14.615  1.00  0.00    -0.035 C 
HETATM   15  C21 UNL     1      -6.301   6.747  16.009  1.00  0.00     0.016 C 
HETATM   16  C22 UNL     1      -5.827   6.901  13.475  1.00  0.00     0.003 C 
HETATM   17  C23 UNL     1      -4.610   7.837  13.586  1.00  0.00     0.039 C 
HETATM   18  C24 UNL     1      -3.433   7.277  14.377  1.00  0.00     0.141 C 
HETATM   19  C27 UNL     1      -2.891   5.930  13.827  1.00  0.00    -0.009 C 
HETATM   20  C28 UNL     1      -1.818   5.415  14.826  1.00  0.00     0.018 C 
ENDROOT
BRANCH   1  21
HETATM   21  C6  UNL     1      -0.856   6.230  11.990  1.00  0.00    -0.013 C 
HETATM   22  C7  UNL     1      -0.195   5.030  11.274  1.00  0.00     0.010 C 
BRANCH  21  23
HETATM   23  C5  UNL     1      -0.714   7.497  11.122  1.00  0.00     0.014 C 
BRANCH  23  24
HETATM   24  C4  UNL     1       0.428   7.509  10.103  1.00  0.00     0.111 C 
BRANCH  24  25
HETATM   25  C3  UNL     1       0.207   8.551   9.037  1.00  0.00     0.258 C 
HETATM   26  O2  UNL     1      -0.819   9.208   8.925  1.00  0.00    -0.265 OA
BRANCH  25  27
HETATM   27  O1  UNL     1       1.307   8.669   8.245  1.00  0.00    -0.322 OA
BRANCH  27  28
HETATM   28  C2  UNL     1       1.964   7.429   7.961  1.00  0.00     0.174 C 
HETATM   29  C1  UNL     1       1.826   7.150   6.476  1.00  0.00     0.034 C 
ENDBRANCH  27  28
ENDBRANCH  25  27
ENDBRANCH  24  25
ENDBRANCH  23  24
ENDBRANCH  21  23
ENDBRANCH   1  21
BRANCH  18  30
HETATM   30  O5  UNL     1      -2.407   8.280  14.423  1.00  0.00    -0.316 OA
BRANCH  30  31
HETATM   31  C25 UNL     1      -2.097   8.795  15.644  1.00  0.00     0.255 C 
HETATM   32  C26 UNL     1      -3.306   9.446  16.242  1.00  0.00     0.126 C 
HETATM   33  O6  UNL     1      -0.997   8.755  16.177  1.00  0.00    -0.266 OA
ENDBRANCH  30  31
ENDBRANCH  18  30
BRANCH   6  34
HETATM   34  O3  UNL     1      -6.439   3.507  12.053  1.00  0.00    -0.394 OA
HETATM   35  H22 UNL     1      -7.251   2.974  12.013  1.00  0.00     0.210 HD
ENDBRANCH   6  34
BRANCH  11  36
HETATM   36  O4  UNL     1     -10.961   7.968  15.826  1.00  0.00    -0.396 OA
HETATM   37  H28 UNL     1     -10.998   8.592  16.571  1.00  0.00     0.210 HD
ENDBRANCH  11  36
TORSDOF 10
ENDMDL
MODEL 5
REMARK minimizedAffinity -8.1574049
REMARK CNNscore 0.463470995
REMARK CNNaffinity 6.71144485
REMARK  10 active torsions:
REMARK  status: ('A' for Active; 'I' for Inactive)
REMARK    1  A    between atoms: C2_2  and  O1_3 
REMARK    2  A    between atoms: O1_3  and  C3_4 
REMARK    3  A    between atoms: C3_4  and  C4_6 
REMARK    4  A    between atoms: C4_6  and  C5_7 
REMARK    5  A    between atoms: C5_7  and  C6_8 
REMARK    6  A    between atoms: C6_8  and  C8_10 
REMARK    7  A    between atoms: C13_15  and  O3_16 
REMARK    8  A    between atoms: C17_21  and  O4_22 
REMARK    9  A    between atoms: C24_29  and  O5_30 
REMARK   10  A    between atoms: O5_30  and  C25_31 
ROOT
HETATM    1  C8  UNL     1       1.173   7.023  12.417  1.00  0.00     0.000 C 
HETATM    2  C9  UNL     1       1.278   8.509  11.948  1.00  0.00     0.006 C 
HETATM    3  C10 UNL     1      -0.088   8.934  11.426  1.00  0.00     0.006 C 
HETATM    4  C11 UNL     1      -1.064   7.917  12.017  1.00  0.00     0.003 C 
HETATM    5  C12 UNL     1      -1.503   8.320  13.474  1.00  0.00     0.025 C 
HETATM    6  C13 UNL     1      -2.384   9.598  13.458  1.00  0.00     0.137 C 
HETATM    7  C14 UNL     1      -3.437   9.673  14.567  1.00  0.00     0.092 C 
HETATM    8 BR1  UNL     1      -2.611   9.929  16.326  1.00  0.00    -0.088 Br
HETATM    9  C15 UNL     1      -4.391   8.475  14.485  1.00  0.00     0.013 C 
HETATM   10  C16 UNL     1      -5.501   8.528  15.557  1.00  0.00     0.038 C 
HETATM   11  C17 UNL     1      -6.422   7.321  15.463  1.00  0.00     0.118 C 
HETATM   12  C18 UNL     1      -5.661   6.019  15.701  1.00  0.00     0.032 C 
HETATM   13  C19 UNL     1      -4.148   6.140  15.499  1.00  0.00     0.012 C 
HETATM   14  C20 UNL     1      -3.703   7.061  14.320  1.00  0.00    -0.035 C 
HETATM   15  C21 UNL     1      -4.223   6.424  13.010  1.00  0.00     0.016 C 
HETATM   16  C22 UNL     1      -2.124   7.169  14.315  1.00  0.00     0.003 C 
HETATM   17  C23 UNL     1      -1.334   5.862  14.128  1.00  0.00     0.039 C 
HETATM   18  C24 UNL     1      -1.032   5.490  12.680  1.00  0.00     0.141 C 
HETATM   19  C27 UNL     1      -0.248   6.580  11.902  1.00  0.00    -0.009 C 
HETATM   20  C28 UNL     1      -0.166   6.127  10.418  1.00  0.00     0.018 C 
ENDROOT
BRANCH   1  21
HETATM   21  C6  UNL     1       2.489   6.264  12.020  1.00  0.00    -0.013 C 
HETATM   22  C7  UNL     1       2.161   5.195  10.954  1.00  0.00     0.010 C 
BRANCH  21  23
HETATM   23  C5  UNL     1       3.615   7.184  11.506  1.00  0.00     0.014 C 
BRANCH  23  24
HETATM   24  C4  UNL     1       4.060   6.984  10.056  1.00  0.00     0.111 C 
BRANCH  24  25
HETATM   25  C3  UNL     1       3.591   8.111   9.172  1.00  0.00     0.258 C 
HETATM   26  O2  UNL     1       4.243   9.121   8.949  1.00  0.00    -0.265 OA
BRANCH  25  27
HETATM   27  O1  UNL     1       2.367   7.832   8.648  1.00  0.00    -0.322 OA
BRANCH  27  28
HETATM   28  C2  UNL     1       2.354   6.731   7.733  1.00  0.00     0.174 C 
HETATM   29  C1  UNL     1       1.785   7.219   6.414  1.00  0.00     0.034 C 
ENDBRANCH  27  28
ENDBRANCH  25  27
ENDBRANCH  24  25
ENDBRANCH  23  24
ENDBRANCH  21  23
ENDBRANCH   1  21
BRANCH  18  30
HETATM   30  O5  UNL     1      -0.335   4.234  12.677  1.00  0.00    -0.316 OA
BRANCH  30  31
HETATM   31  C25 UNL     1      -0.819   3.258  11.861  1.00  0.00     0.255 C 
HETATM   32  C26 UNL     1      -2.306   3.387  11.742  1.00  0.00     0.126 C 
HETATM   33  O6  UNL     1      -0.153   2.389  11.316  1.00  0.00    -0.266 OA
ENDBRANCH  30  31
ENDBRANCH  18  30
BRANCH   6  34
HETATM   34  O3  UNL     1      -1.546  10.757  13.474  1.00  0.00    -0.394 OA
HETATM   35  H22 UNL     1      -2.098  11.542  13.633  1.00  0.00     0.210 HD
ENDBRANCH   6  34
BRANCH  11  36
HETATM   36  O4  UNL     1      -7.459   7.459  16.430  1.00  0.00    -0.396 OA
HETATM   37  H28 UNL     1      -8.009   6.658  16.386  1.00  0.00     0.210 HD
ENDBRANCH  11  36
TORSDOF 10
ENDMDL
MODEL 6
REMARK minimizedAffinity -5.63695097
REMARK CNNscore 0.440749675
REMARK CNNaffinity 6.02295303
REMARK  10 active torsions:
REMARK  status: ('A' for Active; 'I' for Inactive)
REMARK    1  A    between atoms: C2_2  and  O1_3 
REMARK    2  A    between atoms: O1_3  and  C3_4 
REMARK    3  A    between atoms: C3_4  and  C4_6 
REMARK    4  A    between atoms: C4_6  and  C5_7 
REMARK    5  A    between atoms: C5_7  and  C6_8 
REMARK    6  A    between atoms: C6_8  and  C8_10 
REMARK    7  A    between atoms: C13_15  and  O3_16 
REMARK    8  A    between atoms: C17_21  and  O4_22 
REMARK    9  A    between atoms: C24_29  and  O5_30 
REMARK   10  A    between atoms: O5_30  and  C25_31 
ROOT
HETATM    1  C8  UNL     1       4.716  13.901  20.589  1.00  0.00     0.000 C 
HETATM    2  C9  UNL     1       5.215  15.041  19.645  1.00  0.00     0.006 C 
HETATM    3  C10 UNL     1       5.331  14.469  18.239  1.00  0.00     0.006 C 
HETATM    4  C11 UNL     1       4.472  13.205  18.261  1.00  0.00     0.003 C 
HETATM    5  C12 UNL     1       2.955  13.534  17.996  1.00  0.00     0.025 C 
HETATM    6  C13 UNL     1       2.735  14.013  16.536  1.00  0.00     0.137 C 
HETATM    7  C14 UNL     1       1.373  13.656  15.936  1.00  0.00     0.092 C 
HETATM    8 BR1  UNL     1      -0.074  14.674  16.782  1.00  0.00    -0.088 Br
HETATM    9  C15 UNL     1       1.162  12.137  15.941  1.00  0.00     0.013 C 
HETATM   10  C16 UNL     1      -0.182  11.723  15.304  1.00  0.00     0.038 C 
HETATM   11  C17 UNL     1      -0.371  10.214  15.338  1.00  0.00     0.118 C 
HETATM   12  C18 UNL     1      -0.398   9.687  16.771  1.00  0.00     0.032 C 
HETATM   13  C19 UNL     1       0.230  10.639  17.793  1.00  0.00     0.012 C 
HETATM   14  C20 UNL     1       1.499  11.404  17.301  1.00  0.00    -0.035 C 
HETATM   15  C21 UNL     1       2.597  10.351  17.020  1.00  0.00     0.016 C 
HETATM   16  C22 UNL     1       1.957  12.422  18.424  1.00  0.00     0.003 C 
HETATM   17  C23 UNL     1       2.345  11.828  19.790  1.00  0.00     0.039 C 
HETATM   18  C24 UNL     1       3.814  11.444  19.934  1.00  0.00     0.141 C 
HETATM   19  C27 UNL     1       4.798  12.617  19.680  1.00  0.00    -0.009 C 
HETATM   20  C28 UNL     1       6.238  12.032  19.702  1.00  0.00     0.018 C 
ENDROOT
BRANCH   1  21
HETATM   21  C6  UNL     1       5.464  14.010  21.966  1.00  0.00    -0.013 C 
HETATM   22  C7  UNL     1       4.428  13.995  23.113  1.00  0.00     0.010 C 
BRANCH  21  23
HETATM   23  C5  UNL     1       6.516  12.907  22.199  1.00  0.00     0.014 C 
BRANCH  23  24
HETATM   24  C4  UNL     1       7.629  13.218  23.202  1.00  0.00     0.111 C 
BRANCH  24  25
HETATM   25  C3  UNL     1       8.808  12.295  23.025  1.00  0.00     0.258 C 
HETATM   26  O2  UNL     1       8.833  11.137  23.418  1.00  0.00    -0.265 OA
BRANCH  25  27
HETATM   27  O1  UNL     1       9.812  12.920  22.354  1.00  0.00    -0.322 OA
BRANCH  27  28
HETATM   28  C2  UNL     1      10.055  12.402  21.041  1.00  0.00     0.174 C 
HETATM   29  C1  UNL     1       9.654  13.462  20.033  1.00  0.00     0.034 C 
ENDBRANCH  27  28
ENDBRANCH  25  27
ENDBRANCH  24  25
ENDBRANCH  23  24
ENDBRANCH  21  23
ENDBRANCH   1  21
BRANCH  18  30
HETATM   30  O5  UNL     1       4.000  10.871  21.238  1.00  0.00    -0.316 OA
BRANCH  30  31
HETATM   31  C25 UNL     1       3.161   9.860  21.596  1.00  0.00     0.255 C 
HETATM   32  C26 UNL     1       2.934   9.889  23.076  1.00  0.00     0.126 C 
HETATM   33  O6  UNL     1       2.674   9.035  20.837  1.00  0.00    -0.266 OA
ENDBRANCH  30  31
ENDBRANCH  18  30
BRANCH   6  34
HETATM   34  O3  UNL     1       2.974  15.421  16.453  1.00  0.00    -0.394 OA
HETATM   35  H22 UNL     1       2.674  15.739  15.584  1.00  0.00     0.210 HD
ENDBRANCH   6  34
BRANCH  11  36
HETATM   36  O4  UNL     1      -1.593   9.889  14.681  1.00  0.00    -0.396 OA
HETATM   37  H28 UNL     1      -1.718   8.928  14.753  1.00  0.00     0.210 HD
ENDBRANCH  11  36
TORSDOF 10
ENDMDL
MODEL 7
REMARK minimizedAffinity -5.95789862
REMARK CNNscore 0.438331485
REMARK CNNaffinity 6.50444174
REMARK  10 active torsions:
REMARK  status: ('A' for Active; 'I' for Inactive)
REMARK    1  A    between atoms: C2_2  and  O1_3 
REMARK    2  A    between atoms: O1_3  and  C3_4 
REMARK    3  A    between atoms: C3_4  and  C4_6 
REMARK    4  A    between atoms: C4_6  and  C5_7 
REMARK    5  A    between atoms: C5_7  and  C6_8 
REMARK    6  A    between atoms: C6_8  and  C8_10 
REMARK    7  A    between atoms: C13_15  and  O3_16 
REMARK    8  A    between atoms: C17_21  and  O4_22 
REMARK    9  A    between atoms: C24_29  and  O5_30 
REMARK   10  A    between atoms: O5_30  and  C25_31 
ROOT
HETATM    1  C8  UNL     1       4.210  14.876   0.801  1.00  0.00     0.000 C 
HETATM    2  C9  UNL     1       4.530  14.464   2.273  1.00  0.00     0.006 C 
HETATM    3  C10 UNL     1       3.672  15.317   3.197  1.00  0.00     0.006 C 
HETATM    4  C11 UNL     1       2.550  15.849   2.305  1.00  0.00     0.003 C 
HETATM    5  C12 UNL     1       1.372  14.812   2.180  1.00  0.00     0.025 C 
HETATM    6  C13 UNL     1       0.624  14.654   3.531  1.00  0.00     0.137 C 
HETATM    7  C14 UNL     1      -0.868  14.329   3.411  1.00  0.00     0.092 C 
HETATM    8 BR1  UNL     1      -1.155  12.517   2.721  1.00  0.00    -0.088 Br
HETATM    9  C15 UNL     1      -1.597  15.427   2.626  1.00  0.00     0.013 C 
HETATM   10  C16 UNL     1      -3.115  15.167   2.515  1.00  0.00     0.038 C 
HETATM   11  C17 UNL     1      -3.808  16.262   1.718  1.00  0.00     0.118 C 
HETATM   12  C18 UNL     1      -3.282  16.329   0.286  1.00  0.00     0.032 C 
HETATM   13  C19 UNL     1      -1.911  15.672   0.099  1.00  0.00     0.012 C 
HETATM   14  C20 UNL     1      -0.906  15.877   1.277  1.00  0.00    -0.035 C 
HETATM   15  C21 UNL     1      -0.604  17.391   1.372  1.00  0.00     0.016 C 
HETATM   16  C22 UNL     1       0.412  15.049   0.982  1.00  0.00     0.003 C 
HETATM   17  C23 UNL     1       1.197  15.415  -0.290  1.00  0.00     0.039 C 
HETATM   18  C24 UNL     1       2.255  16.498  -0.109  1.00  0.00     0.141 C 
HETATM   19  C27 UNL     1       3.318  16.163   0.972  1.00  0.00    -0.009 C 
HETATM   20  C28 UNL     1       4.214  17.420   1.151  1.00  0.00     0.018 C 
ENDROOT
BRANCH   1  21
HETATM   21  C6  UNL     1       5.540  14.875  -0.033  1.00  0.00    -0.013 C 
HETATM   22  C7  UNL     1       6.542  13.884   0.601  1.00  0.00     0.010 C 
BRANCH  21  23
HETATM   23  C5  UNL     1       5.347  14.537  -1.525  1.00  0.00     0.014 C 
BRANCH  23  24
HETATM   24  C4  UNL     1       4.285  13.488  -1.862  1.00  0.00     0.111 C 
BRANCH  24  25
HETATM   25  C3  UNL     1       4.885  12.299  -2.568  1.00  0.00     0.258 C 
HETATM   26  O2  UNL     1       5.806  11.631  -2.119  1.00  0.00    -0.265 OA
BRANCH  25  27
HETATM   27  O1  UNL     1       4.246  12.068  -3.747  1.00  0.00    -0.322 OA
BRANCH  27  28
HETATM   28  C2  UNL     1       5.060  12.273  -4.907  1.00  0.00     0.174 C 
HETATM   29  C1  UNL     1       5.147  10.959  -5.661  1.00  0.00     0.034 C 
ENDBRANCH  27  28
ENDBRANCH  25  27
ENDBRANCH  24  25
ENDBRANCH  23  24
ENDBRANCH  21  23
ENDBRANCH   1  21
BRANCH  18  30
HETATM   30  O5  UNL     1       2.861  16.750  -1.386  1.00  0.00    -0.316 OA
BRANCH  30  31
HETATM   31  C25 UNL     1       2.379  17.802  -2.103  1.00  0.00     0.255 C 
HETATM   32  C26 UNL     1       2.485  17.510  -3.568  1.00  0.00     0.126 C 
HETATM   33  O6  UNL     1       1.941  18.844  -1.635  1.00  0.00    -0.266 OA
ENDBRANCH  30  31
ENDBRANCH  18  30
BRANCH   6  34
HETATM   34  O3  UNL     1       1.292  13.680   4.338  1.00  0.00    -0.394 OA
HETATM   35  H22 UNL     1       0.730  13.465   5.102  1.00  0.00     0.210 HD
ENDBRANCH   6  34
BRANCH  11  36
HETATM   36  O4  UNL     1      -5.209  16.003   1.706  1.00  0.00    -0.396 OA
HETATM   37  H28 UNL     1      -5.628  16.685   1.155  1.00  0.00     0.210 HD
ENDBRANCH  11  36
TORSDOF 10
ENDMDL
MODEL 8
REMARK minimizedAffinity -5.9467001
REMARK CNNscore 0.414691359
REMARK CNNaffinity 6.14843559
REMARK  10 active torsions:
REMARK  status: ('A' for Active; 'I' for Inactive)
REMARK    1  A    between atoms: C2_2  and  O1_3 
REMARK    2  A    between atoms: O1_3  and  C3_4 
REMARK    3  A    between atoms: C3_4  and  C4_6 
REMARK    4  A    between atoms: C4_6  and  C5_7 
REMARK    5  A    between atoms: C5_7  and  C6_8 
REMARK    6  A    between atoms: C6_8  and  C8_10 
REMARK    7  A    between atoms: C13_15  and  O3_16 
REMARK    8  A    between atoms: C17_21  and  O4_22 
REMARK    9  A    between atoms: C24_29  and  O5_30 
REMARK   10  A    between atoms: O5_30  and  C25_31 
ROOT
HETATM    1  C8  UNL     1     -16.906   0.249  15.340  1.00  0.00     0.000 C 
HETATM    2  C9  UNL     1     -16.934  -0.660  16.609  1.00  0.00     0.006 C 
HETATM    3  C10 UNL     1     -17.386  -2.050  16.182  1.00  0.00     0.006 C 
HETATM    4  C11 UNL     1     -17.154  -2.087  14.672  1.00  0.00     0.003 C 
HETATM    5  C12 UNL     1     -15.666  -2.471  14.326  1.00  0.00     0.025 C 
HETATM    6  C13 UNL     1     -15.369  -3.946  14.706  1.00  0.00     0.137 C 
HETATM    7  C14 UNL     1     -14.339  -4.649  13.818  1.00  0.00     0.092 C 
HETATM    8 BR1  UNL     1     -12.538  -3.924  14.094  1.00  0.00    -0.088 Br
HETATM    9  C15 UNL     1     -14.801  -4.651  12.355  1.00  0.00     0.013 C 
HETATM   10  C16 UNL     1     -13.815  -5.388  11.423  1.00  0.00     0.038 C 
HETATM   11  C17 UNL     1     -14.290  -5.361   9.979  1.00  0.00     0.118 C 
HETATM   12  C18 UNL     1     -14.388  -3.932   9.450  1.00  0.00     0.032 C 
HETATM   13  C19 UNL     1     -14.470  -2.869  10.550  1.00  0.00     0.012 C 
HETATM   14  C20 UNL     1     -15.320  -3.265  11.799  1.00  0.00    -0.035 C 
HETATM   15  C21 UNL     1     -16.781  -3.454  11.326  1.00  0.00     0.016 C 
HETATM   16  C22 UNL     1     -15.214  -2.116  12.883  1.00  0.00     0.003 C 
HETATM   17  C23 UNL     1     -15.720  -0.721  12.474  1.00  0.00     0.039 C 
HETATM   18  C24 UNL     1     -17.196  -0.460  12.752  1.00  0.00     0.141 C 
HETATM   19  C27 UNL     1     -17.597  -0.643  14.240  1.00  0.00    -0.009 C 
HETATM   20  C28 UNL     1     -19.142  -0.507  14.329  1.00  0.00     0.018 C 
ENDROOT
BRANCH   1  21
HETATM   21  C6  UNL     1     -17.432   1.679  15.719  1.00  0.00    -0.013 C 
HETATM   22  C7  UNL     1     -18.267   1.589  17.016  1.00  0.00     0.010 C 
BRANCH  21  23
HETATM   23  C5  UNL     1     -16.321   2.734  15.887  1.00  0.00     0.014 C 
BRANCH  23  24
HETATM   24  C4  UNL     1     -15.684   3.274  14.604  1.00  0.00     0.111 C 
BRANCH  24  25
HETATM   25  C3  UNL     1     -16.008   4.732  14.397  1.00  0.00     0.258 C 
HETATM   26  O2  UNL     1     -17.025   5.135  13.851  1.00  0.00    -0.265 OA
BRANCH  25  27
HETATM   27  O1  UNL     1     -15.029   5.520  14.919  1.00  0.00    -0.322 OA
BRANCH  27  28
HETATM   28  C2  UNL     1     -14.285   6.258  13.943  1.00  0.00     0.174 C 
HETATM   29  C1  UNL     1     -12.828   6.265  14.367  1.00  0.00     0.034 C 
ENDBRANCH  27  28
ENDBRANCH  25  27
ENDBRANCH  24  25
ENDBRANCH  23  24
ENDBRANCH  21  23
ENDBRANCH   1  21
BRANCH  18  30
HETATM   30  O5  UNL     1     -17.515   0.857  12.277  1.00  0.00    -0.316 OA
BRANCH  30  31
HETATM   31  C25 UNL     1     -18.602   0.978  11.468  1.00  0.00     0.255 C 
HETATM   32  C26 UNL     1     -19.314   2.263  11.761  1.00  0.00     0.126 C 
HETATM   33  O6  UNL     1     -18.966   0.159  10.635  1.00  0.00    -0.266 OA
ENDBRANCH  30  31
ENDBRANCH  18  30
BRANCH   6  34
HETATM   34  O3  UNL     1     -14.986  -4.019  16.083  1.00  0.00    -0.394 OA
HETATM   35  H22 UNL     1     -14.642  -4.910  16.267  1.00  0.00     0.210 HD
ENDBRANCH   6  34
BRANCH  11  36
HETATM   36  O4  UNL     1     -13.378  -6.110   9.181  1.00  0.00    -0.396 OA
HETATM   37  H28 UNL     1     -13.672  -6.042   8.257  1.00  0.00     0.210 HD
ENDBRANCH  11  36
TORSDOF 10
ENDMDL
MODEL 9
REMARK minimizedAffinity -6.22943211
REMARK CNNscore 0.407879382
REMARK CNNaffinity 6.25984716
REMARK  10 active torsions:
REMARK  status: ('A' for Active; 'I' for Inactive)
REMARK    1  A    between atoms: C2_2  and  O1_3 
REMARK    2  A    between atoms: O1_3  and  C3_4 
REMARK    3  A    between atoms: C3_4  and  C4_6 
REMARK    4  A    between atoms: C4_6  and  C5_7 
REMARK    5  A    between atoms: C5_7  and  C6_8 
REMARK    6  A    between atoms: C6_8  and  C8_10 
REMARK    7  A    between atoms: C13_15  and  O3_16 
REMARK    8  A    between atoms: C17_21  and  O4_22 
REMARK    9  A    between atoms: C24_29  and  O5_30 
REMARK   10  A    between atoms: O5_30  and  C25_31 
ROOT
HETATM    1  C8  UNL     1       4.682  13.435  21.935  1.00  0.00     0.000 C 
HETATM    2  C9  UNL     1       5.034  14.814  21.293  1.00  0.00     0.006 C 
HETATM    3  C10 UNL     1       4.784  14.712  19.794  1.00  0.00     0.006 C 
HETATM    4  C11 UNL     1       3.864  13.503  19.635  1.00  0.00     0.003 C 
HETATM    5  C12 UNL     1       2.354  13.893  19.854  1.00  0.00     0.025 C 
HETATM    6  C13 UNL     1       1.843  14.805  18.706  1.00  0.00     0.137 C 
HETATM    7  C14 UNL     1       0.357  14.650  18.370  1.00  0.00     0.092 C 
HETATM    8 BR1  UNL     1      -0.781  15.348  19.805  1.00  0.00    -0.088 Br
HETATM    9  C15 UNL     1       0.044  13.205  17.962  1.00  0.00     0.013 C 
HETATM   10  C16 UNL     1      -1.436  13.008  17.569  1.00  0.00     0.038 C 
HETATM   11  C17 UNL     1      -1.721  11.564  17.186  1.00  0.00     0.118 C 
HETATM   12  C18 UNL     1      -1.459  10.614  18.352  1.00  0.00     0.032 C 
HETATM   13  C19 UNL     1      -0.547  11.199  19.435  1.00  0.00     0.012 C 
HETATM   14  C20 UNL     1       0.628  12.084  18.911  1.00  0.00    -0.035 C 
HETATM   15  C21 UNL     1       1.554  11.175  18.069  1.00  0.00     0.016 C 
HETATM   16  C22 UNL     1       1.402  12.700  20.147  1.00  0.00     0.003 C 
HETATM   17  C23 UNL     1       2.048  11.709  21.132  1.00  0.00     0.039 C 
HETATM   18  C24 UNL     1       3.479  11.304  20.798  1.00  0.00     0.141 C 
HETATM   19  C27 UNL     1       4.462  12.500  20.686  1.00  0.00    -0.009 C 
HETATM   20  C28 UNL     1       5.822  11.943  20.183  1.00  0.00     0.018 C 
ENDROOT
BRANCH   1  21
HETATM   21  C6  UNL     1       5.729  13.109  23.058  1.00  0.00    -0.013 C 
HETATM   22  C7  UNL     1       6.087  11.606  23.004  1.00  0.00     0.010 C 
BRANCH  21  23
HETATM   23  C5  UNL     1       7.017  13.954  22.982  1.00  0.00     0.014 C 
BRANCH  23  24
HETATM   24  C4  UNL     1       8.342  13.189  22.952  1.00  0.00     0.111 C 
BRANCH  24  25
HETATM   25  C3  UNL     1       9.396  13.938  22.177  1.00  0.00     0.258 C 
HETATM   26  O2  UNL     1       9.614  15.135  22.301  1.00  0.00    -0.265 OA
BRANCH  25  27
HETATM   27  O1  UNL     1      10.074  13.096  21.351  1.00  0.00    -0.322 OA
BRANCH  27  28
HETATM   28  C2  UNL     1       9.453  12.894  20.077  1.00  0.00     0.174 C 
HETATM   29  C1  UNL     1       9.496  11.412  19.759  1.00  0.00     0.034 C 
ENDBRANCH  27  28
ENDBRANCH  25  27
ENDBRANCH  24  25
ENDBRANCH  23  24
ENDBRANCH  21  23
ENDBRANCH   1  21
BRANCH  18  30
HETATM   30  O5  UNL     1       3.915  10.352  21.780  1.00  0.00    -0.316 OA
BRANCH  30  31
HETATM   31  C25 UNL     1       3.013   9.412  22.176  1.00  0.00     0.255 C 
HETATM   32  C26 UNL     1       2.905   9.409  23.670  1.00  0.00     0.126 C 
HETATM   33  O6  UNL     1       2.391   8.664  21.436  1.00  0.00    -0.266 OA
ENDBRANCH  30  31
ENDBRANCH  18  30
BRANCH   6  34
HETATM   34  O3  UNL     1       2.157  16.169  19.001  1.00  0.00    -0.394 OA
HETATM   35  H22 UNL     1       1.691  16.743  18.370  1.00  0.00     0.210 HD
ENDBRANCH   6  34
BRANCH  11  36
HETATM   36  O4  UNL     1      -3.080  11.458  16.772  1.00  0.00    -0.396 OA
HETATM   37  H28 UNL     1      -3.255  10.522  16.576  1.00  0.00     0.210 HD
ENDBRANCH  11  36
TORSDOF 10
ENDMDL
