MODEL 1
REMARK minimizedAffinity -7.70417595
REMARK CNNscore 0.344913006
REMARK CNNaffinity 5.76810265
REMARK  19 active torsions:
REMARK  status: ('A' for Active; 'I' for Inactive)
REMARK    1  A    between atoms: C2_2  and  C3_3 
REMARK    2  A    between atoms: C3_3  and  C5_5 
REMARK    3  A    between atoms: C5_5  and  N1_6 
REMARK    4  A    between atoms: C5_5  and  C37_46 
REMARK       I    between atoms: N1_6  and  C6_7 
REMARK    5  A    between atoms: C6_7  and  C7_9 
REMARK    6  A    between atoms: C7_9  and  C8_10 
REMARK    7  A    between atoms: C8_10  and  C9_11 
REMARK    8  A    between atoms: C9_11  and  C10_12 
REMARK    9  A    between atoms: C10_12  and  C11_13 
REMARK   10  A    between atoms: C11_13  and  N2_14 
REMARK       I    between atoms: N2_14  and  C12_15 
REMARK   11  A    between atoms: C12_15  and  C13_17 
REMARK   12  A    between atoms: C13_17  and  C14_18 
REMARK   13  A    between atoms: C14_18  and  C15_19 
REMARK   14  A    between atoms: C15_19  and  O4_21 
REMARK   15  A    between atoms: O4_21  and  C16_22 
REMARK   16  A    between atoms: C16_22  and  C17_23 
REMARK   17  A    between atoms: C17_23  and  C18_25 
REMARK   18  A    between atoms: C18_25  and  O6_26 
REMARK   19  A    between atoms: C37_46  and  O9_48 
ROOT
HETATM    1  C15 UNL     1      -9.746  47.600 -16.814  1.00  0.00     0.259 C 
HETATM    2  O3  UNL     1      -8.905  46.947 -16.212  1.00  0.00    -0.265 OA
ENDROOT
BRANCH   1   3
HETATM    3  C14 UNL     1      -9.424  48.785 -17.695  1.00  0.00     0.120 C 
BRANCH   3   4
HETATM    4  C13 UNL     1      -7.971  48.840 -18.155  1.00  0.00     0.112 C 
BRANCH   4   5
HETATM    5  C12 UNL     1      -7.844  48.666 -19.655  1.00  0.00     0.217 C 
HETATM    6  N2  UNL     1      -6.850  49.447 -20.214  1.00  0.00    -0.361 N 
HETATM    7  H22 UNL     1      -6.536  50.239 -19.671  1.00  0.00     0.162 HD
HETATM    8  O2  UNL     1      -8.552  47.900 -20.303  1.00  0.00    -0.274 OA
BRANCH   6   9
HETATM    9  C11 UNL     1      -6.690  49.494 -21.654  1.00  0.00     0.122 C 
BRANCH   9  10
HETATM   10  C10 UNL     1      -5.436  50.251 -22.095  1.00  0.00     0.020 C 
BRANCH  10  11
HETATM   11  C9  UNL     1      -4.293  50.247 -21.074  1.00  0.00     0.002 C 
BRANCH  11  12
HETATM   12  C8  UNL     1      -3.376  51.470 -21.149  1.00  0.00     0.009 C 
BRANCH  12  13
HETATM   13  C7  UNL     1      -2.084  51.160 -21.909  1.00  0.00     0.103 C 
BRANCH  13  14
HETATM   14  C6  UNL     1      -2.021  51.850 -23.259  1.00  0.00     0.218 C 
HETATM   15  N1  UNL     1      -0.876  51.559 -23.964  1.00  0.00    -0.346 N 
HETATM   16  H11 UNL     1      -0.081  51.238 -23.422  1.00  0.00     0.163 HD
HETATM   17  O1  UNL     1      -2.889  52.615 -23.660  1.00  0.00    -0.274 OA
BRANCH  15  18
HETATM   18  C5  UNL     1      -0.524  52.296 -25.189  1.00  0.00     0.186 C 
BRANCH  18  19
HETATM   19  C3  UNL     1       0.295  51.390 -26.147  1.00  0.00     0.014 C 
HETATM   20  C4  UNL     1       1.805  51.506 -25.883  1.00  0.00     0.012 C 
BRANCH  19  21
HETATM   21  C2  UNL     1      -0.022  51.731 -27.626  1.00  0.00     0.002 C 
HETATM   22  C1  UNL     1       1.207  51.834 -28.522  1.00  0.00     0.005 C 
ENDBRANCH  19  21
ENDBRANCH  18  19
BRANCH  18  23
HETATM   23  C37 UNL     1       0.272  53.545 -24.762  1.00  0.00     0.163 C 
HETATM   24  O8  UNL     1       0.871  53.713 -23.712  1.00  0.00    -0.648 OA
BRANCH  23  25
HETATM   25  O9  UNL     1       0.197  54.569 -25.651  1.00  0.00    -0.775 OA
HETATM   26  H56 UNL     1       0.726  55.275 -25.218  1.00  0.00     0.167 HD
ENDBRANCH  23  25
ENDBRANCH  18  23
ENDBRANCH  15  18
ENDBRANCH  13  14
ENDBRANCH  12  13
ENDBRANCH  11  12
ENDBRANCH  10  11
ENDBRANCH   9  10
ENDBRANCH   6   9
ENDBRANCH   4   5
ENDBRANCH   3   4
ENDBRANCH   1   3
BRANCH   1  27
HETATM   27  O4  UNL     1     -11.089  47.426 -16.691  1.00  0.00    -0.314 OA
BRANCH  27  28
HETATM   28  C16 UNL     1     -11.702  46.721 -17.759  1.00  0.00     0.260 C 
BRANCH  28  29
HETATM   29  C17 UNL     1     -12.698  47.456 -18.665  1.00  0.00     0.185 C 
HETATM   30  O5  UNL     1     -12.307  48.388 -19.378  1.00  0.00    -0.292 OA
BRANCH  29  31
HETATM   31  C18 UNL     1     -14.201  47.083 -18.566  1.00  0.00     0.128 C 
HETATM   32  C19 UNL     1     -15.005  48.304 -18.017  1.00  0.00     0.047 C 
HETATM   33  C20 UNL     1     -16.394  48.249 -18.670  1.00  0.00     0.009 C 
HETATM   34  C21 UNL     1     -16.399  46.972 -19.509  1.00  0.00     0.002 C 
HETATM   35  C22 UNL     1     -17.399  46.921 -20.684  1.00  0.00    -0.004 C 
HETATM   36  C35 UNL     1     -14.922  46.783 -19.927  1.00  0.00    -0.002 C 
HETATM   37  C23 UNL     1     -18.847  46.870 -20.147  1.00  0.00     0.010 C 
HETATM   38  C32 UNL     1     -17.046  45.755 -21.683  1.00  0.00     0.002 C 
HETATM   39  C24 UNL     1     -19.378  45.450 -20.025  1.00  0.00     0.035 C 
HETATM   40  C25 UNL     1     -19.371  44.725 -21.347  1.00  0.00    -0.068 C 
HETATM   41  C26 UNL     1     -20.265  43.743 -21.573  1.00  0.00     0.053 C 
HETATM   42  C30 UNL     1     -18.319  45.132 -22.375  1.00  0.00    -0.016 C 
HETATM   43  C27 UNL     1     -20.279  42.972 -22.842  1.00  0.00     0.149 C 
HETATM   44  O7  UNL     1     -21.193  42.176 -23.050  1.00  0.00    -0.293 OA
HETATM   45  C28 UNL     1     -19.187  43.217 -23.858  1.00  0.00     0.084 C 
HETATM   46  C29 UNL     1     -17.964  43.875 -23.219  1.00  0.00     0.022 C 
HETATM   47  C31 UNL     1     -18.911  46.196 -23.341  1.00  0.00     0.020 C 
HETATM   48  C33 UNL     1     -16.083  44.732 -21.029  1.00  0.00     0.007 C 
HETATM   49  C34 UNL     1     -14.782  45.346 -20.467  1.00  0.00     0.013 C 
HETATM   50  C36 UNL     1     -14.478  47.787 -21.024  1.00  0.00     0.019 C 
BRANCH  31  51
HETATM   51  O6  UNL     1     -14.398  45.977 -17.676  1.00  0.00    -0.381 OA
HETATM   52  H29 UNL     1     -14.735  46.292 -16.813  1.00  0.00     0.211 HD
ENDBRANCH  31  51
ENDBRANCH  29  31
ENDBRANCH  28  29
ENDBRANCH  27  28
ENDBRANCH   1  27
TORSDOF 19
ENDMDL
MODEL 2
REMARK minimizedAffinity -8.88340187
REMARK CNNscore 0.340922564
REMARK CNNaffinity 6.10444117
REMARK  19 active torsions:
REMARK  status: ('A' for Active; 'I' for Inactive)
REMARK    1  A    between atoms: C2_2  and  C3_3 
REMARK    2  A    between atoms: C3_3  and  C5_5 
REMARK    3  A    between atoms: C5_5  and  N1_6 
REMARK    4  A    between atoms: C5_5  and  C37_46 
REMARK       I    between atoms: N1_6  and  C6_7 
REMARK    5  A    between atoms: C6_7  and  C7_9 
REMARK    6  A    between atoms: C7_9  and  C8_10 
REMARK    7  A    between atoms: C8_10  and  C9_11 
REMARK    8  A    between atoms: C9_11  and  C10_12 
REMARK    9  A    between atoms: C10_12  and  C11_13 
REMARK   10  A    between atoms: C11_13  and  N2_14 
REMARK       I    between atoms: N2_14  and  C12_15 
REMARK   11  A    between atoms: C12_15  and  C13_17 
REMARK   12  A    between atoms: C13_17  and  C14_18 
REMARK   13  A    between atoms: C14_18  and  C15_19 
REMARK   14  A    between atoms: C15_19  and  O4_21 
REMARK   15  A    between atoms: O4_21  and  C16_22 
REMARK   16  A    between atoms: C16_22  and  C17_23 
REMARK   17  A    between atoms: C17_23  and  C18_25 
REMARK   18  A    between atoms: C18_25  and  O6_26 
REMARK   19  A    between atoms: C37_46  and  O9_48 
ROOT
HETATM    1  C15 UNL     1      -9.760  46.193 -30.780  1.00  0.00     0.259 C 
HETATM    2  O3  UNL     1      -8.844  46.097 -31.586  1.00  0.00    -0.265 OA
ENDROOT
BRANCH   1   3
HETATM    3  C14 UNL     1     -10.221  47.500 -30.178  1.00  0.00     0.120 C 
BRANCH   3   4
HETATM    4  C13 UNL     1      -9.111  48.533 -30.011  1.00  0.00     0.112 C 
BRANCH   4   5
HETATM    5  C12 UNL     1      -8.288  48.284 -28.763  1.00  0.00     0.217 C 
HETATM    6  N2  UNL     1      -6.951  48.056 -29.027  1.00  0.00    -0.361 N 
HETATM    7  H22 UNL     1      -6.715  47.777 -29.969  1.00  0.00     0.162 HD
HETATM    8  O2  UNL     1      -8.766  48.294 -27.633  1.00  0.00    -0.274 OA
BRANCH   6   9
HETATM    9  C11 UNL     1      -6.056  47.672 -27.953  1.00  0.00     0.122 C 
BRANCH   9  10
HETATM   10  C10 UNL     1      -4.660  48.283 -28.086  1.00  0.00     0.020 C 
BRANCH  10  11
HETATM   11  C9  UNL     1      -3.887  48.410 -26.769  1.00  0.00     0.002 C 
BRANCH  11  12
HETATM   12  C8  UNL     1      -3.455  49.837 -26.427  1.00  0.00     0.009 C 
BRANCH  12  13
HETATM   13  C7  UNL     1      -3.169  50.656 -27.689  1.00  0.00     0.103 C 
BRANCH  13  14
HETATM   14  C6  UNL     1      -2.254  51.837 -27.423  1.00  0.00     0.218 C 
HETATM   15  N1  UNL     1      -1.119  51.831 -28.202  1.00  0.00    -0.346 N 
HETATM   16  H11 UNL     1      -0.838  50.933 -28.583  1.00  0.00     0.163 HD
HETATM   17  O1  UNL     1      -2.490  52.688 -26.575  1.00  0.00    -0.274 OA
BRANCH  15  18
HETATM   18  C5  UNL     1      -0.008  52.761 -27.942  1.00  0.00     0.186 C 
BRANCH  18  19
HETATM   19  C3  UNL     1       0.794  52.309 -26.693  1.00  0.00     0.014 C 
HETATM   20  C4  UNL     1       0.688  50.792 -26.470  1.00  0.00     0.012 C 
BRANCH  19  21
HETATM   21  C2  UNL     1       0.318  53.075 -25.431  1.00  0.00     0.002 C 
HETATM   22  C1  UNL     1      -0.143  52.175 -24.290  1.00  0.00     0.005 C 
ENDBRANCH  19  21
ENDBRANCH  18  19
BRANCH  18  23
HETATM   23  C37 UNL     1      -0.618  54.165 -27.754  1.00  0.00     0.163 C 
HETATM   24  O8  UNL     1      -0.266  55.018 -26.955  1.00  0.00    -0.648 OA
BRANCH  23  25
HETATM   25  O9  UNL     1      -1.711  54.392 -28.526  1.00  0.00    -0.775 OA
HETATM   26  H56 UNL     1      -1.980  55.301 -28.265  1.00  0.00     0.167 HD
ENDBRANCH  23  25
ENDBRANCH  18  23
ENDBRANCH  15  18
ENDBRANCH  13  14
ENDBRANCH  12  13
ENDBRANCH  11  12
ENDBRANCH  10  11
ENDBRANCH   9  10
ENDBRANCH   6   9
ENDBRANCH   4   5
ENDBRANCH   3   4
ENDBRANCH   1   3
BRANCH   1  27
HETATM   27  O4  UNL     1     -10.416  45.137 -30.231  1.00  0.00    -0.314 OA
BRANCH  27  28
HETATM   28  C16 UNL     1     -11.596  45.470 -29.516  1.00  0.00     0.260 C 
BRANCH  28  29
HETATM   29  C17 UNL     1     -12.183  44.455 -28.528  1.00  0.00     0.185 C 
HETATM   30  O5  UNL     1     -12.423  43.301 -28.903  1.00  0.00    -0.292 OA
BRANCH  29  31
HETATM   31  C18 UNL     1     -12.575  44.947 -27.109  1.00  0.00     0.128 C 
HETATM   32  C19 UNL     1     -11.966  46.364 -26.862  1.00  0.00     0.047 C 
HETATM   33  C20 UNL     1     -12.950  47.116 -25.954  1.00  0.00     0.009 C 
HETATM   34  C21 UNL     1     -14.053  46.111 -25.628  1.00  0.00     0.002 C 
HETATM   35  C22 UNL     1     -15.422  46.697 -25.218  1.00  0.00    -0.004 C 
HETATM   36  C35 UNL     1     -14.107  45.187 -26.867  1.00  0.00    -0.002 C 
HETATM   37  C23 UNL     1     -15.310  47.394 -23.845  1.00  0.00     0.010 C 
HETATM   38  C32 UNL     1     -16.554  45.602 -25.290  1.00  0.00     0.002 C 
HETATM   39  C24 UNL     1     -15.691  46.481 -22.689  1.00  0.00     0.035 C 
HETATM   40  C25 UNL     1     -17.104  45.969 -22.812  1.00  0.00    -0.068 C 
HETATM   41  C26 UNL     1     -17.793  45.645 -21.701  1.00  0.00     0.053 C 
HETATM   42  C30 UNL     1     -17.686  45.819 -24.214  1.00  0.00    -0.016 C 
HETATM   43  C27 UNL     1     -19.173  45.101 -21.765  1.00  0.00     0.149 C 
HETATM   44  O7  UNL     1     -19.804  44.943 -20.721  1.00  0.00    -0.293 OA
HETATM   45  C28 UNL     1     -19.775  44.794 -23.117  1.00  0.00     0.084 C 
HETATM   46  C29 UNL     1     -18.696  44.637 -24.188  1.00  0.00     0.022 C 
HETATM   47  C31 UNL     1     -18.475  47.104 -24.595  1.00  0.00     0.020 C 
HETATM   48  C33 UNL     1     -15.950  44.176 -25.334  1.00  0.00     0.007 C 
HETATM   49  C34 UNL     1     -14.934  43.946 -26.475  1.00  0.00     0.013 C 
HETATM   50  C36 UNL     1     -14.763  45.872 -28.096  1.00  0.00     0.019 C 
BRANCH  31  51
HETATM   51  O6  UNL     1     -12.074  44.060 -26.102  1.00  0.00    -0.381 OA
HETATM   52  H29 UNL     1     -11.278  44.440 -25.679  1.00  0.00     0.211 HD
ENDBRANCH  31  51
ENDBRANCH  29  31
ENDBRANCH  28  29
ENDBRANCH  27  28
ENDBRANCH   1  27
TORSDOF 19
ENDMDL
MODEL 3
REMARK minimizedAffinity -8.27684689
REMARK CNNscore 0.337608993
REMARK CNNaffinity 7.30363655
REMARK  19 active torsions:
REMARK  status: ('A' for Active; 'I' for Inactive)
REMARK    1  A    between atoms: C2_2  and  C3_3 
REMARK    2  A    between atoms: C3_3  and  C5_5 
REMARK    3  A    between atoms: C5_5  and  N1_6 
REMARK    4  A    between atoms: C5_5  and  C37_46 
REMARK       I    between atoms: N1_6  and  C6_7 
REMARK    5  A    between atoms: C6_7  and  C7_9 
REMARK    6  A    between atoms: C7_9  and  C8_10 
REMARK    7  A    between atoms: C8_10  and  C9_11 
REMARK    8  A    between atoms: C9_11  and  C10_12 
REMARK    9  A    between atoms: C10_12  and  C11_13 
REMARK   10  A    between atoms: C11_13  and  N2_14 
REMARK       I    between atoms: N2_14  and  C12_15 
REMARK   11  A    between atoms: C12_15  and  C13_17 
REMARK   12  A    between atoms: C13_17  and  C14_18 
REMARK   13  A    between atoms: C14_18  and  C15_19 
REMARK   14  A    between atoms: C15_19  and  O4_21 
REMARK   15  A    between atoms: O4_21  and  C16_22 
REMARK   16  A    between atoms: C16_22  and  C17_23 
REMARK   17  A    between atoms: C17_23  and  C18_25 
REMARK   18  A    between atoms: C18_25  and  O6_26 
REMARK   19  A    between atoms: C37_46  and  O9_48 
ROOT
HETATM    1  C15 UNL     1       0.701  54.392 -24.009  1.00  0.00     0.259 C 
HETATM    2  O3  UNL     1       1.481  55.322 -24.165  1.00  0.00    -0.265 OA
ENDROOT
BRANCH   1   3
HETATM    3  C14 UNL     1       0.847  53.341 -22.932  1.00  0.00     0.120 C 
BRANCH   3   4
HETATM    4  C13 UNL     1       1.329  53.887 -21.592  1.00  0.00     0.112 C 
BRANCH   4   5
HETATM    5  C12 UNL     1       0.818  53.064 -20.427  1.00  0.00     0.217 C 
HETATM    6  N2  UNL     1       1.400  53.404 -19.220  1.00  0.00    -0.361 N 
HETATM    7  H22 UNL     1       2.275  53.909 -19.264  1.00  0.00     0.162 HD
HETATM    8  O2  UNL     1      -0.032  52.187 -20.548  1.00  0.00    -0.274 OA
BRANCH   6   9
HETATM    9  C11 UNL     1       1.116  52.622 -18.033  1.00  0.00     0.122 C 
BRANCH   9  10
HETATM   10  C10 UNL     1       2.024  52.971 -16.852  1.00  0.00     0.020 C 
BRANCH  10  11
HETATM   11  C9  UNL     1       2.011  51.950 -15.710  1.00  0.00     0.002 C 
BRANCH  11  12
HETATM   12  C8  UNL     1       3.232  52.019 -14.790  1.00  0.00     0.009 C 
BRANCH  12  13
HETATM   13  C7  UNL     1       2.989  51.271 -13.476  1.00  0.00     0.103 C 
BRANCH  13  14
HETATM   14  C6  UNL     1       2.159  52.075 -12.492  1.00  0.00     0.218 C 
HETATM   15  N1  UNL     1       2.889  53.025 -11.816  1.00  0.00    -0.346 N 
HETATM   16  H11 UNL     1       3.891  52.874 -11.765  1.00  0.00     0.163 HD
HETATM   17  O1  UNL     1       0.967  51.870 -12.299  1.00  0.00    -0.274 OA
BRANCH  15  18
HETATM   18  C5  UNL     1       2.321  53.752 -10.669  1.00  0.00     0.186 C 
BRANCH  18  19
HETATM   19  C3  UNL     1       2.743  55.245 -10.714  1.00  0.00     0.014 C 
HETATM   20  C4  UNL     1       4.214  55.407 -11.128  1.00  0.00     0.012 C 
BRANCH  19  21
HETATM   21  C2  UNL     1       2.488  55.928  -9.345  1.00  0.00     0.002 C 
HETATM   22  C1  UNL     1       3.662  56.752  -8.829  1.00  0.00     0.005 C 
ENDBRANCH  19  21
ENDBRANCH  18  19
BRANCH  18  23
HETATM   23  C37 UNL     1       2.823  53.055  -9.388  1.00  0.00     0.163 C 
HETATM   24  O8  UNL     1       3.944  52.622  -9.177  1.00  0.00    -0.648 OA
BRANCH  23  25
HETATM   25  O9  UNL     1       1.851  52.855  -8.461  1.00  0.00    -0.775 OA
HETATM   26  H56 UNL     1       2.329  52.387  -7.740  1.00  0.00     0.167 HD
ENDBRANCH  23  25
ENDBRANCH  18  23
ENDBRANCH  15  18
ENDBRANCH  13  14
ENDBRANCH  12  13
ENDBRANCH  11  12
ENDBRANCH  10  11
ENDBRANCH   9  10
ENDBRANCH   6   9
ENDBRANCH   4   5
ENDBRANCH   3   4
ENDBRANCH   1   3
BRANCH   1  27
HETATM   27  O4  UNL     1      -0.335  54.107 -24.841  1.00  0.00    -0.314 OA
BRANCH  27  28
HETATM   28  C16 UNL     1       0.015  53.375 -26.005  1.00  0.00     0.260 C 
BRANCH  28  29
HETATM   29  C17 UNL     1      -1.090  52.932 -26.971  1.00  0.00     0.185 C 
HETATM   30  O5  UNL     1      -1.072  53.321 -28.145  1.00  0.00    -0.292 OA
BRANCH  29  31
HETATM   31  C18 UNL     1      -2.276  52.103 -26.408  1.00  0.00     0.128 C 
HETATM   32  C19 UNL     1      -2.807  51.137 -27.514  1.00  0.00     0.047 C 
HETATM   33  C20 UNL     1      -3.308  49.876 -26.797  1.00  0.00     0.009 C 
HETATM   34  C21 UNL     1      -3.137  50.161 -25.305  1.00  0.00     0.002 C 
HETATM   35  C22 UNL     1      -3.024  48.933 -24.376  1.00  0.00    -0.004 C 
HETATM   36  C35 UNL     1      -1.927  51.120 -25.235  1.00  0.00    -0.002 C 
HETATM   37  C23 UNL     1      -4.369  48.176 -24.330  1.00  0.00     0.010 C 
HETATM   38  C32 UNL     1      -2.471  49.341 -22.957  1.00  0.00     0.002 C 
HETATM   39  C24 UNL     1      -5.245  48.604 -23.162  1.00  0.00     0.035 C 
HETATM   40  C25 UNL     1      -4.568  48.383 -21.833  1.00  0.00    -0.068 C 
HETATM   41  C26 UNL     1      -5.314  48.161 -20.735  1.00  0.00     0.053 C 
HETATM   42  C30 UNL     1      -3.044  48.444 -21.794  1.00  0.00    -0.016 C 
HETATM   43  C27 UNL     1      -4.701  47.973 -19.395  1.00  0.00     0.149 C 
HETATM   44  O7  UNL     1      -5.416  47.647 -18.449  1.00  0.00    -0.293 OA
HETATM   45  C28 UNL     1      -3.208  48.154 -19.243  1.00  0.00     0.084 C 
HETATM   46  C29 UNL     1      -2.623  48.972 -20.393  1.00  0.00     0.022 C 
HETATM   47  C31 UNL     1      -2.455  47.014 -21.953  1.00  0.00     0.020 C 
HETATM   48  C33 UNL     1      -2.588  50.869 -22.731  1.00  0.00     0.007 C 
HETATM   49  C34 UNL     1      -1.911  51.732 -23.820  1.00  0.00     0.013 C 
HETATM   50  C36 UNL     1      -0.577  50.400 -25.497  1.00  0.00     0.019 C 
BRANCH  31  51
HETATM   51  O6  UNL     1      -3.351  52.958 -26.001  1.00  0.00    -0.381 OA
HETATM   52  H29 UNL     1      -4.064  52.949 -26.671  1.00  0.00     0.211 HD
ENDBRANCH  31  51
ENDBRANCH  29  31
ENDBRANCH  28  29
ENDBRANCH  27  28
ENDBRANCH   1  27
TORSDOF 19
ENDMDL
MODEL 4
REMARK minimizedAffinity -7.9881649
REMARK CNNscore 0.324166358
REMARK CNNaffinity 6.42511988
REMARK  19 active torsions:
REMARK  status: ('A' for Active; 'I' for Inactive)
REMARK    1  A    between atoms: C2_2  and  C3_3 
REMARK    2  A    between atoms: C3_3  and  C5_5 
REMARK    3  A    between atoms: C5_5  and  N1_6 
REMARK    4  A    between atoms: C5_5  and  C37_46 
REMARK       I    between atoms: N1_6  and  C6_7 
REMARK    5  A    between atoms: C6_7  and  C7_9 
REMARK    6  A    between atoms: C7_9  and  C8_10 
REMARK    7  A    between atoms: C8_10  and  C9_11 
REMARK    8  A    between atoms: C9_11  and  C10_12 
REMARK    9  A    between atoms: C10_12  and  C11_13 
REMARK   10  A    between atoms: C11_13  and  N2_14 
REMARK       I    between atoms: N2_14  and  C12_15 
REMARK   11  A    between atoms: C12_15  and  C13_17 
REMARK   12  A    between atoms: C13_17  and  C14_18 
REMARK   13  A    between atoms: C14_18  and  C15_19 
REMARK   14  A    between atoms: C15_19  and  O4_21 
REMARK   15  A    between atoms: O4_21  and  C16_22 
REMARK   16  A    between atoms: C16_22  and  C17_23 
REMARK   17  A    between atoms: C17_23  and  C18_25 
REMARK   18  A    between atoms: C18_25  and  O6_26 
REMARK   19  A    between atoms: C37_46  and  O9_48 
ROOT
HETATM    1  C15 UNL     1      -1.620  50.381 -15.336  1.00  0.00     0.259 C 
HETATM    2  O3  UNL     1      -0.636  51.102 -15.246  1.00  0.00    -0.265 OA
ENDROOT
BRANCH   1   3
HETATM    3  C14 UNL     1      -2.876  50.562 -14.514  1.00  0.00     0.120 C 
BRANCH   3   4
HETATM    4  C13 UNL     1      -3.059  51.971 -13.960  1.00  0.00     0.112 C 
BRANCH   4   5
HETATM    5  C12 UNL     1      -3.436  51.958 -12.493  1.00  0.00     0.217 C 
HETATM    6  N2  UNL     1      -3.833  53.195 -12.020  1.00  0.00    -0.361 N 
HETATM    7  H22 UNL     1      -3.552  54.000 -12.563  1.00  0.00     0.162 HD
HETATM    8  O2  UNL     1      -3.399  50.946 -11.800  1.00  0.00    -0.274 OA
BRANCH   6   9
HETATM    9  C11 UNL     1      -4.099  53.379 -10.607  1.00  0.00     0.122 C 
BRANCH   9  10
HETATM   10  C10 UNL     1      -2.857  53.776  -9.807  1.00  0.00     0.020 C 
BRANCH  10  11
HETATM   11  C9  UNL     1      -1.985  54.848 -10.468  1.00  0.00     0.002 C 
BRANCH  11  12
HETATM   12  C8  UNL     1      -0.753  55.249  -9.653  1.00  0.00     0.009 C 
BRANCH  12  13
HETATM   13  C7  UNL     1       0.539  55.041 -10.447  1.00  0.00     0.103 C 
BRANCH  13  14
HETATM   14  C6  UNL     1       1.783  55.277  -9.610  1.00  0.00     0.218 C 
HETATM   15  N1  UNL     1       2.767  55.965 -10.282  1.00  0.00    -0.346 N 
HETATM   16  H11 UNL     1       2.728  55.933 -11.296  1.00  0.00     0.163 HD
HETATM   17  O1  UNL     1       1.905  54.864  -8.464  1.00  0.00    -0.274 OA
BRANCH  15  18
HETATM   18  C5  UNL     1       4.123  56.100  -9.725  1.00  0.00     0.186 C 
BRANCH  18  19
HETATM   19  C3  UNL     1       4.989  54.871 -10.111  1.00  0.00     0.014 C 
HETATM   20  C4  UNL     1       4.297  53.550  -9.740  1.00  0.00     0.012 C 
BRANCH  19  21
HETATM   21  C2  UNL     1       6.386  54.955  -9.442  1.00  0.00     0.002 C 
HETATM   22  C1  UNL     1       6.897  53.628  -8.892  1.00  0.00     0.005 C 
ENDBRANCH  19  21
ENDBRANCH  18  19
BRANCH  18  23
HETATM   23  C37 UNL     1       3.980  56.241  -8.196  1.00  0.00     0.163 C 
HETATM   24  O8  UNL     1       4.372  55.459  -7.346  1.00  0.00    -0.648 OA
BRANCH  23  25
HETATM   25  O9  UNL     1       3.262  57.329  -7.815  1.00  0.00    -0.775 OA
HETATM   26  H56 UNL     1       3.248  57.250  -6.835  1.00  0.00     0.167 HD
ENDBRANCH  23  25
ENDBRANCH  18  23
ENDBRANCH  15  18
ENDBRANCH  13  14
ENDBRANCH  12  13
ENDBRANCH  11  12
ENDBRANCH  10  11
ENDBRANCH   9  10
ENDBRANCH   6   9
ENDBRANCH   4   5
ENDBRANCH   3   4
ENDBRANCH   1   3
BRANCH   1  27
HETATM   27  O4  UNL     1      -1.685  49.257 -16.098  1.00  0.00    -0.314 OA
BRANCH  27  28
HETATM   28  C16 UNL     1      -1.804  49.486 -17.493  1.00  0.00     0.260 C 
BRANCH  28  29
HETATM   29  C17 UNL     1      -3.066  49.015 -18.224  1.00  0.00     0.185 C 
HETATM   30  O5  UNL     1      -4.123  48.873 -17.596  1.00  0.00    -0.292 OA
BRANCH  29  31
HETATM   31  C18 UNL     1      -2.948  48.608 -19.717  1.00  0.00     0.128 C 
HETATM   32  C19 UNL     1      -4.211  47.791 -20.136  1.00  0.00     0.047 C 
HETATM   33  C20 UNL     1      -4.476  48.113 -21.615  1.00  0.00     0.009 C 
HETATM   34  C21 UNL     1      -3.333  49.033 -22.042  1.00  0.00     0.002 C 
HETATM   35  C22 UNL     1      -3.601  49.950 -23.255  1.00  0.00    -0.004 C 
HETATM   36  C35 UNL     1      -2.947  49.790 -20.750  1.00  0.00    -0.002 C 
HETATM   37  C23 UNL     1      -3.732  49.104 -24.541  1.00  0.00     0.010 C 
HETATM   38  C32 UNL     1      -2.524  51.097 -23.351  1.00  0.00     0.002 C 
HETATM   39  C24 UNL     1      -2.420  48.984 -25.301  1.00  0.00     0.035 C 
HETATM   40  C25 UNL     1      -1.875  50.329 -25.710  1.00  0.00    -0.068 C 
HETATM   41  C26 UNL     1      -1.097  50.427 -26.805  1.00  0.00     0.053 C 
HETATM   42  C30 UNL     1      -2.220  51.531 -24.836  1.00  0.00    -0.016 C 
HETATM   43  C27 UNL     1      -0.503  51.719 -27.232  1.00  0.00     0.149 C 
HETATM   44  O7  UNL     1       0.092  51.779 -28.306  1.00  0.00    -0.293 OA
HETATM   45  C28 UNL     1      -0.682  52.933 -26.349  1.00  0.00     0.084 C 
HETATM   46  C29 UNL     1      -1.035  52.535 -24.916  1.00  0.00     0.022 C 
HETATM   47  C31 UNL     1      -3.481  52.245 -25.398  1.00  0.00     0.020 C 
HETATM   48  C33 UNL     1      -1.278  50.766 -22.491  1.00  0.00     0.007 C 
HETATM   49  C34 UNL     1      -1.585  50.466 -21.007  1.00  0.00     0.013 C 
HETATM   50  C36 UNL     1      -3.989  50.872 -20.357  1.00  0.00     0.019 C 
BRANCH  31  51
HETATM   51  O6  UNL     1      -1.790  47.793 -19.936  1.00  0.00    -0.381 OA
HETATM   52  H29 UNL     1      -2.048  46.852 -20.019  1.00  0.00     0.211 HD
ENDBRANCH  31  51
ENDBRANCH  29  31
ENDBRANCH  28  29
ENDBRANCH  27  28
ENDBRANCH   1  27
TORSDOF 19
ENDMDL
MODEL 5
REMARK minimizedAffinity -7.95970058
REMARK CNNscore 0.316696256
REMARK CNNaffinity 6.77570295
REMARK  19 active torsions:
REMARK  status: ('A' for Active; 'I' for Inactive)
REMARK    1  A    between atoms: C2_2  and  C3_3 
REMARK    2  A    between atoms: C3_3  and  C5_5 
REMARK    3  A    between atoms: C5_5  and  N1_6 
REMARK    4  A    between atoms: C5_5  and  C37_46 
REMARK       I    between atoms: N1_6  and  C6_7 
REMARK    5  A    between atoms: C6_7  and  C7_9 
REMARK    6  A    between atoms: C7_9  and  C8_10 
REMARK    7  A    between atoms: C8_10  and  C9_11 
REMARK    8  A    between atoms: C9_11  and  C10_12 
REMARK    9  A    between atoms: C10_12  and  C11_13 
REMARK   10  A    between atoms: C11_13  and  N2_14 
REMARK       I    between atoms: N2_14  and  C12_15 
REMARK   11  A    between atoms: C12_15  and  C13_17 
REMARK   12  A    between atoms: C13_17  and  C14_18 
REMARK   13  A    between atoms: C14_18  and  C15_19 
REMARK   14  A    between atoms: C15_19  and  O4_21 
REMARK   15  A    between atoms: O4_21  and  C16_22 
REMARK   16  A    between atoms: C16_22  and  C17_23 
REMARK   17  A    between atoms: C17_23  and  C18_25 
REMARK   18  A    between atoms: C18_25  and  O6_26 
REMARK   19  A    between atoms: C37_46  and  O9_48 
ROOT
HETATM    1  C15 UNL     1      -2.874  50.259 -23.945  1.00  0.00     0.259 C 
HETATM    2  O3  UNL     1      -3.320  51.340 -24.305  1.00  0.00    -0.265 OA
ENDROOT
BRANCH   1   3
HETATM    3  C14 UNL     1      -3.062  48.971 -24.712  1.00  0.00     0.120 C 
BRANCH   3   4
HETATM    4  C13 UNL     1      -2.710  49.072 -26.193  1.00  0.00     0.112 C 
BRANCH   4   5
HETATM    5  C12 UNL     1      -3.790  48.478 -27.073  1.00  0.00     0.217 C 
HETATM    6  N2  UNL     1      -5.030  48.433 -26.463  1.00  0.00    -0.361 N 
HETATM    7  H22 UNL     1      -5.043  48.497 -25.454  1.00  0.00     0.162 HD
HETATM    8  O2  UNL     1      -3.582  48.083 -28.217  1.00  0.00    -0.274 OA
BRANCH   6   9
HETATM    9  C11 UNL     1      -6.140  47.774 -27.124  1.00  0.00     0.122 C 
BRANCH   9  10
HETATM   10  C10 UNL     1      -6.130  47.956 -28.642  1.00  0.00     0.020 C 
BRANCH  10  11
HETATM   11  C9  UNL     1      -7.182  47.133 -29.393  1.00  0.00     0.002 C 
BRANCH  11  12
HETATM   12  C8  UNL     1      -7.177  45.641 -29.054  1.00  0.00     0.009 C 
BRANCH  12  13
HETATM   13  C7  UNL     1      -8.553  45.009 -29.274  1.00  0.00     0.103 C 
BRANCH  13  14
HETATM   14  C6  UNL     1      -9.519  45.303 -28.140  1.00  0.00     0.218 C 
HETATM   15  N1  UNL     1     -10.410  46.309 -28.433  1.00  0.00    -0.346 N 
HETATM   16  H11 UNL     1     -10.135  46.957 -29.165  1.00  0.00     0.163 HD
HETATM   17  O1  UNL     1      -9.480  44.723 -27.062  1.00  0.00    -0.274 OA
BRANCH  15  18
HETATM   18  C5  UNL     1     -11.276  46.890 -27.395  1.00  0.00     0.186 C 
BRANCH  18  19
HETATM   19  C3  UNL     1     -12.699  47.146 -27.960  1.00  0.00     0.014 C 
HETATM   20  C4  UNL     1     -13.764  47.111 -26.851  1.00  0.00     0.012 C 
BRANCH  19  21
HETATM   21  C2  UNL     1     -13.040  46.116 -29.068  1.00  0.00     0.002 C 
HETATM   22  C1  UNL     1     -13.421  44.736 -28.545  1.00  0.00     0.005 C 
ENDBRANCH  19  21
ENDBRANCH  18  19
BRANCH  18  23
HETATM   23  C37 UNL     1     -10.608  48.195 -26.915  1.00  0.00     0.163 C 
HETATM   24  O8  UNL     1      -9.422  48.375 -26.691  1.00  0.00    -0.648 OA
BRANCH  23  25
HETATM   25  O9  UNL     1     -11.491  49.192 -26.650  1.00  0.00    -0.775 OA
HETATM   26  H56 UNL     1     -10.910  49.921 -26.338  1.00  0.00     0.167 HD
ENDBRANCH  23  25
ENDBRANCH  18  23
ENDBRANCH  15  18
ENDBRANCH  13  14
ENDBRANCH  12  13
ENDBRANCH  11  12
ENDBRANCH  10  11
ENDBRANCH   9  10
ENDBRANCH   6   9
ENDBRANCH   4   5
ENDBRANCH   3   4
ENDBRANCH   1   3
BRANCH   1  27
HETATM   27  O4  UNL     1      -2.246  50.041 -22.759  1.00  0.00    -0.314 OA
BRANCH  27  28
HETATM   28  C16 UNL     1      -2.915  50.564 -21.622  1.00  0.00     0.260 C 
BRANCH  28  29
HETATM   29  C17 UNL     1      -2.461  50.130 -20.223  1.00  0.00     0.185 C 
HETATM   30  O5  UNL     1      -3.237  49.499 -19.494  1.00  0.00    -0.292 OA
BRANCH  29  31
HETATM   31  C18 UNL     1      -1.075  50.607 -19.714  1.00  0.00     0.128 C 
HETATM   32  C19 UNL     1      -0.866  52.105 -20.100  1.00  0.00     0.047 C 
HETATM   33  C20 UNL     1      -0.016  52.735 -18.986  1.00  0.00     0.009 C 
HETATM   34  C21 UNL     1       0.316  51.590 -18.031  1.00  0.00     0.002 C 
HETATM   35  C22 UNL     1       0.663  51.980 -16.578  1.00  0.00    -0.004 C 
HETATM   36  C35 UNL     1      -0.887  50.626 -18.156  1.00  0.00    -0.002 C 
HETATM   37  C23 UNL     1       2.011  52.733 -16.539  1.00  0.00     0.010 C 
HETATM   38  C32 UNL     1       0.601  50.729 -15.621  1.00  0.00     0.002 C 
HETATM   39  C24 UNL     1       3.189  51.814 -16.256  1.00  0.00     0.035 C 
HETATM   40  C25 UNL     1       3.046  51.095 -14.939  1.00  0.00    -0.068 C 
HETATM   41  C26 UNL     1       4.148  50.711 -14.267  1.00  0.00     0.053 C 
HETATM   42  C30 UNL     1       1.634  50.812 -14.434  1.00  0.00    -0.016 C 
HETATM   43  C27 UNL     1       4.065  49.967 -12.984  1.00  0.00     0.149 C 
HETATM   44  O7  UNL     1       5.095  49.753 -12.348  1.00  0.00    -0.293 OA
HETATM   45  C28 UNL     1       2.709  49.528 -12.481  1.00  0.00     0.084 C 
HETATM   46  C29 UNL     1       1.677  49.496 -13.607  1.00  0.00     0.022 C 
HETATM   47  C31 UNL     1       1.180  51.953 -13.479  1.00  0.00     0.020 C 
HETATM   48  C33 UNL     1       0.630  49.407 -16.429  1.00  0.00     0.007 C 
HETATM   49  C34 UNL     1      -0.471  49.290 -17.507  1.00  0.00     0.013 C 
HETATM   50  C36 UNL     1      -2.160  51.163 -17.450  1.00  0.00     0.019 C 
BRANCH  31  51
HETATM   51  O6  UNL     1      -0.020  49.838 -20.305  1.00  0.00    -0.381 OA
HETATM   52  H29 UNL     1       0.411  50.346 -21.021  1.00  0.00     0.211 HD
ENDBRANCH  31  51
ENDBRANCH  29  31
ENDBRANCH  28  29
ENDBRANCH  27  28
ENDBRANCH   1  27
TORSDOF 19
ENDMDL
MODEL 6
REMARK minimizedAffinity -7.85445261
REMARK CNNscore 0.290611386
REMARK CNNaffinity 6.23152399
REMARK  19 active torsions:
REMARK  status: ('A' for Active; 'I' for Inactive)
REMARK    1  A    between atoms: C2_2  and  C3_3 
REMARK    2  A    between atoms: C3_3  and  C5_5 
REMARK    3  A    between atoms: C5_5  and  N1_6 
REMARK    4  A    between atoms: C5_5  and  C37_46 
REMARK       I    between atoms: N1_6  and  C6_7 
REMARK    5  A    between atoms: C6_7  and  C7_9 
REMARK    6  A    between atoms: C7_9  and  C8_10 
REMARK    7  A    between atoms: C8_10  and  C9_11 
REMARK    8  A    between atoms: C9_11  and  C10_12 
REMARK    9  A    between atoms: C10_12  and  C11_13 
REMARK   10  A    between atoms: C11_13  and  N2_14 
REMARK       I    between atoms: N2_14  and  C12_15 
REMARK   11  A    between atoms: C12_15  and  C13_17 
REMARK   12  A    between atoms: C13_17  and  C14_18 
REMARK   13  A    between atoms: C14_18  and  C15_19 
REMARK   14  A    between atoms: C15_19  and  O4_21 
REMARK   15  A    between atoms: O4_21  and  C16_22 
REMARK   16  A    between atoms: C16_22  and  C17_23 
REMARK   17  A    between atoms: C17_23  and  C18_25 
REMARK   18  A    between atoms: C18_25  and  O6_26 
REMARK   19  A    between atoms: C37_46  and  O9_48 
ROOT
HETATM    1  C15 UNL     1      -8.793  48.647 -18.839  1.00  0.00     0.259 C 
HETATM    2  O3  UNL     1      -8.349  48.718 -17.701  1.00  0.00    -0.265 OA
ENDROOT
BRANCH   1   3
HETATM    3  C14 UNL     1     -10.160  48.100 -19.179  1.00  0.00     0.120 C 
BRANCH   3   4
HETATM    4  C13 UNL     1     -10.343  46.626 -18.834  1.00  0.00     0.112 C 
BRANCH   4   5
HETATM    5  C12 UNL     1     -11.791  46.289 -18.539  1.00  0.00     0.217 C 
HETATM    6  N2  UNL     1     -12.639  47.375 -18.652  1.00  0.00    -0.361 N 
HETATM    7  H22 UNL     1     -12.212  48.291 -18.609  1.00  0.00     0.162 HD
HETATM    8  O2  UNL     1     -12.168  45.161 -18.238  1.00  0.00    -0.274 OA
BRANCH   6   9
HETATM    9  C11 UNL     1     -14.033  47.248 -18.275  1.00  0.00     0.122 C 
BRANCH   9  10
HETATM   10  C10 UNL     1     -14.981  47.990 -19.218  1.00  0.00     0.020 C 
BRANCH  10  11
HETATM   11  C9  UNL     1     -16.448  47.997 -18.778  1.00  0.00     0.002 C 
BRANCH  11  12
HETATM   12  C8  UNL     1     -17.321  46.951 -19.475  1.00  0.00     0.009 C 
BRANCH  12  13
HETATM   13  C7  UNL     1     -16.787  46.613 -20.870  1.00  0.00     0.103 C 
BRANCH  13  14
HETATM   14  C6  UNL     1     -17.774  45.804 -21.691  1.00  0.00     0.218 C 
HETATM   15  N1  UNL     1     -17.592  45.942 -23.048  1.00  0.00    -0.346 N 
HETATM   16  H11 UNL     1     -17.105  46.777 -23.356  1.00  0.00     0.163 HD
HETATM   17  O1  UNL     1     -18.661  45.125 -21.191  1.00  0.00    -0.274 OA
BRANCH  15  18
HETATM   18  C5  UNL     1     -18.577  45.418 -24.009  1.00  0.00     0.186 C 
BRANCH  18  19
HETATM   19  C3  UNL     1     -17.880  44.506 -25.053  1.00  0.00     0.014 C 
HETATM   20  C4  UNL     1     -16.413  44.237 -24.681  1.00  0.00     0.012 C 
BRANCH  19  21
HETATM   21  C2  UNL     1     -17.972  45.129 -26.471  1.00  0.00     0.002 C 
HETATM   22  C1  UNL     1     -18.681  44.249 -27.495  1.00  0.00     0.005 C 
ENDBRANCH  19  21
ENDBRANCH  18  19
BRANCH  18  23
HETATM   23  C37 UNL     1     -19.261  46.630 -24.673  1.00  0.00     0.163 C 
HETATM   24  O8  UNL     1     -18.825  47.767 -24.755  1.00  0.00    -0.648 OA
BRANCH  23  25
HETATM   25  O9  UNL     1     -20.514  46.368 -25.126  1.00  0.00    -0.775 OA
HETATM   26  H56 UNL     1     -20.803  47.235 -25.485  1.00  0.00     0.167 HD
ENDBRANCH  23  25
ENDBRANCH  18  23
ENDBRANCH  15  18
ENDBRANCH  13  14
ENDBRANCH  12  13
ENDBRANCH  11  12
ENDBRANCH  10  11
ENDBRANCH   9  10
ENDBRANCH   6   9
ENDBRANCH   4   5
ENDBRANCH   3   4
ENDBRANCH   1   3
BRANCH   1  27
HETATM   27  O4  UNL     1      -8.085  48.942 -19.961  1.00  0.00    -0.314 OA
BRANCH  27  28
HETATM   28  C16 UNL     1      -7.314  47.872 -20.483  1.00  0.00     0.260 C 
BRANCH  28  29
HETATM   29  C17 UNL     1      -5.784  47.966 -20.449  1.00  0.00     0.185 C 
HETATM   30  O5  UNL     1      -5.205  48.184 -19.377  1.00  0.00    -0.292 OA
BRANCH  29  31
HETATM   31  C18 UNL     1      -5.010  47.906 -21.793  1.00  0.00     0.128 C 
HETATM   32  C19 UNL     1      -6.004  47.586 -22.953  1.00  0.00     0.047 C 
HETATM   33  C20 UNL     1      -5.475  48.307 -24.202  1.00  0.00     0.009 C 
HETATM   34  C21 UNL     1      -4.161  48.955 -23.771  1.00  0.00     0.002 C 
HETATM   35  C22 UNL     1      -3.686  50.170 -24.597  1.00  0.00    -0.004 C 
HETATM   36  C35 UNL     1      -4.356  49.253 -22.266  1.00  0.00    -0.002 C 
HETATM   37  C23 UNL     1      -3.284  49.720 -26.019  1.00  0.00     0.010 C 
HETATM   38  C32 UNL     1      -2.559  50.971 -23.838  1.00  0.00     0.002 C 
HETATM   39  C24 UNL     1      -1.797  49.430 -26.146  1.00  0.00     0.035 C 
HETATM   40  C25 UNL     1      -0.953  50.633 -25.809  1.00  0.00    -0.068 C 
HETATM   41  C26 UNL     1       0.264  50.772 -26.370  1.00  0.00     0.053 C 
HETATM   42  C30 UNL     1      -1.520  51.642 -24.815  1.00  0.00    -0.016 C 
HETATM   43  C27 UNL     1       1.151  51.917 -26.045  1.00  0.00     0.149 C 
HETATM   44  O7  UNL     1       2.195  52.065 -26.679  1.00  0.00    -0.293 OA
HETATM   45  C28 UNL     1       0.725  52.890 -24.970  1.00  0.00     0.084 C 
HETATM   46  C29 UNL     1      -0.327  52.277 -24.046  1.00  0.00     0.022 C 
HETATM   47  C31 UNL     1      -2.246  52.784 -25.581  1.00  0.00     0.020 C 
HETATM   48  C33 UNL     1      -1.941  50.121 -22.700  1.00  0.00     0.007 C 
HETATM   49  C34 UNL     1      -2.965  49.574 -21.680  1.00  0.00     0.013 C 
HETATM   50  C36 UNL     1      -5.307  50.452 -22.011  1.00  0.00     0.019 C 
BRANCH  31  51
HETATM   51  O6  UNL     1      -4.008  46.883 -21.762  1.00  0.00    -0.381 OA
HETATM   52  H29 UNL     1      -4.312  46.095 -22.256  1.00  0.00     0.211 HD
ENDBRANCH  31  51
ENDBRANCH  29  31
ENDBRANCH  28  29
ENDBRANCH  27  28
ENDBRANCH   1  27
TORSDOF 19
ENDMDL
MODEL 7
REMARK minimizedAffinity -8.09809017
REMARK CNNscore 0.290276706
REMARK CNNaffinity 5.84932089
REMARK  19 active torsions:
REMARK  status: ('A' for Active; 'I' for Inactive)
REMARK    1  A    between atoms: C2_2  and  C3_3 
REMARK    2  A    between atoms: C3_3  and  C5_5 
REMARK    3  A    between atoms: C5_5  and  N1_6 
REMARK    4  A    between atoms: C5_5  and  C37_46 
REMARK       I    between atoms: N1_6  and  C6_7 
REMARK    5  A    between atoms: C6_7  and  C7_9 
REMARK    6  A    between atoms: C7_9  and  C8_10 
REMARK    7  A    between atoms: C8_10  and  C9_11 
REMARK    8  A    between atoms: C9_11  and  C10_12 
REMARK    9  A    between atoms: C10_12  and  C11_13 
REMARK   10  A    between atoms: C11_13  and  N2_14 
REMARK       I    between atoms: N2_14  and  C12_15 
REMARK   11  A    between atoms: C12_15  and  C13_17 
REMARK   12  A    between atoms: C13_17  and  C14_18 
REMARK   13  A    between atoms: C14_18  and  C15_19 
REMARK   14  A    between atoms: C15_19  and  O4_21 
REMARK   15  A    between atoms: O4_21  and  C16_22 
REMARK   16  A    between atoms: C16_22  and  C17_23 
REMARK   17  A    between atoms: C17_23  and  C18_25 
REMARK   18  A    between atoms: C18_25  and  O6_26 
REMARK   19  A    between atoms: C37_46  and  O9_48 
ROOT
HETATM    1  C15 UNL     1      -9.918  48.121 -26.090  1.00  0.00     0.259 C 
HETATM    2  O3  UNL     1     -10.501  49.179 -26.286  1.00  0.00    -0.265 OA
ENDROOT
BRANCH   1   3
HETATM    3  C14 UNL     1      -8.619  47.736 -26.759  1.00  0.00     0.120 C 
BRANCH   3   4
HETATM    4  C13 UNL     1      -8.569  48.059 -28.249  1.00  0.00     0.112 C 
BRANCH   4   5
HETATM    5  C12 UNL     1      -7.187  47.836 -28.830  1.00  0.00     0.217 C 
HETATM    6  N2  UNL     1      -6.173  48.340 -28.038  1.00  0.00    -0.361 N 
HETATM    7  H22 UNL     1      -6.434  49.039 -27.356  1.00  0.00     0.162 HD
HETATM    8  O2  UNL     1      -6.993  47.258 -29.895  1.00  0.00    -0.274 OA
BRANCH   6   9
HETATM    9  C11 UNL     1      -4.804  48.324 -28.516  1.00  0.00     0.122 C 
BRANCH   9  10
HETATM   10  C10 UNL     1      -3.858  49.165 -27.657  1.00  0.00     0.020 C 
BRANCH  10  11
HETATM   11  C9  UNL     1      -3.342  48.463 -26.397  1.00  0.00     0.002 C 
BRANCH  11  12
HETATM   12  C8  UNL     1      -3.540  49.261 -25.106  1.00  0.00     0.009 C 
BRANCH  12  13
HETATM   13  C7  UNL     1      -2.228  49.884 -24.623  1.00  0.00     0.103 C 
BRANCH  13  14
HETATM   14  C6  UNL     1      -1.995  51.271 -25.195  1.00  0.00     0.218 C 
HETATM   15  N1  UNL     1      -0.674  51.652 -25.174  1.00  0.00    -0.346 N 
HETATM   16  H11 UNL     1      -0.077  51.176 -24.505  1.00  0.00     0.163 HD
HETATM   17  O1  UNL     1      -2.902  51.986 -25.602  1.00  0.00    -0.274 OA
BRANCH  15  18
HETATM   18  C5  UNL     1      -0.271  53.035 -25.477  1.00  0.00     0.186 C 
BRANCH  18  19
HETATM   19  C3  UNL     1       0.505  53.089 -26.820  1.00  0.00     0.014 C 
HETATM   20  C4  UNL     1      -0.379  53.607 -27.966  1.00  0.00     0.012 C 
BRANCH  19  21
HETATM   21  C2  UNL     1       1.084  51.694 -27.173  1.00  0.00     0.002 C 
HETATM   22  C1  UNL     1       2.438  51.400 -26.537  1.00  0.00     0.005 C 
ENDBRANCH  19  21
ENDBRANCH  18  19
BRANCH  18  23
HETATM   23  C37 UNL     1       0.589  53.533 -24.299  1.00  0.00     0.163 C 
HETATM   24  O8  UNL     1       1.311  54.517 -24.279  1.00  0.00    -0.648 OA
BRANCH  23  25
HETATM   25  O9  UNL     1       0.569  52.706 -23.222  1.00  0.00    -0.775 OA
HETATM   26  H56 UNL     1       1.177  53.152 -22.591  1.00  0.00     0.167 HD
ENDBRANCH  23  25
ENDBRANCH  18  23
ENDBRANCH  15  18
ENDBRANCH  13  14
ENDBRANCH  12  13
ENDBRANCH  11  12
ENDBRANCH  10  11
ENDBRANCH   9  10
ENDBRANCH   6   9
ENDBRANCH   4   5
ENDBRANCH   3   4
ENDBRANCH   1   3
BRANCH   1  27
HETATM   27  O4  UNL     1     -10.406  47.103 -25.334  1.00  0.00    -0.314 OA
BRANCH  27  28
HETATM   28  C16 UNL     1     -10.658  45.899 -26.041  1.00  0.00     0.260 C 
BRANCH  28  29
HETATM   29  C17 UNL     1     -11.705  45.895 -27.162  1.00  0.00     0.185 C 
HETATM   30  O5  UNL     1     -11.357  45.661 -28.326  1.00  0.00    -0.292 OA
BRANCH  29  31
HETATM   31  C18 UNL     1     -13.160  46.310 -26.816  1.00  0.00     0.128 C 
HETATM   32  C19 UNL     1     -14.076  46.080 -28.059  1.00  0.00     0.047 C 
HETATM   33  C20 UNL     1     -15.463  45.697 -27.522  1.00  0.00     0.009 C 
HETATM   34  C21 UNL     1     -15.350  45.790 -26.001  1.00  0.00     0.002 C 
HETATM   35  C22 UNL     1     -16.359  44.957 -25.182  1.00  0.00    -0.004 C 
HETATM   36  C35 UNL     1     -13.869  45.457 -25.706  1.00  0.00    -0.002 C 
HETATM   37  C23 UNL     1     -17.784  45.526 -25.359  1.00  0.00     0.010 C 
HETATM   38  C32 UNL     1     -15.904  44.828 -23.678  1.00  0.00     0.002 C 
HETATM   39  C24 UNL     1     -18.164  46.511 -24.263  1.00  0.00     0.035 C 
HETATM   40  C25 UNL     1     -18.104  45.887 -22.893  1.00  0.00    -0.068 C 
HETATM   41  C26 UNL     1     -18.896  46.360 -21.911  1.00  0.00     0.053 C 
HETATM   42  C30 UNL     1     -17.117  44.744 -22.674  1.00  0.00    -0.016 C 
HETATM   43  C27 UNL     1     -18.851  45.808 -20.533  1.00  0.00     0.149 C 
HETATM   44  O7  UNL     1     -19.682  46.187 -19.709  1.00  0.00    -0.293 OA
HETATM   45  C28 UNL     1     -17.808  44.768 -20.196  1.00  0.00     0.084 C 
HETATM   46  C29 UNL     1     -16.649  44.793 -21.192  1.00  0.00     0.022 C 
HETATM   47  C31 UNL     1     -17.833  43.382 -22.896  1.00  0.00     0.020 C 
HETATM   48  C33 UNL     1     -14.830  45.889 -23.328  1.00  0.00     0.007 C 
HETATM   49  C34 UNL     1     -13.590  45.873 -24.248  1.00  0.00     0.013 C 
HETATM   50  C36 UNL     1     -13.550  43.947 -25.878  1.00  0.00     0.019 C 
BRANCH  31  51
HETATM   51  O6  UNL     1     -13.226  47.696 -26.457  1.00  0.00    -0.381 OA
HETATM   52  H29 UNL     1     -13.579  48.223 -27.202  1.00  0.00     0.211 HD
ENDBRANCH  31  51
ENDBRANCH  29  31
ENDBRANCH  28  29
ENDBRANCH  27  28
ENDBRANCH   1  27
TORSDOF 19
ENDMDL
MODEL 8
REMARK minimizedAffinity -8.40524769
REMARK CNNscore 0.287338108
REMARK CNNaffinity 5.95192385
REMARK  19 active torsions:
REMARK  status: ('A' for Active; 'I' for Inactive)
REMARK    1  A    between atoms: C2_2  and  C3_3 
REMARK    2  A    between atoms: C3_3  and  C5_5 
REMARK    3  A    between atoms: C5_5  and  N1_6 
REMARK    4  A    between atoms: C5_5  and  C37_46 
REMARK       I    between atoms: N1_6  and  C6_7 
REMARK    5  A    between atoms: C6_7  and  C7_9 
REMARK    6  A    between atoms: C7_9  and  C8_10 
REMARK    7  A    between atoms: C8_10  and  C9_11 
REMARK    8  A    between atoms: C9_11  and  C10_12 
REMARK    9  A    between atoms: C10_12  and  C11_13 
REMARK   10  A    between atoms: C11_13  and  N2_14 
REMARK       I    between atoms: N2_14  and  C12_15 
REMARK   11  A    between atoms: C12_15  and  C13_17 
REMARK   12  A    between atoms: C13_17  and  C14_18 
REMARK   13  A    between atoms: C14_18  and  C15_19 
REMARK   14  A    between atoms: C15_19  and  O4_21 
REMARK   15  A    between atoms: O4_21  and  C16_22 
REMARK   16  A    between atoms: C16_22  and  C17_23 
REMARK   17  A    between atoms: C17_23  and  C18_25 
REMARK   18  A    between atoms: C18_25  and  O6_26 
REMARK   19  A    between atoms: C37_46  and  O9_48 
ROOT
HETATM    1  C15 UNL     1     -10.352  47.492 -30.605  1.00  0.00     0.259 C 
HETATM    2  O3  UNL     1     -10.155  46.747 -31.555  1.00  0.00    -0.265 OA
ENDROOT
BRANCH   1   3
HETATM    3  C14 UNL     1      -9.574  48.764 -30.354  1.00  0.00     0.120 C 
BRANCH   3   4
HETATM    4  C13 UNL     1      -8.193  48.786 -31.002  1.00  0.00     0.112 C 
BRANCH   4   5
HETATM    5  C12 UNL     1      -7.200  47.927 -30.247  1.00  0.00     0.217 C 
HETATM    6  N2  UNL     1      -6.969  48.364 -28.956  1.00  0.00    -0.361 N 
HETATM    7  H22 UNL     1      -7.215  49.323 -28.750  1.00  0.00     0.162 HD
HETATM    8  O2  UNL     1      -6.662  46.937 -30.735  1.00  0.00    -0.274 OA
BRANCH   6   9
HETATM    9  C11 UNL     1      -5.947  47.729 -28.147  1.00  0.00     0.122 C 
BRANCH   9  10
HETATM   10  C10 UNL     1      -4.620  48.489 -28.150  1.00  0.00     0.020 C 
BRANCH  10  11
HETATM   11  C9  UNL     1      -3.888  48.506 -26.803  1.00  0.00     0.002 C 
BRANCH  11  12
HETATM   12  C8  UNL     1      -2.777  49.553 -26.703  1.00  0.00     0.009 C 
BRANCH  12  13
HETATM   13  C7  UNL     1      -3.021  50.725 -27.657  1.00  0.00     0.103 C 
BRANCH  13  14
HETATM   14  C6  UNL     1      -2.095  51.898 -27.390  1.00  0.00     0.218 C 
HETATM   15  N1  UNL     1      -0.867  51.770 -27.997  1.00  0.00    -0.346 N 
HETATM   16  H11 UNL     1      -0.580  50.827 -28.240  1.00  0.00     0.163 HD
HETATM   17  O1  UNL     1      -2.404  52.843 -26.676  1.00  0.00    -0.274 OA
BRANCH  15  18
HETATM   18  C5  UNL     1       0.241  52.686 -27.682  1.00  0.00     0.186 C 
BRANCH  18  19
HETATM   19  C3  UNL     1       0.984  52.215 -26.404  1.00  0.00     0.014 C 
HETATM   20  C4  UNL     1       2.340  51.574 -26.739  1.00  0.00     0.012 C 
BRANCH  19  21
HETATM   21  C2  UNL     1       0.105  51.227 -25.593  1.00  0.00     0.002 C 
HETATM   22  C1  UNL     1      -0.277  51.724 -24.203  1.00  0.00     0.005 C 
ENDBRANCH  19  21
ENDBRANCH  18  19
BRANCH  18  23
HETATM   23  C37 UNL     1      -0.361  54.094 -27.508  1.00  0.00     0.163 C 
HETATM   24  O8  UNL     1      -1.176  54.641 -28.234  1.00  0.00    -0.648 OA
BRANCH  23  25
HETATM   25  O9  UNL     1       0.169  54.788 -26.468  1.00  0.00    -0.775 OA
HETATM   26  H56 UNL     1      -0.298  55.652 -26.520  1.00  0.00     0.167 HD
ENDBRANCH  23  25
ENDBRANCH  18  23
ENDBRANCH  15  18
ENDBRANCH  13  14
ENDBRANCH  12  13
ENDBRANCH  11  12
ENDBRANCH  10  11
ENDBRANCH   9  10
ENDBRANCH   6   9
ENDBRANCH   4   5
ENDBRANCH   3   4
ENDBRANCH   1   3
BRANCH   1  27
HETATM   27  O4  UNL     1     -11.213  47.230 -29.587  1.00  0.00    -0.314 OA
BRANCH  27  28
HETATM   28  C16 UNL     1     -10.821  47.743 -28.323  1.00  0.00     0.260 C 
BRANCH  28  29
HETATM   29  C17 UNL     1     -11.604  47.327 -27.072  1.00  0.00     0.185 C 
HETATM   30  O5  UNL     1     -11.691  48.106 -26.115  1.00  0.00    -0.292 OA
BRANCH  29  31
HETATM   31  C18 UNL     1     -12.162  45.881 -26.996  1.00  0.00     0.128 C 
HETATM   32  C19 UNL     1     -11.833  45.268 -25.598  1.00  0.00     0.047 C 
HETATM   33  C20 UNL     1     -12.989  44.319 -25.248  1.00  0.00     0.009 C 
HETATM   34  C21 UNL     1     -13.912  44.335 -26.465  1.00  0.00     0.002 C 
HETATM   35  C22 UNL     1     -15.385  43.944 -26.220  1.00  0.00    -0.004 C 
HETATM   36  C35 UNL     1     -13.724  45.746 -27.069  1.00  0.00    -0.002 C 
HETATM   37  C23 UNL     1     -15.484  42.447 -25.855  1.00  0.00     0.010 C 
HETATM   38  C32 UNL     1     -16.297  44.369 -27.434  1.00  0.00     0.002 C 
HETATM   39  C24 UNL     1     -15.764  41.566 -27.063  1.00  0.00     0.035 C 
HETATM   40  C25 UNL     1     -17.051  41.938 -27.753  1.00  0.00    -0.068 C 
HETATM   41  C26 UNL     1     -17.737  41.000 -28.434  1.00  0.00     0.053 C 
HETATM   42  C30 UNL     1     -17.512  43.390 -27.661  1.00  0.00    -0.016 C 
HETATM   43  C27 UNL     1     -18.991  41.321 -29.162  1.00  0.00     0.149 C 
HETATM   44  O7  UNL     1     -19.645  40.406 -29.661  1.00  0.00    -0.293 OA
HETATM   45  C28 UNL     1     -19.446  42.760 -29.237  1.00  0.00     0.084 C 
HETATM   46  C29 UNL     1     -18.294  43.726 -28.962  1.00  0.00     0.022 C 
HETATM   47  C31 UNL     1     -18.494  43.555 -26.467  1.00  0.00     0.020 C 
HETATM   48  C33 UNL     1     -15.446  44.666 -28.694  1.00  0.00     0.007 C 
HETATM   49  C34 UNL     1     -14.338  45.722 -28.484  1.00  0.00     0.013 C 
HETATM   50  C36 UNL     1     -14.417  46.853 -26.230  1.00  0.00     0.019 C 
BRANCH  31  51
HETATM   51  O6  UNL     1     -11.572  45.050 -28.003  1.00  0.00    -0.381 OA
HETATM   52  H29 UNL     1     -10.884  44.476 -27.609  1.00  0.00     0.211 HD
ENDBRANCH  31  51
ENDBRANCH  29  31
ENDBRANCH  28  29
ENDBRANCH  27  28
ENDBRANCH   1  27
TORSDOF 19
ENDMDL
MODEL 9
REMARK minimizedAffinity -8.25948811
REMARK CNNscore 0.229794994
REMARK CNNaffinity 5.94616699
REMARK  19 active torsions:
REMARK  status: ('A' for Active; 'I' for Inactive)
REMARK    1  A    between atoms: C2_2  and  C3_3 
REMARK    2  A    between atoms: C3_3  and  C5_5 
REMARK    3  A    between atoms: C5_5  and  N1_6 
REMARK    4  A    between atoms: C5_5  and  C37_46 
REMARK       I    between atoms: N1_6  and  C6_7 
REMARK    5  A    between atoms: C6_7  and  C7_9 
REMARK    6  A    between atoms: C7_9  and  C8_10 
REMARK    7  A    between atoms: C8_10  and  C9_11 
REMARK    8  A    between atoms: C9_11  and  C10_12 
REMARK    9  A    between atoms: C10_12  and  C11_13 
REMARK   10  A    between atoms: C11_13  and  N2_14 
REMARK       I    between atoms: N2_14  and  C12_15 
REMARK   11  A    between atoms: C12_15  and  C13_17 
REMARK   12  A    between atoms: C13_17  and  C14_18 
REMARK   13  A    between atoms: C14_18  and  C15_19 
REMARK   14  A    between atoms: C15_19  and  O4_21 
REMARK   15  A    between atoms: O4_21  and  C16_22 
REMARK   16  A    between atoms: C16_22  and  C17_23 
REMARK   17  A    between atoms: C17_23  and  C18_25 
REMARK   18  A    between atoms: C18_25  and  O6_26 
REMARK   19  A    between atoms: C37_46  and  O9_48 
ROOT
HETATM    1  C15 UNL     1      -7.485  47.810 -25.733  1.00  0.00     0.259 C 
HETATM    2  O3  UNL     1      -7.321  47.674 -24.528  1.00  0.00    -0.265 OA
ENDROOT
BRANCH   1   3
HETATM    3  C14 UNL     1      -6.374  47.705 -26.752  1.00  0.00     0.120 C 
BRANCH   3   4
HETATM    4  C13 UNL     1      -4.999  48.091 -26.216  1.00  0.00     0.112 C 
BRANCH   4   5
HETATM    5  C12 UNL     1      -4.123  48.702 -27.291  1.00  0.00     0.217 C 
HETATM    6  N2  UNL     1      -3.769  50.012 -27.028  1.00  0.00    -0.361 N 
HETATM    7  H22 UNL     1      -4.340  50.512 -26.360  1.00  0.00     0.162 HD
HETATM    8  O2  UNL     1      -3.761  48.088 -28.290  1.00  0.00    -0.274 OA
BRANCH   6   9
HETATM    9  C11 UNL     1      -3.043  50.780 -28.021  1.00  0.00     0.122 C 
BRANCH   9  10
HETATM   10  C10 UNL     1      -1.790  51.454 -27.461  1.00  0.00     0.020 C 
BRANCH  10  11
HETATM   11  C9  UNL     1      -0.925  50.559 -26.567  1.00  0.00     0.002 C 
BRANCH  11  12
HETATM   12  C8  UNL     1       0.564  50.914 -26.571  1.00  0.00     0.009 C 
BRANCH  12  13
HETATM   13  C7  UNL     1       0.782  52.422 -26.419  1.00  0.00     0.103 C 
BRANCH  13  14
HETATM   14  C6  UNL     1       0.199  52.969 -25.129  1.00  0.00     0.218 C 
HETATM   15  N1  UNL     1       0.466  52.180 -24.035  1.00  0.00    -0.346 N 
HETATM   16  H11 UNL     1       0.689  51.207 -24.223  1.00  0.00     0.163 HD
HETATM   17  O1  UNL     1      -0.470  53.993 -25.080  1.00  0.00    -0.274 OA
BRANCH  15  18
HETATM   18  C5  UNL     1      -0.192  52.417 -22.740  1.00  0.00     0.186 C 
BRANCH  18  19
HETATM   19  C3  UNL     1       0.690  51.885 -21.580  1.00  0.00     0.014 C 
HETATM   20  C4  UNL     1      -0.153  51.183 -20.503  1.00  0.00     0.012 C 
BRANCH  19  21
HETATM   21  C2  UNL     1       1.521  53.034 -20.952  1.00  0.00     0.002 C 
HETATM   22  C1  UNL     1       0.692  54.057 -20.183  1.00  0.00     0.005 C 
ENDBRANCH  19  21
ENDBRANCH  18  19
BRANCH  18  23
HETATM   23  C37 UNL     1      -1.564  51.714 -22.785  1.00  0.00     0.163 C 
HETATM   24  O8  UNL     1      -1.784  50.522 -22.645  1.00  0.00    -0.648 OA
BRANCH  23  25
HETATM   25  O9  UNL     1      -2.591  52.544 -23.100  1.00  0.00    -0.775 OA
HETATM   26  H56 UNL     1      -3.366  51.940 -23.111  1.00  0.00     0.167 HD
ENDBRANCH  23  25
ENDBRANCH  18  23
ENDBRANCH  15  18
ENDBRANCH  13  14
ENDBRANCH  12  13
ENDBRANCH  11  12
ENDBRANCH  10  11
ENDBRANCH   9  10
ENDBRANCH   6   9
ENDBRANCH   4   5
ENDBRANCH   3   4
ENDBRANCH   1   3
BRANCH   1  27
HETATM   27  O4  UNL     1      -8.656  48.181 -26.313  1.00  0.00    -0.314 OA
BRANCH  27  28
HETATM   28  C16 UNL     1      -9.790  47.430 -25.908  1.00  0.00     0.260 C 
BRANCH  28  29
HETATM   29  C17 UNL     1     -10.719  46.843 -26.977  1.00  0.00     0.185 C 
HETATM   30  O5  UNL     1     -10.238  46.315 -27.988  1.00  0.00    -0.292 OA
BRANCH  29  31
HETATM   31  C18 UNL     1     -12.250  47.041 -26.816  1.00  0.00     0.128 C 
HETATM   32  C19 UNL     1     -12.973  46.608 -28.130  1.00  0.00     0.047 C 
HETATM   33  C20 UNL     1     -14.339  46.039 -27.718  1.00  0.00     0.009 C 
HETATM   34  C21 UNL     1     -14.416  46.223 -26.203  1.00  0.00     0.002 C 
HETATM   35  C22 UNL     1     -15.375  45.284 -25.441  1.00  0.00    -0.004 C 
HETATM   36  C35 UNL     1     -12.945  46.142 -25.732  1.00  0.00    -0.002 C 
HETATM   37  C23 UNL     1     -16.840  45.613 -25.805  1.00  0.00     0.010 C 
HETATM   38  C32 UNL     1     -15.080  45.303 -23.892  1.00  0.00     0.002 C 
HETATM   39  C24 UNL     1     -17.486  46.579 -24.824  1.00  0.00     0.035 C 
HETATM   40  C25 UNL     1     -17.490  46.041 -23.416  1.00  0.00    -0.068 C 
HETATM   41  C26 UNL     1     -18.451  46.432 -22.557  1.00  0.00     0.053 C 
HETATM   42  C30 UNL     1     -16.374  45.079 -23.019  1.00  0.00    -0.016 C 
HETATM   43  C27 UNL     1     -18.482  45.962 -21.148  1.00  0.00     0.149 C 
HETATM   44  O7  UNL     1     -19.449  46.246 -20.443  1.00  0.00    -0.293 OA
HETATM   45  C28 UNL     1     -17.339  45.117 -20.634  1.00  0.00     0.084 C 
HETATM   46  C29 UNL     1     -16.092  45.275 -21.502  1.00  0.00     0.022 C 
HETATM   47  C31 UNL     1     -16.846  43.612 -23.224  1.00  0.00     0.020 C 
HETATM   48  C33 UNL     1     -14.226  46.535 -23.502  1.00  0.00     0.007 C 
HETATM   49  C34 UNL     1     -12.900  46.669 -24.284  1.00  0.00     0.013 C 
HETATM   50  C36 UNL     1     -12.384  44.695 -25.768  1.00  0.00     0.019 C 
BRANCH  31  51
HETATM   51  O6  UNL     1     -12.565  48.415 -26.559  1.00  0.00    -0.381 OA
HETATM   52  H29 UNL     1     -12.906  48.842 -27.370  1.00  0.00     0.211 HD
ENDBRANCH  31  51
ENDBRANCH  29  31
ENDBRANCH  28  29
ENDBRANCH  27  28
ENDBRANCH   1  27
TORSDOF 19
ENDMDL
