MODEL 1
REMARK minimizedAffinity -9.24662113
REMARK CNNscore 0.241445109
REMARK CNNaffinity 6.92521048
REMARK  11 active torsions:
REMARK  status: ('A' for Active; 'I' for Inactive)
REMARK       I    between atoms: N1_1  and  C1_2 
REMARK       I    between atoms: C1_2  and  N2_3 
REMARK    1  A    between atoms: N3_4  and  C2_6 
REMARK    2  A    between atoms: C2_6  and  C3_7 
REMARK    3  A    between atoms: C3_7  and  C4_8 
REMARK    4  A    between atoms: C4_8  and  C5_9 
REMARK    5  A    between atoms: C4_8  and  C6_11 
REMARK    6  A    between atoms: C5_9  and  O1_10 
REMARK    7  A    between atoms: C6_11  and  C7_12 
REMARK    8  A    between atoms: C21_27  and  S1_28 
REMARK    9  A    between atoms: C30_40  and  C31_41 
REMARK   10  A    between atoms: C31_41  and  O6_42 
REMARK   11  A    between atoms: C37_48  and  O7_49 
ROOT
HETATM    1  C2  UNL     1      -1.234  10.227  15.635  1.00  0.00     0.171 C 
HETATM    2  O2  UNL     1      -2.417  11.090  15.782  1.00  0.00    -0.316 OA
HETATM    3  C13 UNL     1      -2.254  12.270  16.452  1.00  0.00     0.072 C 
HETATM    4  C14 UNL     1      -1.650  13.365  15.844  1.00  0.00     0.037 C 
HETATM    5  C15 UNL     1      -1.304  14.467  16.623  1.00  0.00     0.010 C 
HETATM    6  C16 UNL     1      -1.568  14.478  18.000  1.00  0.00    -0.058 C 
HETATM    7  C17 UNL     1      -2.302  13.428  18.564  1.00  0.00     0.010 C 
HETATM    8  C18 UNL     1      -2.668  12.334  17.783  1.00  0.00     0.037 C 
HETATM    9  C19 UNL     1      -0.978  15.558  18.876  1.00  0.00     0.040 C 
HETATM   10  C20 UNL     1       0.308  15.120  19.606  1.00  0.00     0.028 C 
HETATM   11  C21 UNL     1       1.518  14.710  18.728  1.00  0.00     0.140 C 
HETATM   12  C22 UNL     1       2.659  13.973  19.523  1.00  0.00     0.053 C 
HETATM   13  C23 UNL     1       2.827  14.474  20.951  1.00  0.00    -0.013 C 
HETATM   14  C24 UNL     1       2.682  13.662  22.014  1.00  0.00    -0.050 C 
HETATM   15  C25 UNL     1       2.088  12.308  21.829  1.00  0.00     0.043 C 
HETATM   16  C26 UNL     1       2.949  11.633  20.785  1.00  0.00     0.016 C 
HETATM   17  C27 UNL     1       4.408  11.454  21.309  1.00  0.00     0.039 C 
HETATM   18  C28 UNL     1       5.197  12.632  21.970  1.00  0.00     0.123 C 
HETATM   19  C29 UNL     1       6.640  12.086  22.193  1.00  0.00     0.039 C 
HETATM   20  C30 UNL     1       7.658  12.976  22.946  1.00  0.00     0.023 C 
HETATM   21  C32 UNL     1       7.886  14.338  22.258  1.00  0.00     0.101 C 
HETATM   22  C33 UNL     1       6.814  15.249  22.653  1.00  0.00    -0.101 C 
HETATM   23  C34 UNL     1       5.817  15.761  23.078  1.00  0.00    -0.066 C 
HETATM   24  C35 UNL     1       4.587  16.164  23.671  1.00  0.00     0.029 A 
HETATM   25  C36 UNL     1       4.493  17.488  24.125  1.00  0.00     0.057 A 
HETATM   26  C37 UNL     1       3.325  17.934  24.731  1.00  0.00     0.067 A 
HETATM   27  C38 UNL     1       2.248  17.082  24.900  1.00  0.00     0.037 A 
HETATM   28  C39 UNL     1       2.338  15.766  24.444  1.00  0.00     0.014 A 
HETATM   29  C40 UNL     1       3.509  15.273  23.819  1.00  0.00    -0.006 A 
HETATM   30  C41 UNL     1       3.454  13.832  23.294  1.00  0.00     0.185 C 
HETATM   31  O8  UNL     1       4.679  13.051  23.256  1.00  0.00    -0.371 OA
HETATM   32  C42 UNL     1       2.807  12.383  19.405  1.00  0.00     0.104 A 
HETATM   33  C43 UNL     1       1.825  11.696  18.447  1.00  0.00     0.082 A 
HETATM   34  C44 UNL     1       2.006  11.857  17.064  1.00  0.00     0.010 A 
HETATM   35  C45 UNL     1       1.075  11.353  16.145  1.00  0.00     0.011 A 
HETATM   36  C46 UNL     1      -0.053  10.634  16.573  1.00  0.00    -0.003 A 
HETATM   37  C47 UNL     1      -0.163  10.377  17.951  1.00  0.00     0.011 A 
HETATM   38  C48 UNL     1       0.737  10.927  18.872  1.00  0.00     0.010 A 
HETATM   39 NA1  UNL     1       1.052  12.423  18.352  1.00  0.00    -0.398 Na
ATOM     40  HA1 UNL     1       0.172  12.813  18.016  1.00  0.00     0.155 HD
ENDROOT
BRANCH   1  41
HETATM   41  N3  UNL     1      -1.470   8.780  15.888  1.00  0.00    -0.336 N 
HETATM   42  C1  UNL     1      -2.574   8.338  16.343  1.00  0.00     0.124 C 
HETATM   43  N1  UNL     1      -3.729   8.972  16.636  1.00  0.00    -0.279 NA
HETATM   44  N2  UNL     1      -2.719   7.015  16.581  1.00  0.00    -0.279 NA
HETATM   45  H1  UNL     1      -3.623   9.987  16.613  1.00  0.00     0.126 HD
HETATM   46  H2  UNL     1      -4.106   8.682  17.531  1.00  0.00     0.126 HD
HETATM   47  H3  UNL     1      -1.935   6.508  16.180  1.00  0.00     0.126 HD
HETATM   48  H4  UNL     1      -3.599   6.662  16.231  1.00  0.00     0.126 HD
ATOM     49  H3  UNL     1      -0.720   8.118  15.690  1.00  0.00     0.165 HD
ENDBRANCH   1  41
BRANCH   1  50
HETATM   50  C3  UNL     1      -0.809  10.297  14.125  1.00  0.00     0.074 C 
BRANCH  50  51
HETATM   51  C4  UNL     1      -0.884   8.984  13.294  1.00  0.00     0.018 C 
BRANCH  51  52
HETATM   52  C5  UNL     1       0.422   8.827  12.484  1.00  0.00     0.169 C 
BRANCH  52  53
HETATM   53  O1  UNL     1       1.463   9.668  12.969  1.00  0.00    -0.400 OA
HETATM   54  H10 UNL     1       1.731   9.335  13.843  1.00  0.00     0.209 HD
ENDBRANCH  52  53
ENDBRANCH  51  52
BRANCH  51  55
HETATM   55  C6  UNL     1      -2.119   8.945  12.367  1.00  0.00     0.045 C 
BRANCH  55  56
HETATM   56  C7  UNL     1      -3.186   7.976  12.826  1.00  0.00    -0.058 A 
HETATM   57  C8  UNL     1      -2.893   6.614  12.975  1.00  0.00     0.007 A 
HETATM   58  C9  UNL     1      -3.881   5.719  13.386  1.00  0.00     0.001 A 
HETATM   59  C10 UNL     1      -5.170   6.175  13.652  1.00  0.00     0.000 A 
HETATM   60  C11 UNL     1      -5.471   7.528  13.509  1.00  0.00     0.001 A 
HETATM   61  C12 UNL     1      -4.485   8.426  13.097  1.00  0.00     0.007 A 
ENDBRANCH  55  56
ENDBRANCH  51  55
ENDBRANCH  50  51
ENDBRANCH   1  50
BRANCH  11  62
HETATM   62  S1  UNL     1       2.245  16.126  17.838  1.00  0.00     0.106 S 
HETATM   63  O3  UNL     1       1.546  16.113  16.552  1.00  0.00    -0.595 OA
HETATM   64  O4  UNL     1       3.669  15.812  17.765  1.00  0.00    -0.595 OA
HETATM   65  O5  UNL     1       1.925  17.296  18.652  1.00  0.00    -0.595 OA
ENDBRANCH  11  62
BRANCH  20  66
HETATM   66  C31 UNL     1       8.995  12.231  23.091  1.00  0.00     0.169 C 
BRANCH  66  67
HETATM   67  O6  UNL     1       9.397  11.657  21.855  1.00  0.00    -0.400 OA
HETATM   68  H40 UNL     1      10.207  11.149  22.026  1.00  0.00     0.209 HD
ENDBRANCH  66  67
ENDBRANCH  20  66
BRANCH  26  69
HETATM   69  O7  UNL     1       3.202  19.217  25.176  1.00  0.00    -0.361 OA
HETATM   70  H44 UNL     1       3.950  19.728  24.819  1.00  0.00     0.217 HD
ENDBRANCH  26  69
TORSDOF 11
ENDMDL
MODEL 2
REMARK minimizedAffinity -9.34063625
REMARK CNNscore 0.182783201
REMARK CNNaffinity 6.8465066
REMARK  11 active torsions:
REMARK  status: ('A' for Active; 'I' for Inactive)
REMARK       I    between atoms: N1_1  and  C1_2 
REMARK       I    between atoms: C1_2  and  N2_3 
REMARK    1  A    between atoms: N3_4  and  C2_6 
REMARK    2  A    between atoms: C2_6  and  C3_7 
REMARK    3  A    between atoms: C3_7  and  C4_8 
REMARK    4  A    between atoms: C4_8  and  C5_9 
REMARK    5  A    between atoms: C4_8  and  C6_11 
REMARK    6  A    between atoms: C5_9  and  O1_10 
REMARK    7  A    between atoms: C6_11  and  C7_12 
REMARK    8  A    between atoms: C21_27  and  S1_28 
REMARK    9  A    between atoms: C30_40  and  C31_41 
REMARK   10  A    between atoms: C31_41  and  O6_42 
REMARK   11  A    between atoms: C37_48  and  O7_49 
ROOT
HETATM    1  C2  UNL     1      -0.666   9.218  14.730  1.00  0.00     0.171 C 
HETATM    2  O2  UNL     1      -2.021   9.492  15.237  1.00  0.00    -0.316 OA
HETATM    3  C13 UNL     1      -2.155  10.491  16.160  1.00  0.00     0.072 C 
HETATM    4  C14 UNL     1      -2.131  11.828  15.782  1.00  0.00     0.037 C 
HETATM    5  C15 UNL     1      -2.049  12.809  16.767  1.00  0.00     0.010 C 
HETATM    6  C16 UNL     1      -2.000  12.457  18.123  1.00  0.00    -0.058 C 
HETATM    7  C17 UNL     1      -2.168  11.115  18.487  1.00  0.00     0.010 C 
HETATM    8  C18 UNL     1      -2.272  10.134  17.504  1.00  0.00     0.037 C 
HETATM    9  C19 UNL     1      -1.668  13.497  19.166  1.00  0.00     0.040 C 
HETATM   10  C20 UNL     1      -0.186  13.482  19.596  1.00  0.00     0.028 C 
HETATM   11  C21 UNL     1       0.874  13.762  18.502  1.00  0.00     0.140 C 
HETATM   12  C22 UNL     1       2.344  13.409  18.936  1.00  0.00     0.053 C 
HETATM   13  C23 UNL     1       2.620  13.658  20.411  1.00  0.00    -0.013 C 
HETATM   14  C24 UNL     1       3.006  12.673  21.242  1.00  0.00    -0.050 C 
HETATM   15  C25 UNL     1       2.916  11.255  20.792  1.00  0.00     0.043 C 
HETATM   16  C26 UNL     1       3.720  11.189  19.514  1.00  0.00     0.016 C 
HETATM   17  C27 UNL     1       5.221  11.513  19.791  1.00  0.00     0.039 C 
HETATM   18  C28 UNL     1       5.653  12.762  20.629  1.00  0.00     0.123 C 
HETATM   19  C29 UNL     1       7.208  12.807  20.526  1.00  0.00     0.039 C 
HETATM   20  C30 UNL     1       7.971  13.872  21.349  1.00  0.00     0.023 C 
HETATM   21  C32 UNL     1       7.542  15.314  21.008  1.00  0.00     0.101 C 
HETATM   22  C33 UNL     1       6.323  15.628  21.752  1.00  0.00    -0.101 C 
HETATM   23  C34 UNL     1       5.323  15.610  22.412  1.00  0.00    -0.066 C 
HETATM   24  C35 UNL     1       4.186  15.369  23.234  1.00  0.00     0.029 A 
HETATM   25  C36 UNL     1       3.720  16.435  24.019  1.00  0.00     0.057 A 
HETATM   26  C37 UNL     1       2.627  16.255  24.858  1.00  0.00     0.067 A 
HETATM   27  C38 UNL     1       1.993  15.027  24.935  1.00  0.00     0.037 A 
HETATM   28  C39 UNL     1       2.451  13.968  24.151  1.00  0.00     0.014 A 
HETATM   29  C40 UNL     1       3.560  14.111  23.282  1.00  0.00    -0.006 A 
HETATM   30  C41 UNL     1       3.918  12.894  22.418  1.00  0.00     0.185 C 
HETATM   31  O8  UNL     1       5.305  12.690  22.032  1.00  0.00    -0.371 OA
HETATM   32  C42 UNL     1       3.028  12.063  18.398  1.00  0.00     0.104 A 
HETATM   33  C43 UNL     1       2.180  11.233  17.426  1.00  0.00     0.082 A 
HETATM   34  C44 UNL     1       1.992  11.708  16.118  1.00  0.00     0.010 A 
HETATM   35  C45 UNL     1       1.133  11.056  15.222  1.00  0.00     0.011 A 
HETATM   36  C46 UNL     1       0.459   9.881  15.588  1.00  0.00    -0.003 A 
HETATM   37  C47 UNL     1       0.744   9.348  16.858  1.00  0.00     0.011 A 
HETATM   38  C48 UNL     1       1.559  10.029  17.771  1.00  0.00     0.010 A 
HETATM   39 NA1  UNL     1       1.196  11.594  17.615  1.00  0.00    -0.398 Na
ATOM     40  HA1 UNL     1       0.184  11.655  17.500  1.00  0.00     0.155 HD
ENDROOT
BRANCH   1  41
HETATM   41  N3  UNL     1      -0.305   7.778  14.633  1.00  0.00    -0.336 N 
HETATM   42  C1  UNL     1      -0.944   6.871  15.259  1.00  0.00     0.124 C 
HETATM   43  N1  UNL     1      -2.035   6.940  16.049  1.00  0.00    -0.279 NA
HETATM   44  N2  UNL     1      -0.549   5.582  15.155  1.00  0.00    -0.279 NA
HETATM   45  H1  UNL     1      -2.280   7.905  16.276  1.00  0.00     0.126 HD
HETATM   46  H2  UNL     1      -1.925   6.400  16.900  1.00  0.00     0.126 HD
HETATM   47  H3  UNL     1       0.139   5.494  14.413  1.00  0.00     0.126 HD
HETATM   48  H4  UNL     1      -1.330   4.959  15.003  1.00  0.00     0.126 HD
ATOM     49  H3  UNL     1       0.482   7.508  14.044  1.00  0.00     0.165 HD
ENDBRANCH   1  41
BRANCH   1  50
HETATM   50  C3  UNL     1      -0.626   9.733  13.248  1.00  0.00     0.074 C 
BRANCH  50  51
HETATM   51  C4  UNL     1      -1.413   8.919  12.180  1.00  0.00     0.018 C 
BRANCH  51  52
HETATM   52  C5  UNL     1      -2.881   8.777  12.637  1.00  0.00     0.169 C 
BRANCH  52  53
HETATM   53  O1  UNL     1      -3.189   7.455  13.061  1.00  0.00    -0.400 OA
HETATM   54  H10 UNL     1      -2.708   7.288  13.890  1.00  0.00     0.209 HD
ENDBRANCH  52  53
ENDBRANCH  51  52
BRANCH  51  55
HETATM   55  C6  UNL     1      -0.779   7.536  11.913  1.00  0.00     0.045 C 
BRANCH  55  56
HETATM   56  C7  UNL     1       0.095   7.503  10.678  1.00  0.00    -0.058 A 
HETATM   57  C8  UNL     1      -0.087   8.441   9.653  1.00  0.00     0.007 A 
HETATM   58  C9  UNL     1       0.711   8.401   8.509  1.00  0.00     0.001 A 
HETATM   59  C10 UNL     1       1.697   7.426   8.379  1.00  0.00     0.000 A 
HETATM   60  C11 UNL     1       1.888   6.490   9.394  1.00  0.00     0.001 A 
HETATM   61  C12 UNL     1       1.091   6.527  10.539  1.00  0.00     0.007 A 
ENDBRANCH  55  56
ENDBRANCH  51  55
ENDBRANCH  50  51
ENDBRANCH   1  50
BRANCH  11  62
HETATM   62  S1  UNL     1       0.834  15.490  17.919  1.00  0.00     0.106 S 
HETATM   63  O3  UNL     1      -0.069  15.440  16.769  1.00  0.00    -0.595 OA
HETATM   64  O4  UNL     1       2.226  15.792  17.593  1.00  0.00    -0.595 OA
HETATM   65  O5  UNL     1       0.296  16.260  19.037  1.00  0.00    -0.595 OA
ENDBRANCH  11  62
BRANCH  20  66
HETATM   66  C31 UNL     1       9.485  13.711  21.134  1.00  0.00     0.169 C 
BRANCH  66  67
HETATM   67  O6  UNL     1      10.174  14.917  21.428  1.00  0.00    -0.400 OA
HETATM   68  H40 UNL     1      11.111  14.772  21.212  1.00  0.00     0.209 HD
ENDBRANCH  66  67
ENDBRANCH  20  66
BRANCH  26  69
HETATM   69  O7  UNL     1       2.148  17.273  25.627  1.00  0.00    -0.361 OA
HETATM   70  H44 UNL     1       2.567  18.098  25.322  1.00  0.00     0.217 HD
ENDBRANCH  26  69
TORSDOF 11
ENDMDL
MODEL 3
REMARK minimizedAffinity -8.05013371
REMARK CNNscore 0.146713629
REMARK CNNaffinity 6.56116295
REMARK  11 active torsions:
REMARK  status: ('A' for Active; 'I' for Inactive)
REMARK       I    between atoms: N1_1  and  C1_2 
REMARK       I    between atoms: C1_2  and  N2_3 
REMARK    1  A    between atoms: N3_4  and  C2_6 
REMARK    2  A    between atoms: C2_6  and  C3_7 
REMARK    3  A    between atoms: C3_7  and  C4_8 
REMARK    4  A    between atoms: C4_8  and  C5_9 
REMARK    5  A    between atoms: C4_8  and  C6_11 
REMARK    6  A    between atoms: C5_9  and  O1_10 
REMARK    7  A    between atoms: C6_11  and  C7_12 
REMARK    8  A    between atoms: C21_27  and  S1_28 
REMARK    9  A    between atoms: C30_40  and  C31_41 
REMARK   10  A    between atoms: C31_41  and  O6_42 
REMARK   11  A    between atoms: C37_48  and  O7_49 
ROOT
HETATM    1  C2  UNL     1     -15.328  -4.162  14.291  1.00  0.00     0.171 C 
HETATM    2  O2  UNL     1     -16.619  -4.723  14.720  1.00  0.00    -0.316 OA
HETATM    3  C13 UNL     1     -17.715  -3.912  14.637  1.00  0.00     0.072 C 
HETATM    4  C14 UNL     1     -18.337  -3.665  13.419  1.00  0.00     0.037 C 
HETATM    5  C15 UNL     1     -19.306  -2.667  13.343  1.00  0.00     0.010 C 
HETATM    6  C16 UNL     1     -19.657  -1.925  14.480  1.00  0.00    -0.058 C 
HETATM    7  C17 UNL     1     -19.122  -2.285  15.723  1.00  0.00     0.010 C 
HETATM    8  C18 UNL     1     -18.169  -3.298  15.805  1.00  0.00     0.037 C 
HETATM    9  C19 UNL     1     -20.520  -0.693  14.345  1.00  0.00     0.040 C 
HETATM   10  C20 UNL     1     -19.712   0.621  14.319  1.00  0.00     0.028 C 
HETATM   11  C21 UNL     1     -18.692   0.804  13.166  1.00  0.00     0.140 C 
HETATM   12  C22 UNL     1     -17.689   1.996  13.389  1.00  0.00     0.053 C 
HETATM   13  C23 UNL     1     -18.304   3.180  14.122  1.00  0.00    -0.013 C 
HETATM   14  C24 UNL     1     -17.819   3.623  15.296  1.00  0.00    -0.050 C 
HETATM   15  C25 UNL     1     -16.828   2.796  16.041  1.00  0.00     0.043 C 
HETATM   16  C26 UNL     1     -15.690   2.566  15.073  1.00  0.00     0.016 C 
HETATM   17  C27 UNL     1     -15.006   3.917  14.697  1.00  0.00     0.039 C 
HETATM   18  C28 UNL     1     -15.837   5.167  14.255  1.00  0.00     0.123 C 
HETATM   19  C29 UNL     1     -14.783   6.228  13.819  1.00  0.00     0.039 C 
HETATM   20  C30 UNL     1     -15.276   7.642  13.428  1.00  0.00     0.023 C 
HETATM   21  C32 UNL     1     -16.280   7.624  12.257  1.00  0.00     0.101 C 
HETATM   22  C33 UNL     1     -17.609   7.317  12.784  1.00  0.00    -0.101 C 
HETATM   23  C34 UNL     1     -18.555   7.001  13.449  1.00  0.00    -0.066 C 
HETATM   24  C35 UNL     1     -19.530   6.610  14.410  1.00  0.00     0.029 A 
HETATM   25  C36 UNL     1     -20.827   7.124  14.259  1.00  0.00     0.057 A 
HETATM   26  C37 UNL     1     -21.816   6.795  15.178  1.00  0.00     0.067 A 
HETATM   27  C38 UNL     1     -21.535   5.967  16.250  1.00  0.00     0.037 A 
HETATM   28  C39 UNL     1     -20.247   5.451  16.398  1.00  0.00     0.014 A 
HETATM   29  C40 UNL     1     -19.211   5.760  15.483  1.00  0.00    -0.006 A 
HETATM   30  C41 UNL     1     -17.861   5.068  15.714  1.00  0.00     0.185 C 
HETATM   31  O8  UNL     1     -16.643   5.751  15.307  1.00  0.00    -0.371 OA
HETATM   32  C42 UNL     1     -16.188   1.692  13.857  1.00  0.00     0.104 A 
HETATM   33  C43 UNL     1     -15.827   0.208  13.998  1.00  0.00     0.082 A 
HETATM   34  C44 UNL     1     -15.663  -0.561  12.835  1.00  0.00     0.010 A 
HETATM   35  C45 UNL     1     -15.450  -1.945  12.901  1.00  0.00     0.011 A 
HETATM   36  C46 UNL     1     -15.353  -2.607  14.135  1.00  0.00    -0.003 A 
HETATM   37  C47 UNL     1     -15.401  -1.811  15.294  1.00  0.00     0.011 A 
HETATM   38  C48 UNL     1     -15.668  -0.439  15.228  1.00  0.00     0.010 A 
HETATM   39 NA1  UNL     1     -16.783  -0.254  14.076  1.00  0.00    -0.398 Na
ATOM     40  HA1 UNL     1     -17.445  -1.024  14.175  1.00  0.00     0.155 HD
ENDROOT
BRANCH   1  41
HETATM   41  N3  UNL     1     -14.178  -4.459  15.186  1.00  0.00    -0.336 N 
HETATM   42  C1  UNL     1     -12.976  -4.185  14.868  1.00  0.00     0.124 C 
HETATM   43  N1  UNL     1     -12.466  -3.567  13.782  1.00  0.00    -0.279 NA
HETATM   44  N2  UNL     1     -11.970  -4.508  15.712  1.00  0.00    -0.279 NA
HETATM   45  H1  UNL     1     -13.168  -3.438  13.053  1.00  0.00     0.126 HD
HETATM   46  H2  UNL     1     -11.661  -4.058  13.408  1.00  0.00     0.126 HD
HETATM   47  H3  UNL     1     -12.353  -4.788  16.610  1.00  0.00     0.126 HD
HETATM   48  H4  UNL     1     -11.309  -3.751  15.818  1.00  0.00     0.126 HD
ATOM     49  H3  UNL     1     -14.360  -4.899  16.088  1.00  0.00     0.165 HD
ENDBRANCH   1  41
BRANCH   1  50
HETATM   50  C3  UNL     1     -14.960  -4.861  12.934  1.00  0.00     0.074 C 
BRANCH  50  51
HETATM   51  C4  UNL     1     -15.433  -4.178  11.619  1.00  0.00     0.018 C 
BRANCH  51  52
HETATM   52  C5  UNL     1     -16.517  -5.056  10.958  1.00  0.00     0.169 C 
BRANCH  52  53
HETATM   53  O1  UNL     1     -16.840  -6.198  11.743  1.00  0.00    -0.400 OA
HETATM   54  H10 UNL     1     -17.299  -5.889  12.543  1.00  0.00     0.209 HD
ENDBRANCH  52  53
ENDBRANCH  51  52
BRANCH  51  55
HETATM   55  C6  UNL     1     -14.266  -3.909  10.645  1.00  0.00     0.045 C 
BRANCH  55  56
HETATM   56  C7  UNL     1     -14.416  -4.614   9.314  1.00  0.00    -0.058 A 
HETATM   57  C8  UNL     1     -14.090  -5.970   9.188  1.00  0.00     0.007 A 
HETATM   58  C9  UNL     1     -14.217  -6.617   7.958  1.00  0.00     0.001 A 
HETATM   59  C10 UNL     1     -14.671  -5.915   6.844  1.00  0.00     0.000 A 
HETATM   60  C11 UNL     1     -15.000  -4.565   6.959  1.00  0.00     0.001 A 
HETATM   61  C12 UNL     1     -14.873  -3.916   8.188  1.00  0.00     0.007 A 
ENDBRANCH  55  56
ENDBRANCH  51  55
ENDBRANCH  50  51
ENDBRANCH   1  50
BRANCH  11  62
HETATM   62  S1  UNL     1     -19.502   1.015  11.546  1.00  0.00     0.106 S 
HETATM   63  O3  UNL     1     -18.710   0.165  10.657  1.00  0.00    -0.595 OA
HETATM   64  O4  UNL     1     -19.399   2.447  11.276  1.00  0.00    -0.595 OA
HETATM   65  O5  UNL     1     -20.868   0.533  11.734  1.00  0.00    -0.595 OA
ENDBRANCH  11  62
BRANCH  20  66
HETATM   66  C31 UNL     1     -14.075   8.534  13.075  1.00  0.00     0.169 C 
BRANCH  66  67
HETATM   67  O6  UNL     1     -14.379   9.392  11.985  1.00  0.00    -0.400 OA
HETATM   68  H40 UNL     1     -13.566   9.880  11.769  1.00  0.00     0.209 HD
ENDBRANCH  66  67
ENDBRANCH  20  66
BRANCH  26  69
HETATM   69  O7  UNL     1     -23.087   7.273  15.054  1.00  0.00    -0.361 OA
HETATM   70  H44 UNL     1     -23.169   7.670  14.168  1.00  0.00     0.217 HD
ENDBRANCH  26  69
TORSDOF 11
ENDMDL
MODEL 4
REMARK minimizedAffinity -7.65839148
REMARK CNNscore 0.123790324
REMARK CNNaffinity 5.75298309
REMARK  11 active torsions:
REMARK  status: ('A' for Active; 'I' for Inactive)
REMARK       I    between atoms: N1_1  and  C1_2 
REMARK       I    between atoms: C1_2  and  N2_3 
REMARK    1  A    between atoms: N3_4  and  C2_6 
REMARK    2  A    between atoms: C2_6  and  C3_7 
REMARK    3  A    between atoms: C3_7  and  C4_8 
REMARK    4  A    between atoms: C4_8  and  C5_9 
REMARK    5  A    between atoms: C4_8  and  C6_11 
REMARK    6  A    between atoms: C5_9  and  O1_10 
REMARK    7  A    between atoms: C6_11  and  C7_12 
REMARK    8  A    between atoms: C21_27  and  S1_28 
REMARK    9  A    between atoms: C30_40  and  C31_41 
REMARK   10  A    between atoms: C31_41  and  O6_42 
REMARK   11  A    between atoms: C37_48  and  O7_49 
ROOT
HETATM    1  C2  UNL     1      -2.495  15.062  18.711  1.00  0.00     0.171 C 
HETATM    2  O2  UNL     1      -2.876  13.887  17.911  1.00  0.00    -0.316 OA
HETATM    3  C13 UNL     1      -1.964  12.874  17.807  1.00  0.00     0.072 C 
HETATM    4  C14 UNL     1      -1.762  11.978  18.850  1.00  0.00     0.037 C 
HETATM    5  C15 UNL     1      -0.678  11.106  18.793  1.00  0.00     0.010 C 
HETATM    6  C16 UNL     1       0.195  11.123  17.695  1.00  0.00    -0.058 C 
HETATM    7  C17 UNL     1      -0.108  11.933  16.594  1.00  0.00     0.010 C 
HETATM    8  C18 UNL     1      -1.204  12.791  16.640  1.00  0.00     0.037 C 
HETATM    9  C19 UNL     1       1.494  10.355  17.748  1.00  0.00     0.040 C 
HETATM   10  C20 UNL     1       2.708  11.230  18.124  1.00  0.00     0.028 C 
HETATM   11  C21 UNL     1       2.680  11.925  19.509  1.00  0.00     0.140 C 
HETATM   12  C22 UNL     1       3.774  13.043  19.681  1.00  0.00     0.053 C 
HETATM   13  C23 UNL     1       5.076  12.736  18.955  1.00  0.00    -0.013 C 
HETATM   14  C24 UNL     1       5.569  13.544  17.999  1.00  0.00    -0.050 C 
HETATM   15  C25 UNL     1       4.711  14.626  17.438  1.00  0.00     0.043 C 
HETATM   16  C26 UNL     1       4.276  15.450  18.628  1.00  0.00     0.016 C 
HETATM   17  C27 UNL     1       5.509  16.117  19.313  1.00  0.00     0.039 C 
HETATM   18  C28 UNL     1       6.796  15.302  19.672  1.00  0.00     0.123 C 
HETATM   19  C29 UNL     1       7.696  16.287  20.476  1.00  0.00     0.039 C 
HETATM   20  C30 UNL     1       9.114  15.822  20.887  1.00  0.00     0.023 C 
HETATM   21  C32 UNL     1       9.099  14.550  21.758  1.00  0.00     0.101 C 
HETATM   22  C33 UNL     1       8.982  13.384  20.884  1.00  0.00    -0.101 C 
HETATM   23  C34 UNL     1       8.828  12.622  19.972  1.00  0.00    -0.066 C 
HETATM   24  C35 UNL     1       8.629  11.904  18.759  1.00  0.00     0.029 A 
HETATM   25  C36 UNL     1       9.261  10.657  18.636  1.00  0.00     0.057 A 
HETATM   26  C37 UNL     1       9.122   9.919  17.468  1.00  0.00     0.067 A 
HETATM   27  C38 UNL     1       8.367  10.403  16.414  1.00  0.00     0.037 A 
HETATM   28  C39 UNL     1       7.733  11.640  16.536  1.00  0.00     0.014 A 
HETATM   29  C40 UNL     1       7.848  12.422  17.711  1.00  0.00    -0.006 A 
HETATM   30  C41 UNL     1       7.041  13.727  17.750  1.00  0.00     0.185 C 
HETATM   31  O8  UNL     1       7.553  14.846  18.524  1.00  0.00    -0.371 OA
HETATM   32  C42 UNL     1       3.355  14.585  19.573  1.00  0.00     0.104 A 
HETATM   33  C43 UNL     1       1.860  14.852  19.360  1.00  0.00     0.082 A 
HETATM   34  C44 UNL     1       0.978  14.645  20.433  1.00  0.00     0.010 A 
HETATM   35  C45 UNL     1      -0.410  14.758  20.267  1.00  0.00     0.011 A 
HETATM   36  C46 UNL     1      -0.966  15.120  19.030  1.00  0.00    -0.003 A 
HETATM   37  C47 UNL     1      -0.070  15.439  17.994  1.00  0.00     0.011 A 
HETATM   38  C48 UNL     1       1.312  15.274  18.145  1.00  0.00     0.010 A 
HETATM   39 NA1  UNL     1       1.510  13.915  18.994  1.00  0.00    -0.398 Na
ATOM     40  HA1 UNL     1       0.826  13.243  18.646  1.00  0.00     0.155 HD
ENDROOT
BRANCH   1  41
HETATM   41  N3  UNL     1      -2.831  16.378  18.105  1.00  0.00    -0.336 N 
HETATM   42  C1  UNL     1      -3.454  16.480  16.999  1.00  0.00     0.124 C 
HETATM   43  N1  UNL     1      -3.976  15.538  16.185  1.00  0.00    -0.279 NA
HETATM   44  N2  UNL     1      -3.705  17.704  16.483  1.00  0.00    -0.279 NA
HETATM   45  H1  UNL     1      -3.685  14.598  16.456  1.00  0.00     0.126 HD
HETATM   46  H2  UNL     1      -3.748  15.707  15.212  1.00  0.00     0.126 HD
HETATM   47  H3  UNL     1      -3.497  18.417  17.176  1.00  0.00     0.126 HD
HETATM   48  H4  UNL     1      -4.655  17.786  16.150  1.00  0.00     0.126 HD
ATOM     49  H3  UNL     1      -2.553  17.229  18.593  1.00  0.00     0.165 HD
ENDBRANCH   1  41
BRANCH   1  50
HETATM   50  C3  UNL     1      -3.347  15.007  20.029  1.00  0.00     0.074 C 
BRANCH  50  51
HETATM   51  C4  UNL     1      -4.878  14.767  19.887  1.00  0.00     0.018 C 
BRANCH  51  52
HETATM   52  C5  UNL     1      -5.631  15.814  20.736  1.00  0.00     0.169 C 
BRANCH  52  53
HETATM   53  O1  UNL     1      -4.809  16.380  21.750  1.00  0.00    -0.400 OA
HETATM   54  H10 UNL     1      -4.134  16.930  21.314  1.00  0.00     0.209 HD
ENDBRANCH  52  53
ENDBRANCH  51  52
BRANCH  51  55
HETATM   55  C6  UNL     1      -5.286  13.332  20.285  1.00  0.00     0.045 C 
BRANCH  55  56
HETATM   56  C7  UNL     1      -6.513  13.278  21.168  1.00  0.00    -0.058 A 
HETATM   57  C8  UNL     1      -6.384  13.154  22.558  1.00  0.00     0.007 A 
HETATM   58  C9  UNL     1      -7.517  13.090  23.370  1.00  0.00     0.001 A 
HETATM   59  C10 UNL     1      -8.788  13.150  22.802  1.00  0.00     0.000 A 
HETATM   60  C11 UNL     1      -8.927  13.276  21.421  1.00  0.00     0.001 A 
HETATM   61  C12 UNL     1      -7.796  13.338  20.606  1.00  0.00     0.007 A 
ENDBRANCH  55  56
ENDBRANCH  51  55
ENDBRANCH  50  51
ENDBRANCH   1  50
BRANCH  11  62
HETATM   62  S1  UNL     1       2.830  10.741  20.887  1.00  0.00     0.106 S 
HETATM   63  O3  UNL     1       4.010   9.952  20.529  1.00  0.00    -0.595 OA
HETATM   64  O4  UNL     1       1.570  10.002  20.866  1.00  0.00    -0.595 OA
HETATM   65  O5  UNL     1       3.030  11.561  22.078  1.00  0.00    -0.595 OA
ENDBRANCH  11  62
BRANCH  20  66
HETATM   66  C31 UNL     1       9.840  16.957  21.628  1.00  0.00     0.169 C 
BRANCH  66  67
HETATM   67  O6  UNL     1      11.238  16.914  21.385  1.00  0.00    -0.400 OA
HETATM   68  H40 UNL     1      11.645  17.610  21.928  1.00  0.00     0.209 HD
ENDBRANCH  66  67
ENDBRANCH  20  66
BRANCH  26  69
HETATM   69  O7  UNL     1       9.719   8.702  17.322  1.00  0.00    -0.361 OA
HETATM   70  H44 UNL     1      10.042   8.423  18.197  1.00  0.00     0.217 HD
ENDBRANCH  26  69
TORSDOF 11
ENDMDL
MODEL 5
REMARK minimizedAffinity -8.3105669
REMARK CNNscore 0.0995536596
REMARK CNNaffinity 6.30718565
REMARK  11 active torsions:
REMARK  status: ('A' for Active; 'I' for Inactive)
REMARK       I    between atoms: N1_1  and  C1_2 
REMARK       I    between atoms: C1_2  and  N2_3 
REMARK    1  A    between atoms: N3_4  and  C2_6 
REMARK    2  A    between atoms: C2_6  and  C3_7 
REMARK    3  A    between atoms: C3_7  and  C4_8 
REMARK    4  A    between atoms: C4_8  and  C5_9 
REMARK    5  A    between atoms: C4_8  and  C6_11 
REMARK    6  A    between atoms: C5_9  and  O1_10 
REMARK    7  A    between atoms: C6_11  and  C7_12 
REMARK    8  A    between atoms: C21_27  and  S1_28 
REMARK    9  A    between atoms: C30_40  and  C31_41 
REMARK   10  A    between atoms: C31_41  and  O6_42 
REMARK   11  A    between atoms: C37_48  and  O7_49 
ROOT
HETATM    1  C2  UNL     1      -9.155   7.025  14.663  1.00  0.00     0.171 C 
HETATM    2  O2  UNL     1     -10.324   6.439  13.987  1.00  0.00    -0.316 OA
HETATM    3  C13 UNL     1     -11.443   7.216  13.881  1.00  0.00     0.072 C 
HETATM    4  C14 UNL     1     -11.527   8.232  12.935  1.00  0.00     0.037 C 
HETATM    5  C15 UNL     1     -12.584   9.137  13.005  1.00  0.00     0.010 C 
HETATM    6  C16 UNL     1     -13.556   9.022  14.009  1.00  0.00    -0.058 C 
HETATM    7  C17 UNL     1     -13.531   7.912  14.861  1.00  0.00     0.010 C 
HETATM    8  C18 UNL     1     -12.487   6.994  14.780  1.00  0.00     0.037 C 
HETATM    9  C19 UNL     1     -14.553  10.135  14.229  1.00  0.00     0.040 C 
HETATM   10  C20 UNL     1     -14.162  11.090  15.376  1.00  0.00     0.028 C 
HETATM   11  C21 UNL     1     -12.829  11.866  15.230  1.00  0.00     0.140 C 
HETATM   12  C22 UNL     1     -12.344  12.552  16.560  1.00  0.00     0.053 C 
HETATM   13  C23 UNL     1     -13.483  13.057  17.434  1.00  0.00    -0.013 C 
HETATM   14  C24 UNL     1     -13.669  12.614  18.691  1.00  0.00    -0.050 C 
HETATM   15  C25 UNL     1     -12.920  11.417  19.166  1.00  0.00     0.043 C 
HETATM   16  C26 UNL     1     -11.460  11.747  18.953  1.00  0.00     0.016 C 
HETATM   17  C27 UNL     1     -11.038  12.962  19.835  1.00  0.00     0.039 C 
HETATM   18  C28 UNL     1     -11.881  14.280  19.882  1.00  0.00     0.123 C 
HETATM   19  C29 UNL     1     -11.038  15.277  20.733  1.00  0.00     0.039 C 
HETATM   20  C30 UNL     1     -11.650  16.657  21.073  1.00  0.00     0.023 C 
HETATM   21  C32 UNL     1     -12.021  17.474  19.818  1.00  0.00     0.101 C 
HETATM   22  C33 UNL     1     -13.326  17.026  19.337  1.00  0.00    -0.101 C 
HETATM   23  C34 UNL     1     -14.355  16.449  19.124  1.00  0.00    -0.066 C 
HETATM   24  C35 UNL     1     -15.517  15.630  19.046  1.00  0.00     0.029 A 
HETATM   25  C36 UNL     1     -16.709  16.238  18.624  1.00  0.00     0.057 A 
HETATM   26  C37 UNL     1     -17.880  15.495  18.548  1.00  0.00     0.067 A 
HETATM   27  C38 UNL     1     -17.888  14.155  18.892  1.00  0.00     0.037 A 
HETATM   28  C39 UNL     1     -16.703  13.546  19.306  1.00  0.00     0.014 A 
HETATM   29  C40 UNL     1     -15.487  14.268  19.396  1.00  0.00    -0.006 A 
HETATM   30  C41 UNL     1     -14.239  13.467  19.792  1.00  0.00     0.185 C 
HETATM   31  O8  UNL     1     -13.174  14.139  20.518  1.00  0.00    -0.371 OA
HETATM   32  C42 UNL     1     -11.161  11.886  17.410  1.00  0.00     0.104 A 
HETATM   33  C43 UNL     1     -10.541  10.621  16.803  1.00  0.00     0.082 A 
HETATM   34  C44 UNL     1      -9.714  10.748  15.676  1.00  0.00     0.010 A 
HETATM   35  C45 UNL     1      -9.216   9.621  15.007  1.00  0.00     0.011 A 
HETATM   36  C46 UNL     1      -9.494   8.323  15.465  1.00  0.00    -0.003 A 
HETATM   37  C47 UNL     1     -10.225   8.209  16.661  1.00  0.00     0.011 A 
HETATM   38  C48 UNL     1     -10.768   9.332  17.297  1.00  0.00     0.010 A 
HETATM   39 NA1  UNL     1     -11.293  10.303  16.119  1.00  0.00    -0.398 Na
ATOM     40  HA1 UNL     1     -11.722   9.708  15.410  1.00  0.00     0.155 HD
ENDROOT
BRANCH   1  41
HETATM   41  N3  UNL     1      -8.463   6.126  15.624  1.00  0.00    -0.336 N 
HETATM   42  C1  UNL     1      -7.351   6.431  16.164  1.00  0.00     0.124 C 
HETATM   43  N1  UNL     1      -6.599   7.549  16.076  1.00  0.00    -0.279 NA
HETATM   44  N2  UNL     1      -6.755   5.559  17.008  1.00  0.00    -0.279 NA
HETATM   45  H1  UNL     1      -6.932   8.173  15.340  1.00  0.00     0.126 HD
HETATM   46  H2  UNL     1      -5.617   7.338  15.936  1.00  0.00     0.126 HD
HETATM   47  H3  UNL     1      -7.400   4.809  17.237  1.00  0.00     0.126 HD
HETATM   48  H4  UNL     1      -6.414   6.014  17.843  1.00  0.00     0.126 HD
ATOM     49  H3  UNL     1      -8.895   5.233  15.859  1.00  0.00     0.165 HD
ENDBRANCH   1  41
BRANCH   1  50
HETATM   50  C3  UNL     1      -8.085   7.309  13.550  1.00  0.00     0.074 C 
BRANCH  50  51
HETATM   51  C4  UNL     1      -7.621   6.110  12.674  1.00  0.00     0.018 C 
BRANCH  51  52
HETATM   52  C5  UNL     1      -8.852   5.489  11.979  1.00  0.00     0.169 C 
BRANCH  52  53
HETATM   53  O1  UNL     1      -9.125   6.096  10.721  1.00  0.00    -0.400 OA
HETATM   54  H10 UNL     1      -8.408   5.849  10.110  1.00  0.00     0.209 HD
ENDBRANCH  52  53
ENDBRANCH  51  52
BRANCH  51  55
HETATM   55  C6  UNL     1      -6.852   5.049  13.492  1.00  0.00     0.045 C 
BRANCH  55  56
HETATM   56  C7  UNL     1      -6.598   3.768  12.729  1.00  0.00    -0.058 A 
HETATM   57  C8  UNL     1      -7.429   2.655  12.912  1.00  0.00     0.007 A 
HETATM   58  C9  UNL     1      -7.186   1.469  12.218  1.00  0.00     0.001 A 
HETATM   59  C10 UNL     1      -6.112   1.384  11.335  1.00  0.00     0.000 A 
HETATM   60  C11 UNL     1      -5.280   2.486  11.144  1.00  0.00     0.001 A 
HETATM   61  C12 UNL     1      -5.520   3.673  11.838  1.00  0.00     0.007 A 
ENDBRANCH  55  56
ENDBRANCH  51  55
ENDBRANCH  50  51
ENDBRANCH   1  50
BRANCH  11  62
HETATM   62  S1  UNL     1     -12.896  13.125  13.912  1.00  0.00     0.106 S 
HETATM   63  O3  UNL     1     -11.567  13.737  13.959  1.00  0.00    -0.595 OA
HETATM   64  O4  UNL     1     -13.991  14.006  14.311  1.00  0.00    -0.595 OA
HETATM   65  O5  UNL     1     -13.140  12.379  12.681  1.00  0.00    -0.595 OA
ENDBRANCH  11  62
BRANCH  20  66
HETATM   66  C31 UNL     1     -10.673  17.458  21.950  1.00  0.00     0.169 C 
BRANCH  66  67
HETATM   67  O6  UNL     1     -10.738  18.845  21.652  1.00  0.00    -0.400 OA
HETATM   68  H40 UNL     1     -10.057  19.286  22.188  1.00  0.00     0.209 HD
ENDBRANCH  66  67
ENDBRANCH  20  66
BRANCH  26  69
HETATM   69  O7  UNL     1     -19.051  16.057  18.135  1.00  0.00    -0.361 OA
HETATM   70  H44 UNL     1     -18.844  16.929  17.754  1.00  0.00     0.217 HD
ENDBRANCH  26  69
TORSDOF 11
ENDMDL
MODEL 6
REMARK minimizedAffinity -7.58206844
REMARK CNNscore 0.091328904
REMARK CNNaffinity 6.3781724
REMARK  11 active torsions:
REMARK  status: ('A' for Active; 'I' for Inactive)
REMARK       I    between atoms: N1_1  and  C1_2 
REMARK       I    between atoms: C1_2  and  N2_3 
REMARK    1  A    between atoms: N3_4  and  C2_6 
REMARK    2  A    between atoms: C2_6  and  C3_7 
REMARK    3  A    between atoms: C3_7  and  C4_8 
REMARK    4  A    between atoms: C4_8  and  C5_9 
REMARK    5  A    between atoms: C4_8  and  C6_11 
REMARK    6  A    between atoms: C5_9  and  O1_10 
REMARK    7  A    between atoms: C6_11  and  C7_12 
REMARK    8  A    between atoms: C21_27  and  S1_28 
REMARK    9  A    between atoms: C30_40  and  C31_41 
REMARK   10  A    between atoms: C31_41  and  O6_42 
REMARK   11  A    between atoms: C37_48  and  O7_49 
ROOT
HETATM    1  C2  UNL     1     -15.325   6.860  26.032  1.00  0.00     0.171 C 
HETATM    2  O2  UNL     1     -16.610   7.046  25.339  1.00  0.00    -0.316 OA
HETATM    3  C13 UNL     1     -16.594   7.737  24.160  1.00  0.00     0.072 C 
HETATM    4  C14 UNL     1     -16.155   7.143  22.984  1.00  0.00     0.037 C 
HETATM    5  C15 UNL     1     -15.946   7.939  21.860  1.00  0.00     0.010 C 
HETATM    6  C16 UNL     1     -16.181   9.320  21.909  1.00  0.00    -0.058 C 
HETATM    7  C17 UNL     1     -16.757   9.874  23.059  1.00  0.00     0.010 C 
HETATM    8  C18 UNL     1     -16.988   9.076  24.177  1.00  0.00     0.037 C 
HETATM    9  C19 UNL     1     -15.726  10.209  20.776  1.00  0.00     0.040 C 
HETATM   10  C20 UNL     1     -14.378  10.907  21.050  1.00  0.00     0.028 C 
HETATM   11  C21 UNL     1     -13.141  10.001  21.277  1.00  0.00     0.140 C 
HETATM   12  C22 UNL     1     -11.897  10.761  21.868  1.00  0.00     0.053 C 
HETATM   13  C23 UNL     1     -11.770  12.196  21.376  1.00  0.00    -0.013 C 
HETATM   14  C24 UNL     1     -11.784  13.244  22.219  1.00  0.00    -0.050 C 
HETATM   15  C25 UNL     1     -12.193  13.040  23.638  1.00  0.00     0.043 C 
HETATM   16  C26 UNL     1     -11.270  11.969  24.171  1.00  0.00     0.016 C 
HETATM   17  C27 UNL     1      -9.790  12.465  24.162  1.00  0.00     0.039 C 
HETATM   18  C28 UNL     1      -9.154  13.137  22.900  1.00  0.00     0.123 C 
HETATM   19  C29 UNL     1      -7.647  13.324  23.251  1.00  0.00     0.039 C 
HETATM   20  C30 UNL     1      -6.744  14.078  22.246  1.00  0.00     0.023 C 
HETATM   21  C32 UNL     1      -6.713  13.415  20.854  1.00  0.00     0.101 C 
HETATM   22  C33 UNL     1      -7.891  13.848  20.103  1.00  0.00    -0.101 C 
HETATM   23  C34 UNL     1      -8.939  14.300  19.738  1.00  0.00    -0.066 C 
HETATM   24  C35 UNL     1     -10.201  14.921  19.515  1.00  0.00     0.029 A 
HETATM   25  C36 UNL     1     -10.463  15.404  18.224  1.00  0.00     0.057 A 
HETATM   26  C37 UNL     1     -11.668  16.040  17.951  1.00  0.00     0.067 A 
HETATM   27  C38 UNL     1     -12.617  16.208  18.944  1.00  0.00     0.037 A 
HETATM   28  C39 UNL     1     -12.360  15.723  20.227  1.00  0.00     0.014 A 
HETATM   29  C40 UNL     1     -11.146  15.069  20.546  1.00  0.00    -0.006 A 
HETATM   30  C41 UNL     1     -11.017  14.515  21.971  1.00  0.00     0.185 C 
HETATM   31  O8  UNL     1      -9.699  14.440  22.579  1.00  0.00    -0.371 OA
HETATM   32  C42 UNL     1     -11.538  10.607  23.422  1.00  0.00     0.104 A 
HETATM   33  C43 UNL     1     -12.437   9.652  24.217  1.00  0.00     0.082 A 
HETATM   34  C44 UNL     1     -12.307   8.270  24.007  1.00  0.00     0.010 A 
HETATM   35  C45 UNL     1     -13.179   7.356  24.615  1.00  0.00     0.011 A 
HETATM   36  C46 UNL     1     -14.191   7.787  25.487  1.00  0.00    -0.003 A 
HETATM   37  C47 UNL     1     -14.239   9.161  25.782  1.00  0.00     0.011 A 
HETATM   38  C48 UNL     1     -13.404  10.078  25.133  1.00  0.00     0.010 A 
HETATM   39 NA1  UNL     1     -13.303   9.585  23.599  1.00  0.00    -0.398 Na
ATOM     40  HA1 UNL     1     -14.233   9.272  23.325  1.00  0.00     0.155 HD
ENDROOT
BRANCH   1  41
HETATM   41  N3  UNL     1     -15.360   7.087  27.502  1.00  0.00    -0.336 N 
HETATM   42  C1  UNL     1     -16.446   7.287  28.136  1.00  0.00     0.124 C 
HETATM   43  N1  UNL     1     -17.729   7.293  27.717  1.00  0.00    -0.279 NA
HETATM   44  N2  UNL     1     -16.410   7.517  29.468  1.00  0.00    -0.279 NA
HETATM   45  H1  UNL     1     -17.796   7.271  26.699  1.00  0.00     0.126 HD
HETATM   46  H2  UNL     1     -18.245   8.085  28.083  1.00  0.00     0.126 HD
HETATM   47  H3  UNL     1     -15.480   7.319  29.825  1.00  0.00     0.126 HD
HETATM   48  H4  UNL     1     -17.112   6.984  29.962  1.00  0.00     0.126 HD
ATOM     49  H3  UNL     1     -14.481   7.082  28.020  1.00  0.00     0.165 HD
ENDBRANCH   1  41
BRANCH   1  50
HETATM   50  C3  UNL     1     -14.943   5.346  25.877  1.00  0.00     0.074 C 
BRANCH  50  51
HETATM   51  C4  UNL     1     -15.313   4.642  24.540  1.00  0.00     0.018 C 
BRANCH  51  52
HETATM   52  C5  UNL     1     -16.354   3.538  24.824  1.00  0.00     0.169 C 
BRANCH  52  53
HETATM   53  O1  UNL     1     -17.518   3.671  24.016  1.00  0.00    -0.400 OA
HETATM   54  H10 UNL     1     -17.266   3.472  23.097  1.00  0.00     0.209 HD
ENDBRANCH  52  53
ENDBRANCH  51  52
BRANCH  51  55
HETATM   55  C6  UNL     1     -14.076   4.066  23.818  1.00  0.00     0.045 C 
BRANCH  55  56
HETATM   56  C7  UNL     1     -13.256   3.132  24.680  1.00  0.00    -0.058 A 
HETATM   57  C8  UNL     1     -13.515   3.021  26.053  1.00  0.00     0.007 A 
HETATM   58  C9  UNL     1     -12.750   2.169  26.850  1.00  0.00     0.001 A 
HETATM   59  C10 UNL     1     -11.720   1.420  26.284  1.00  0.00     0.000 A 
HETATM   60  C11 UNL     1     -11.456   1.521  24.919  1.00  0.00     0.001 A 
HETATM   61  C12 UNL     1     -12.219   2.373  24.120  1.00  0.00     0.007 A 
ENDBRANCH  55  56
ENDBRANCH  51  55
ENDBRANCH  50  51
ENDBRANCH   1  50
BRANCH  11  62
HETATM   62  S1  UNL     1     -12.629   9.129  19.760  1.00  0.00     0.106 S 
HETATM   63  O3  UNL     1     -13.083  10.017  18.688  1.00  0.00    -0.595 OA
HETATM   64  O4  UNL     1     -13.325   7.847  19.829  1.00  0.00    -0.595 OA
HETATM   65  O5  UNL     1     -11.175   9.032  19.846  1.00  0.00    -0.595 OA
ENDBRANCH  11  62
BRANCH  20  66
HETATM   66  C31 UNL     1      -5.316  14.185  22.807  1.00  0.00     0.169 C 
BRANCH  66  67
HETATM   67  O6  UNL     1      -4.633  15.301  22.255  1.00  0.00    -0.400 OA
HETATM   68  H40 UNL     1      -3.723  15.277  22.595  1.00  0.00     0.209 HD
ENDBRANCH  66  67
ENDBRANCH  20  66
BRANCH  26  69
HETATM   69  O7  UNL     1     -11.954  16.514  16.705  1.00  0.00    -0.361 OA
HETATM   70  H44 UNL     1     -11.288  16.154  16.091  1.00  0.00     0.217 HD
ENDBRANCH  26  69
TORSDOF 11
ENDMDL
MODEL 7
REMARK minimizedAffinity -8.00405884
REMARK CNNscore 0.0894934535
REMARK CNNaffinity 6.21338129
REMARK  11 active torsions:
REMARK  status: ('A' for Active; 'I' for Inactive)
REMARK       I    between atoms: N1_1  and  C1_2 
REMARK       I    between atoms: C1_2  and  N2_3 
REMARK    1  A    between atoms: N3_4  and  C2_6 
REMARK    2  A    between atoms: C2_6  and  C3_7 
REMARK    3  A    between atoms: C3_7  and  C4_8 
REMARK    4  A    between atoms: C4_8  and  C5_9 
REMARK    5  A    between atoms: C4_8  and  C6_11 
REMARK    6  A    between atoms: C5_9  and  O1_10 
REMARK    7  A    between atoms: C6_11  and  C7_12 
REMARK    8  A    between atoms: C21_27  and  S1_28 
REMARK    9  A    between atoms: C30_40  and  C31_41 
REMARK   10  A    between atoms: C31_41  and  O6_42 
REMARK   11  A    between atoms: C37_48  and  O7_49 
ROOT
HETATM    1  C2  UNL     1      -1.860  11.175  15.972  1.00  0.00     0.171 C 
HETATM    2  O2  UNL     1      -0.852  10.578  15.079  1.00  0.00    -0.316 OA
HETATM    3  C13 UNL     1       0.441  10.554  15.520  1.00  0.00     0.072 C 
HETATM    4  C14 UNL     1       0.863   9.622  16.460  1.00  0.00     0.037 C 
HETATM    5  C15 UNL     1       2.120   9.770  17.043  1.00  0.00     0.010 C 
HETATM    6  C16 UNL     1       2.953  10.838  16.681  1.00  0.00    -0.058 C 
HETATM    7  C17 UNL     1       2.567  11.681  15.632  1.00  0.00     0.010 C 
HETATM    8  C18 UNL     1       1.320  11.522  15.033  1.00  0.00     0.037 C 
HETATM    9  C19 UNL     1       4.199  11.133  17.482  1.00  0.00     0.040 C 
HETATM   10  C20 UNL     1       4.007  12.255  18.523  1.00  0.00     0.028 C 
HETATM   11  C21 UNL     1       2.950  12.021  19.632  1.00  0.00     0.140 C 
HETATM   12  C22 UNL     1       2.582  13.318  20.443  1.00  0.00     0.053 C 
HETATM   13  C23 UNL     1       3.753  14.273  20.629  1.00  0.00    -0.013 C 
HETATM   14  C24 UNL     1       3.725  15.536  20.169  1.00  0.00    -0.050 C 
HETATM   15  C25 UNL     1       2.646  15.952  19.228  1.00  0.00     0.043 C 
HETATM   16  C26 UNL     1       1.350  15.640  19.942  1.00  0.00     0.016 C 
HETATM   17  C27 UNL     1       1.217  16.497  21.239  1.00  0.00     0.039 C 
HETATM   18  C28 UNL     1       2.383  16.610  22.277  1.00  0.00     0.123 C 
HETATM   19  C29 UNL     1       1.789  17.406  23.477  1.00  0.00     0.039 C 
HETATM   20  C30 UNL     1       2.730  17.795  24.642  1.00  0.00     0.023 C 
HETATM   21  C32 UNL     1       3.395  16.574  25.309  1.00  0.00     0.101 C 
HETATM   22  C33 UNL     1       4.558  16.182  24.515  1.00  0.00    -0.101 C 
HETATM   23  C34 UNL     1       5.402  16.038  23.676  1.00  0.00    -0.066 C 
HETATM   24  C35 UNL     1       6.298  16.036  22.570  1.00  0.00     0.029 A 
HETATM   25  C36 UNL     1       7.636  15.700  22.824  1.00  0.00     0.057 A 
HETATM   26  C37 UNL     1       8.562  15.702  21.788  1.00  0.00     0.067 A 
HETATM   27  C38 UNL     1       8.180  16.038  20.501  1.00  0.00     0.037 A 
HETATM   28  C39 UNL     1       6.848  16.366  20.246  1.00  0.00     0.014 A 
HETATM   29  C40 UNL     1       5.873  16.375  21.273  1.00  0.00    -0.006 A 
HETATM   30  C41 UNL     1       4.430  16.679  20.849  1.00  0.00     0.185 C 
HETATM   31  O8  UNL     1       3.542  17.333  21.796  1.00  0.00    -0.371 OA
HETATM   32  C42 UNL     1       1.206  14.081  20.136  1.00  0.00     0.104 A 
HETATM   33  C43 UNL     1       0.307  13.426  19.081  1.00  0.00     0.082 A 
HETATM   34  C44 UNL     1      -0.375  12.244  19.414  1.00  0.00     0.010 A 
HETATM   35  C45 UNL     1      -1.116  11.537  18.457  1.00  0.00     0.011 A 
HETATM   36  C46 UNL     1      -1.235  12.005  17.139  1.00  0.00    -0.003 A 
HETATM   37  C47 UNL     1      -0.646  13.248  16.846  1.00  0.00     0.011 A 
HETATM   38  C48 UNL     1       0.138  13.926  17.786  1.00  0.00     0.010 A 
HETATM   39 NA1  UNL     1       0.989  12.793  18.560  1.00  0.00    -0.398 Na
ATOM     40  HA1 UNL     1       1.285  12.113  17.861  1.00  0.00     0.155 HD
ENDROOT
BRANCH   1  41
HETATM   41  N3  UNL     1      -2.836  12.081  15.309  1.00  0.00    -0.336 N 
HETATM   42  C1  UNL     1      -3.903  12.472  15.884  1.00  0.00     0.124 C 
HETATM   43  N1  UNL     1      -4.370  12.251  17.130  1.00  0.00    -0.279 NA
HETATM   44  N2  UNL     1      -4.766  13.272  15.218  1.00  0.00    -0.279 NA
HETATM   45  H1  UNL     1      -3.829  11.536  17.618  1.00  0.00     0.126 HD
HETATM   46  H2  UNL     1      -5.354  12.003  17.130  1.00  0.00     0.126 HD
HETATM   47  H3  UNL     1      -4.334  13.604  14.362  1.00  0.00     0.126 HD
HETATM   48  H4  UNL     1      -5.084  14.042  15.790  1.00  0.00     0.126 HD
ATOM     49  H3  UNL     1      -2.643  12.400  14.360  1.00  0.00     0.165 HD
ENDBRANCH   1  41
BRANCH   1  50
HETATM   50  C3  UNL     1      -2.733   9.992  16.522  1.00  0.00     0.074 C 
BRANCH  50  51
HETATM   51  C4  UNL     1      -3.181   8.896  15.512  1.00  0.00     0.018 C 
BRANCH  51  52
HETATM   52  C5  UNL     1      -4.719   8.771  15.556  1.00  0.00     0.169 C 
BRANCH  52  53
HETATM   53  O1  UNL     1      -5.371   9.973  15.162  1.00  0.00    -0.400 OA
HETATM   54  H10 UNL     1      -5.211  10.101  14.211  1.00  0.00     0.209 HD
ENDBRANCH  52  53
ENDBRANCH  51  52
BRANCH  51  55
HETATM   55  C6  UNL     1      -2.505   7.535  15.785  1.00  0.00     0.045 C 
BRANCH  55  56
HETATM   56  C7  UNL     1      -2.476   6.623  14.578  1.00  0.00    -0.058 A 
HETATM   57  C8  UNL     1      -3.364   5.543  14.482  1.00  0.00     0.007 A 
HETATM   58  C9  UNL     1      -3.328   4.695  13.374  1.00  0.00     0.001 A 
HETATM   59  C10 UNL     1      -2.407   4.918  12.353  1.00  0.00     0.000 A 
HETATM   60  C11 UNL     1      -1.520   5.991  12.439  1.00  0.00     0.001 A 
HETATM   61  C12 UNL     1      -1.554   6.840  13.546  1.00  0.00     0.007 A 
ENDBRANCH  55  56
ENDBRANCH  51  55
ENDBRANCH  50  51
ENDBRANCH   1  50
BRANCH  11  62
HETATM   62  S1  UNL     1       3.448  10.718  20.806  1.00  0.00     0.106 S 
HETATM   63  O3  UNL     1       4.908  10.701  20.695  1.00  0.00    -0.595 OA
HETATM   64  O4  UNL     1       2.782   9.516  20.314  1.00  0.00    -0.595 OA
HETATM   65  O5  UNL     1       2.979  11.177  22.111  1.00  0.00    -0.595 OA
ENDBRANCH  11  62
BRANCH  20  66
HETATM   66  C31 UNL     1       1.952  18.607  25.691  1.00  0.00     0.169 C 
BRANCH  66  67
HETATM   67  O6  UNL     1       1.725  17.840  26.865  1.00  0.00    -0.400 OA
HETATM   68  H40 UNL     1       1.177  18.380  27.459  1.00  0.00     0.209 HD
ENDBRANCH  66  67
ENDBRANCH  20  66
BRANCH  26  69
HETATM   69  O7  UNL     1       9.868  15.374  22.003  1.00  0.00    -0.361 OA
HETATM   70  H44 UNL     1       9.933  14.984  22.893  1.00  0.00     0.217 HD
ENDBRANCH  26  69
TORSDOF 11
ENDMDL
MODEL 8
REMARK minimizedAffinity -9.71691132
REMARK CNNscore 0.0877604112
REMARK CNNaffinity 6.20963669
REMARK  11 active torsions:
REMARK  status: ('A' for Active; 'I' for Inactive)
REMARK       I    between atoms: N1_1  and  C1_2 
REMARK       I    between atoms: C1_2  and  N2_3 
REMARK    1  A    between atoms: N3_4  and  C2_6 
REMARK    2  A    between atoms: C2_6  and  C3_7 
REMARK    3  A    between atoms: C3_7  and  C4_8 
REMARK    4  A    between atoms: C4_8  and  C5_9 
REMARK    5  A    between atoms: C4_8  and  C6_11 
REMARK    6  A    between atoms: C5_9  and  O1_10 
REMARK    7  A    between atoms: C6_11  and  C7_12 
REMARK    8  A    between atoms: C21_27  and  S1_28 
REMARK    9  A    between atoms: C30_40  and  C31_41 
REMARK   10  A    between atoms: C31_41  and  O6_42 
REMARK   11  A    between atoms: C37_48  and  O7_49 
ROOT
HETATM    1  C2  UNL     1      -2.082   6.343  13.219  1.00  0.00     0.171 C 
HETATM    2  O2  UNL     1      -1.520   6.450  11.863  1.00  0.00    -0.316 OA
HETATM    3  C13 UNL     1      -0.268   6.982  11.741  1.00  0.00     0.072 C 
HETATM    4  C14 UNL     1       0.864   6.235  12.047  1.00  0.00     0.037 C 
HETATM    5  C15 UNL     1       2.098   6.876  12.123  1.00  0.00     0.010 C 
HETATM    6  C16 UNL     1       2.203   8.255  11.888  1.00  0.00    -0.058 C 
HETATM    7  C17 UNL     1       1.077   8.959  11.444  1.00  0.00     0.010 C 
HETATM    8  C18 UNL     1      -0.155   8.315  11.346  1.00  0.00     0.037 C 
HETATM    9  C19 UNL     1       3.486   8.984  12.207  1.00  0.00     0.040 C 
HETATM   10  C20 UNL     1       3.460   9.699  13.574  1.00  0.00     0.028 C 
HETATM   11  C21 UNL     1       3.259   8.818  14.833  1.00  0.00     0.140 C 
HETATM   12  C22 UNL     1       2.916   9.636  16.133  1.00  0.00     0.053 C 
HETATM   13  C23 UNL     1       3.602  10.993  16.196  1.00  0.00    -0.013 C 
HETATM   14  C24 UNL     1       2.906  12.142  16.273  1.00  0.00    -0.050 C 
HETATM   15  C25 UNL     1       1.437  12.128  16.028  1.00  0.00     0.043 C 
HETATM   16  C26 UNL     1       0.876  11.126  17.012  1.00  0.00     0.016 C 
HETATM   17  C27 UNL     1       1.118  11.602  18.478  1.00  0.00     0.039 C 
HETATM   18  C28 UNL     1       2.520  12.098  18.964  1.00  0.00     0.123 C 
HETATM   19  C29 UNL     1       2.370  12.314  20.499  1.00  0.00     0.039 C 
HETATM   20  C30 UNL     1       3.560  12.922  21.279  1.00  0.00     0.023 C 
HETATM   21  C32 UNL     1       4.849  12.084  21.154  1.00  0.00     0.101 C 
HETATM   22  C33 UNL     1       5.511  12.427  19.897  1.00  0.00    -0.101 C 
HETATM   23  C34 UNL     1       5.811  12.838  18.811  1.00  0.00    -0.066 C 
HETATM   24  C35 UNL     1       5.968  13.437  17.530  1.00  0.00     0.029 A 
HETATM   25  C36 UNL     1       7.273  13.751  17.120  1.00  0.00     0.057 A 
HETATM   26  C37 UNL     1       7.488  14.358  15.889  1.00  0.00     0.067 A 
HETATM   27  C38 UNL     1       6.425  14.664  15.058  1.00  0.00     0.037 A 
HETATM   28  C39 UNL     1       5.127  14.346  15.461  1.00  0.00     0.014 A 
HETATM   29  C40 UNL     1       4.865  13.727  16.707  1.00  0.00    -0.006 A 
HETATM   30  C41 UNL     1       3.403  13.362  17.000  1.00  0.00     0.185 C 
HETATM   31  O8  UNL     1       2.944  13.353  18.379  1.00  0.00    -0.371 OA
HETATM   32  C42 UNL     1       1.407   9.681  16.667  1.00  0.00     0.104 A 
HETATM   33  C43 UNL     1       0.397   8.846  15.868  1.00  0.00     0.082 A 
HETATM   34  C44 UNL     1       0.438   7.447  15.981  1.00  0.00     0.010 A 
HETATM   35  C45 UNL     1      -0.378   6.629  15.188  1.00  0.00     0.011 A 
HETATM   36  C46 UNL     1      -1.295   7.180  14.279  1.00  0.00    -0.003 A 
HETATM   37  C47 UNL     1      -1.412   8.581  14.258  1.00  0.00     0.011 A 
HETATM   38  C48 UNL     1      -0.559   9.398  15.010  1.00  0.00     0.010 A 
HETATM   39 NA1  UNL     1       0.899   8.708  14.939  1.00  0.00    -0.398 Na
ATOM     40  HA1 UNL     1       1.023   8.371  13.984  1.00  0.00     0.155 HD
ENDROOT
BRANCH   1  41
HETATM   41  N3  UNL     1      -3.504   6.759  13.351  1.00  0.00    -0.336 N 
HETATM   42  C1  UNL     1      -4.142   6.670  14.449  1.00  0.00     0.124 C 
HETATM   43  N1  UNL     1      -3.743   6.275  15.676  1.00  0.00    -0.279 NA
HETATM   44  N2  UNL     1      -5.443   7.036  14.499  1.00  0.00    -0.279 NA
HETATM   45  H1  UNL     1      -2.815   5.851  15.657  1.00  0.00     0.126 HD
HETATM   46  H2  UNL     1      -4.406   5.640  16.107  1.00  0.00     0.126 HD
HETATM   47  H3  UNL     1      -5.696   7.518  13.642  1.00  0.00     0.126 HD
HETATM   48  H4  UNL     1      -5.644   7.604  15.310  1.00  0.00     0.126 HD
ATOM     49  H3  UNL     1      -3.985   7.129  12.531  1.00  0.00     0.165 HD
ENDBRANCH   1  41
BRANCH   1  50
HETATM   50  C3  UNL     1      -2.083   4.817  13.589  1.00  0.00     0.074 C 
BRANCH  50  51
HETATM   51  C4  UNL     1      -2.601   3.817  12.516  1.00  0.00     0.018 C 
BRANCH  51  52
HETATM   52  C5  UNL     1      -1.466   3.525  11.511  1.00  0.00     0.169 C 
BRANCH  52  53
HETATM   53  O1  UNL     1      -0.342   2.910  12.129  1.00  0.00    -0.400 OA
HETATM   54  H10 UNL     1      -0.604   2.011  12.396  1.00  0.00     0.209 HD
ENDBRANCH  52  53
ENDBRANCH  51  52
BRANCH  51  55
HETATM   55  C6  UNL     1      -3.864   4.334  11.793  1.00  0.00     0.045 C 
BRANCH  55  56
HETATM   56  C7  UNL     1      -5.091   3.483  12.039  1.00  0.00    -0.058 A 
HETATM   57  C8  UNL     1      -6.090   3.916  12.921  1.00  0.00     0.007 A 
HETATM   58  C9  UNL     1      -7.215   3.126  13.158  1.00  0.00     0.001 A 
HETATM   59  C10 UNL     1      -7.352   1.896  12.517  1.00  0.00     0.000 A 
HETATM   60  C11 UNL     1      -6.365   1.457  11.636  1.00  0.00     0.001 A 
HETATM   61  C12 UNL     1      -5.238   2.246  11.398  1.00  0.00     0.007 A 
ENDBRANCH  55  56
ENDBRANCH  51  55
ENDBRANCH  50  51
ENDBRANCH   1  50
BRANCH  11  62
HETATM   62  S1  UNL     1       4.698   7.751  15.174  1.00  0.00     0.106 S 
HETATM   63  O3  UNL     1       5.168   7.378  13.839  1.00  0.00    -0.595 OA
HETATM   64  O4  UNL     1       4.150   6.649  15.960  1.00  0.00    -0.595 OA
HETATM   65  O5  UNL     1       5.641   8.598  15.897  1.00  0.00    -0.595 OA
ENDBRANCH  11  62
BRANCH  20  66
HETATM   66  C31 UNL     1       3.183  13.087  22.760  1.00  0.00     0.169 C 
BRANCH  66  67
HETATM   67  O6  UNL     1       3.031  11.825  23.393  1.00  0.00    -0.400 OA
HETATM   68  H40 UNL     1       2.732  11.993  24.302  1.00  0.00     0.209 HD
ENDBRANCH  66  67
ENDBRANCH  20  66
BRANCH  26  69
HETATM   69  O7  UNL     1       8.745  14.669  15.461  1.00  0.00    -0.361 OA
HETATM   70  H44 UNL     1       9.378  14.226  16.054  1.00  0.00     0.217 HD
ENDBRANCH  26  69
TORSDOF 11
ENDMDL
MODEL 9
REMARK minimizedAffinity -7.71536303
REMARK CNNscore 0.0842884779
REMARK CNNaffinity 6.00126696
REMARK  11 active torsions:
REMARK  status: ('A' for Active; 'I' for Inactive)
REMARK       I    between atoms: N1_1  and  C1_2 
REMARK       I    between atoms: C1_2  and  N2_3 
REMARK    1  A    between atoms: N3_4  and  C2_6 
REMARK    2  A    between atoms: C2_6  and  C3_7 
REMARK    3  A    between atoms: C3_7  and  C4_8 
REMARK    4  A    between atoms: C4_8  and  C5_9 
REMARK    5  A    between atoms: C4_8  and  C6_11 
REMARK    6  A    between atoms: C5_9  and  O1_10 
REMARK    7  A    between atoms: C6_11  and  C7_12 
REMARK    8  A    between atoms: C21_27  and  S1_28 
REMARK    9  A    between atoms: C30_40  and  C31_41 
REMARK   10  A    between atoms: C31_41  and  O6_42 
REMARK   11  A    between atoms: C37_48  and  O7_49 
ROOT
HETATM    1  C2  UNL     1     -13.986  12.060  -2.575  1.00  0.00     0.171 C 
HETATM    2  O2  UNL     1     -15.405  11.945  -2.200  1.00  0.00    -0.316 OA
HETATM    3  C13 UNL     1     -15.852  12.739  -1.181  1.00  0.00     0.072 C 
HETATM    4  C14 UNL     1     -16.114  14.088  -1.383  1.00  0.00     0.037 C 
HETATM    5  C15 UNL     1     -16.352  14.904  -0.279  1.00  0.00     0.010 C 
HETATM    6  C16 UNL     1     -16.336  14.373   1.019  1.00  0.00    -0.058 C 
HETATM    7  C17 UNL     1     -16.211  12.988   1.188  1.00  0.00     0.010 C 
HETATM    8  C18 UNL     1     -15.994  12.167   0.084  1.00  0.00     0.037 C 
HETATM    9  C19 UNL     1     -16.351  15.293   2.216  1.00  0.00     0.040 C 
HETATM   10  C20 UNL     1     -14.951  15.545   2.812  1.00  0.00     0.028 C 
HETATM   11  C21 UNL     1     -13.898  16.216   1.893  1.00  0.00     0.140 C 
HETATM   12  C22 UNL     1     -12.428  16.139   2.449  1.00  0.00     0.053 C 
HETATM   13  C23 UNL     1     -12.347  16.219   3.967  1.00  0.00    -0.013 C 
HETATM   14  C24 UNL     1     -11.809  15.233   4.706  1.00  0.00    -0.050 C 
HETATM   15  C25 UNL     1     -11.521  13.915   4.074  1.00  0.00     0.043 C 
HETATM   16  C26 UNL     1     -10.618  14.222   2.901  1.00  0.00     0.016 C 
HETATM   17  C27 UNL     1      -9.267  14.828   3.392  1.00  0.00     0.039 C 
HETATM   18  C28 UNL     1      -9.217  16.003   4.425  1.00  0.00     0.123 C 
HETATM   19  C29 UNL     1      -7.715  16.409   4.512  1.00  0.00     0.039 C 
HETATM   20  C30 UNL     1      -7.300  17.483   5.547  1.00  0.00     0.023 C 
HETATM   21  C32 UNL     1      -8.029  18.826   5.342  1.00  0.00     0.101 C 
HETATM   22  C33 UNL     1      -9.346  18.745   5.971  1.00  0.00    -0.101 C 
HETATM   23  C34 UNL     1     -10.366  18.404   6.501  1.00  0.00    -0.066 C 
HETATM   24  C35 UNL     1     -11.478  17.795   7.147  1.00  0.00     0.029 A 
HETATM   25  C36 UNL     1     -12.250  18.599   8.000  1.00  0.00     0.057 A 
HETATM   26  C37 UNL     1     -13.335  18.056   8.675  1.00  0.00     0.067 A 
HETATM   27  C38 UNL     1     -13.664  16.721   8.522  1.00  0.00     0.037 A 
HETATM   28  C39 UNL     1     -12.902  15.920   7.670  1.00  0.00     0.014 A 
HETATM   29  C40 UNL     1     -11.788  16.436   6.963  1.00  0.00    -0.006 A 
HETATM   30  C41 UNL     1     -11.079  15.473   6.000  1.00  0.00     0.185 C 
HETATM   31  O8  UNL     1      -9.656  15.645   5.757  1.00  0.00    -0.371 OA
HETATM   32  C42 UNL     1     -11.401  15.077   1.831  1.00  0.00     0.104 A 
HETATM   33  C43 UNL     1     -11.941  14.233   0.669  1.00  0.00     0.082 A 
HETATM   34  C44 UNL     1     -12.125  14.845  -0.582  1.00  0.00     0.010 A 
HETATM   35  C45 UNL     1     -12.724  14.159  -1.647  1.00  0.00     0.011 A 
HETATM   36  C46 UNL     1     -13.128  12.821  -1.514  1.00  0.00    -0.003 A 
HETATM   37  C47 UNL     1     -12.834  12.182  -0.296  1.00  0.00     0.011 A 
HETATM   38  C48 UNL     1     -12.285  12.883   0.784  1.00  0.00     0.010 A 
HETATM   39 NA1  UNL     1     -12.996  14.333   0.785  1.00  0.00    -0.398 Na
ATOM     40  HA1 UNL     1     -13.979  14.183   0.561  1.00  0.00     0.155 HD
ENDROOT
BRANCH   1  41
HETATM   41  N3  UNL     1     -13.286  10.769  -2.810  1.00  0.00    -0.336 N 
HETATM   42  C1  UNL     1     -13.710   9.667  -2.332  1.00  0.00     0.124 C 
HETATM   43  N1  UNL     1     -14.814   9.379  -1.612  1.00  0.00    -0.279 NA
HETATM   44  N2  UNL     1     -13.013   8.530  -2.555  1.00  0.00    -0.279 NA
HETATM   45  H1  UNL     1     -15.292  10.223  -1.295  1.00  0.00     0.126 HD
HETATM   46  H2  UNL     1     -14.608   8.778  -0.822  1.00  0.00     0.126 HD
HETATM   47  H3  UNL     1     -12.297   8.698  -3.255  1.00  0.00     0.126 HD
HETATM   48  H4  UNL     1     -13.616   7.765  -2.826  1.00  0.00     0.126 HD
ATOM     49  H3  UNL     1     -12.436  10.767  -3.373  1.00  0.00     0.165 HD
ENDBRANCH   1  41
BRANCH   1  50
HETATM   50  C3  UNL     1     -13.944  12.788  -3.966  1.00  0.00     0.074 C 
BRANCH  50  51
HETATM   51  C4  UNL     1     -14.205  11.929  -5.237  1.00  0.00     0.018 C 
BRANCH  51  52
HETATM   52  C5  UNL     1     -15.551  11.190  -5.077  1.00  0.00     0.169 C 
BRANCH  52  53
HETATM   53  O1  UNL     1     -15.379   9.820  -4.735  1.00  0.00    -0.400 OA
HETATM   54  H10 UNL     1     -15.025   9.782  -3.829  1.00  0.00     0.209 HD
ENDBRANCH  52  53
ENDBRANCH  51  52
BRANCH  51  55
HETATM   55  C6  UNL     1     -13.057  10.934  -5.518  1.00  0.00     0.045 C 
BRANCH  55  56
HETATM   56  C7  UNL     1     -11.756  11.608  -5.896  1.00  0.00    -0.058 A 
HETATM   57  C8  UNL     1     -11.439  11.838  -7.241  1.00  0.00     0.007 A 
HETATM   58  C9  UNL     1     -10.233  12.447  -7.590  1.00  0.00     0.001 A 
HETATM   59  C10 UNL     1      -9.333  12.832  -6.598  1.00  0.00     0.000 A 
HETATM   60  C11 UNL     1      -9.639  12.609  -5.257  1.00  0.00     0.001 A 
HETATM   61  C12 UNL     1     -10.845  11.999  -4.906  1.00  0.00     0.007 A 
ENDBRANCH  55  56
ENDBRANCH  51  55
ENDBRANCH  50  51
ENDBRANCH   1  50
BRANCH  11  62
HETATM   62  S1  UNL     1     -14.298  17.958   1.533  1.00  0.00     0.106 S 
HETATM   63  O3  UNL     1     -12.984  18.577   1.351  1.00  0.00    -0.595 OA
HETATM   64  O4  UNL     1     -15.030  18.411   2.713  1.00  0.00    -0.595 OA
HETATM   65  O5  UNL     1     -15.090  17.925   0.307  1.00  0.00    -0.595 OA
ENDBRANCH  11  62
BRANCH  20  66
HETATM   66  C31 UNL     1      -5.778  17.698   5.492  1.00  0.00     0.169 C 
BRANCH  66  67
HETATM   67  O6  UNL     1      -5.235  17.197   4.280  1.00  0.00    -0.400 OA
HETATM   68  H40 UNL     1      -4.270  17.302   4.333  1.00  0.00     0.209 HD
ENDBRANCH  66  67
ENDBRANCH  20  66
BRANCH  26  69
HETATM   69  O7  UNL     1     -14.107  18.814   9.504  1.00  0.00    -0.361 OA
HETATM   70  H44 UNL     1     -13.872  19.748   9.357  1.00  0.00     0.217 HD
ENDBRANCH  26  69
TORSDOF 11
ENDMDL
