MODEL 1
REMARK minimizedAffinity -7.3740983
REMARK CNNscore 0.778657854
REMARK CNNaffinity 7.48581648
REMARK  4 active torsions:
REMARK  status: ('A' for Active; 'I' for Inactive)
REMARK    1  A    between atoms: C4_4  and  C5_5 
REMARK    2  A    between atoms: C5_5  and  C6_7 
REMARK    3  A    between atoms: C6_7  and  C7_8 
REMARK    4  A    between atoms: C7_8  and  C9_10 
ROOT
HETATM    1  C9  UNL     1       4.912  55.258  -8.803  1.00  0.00    -0.001 C 
HETATM    2  C10 UNL     1       4.194  56.495  -8.186  1.00  0.00     0.007 C 
HETATM    3  C11 UNL     1       2.691  56.361  -8.504  1.00  0.00     0.015 C 
HETATM    4  C12 UNL     1       2.611  55.238  -9.558  1.00  0.00    -0.013 C 
HETATM    5  C13 UNL     1       2.909  55.913 -10.937  1.00  0.00     0.021 C 
HETATM    6  C14 UNL     1       1.283  54.504  -9.726  1.00  0.00    -0.070 C 
HETATM    7  C15 UNL     1       0.097  55.123  -9.580  1.00  0.00    -0.022 C 
HETATM    8  C16 UNL     1      -1.235  54.485  -9.848  1.00  0.00     0.034 C 
HETATM    9  C17 UNL     1      -1.169  52.956 -10.056  1.00  0.00     0.013 C 
HETATM   10  C18 UNL     1      -2.534  52.267 -10.446  1.00  0.00     0.018 C 
HETATM   11  C19 UNL     1      -3.664  53.273 -10.757  1.00  0.00     0.023 C 
HETATM   12  C20 UNL     1      -3.018  51.389  -9.269  1.00  0.00     0.023 C 
HETATM   13  C21 UNL     1      -2.401  51.323 -11.650  1.00  0.00     0.135 C 
HETATM   14  O2  UNL     1      -3.312  51.179 -12.470  1.00  0.00    -0.297 OA
HETATM   15  C22 UNL     1      -1.163  50.468 -11.781  1.00  0.00     0.080 C 
HETATM   16  C23 UNL     1       0.061  51.024 -11.073  1.00  0.00     0.017 C 
HETATM   17  C24 UNL     1       0.069  52.565 -10.941  1.00  0.00    -0.031 C 
HETATM   18  C25 UNL     1       0.019  53.218 -12.344  1.00  0.00     0.016 C 
HETATM   19  C26 UNL     1       1.359  53.031 -10.154  1.00  0.00     0.024 C 
HETATM   20  C27 UNL     1       2.701  52.685 -10.844  1.00  0.00     0.010 C 
HETATM   21  C28 UNL     1       3.974  53.169 -10.105  1.00  0.00     0.011 C 
HETATM   22  C29 UNL     1       3.728  54.262  -9.042  1.00  0.00    -0.029 C 
HETATM   23  C30 UNL     1       3.385  53.580  -7.678  1.00  0.00     0.016 C 
ENDROOT
BRANCH   1  24
HETATM   24  C7  UNL     1       6.140  54.803  -7.965  1.00  0.00    -0.007 C 
HETATM   25  C8  UNL     1       7.081  53.869  -8.733  1.00  0.00     0.011 C 
BRANCH  24  26
HETATM   26  C6  UNL     1       6.932  55.986  -7.356  1.00  0.00     0.087 C 
BRANCH  26  27
HETATM   27  C5  UNL     1       7.286  55.878  -5.879  1.00  0.00     0.149 C 
HETATM   28  O1  UNL     1       6.530  55.411  -5.034  1.00  0.00    -0.293 OA
BRANCH  27  29
HETATM   29  C4  UNL     1       8.620  56.442  -5.498  1.00  0.00     0.052 C 
HETATM   30  C2  UNL     1       8.853  57.712  -5.115  1.00  0.00    -0.084 C 
HETATM   31  C1  UNL     1      10.255  58.172  -4.813  1.00  0.00     0.043 C 
HETATM   32  C3  UNL     1       7.799  58.774  -4.945  1.00  0.00     0.043 C 
ENDBRANCH  27  29
ENDBRANCH  26  27
ENDBRANCH  24  26
ENDBRANCH   1  24
TORSDOF 4
ENDMDL
MODEL 2
REMARK minimizedAffinity -7.75246859
REMARK CNNscore 0.430243075
REMARK CNNaffinity 6.31008101
REMARK  4 active torsions:
REMARK  status: ('A' for Active; 'I' for Inactive)
REMARK    1  A    between atoms: C4_4  and  C5_5 
REMARK    2  A    between atoms: C5_5  and  C6_7 
REMARK    3  A    between atoms: C6_7  and  C7_8 
REMARK    4  A    between atoms: C7_8  and  C9_10 
ROOT
HETATM    1  C9  UNL     1      -5.424  47.616 -29.822  1.00  0.00    -0.001 C 
HETATM    2  C10 UNL     1      -4.942  48.656 -30.875  1.00  0.00     0.007 C 
HETATM    3  C11 UNL     1      -5.699  48.367 -32.188  1.00  0.00     0.015 C 
HETATM    4  C12 UNL     1      -6.353  46.988 -31.968  1.00  0.00    -0.013 C 
HETATM    5  C13 UNL     1      -5.250  45.927 -32.294  1.00  0.00     0.021 C 
HETATM    6  C14 UNL     1      -7.559  46.620 -32.829  1.00  0.00    -0.070 C 
HETATM    7  C15 UNL     1      -7.677  47.020 -34.108  1.00  0.00    -0.022 C 
HETATM    8  C16 UNL     1      -8.778  46.592 -35.035  1.00  0.00     0.034 C 
HETATM    9  C17 UNL     1      -9.940  45.853 -34.334  1.00  0.00     0.013 C 
HETATM   10  C18 UNL     1     -11.062  45.296 -35.292  1.00  0.00     0.018 C 
HETATM   11  C19 UNL     1     -10.702  45.402 -36.790  1.00  0.00     0.023 C 
HETATM   12  C20 UNL     1     -12.364  46.103 -35.078  1.00  0.00     0.023 C 
HETATM   13  C21 UNL     1     -11.421  43.831 -34.997  1.00  0.00     0.135 C 
HETATM   14  O2  UNL     1     -11.748  43.048 -35.893  1.00  0.00    -0.297 OA
HETATM   15  C22 UNL     1     -11.475  43.360 -33.564  1.00  0.00     0.080 C 
HETATM   16  C23 UNL     1     -10.623  44.175 -32.604  1.00  0.00     0.017 C 
HETATM   17  C24 UNL     1      -9.394  44.843 -33.262  1.00  0.00    -0.031 C 
HETATM   18  C25 UNL     1      -8.474  43.764 -33.886  1.00  0.00     0.016 C 
HETATM   19  C26 UNL     1      -8.606  45.696 -32.188  1.00  0.00     0.024 C 
HETATM   20  C27 UNL     1      -8.028  44.879 -31.006  1.00  0.00     0.010 C 
HETATM   21  C28 UNL     1      -7.221  45.694 -29.966  1.00  0.00     0.011 C 
HETATM   22  C29 UNL     1      -6.754  47.084 -30.453  1.00  0.00    -0.029 C 
HETATM   23  C30 UNL     1      -7.880  48.129 -30.167  1.00  0.00     0.016 C 
ENDROOT
BRANCH   1  24
HETATM   24  C7  UNL     1      -5.438  48.193 -28.379  1.00  0.00    -0.007 C 
HETATM   25  C8  UNL     1      -6.479  47.527 -27.473  1.00  0.00     0.011 C 
BRANCH  24  26
HETATM   26  C6  UNL     1      -4.045  48.174 -27.703  1.00  0.00     0.087 C 
BRANCH  26  27
HETATM   27  C5  UNL     1      -3.314  49.506 -27.616  1.00  0.00     0.149 C 
HETATM   28  O1  UNL     1      -3.388  50.377 -28.476  1.00  0.00    -0.293 OA
BRANCH  27  29
HETATM   29  C4  UNL     1      -2.430  49.673 -26.418  1.00  0.00     0.052 C 
HETATM   30  C2  UNL     1      -2.553  50.632 -25.481  1.00  0.00    -0.084 C 
HETATM   31  C1  UNL     1      -1.561  50.728 -24.352  1.00  0.00     0.043 C 
HETATM   32  C3  UNL     1      -3.641  51.674 -25.443  1.00  0.00     0.043 C 
ENDBRANCH  27  29
ENDBRANCH  26  27
ENDBRANCH  24  26
ENDBRANCH   1  24
TORSDOF 4
ENDMDL
MODEL 3
REMARK minimizedAffinity -7.69116259
REMARK CNNscore 0.429834098
REMARK CNNaffinity 5.86554575
REMARK  4 active torsions:
REMARK  status: ('A' for Active; 'I' for Inactive)
REMARK    1  A    between atoms: C4_4  and  C5_5 
REMARK    2  A    between atoms: C5_5  and  C6_7 
REMARK    3  A    between atoms: C6_7  and  C7_8 
REMARK    4  A    between atoms: C7_8  and  C9_10 
ROOT
HETATM    1  C9  UNL     1     -13.310  46.515 -26.698  1.00  0.00    -0.001 C 
HETATM    2  C10 UNL     1     -14.104  46.006 -27.937  1.00  0.00     0.007 C 
HETATM    3  C11 UNL     1     -13.152  46.063 -29.149  1.00  0.00     0.015 C 
HETATM    4  C12 UNL     1     -11.947  46.893 -28.664  1.00  0.00    -0.013 C 
HETATM    5  C13 UNL     1     -12.357  48.393 -28.833  1.00  0.00     0.021 C 
HETATM    6  C14 UNL     1     -10.620  46.734 -29.401  1.00  0.00    -0.070 C 
HETATM    7  C15 UNL     1     -10.558  46.509 -30.727  1.00  0.00    -0.022 C 
HETATM    8  C16 UNL     1      -9.286  46.462 -31.523  1.00  0.00     0.034 C 
HETATM    9  C17 UNL     1      -8.005  46.425 -30.661  1.00  0.00     0.013 C 
HETATM   10  C18 UNL     1      -6.648  46.482 -31.463  1.00  0.00     0.018 C 
HETATM   11  C19 UNL     1      -6.835  46.776 -32.968  1.00  0.00     0.023 C 
HETATM   12  C20 UNL     1      -5.930  45.117 -31.352  1.00  0.00     0.023 C 
HETATM   13  C21 UNL     1      -5.668  47.522 -30.900  1.00  0.00     0.135 C 
HETATM   14  O2  UNL     1      -4.901  48.157 -31.629  1.00  0.00    -0.297 OA
HETATM   15  C22 UNL     1      -5.564  47.701 -29.404  1.00  0.00     0.080 C 
HETATM   16  C23 UNL     1      -6.809  47.290 -28.636  1.00  0.00     0.017 C 
HETATM   17  C24 UNL     1      -8.121  47.414 -29.446  1.00  0.00    -0.031 C 
HETATM   18  C25 UNL     1      -8.329  48.880 -29.898  1.00  0.00     0.016 C 
HETATM   19  C26 UNL     1      -9.342  46.922 -28.570  1.00  0.00     0.024 C 
HETATM   20  C27 UNL     1      -9.592  47.744 -27.282  1.00  0.00     0.010 C 
HETATM   21  C28 UNL     1     -10.808  47.299 -26.433  1.00  0.00     0.011 C 
HETATM   22  C29 UNL     1     -11.824  46.403 -27.177  1.00  0.00    -0.029 C 
HETATM   23  C30 UNL     1     -11.381  44.910 -27.043  1.00  0.00     0.016 C 
ENDROOT
BRANCH   1  24
HETATM   24  C7  UNL     1     -13.746  45.813 -25.382  1.00  0.00    -0.007 C 
HETATM   25  C8  UNL     1     -13.037  46.366 -24.140  1.00  0.00     0.011 C 
BRANCH  24  26
HETATM   26  C6  UNL     1     -15.280  45.815 -25.172  1.00  0.00     0.087 C 
BRANCH  26  27
HETATM   27  C5  UNL     1     -15.836  46.875 -24.231  1.00  0.00     0.149 C 
HETATM   28  O1  UNL     1     -15.546  48.064 -24.305  1.00  0.00    -0.293 OA
BRANCH  27  29
HETATM   29  C4  UNL     1     -16.732  46.362 -23.147  1.00  0.00     0.052 C 
HETATM   30  C2  UNL     1     -18.078  46.387 -23.165  1.00  0.00    -0.084 C 
HETATM   31  C1  UNL     1     -18.867  45.891 -21.982  1.00  0.00     0.043 C 
HETATM   32  C3  UNL     1     -18.921  46.886 -24.309  1.00  0.00     0.043 C 
ENDBRANCH  27  29
ENDBRANCH  26  27
ENDBRANCH  24  26
ENDBRANCH   1  24
TORSDOF 4
ENDMDL
MODEL 4
REMARK minimizedAffinity -7.17036963
REMARK CNNscore 0.428947538
REMARK CNNaffinity 6.16843271
REMARK  4 active torsions:
REMARK  status: ('A' for Active; 'I' for Inactive)
REMARK    1  A    between atoms: C4_4  and  C5_5 
REMARK    2  A    between atoms: C5_5  and  C6_7 
REMARK    3  A    between atoms: C6_7  and  C7_8 
REMARK    4  A    between atoms: C7_8  and  C9_10 
ROOT
HETATM    1  C9  UNL     1       1.889  55.575  -8.088  1.00  0.00    -0.001 C 
HETATM    2  C10 UNL     1       1.045  56.740  -7.493  1.00  0.00     0.007 C 
HETATM    3  C11 UNL     1       1.949  57.505  -6.505  1.00  0.00     0.015 C 
HETATM    4  C12 UNL     1       3.175  56.592  -6.306  1.00  0.00    -0.013 C 
HETATM    5  C13 UNL     1       2.764  55.543  -5.220  1.00  0.00     0.021 C 
HETATM    6  C14 UNL     1       4.471  57.227  -5.809  1.00  0.00    -0.070 C 
HETATM    7  C15 UNL     1       4.480  58.254  -4.939  1.00  0.00    -0.022 C 
HETATM    8  C16 UNL     1       5.719  58.840  -4.327  1.00  0.00     0.034 C 
HETATM    9  C17 UNL     1       7.033  58.348  -4.973  1.00  0.00     0.013 C 
HETATM   10  C18 UNL     1       8.357  58.860  -4.285  1.00  0.00     0.018 C 
HETATM   11  C19 UNL     1       8.112  59.600  -2.952  1.00  0.00     0.023 C 
HETATM   12  C20 UNL     1       9.074  59.852  -5.231  1.00  0.00     0.023 C 
HETATM   13  C21 UNL     1       9.363  57.730  -4.018  1.00  0.00     0.135 C 
HETATM   14  O2  UNL     1      10.103  57.737  -3.030  1.00  0.00    -0.297 OA
HETATM   15  C22 UNL     1       9.526  56.632  -5.042  1.00  0.00     0.080 C 
HETATM   16  C23 UNL     1       8.311  56.417  -5.928  1.00  0.00     0.017 C 
HETATM   17  C24 UNL     1       6.969  56.806  -5.266  1.00  0.00    -0.031 C 
HETATM   18  C25 UNL     1       6.749  55.972  -3.980  1.00  0.00     0.016 C 
HETATM   19  C26 UNL     1       5.781  56.584  -6.287  1.00  0.00     0.024 C 
HETATM   20  C27 UNL     1       5.586  55.118  -6.746  1.00  0.00     0.010 C 
HETATM   21  C28 UNL     1       4.403  54.877  -7.716  1.00  0.00     0.011 C 
HETATM   22  C29 UNL     1       3.355  56.011  -7.754  1.00  0.00    -0.029 C 
HETATM   23  C30 UNL     1       3.797  57.078  -8.807  1.00  0.00     0.016 C 
ENDROOT
BRANCH   1  24
HETATM   24  C7  UNL     1       1.503  55.251  -9.559  1.00  0.00    -0.007 C 
HETATM   25  C8  UNL     1       2.713  54.936 -10.445  1.00  0.00     0.011 C 
BRANCH  24  26
HETATM   26  C6  UNL     1       0.444  54.128  -9.675  1.00  0.00     0.087 C 
BRANCH  26  27
HETATM   27  C5  UNL     1      -0.836  54.476 -10.423  1.00  0.00     0.149 C 
HETATM   28  O1  UNL     1      -1.340  55.594 -10.419  1.00  0.00    -0.293 OA
BRANCH  27  29
HETATM   29  C4  UNL     1      -1.493  53.332 -11.133  1.00  0.00     0.052 C 
HETATM   30  C2  UNL     1      -2.812  53.061 -11.128  1.00  0.00    -0.084 C 
HETATM   31  C1  UNL     1      -3.342  51.842 -11.836  1.00  0.00     0.043 C 
HETATM   32  C3  UNL     1      -3.868  53.896 -10.452  1.00  0.00     0.043 C 
ENDBRANCH  27  29
ENDBRANCH  26  27
ENDBRANCH  24  26
ENDBRANCH   1  24
TORSDOF 4
ENDMDL
MODEL 5
REMARK minimizedAffinity -8.02652931
REMARK CNNscore 0.42550987
REMARK CNNaffinity 6.85794497
REMARK  4 active torsions:
REMARK  status: ('A' for Active; 'I' for Inactive)
REMARK    1  A    between atoms: C4_4  and  C5_5 
REMARK    2  A    between atoms: C5_5  and  C6_7 
REMARK    3  A    between atoms: C6_7  and  C7_8 
REMARK    4  A    between atoms: C7_8  and  C9_10 
ROOT
HETATM    1  C9  UNL     1      -2.502  51.030 -23.183  1.00  0.00    -0.001 C 
HETATM    2  C10 UNL     1      -3.932  51.522 -23.553  1.00  0.00     0.007 C 
HETATM    3  C11 UNL     1      -4.937  50.575 -22.866  1.00  0.00     0.015 C 
HETATM    4  C12 UNL     1      -4.087  49.382 -22.384  1.00  0.00    -0.013 C 
HETATM    5  C13 UNL     1      -3.934  48.432 -23.617  1.00  0.00     0.021 C 
HETATM    6  C14 UNL     1      -4.636  48.519 -21.251  1.00  0.00    -0.070 C 
HETATM    7  C15 UNL     1      -5.951  48.271 -21.110  1.00  0.00    -0.022 C 
HETATM    8  C16 UNL     1      -6.537  47.338 -20.091  1.00  0.00     0.034 C 
HETATM    9  C17 UNL     1      -5.531  46.869 -19.016  1.00  0.00     0.013 C 
HETATM   10  C18 UNL     1      -6.084  45.805 -17.991  1.00  0.00     0.018 C 
HETATM   11  C19 UNL     1      -7.478  45.256 -18.366  1.00  0.00     0.023 C 
HETATM   12  C20 UNL     1      -6.212  46.458 -16.595  1.00  0.00     0.023 C 
HETATM   13  C21 UNL     1      -5.140  44.606 -17.812  1.00  0.00     0.135 C 
HETATM   14  O2  UNL     1      -5.566  43.467 -17.603  1.00  0.00    -0.297 OA
HETATM   15  C22 UNL     1      -3.648  44.842 -17.788  1.00  0.00     0.080 C 
HETATM   16  C23 UNL     1      -3.201  46.100 -18.511  1.00  0.00     0.017 C 
HETATM   17  C24 UNL     1      -4.139  46.535 -19.661  1.00  0.00    -0.031 C 
HETATM   18  C25 UNL     1      -4.236  45.410 -20.721  1.00  0.00     0.016 C 
HETATM   19  C26 UNL     1      -3.604  47.873 -20.315  1.00  0.00     0.024 C 
HETATM   20  C27 UNL     1      -2.203  47.764 -20.965  1.00  0.00     0.010 C 
HETATM   21  C28 UNL     1      -1.682  49.055 -21.643  1.00  0.00     0.011 C 
HETATM   22  C29 UNL     1      -2.768  50.113 -21.943  1.00  0.00    -0.029 C 
HETATM   23  C30 UNL     1      -2.947  51.029 -20.690  1.00  0.00     0.016 C 
ENDROOT
BRANCH   1  24
HETATM   24  C7  UNL     1      -1.482  52.198 -23.068  1.00  0.00    -0.007 C 
HETATM   25  C8  UNL     1      -0.177  51.792 -22.373  1.00  0.00     0.011 C 
BRANCH  24  26
HETATM   26  C6  UNL     1      -1.181  52.877 -24.426  1.00  0.00     0.087 C 
BRANCH  26  27
HETATM   27  C5  UNL     1      -0.840  51.953 -25.587  1.00  0.00     0.149 C 
HETATM   28  O1  UNL     1      -1.684  51.362 -26.252  1.00  0.00    -0.293 OA
BRANCH  27  29
HETATM   29  C4  UNL     1       0.623  51.757 -25.840  1.00  0.00     0.052 C 
HETATM   30  C2  UNL     1       1.241  51.913 -27.026  1.00  0.00    -0.084 C 
HETATM   31  C1  UNL     1       2.714  51.627 -27.162  1.00  0.00     0.043 C 
HETATM   32  C3  UNL     1       0.576  52.370 -28.298  1.00  0.00     0.043 C 
ENDBRANCH  27  29
ENDBRANCH  26  27
ENDBRANCH  24  26
ENDBRANCH   1  24
TORSDOF 4
ENDMDL
MODEL 6
REMARK minimizedAffinity -7.38610649
REMARK CNNscore 0.324829668
REMARK CNNaffinity 5.45958948
REMARK  4 active torsions:
REMARK  status: ('A' for Active; 'I' for Inactive)
REMARK    1  A    between atoms: C4_4  and  C5_5 
REMARK    2  A    between atoms: C5_5  and  C6_7 
REMARK    3  A    between atoms: C6_7  and  C7_8 
REMARK    4  A    between atoms: C7_8  and  C9_10 
ROOT
HETATM    1  C9  UNL     1       7.344  66.169 -36.057  1.00  0.00    -0.001 C 
HETATM    2  C10 UNL     1       6.762  66.708 -34.717  1.00  0.00     0.007 C 
HETATM    3  C11 UNL     1       5.572  67.624 -35.067  1.00  0.00     0.015 C 
HETATM    4  C12 UNL     1       5.687  67.852 -36.588  1.00  0.00    -0.013 C 
HETATM    5  C13 UNL     1       6.720  69.012 -36.777  1.00  0.00     0.021 C 
HETATM    6  C14 UNL     1       4.433  68.278 -37.348  1.00  0.00    -0.070 C 
HETATM    7  C15 UNL     1       3.500  69.079 -36.801  1.00  0.00    -0.022 C 
HETATM    8  C16 UNL     1       2.311  69.624 -37.537  1.00  0.00     0.034 C 
HETATM    9  C17 UNL     1       2.077  68.980 -38.922  1.00  0.00     0.013 C 
HETATM   10  C18 UNL     1       0.900  69.602 -39.767  1.00  0.00     0.018 C 
HETATM   11  C19 UNL     1       0.314  70.891 -39.150  1.00  0.00     0.023 C 
HETATM   12  C20 UNL     1      -0.254  68.579 -39.867  1.00  0.00     0.023 C 
HETATM   13  C21 UNL     1       1.310  69.918 -41.214  1.00  0.00     0.135 C 
HETATM   14  O2  UNL     1       0.849  70.886 -41.825  1.00  0.00    -0.297 OA
HETATM   15  C22 UNL     1       2.223  68.963 -41.946  1.00  0.00     0.080 C 
HETATM   16  C23 UNL     1       3.104  68.121 -41.039  1.00  0.00     0.017 C 
HETATM   17  C24 UNL     1       3.437  68.787 -39.684  1.00  0.00    -0.031 C 
HETATM   18  C25 UNL     1       4.175  70.128 -39.919  1.00  0.00     0.016 C 
HETATM   19  C26 UNL     1       4.320  67.811 -38.807  1.00  0.00     0.024 C 
HETATM   20  C27 UNL     1       5.695  67.451 -39.420  1.00  0.00     0.010 C 
HETATM   21  C28 UNL     1       6.588  66.527 -38.555  1.00  0.00     0.011 C 
HETATM   22  C29 UNL     1       6.180  66.441 -37.067  1.00  0.00    -0.029 C 
HETATM   23  C30 UNL     1       5.114  65.311 -36.895  1.00  0.00     0.016 C 
ENDROOT
BRANCH   1  24
HETATM   24  C7  UNL     1       7.921  64.731 -35.919  1.00  0.00    -0.007 C 
HETATM   25  C8  UNL     1       9.362  64.609 -36.427  1.00  0.00     0.011 C 
BRANCH  24  26
HETATM   26  C6  UNL     1       7.805  64.165 -34.483  1.00  0.00     0.087 C 
BRANCH  26  27
HETATM   27  C5  UNL     1       6.548  63.367 -34.167  1.00  0.00     0.149 C 
HETATM   28  O1  UNL     1       6.231  62.340 -34.758  1.00  0.00    -0.293 OA
BRANCH  27  29
HETATM   29  C4  UNL     1       5.667  63.954 -33.108  1.00  0.00     0.052 C 
HETATM   30  C2  UNL     1       4.473  63.465 -32.722  1.00  0.00    -0.084 C 
HETATM   31  C1  UNL     1       3.655  64.185 -31.682  1.00  0.00     0.043 C 
HETATM   32  C3  UNL     1       3.839  62.205 -33.250  1.00  0.00     0.043 C 
ENDBRANCH  27  29
ENDBRANCH  26  27
ENDBRANCH  24  26
ENDBRANCH   1  24
TORSDOF 4
ENDMDL
MODEL 7
REMARK minimizedAffinity -8.15924263
REMARK CNNscore 0.288400739
REMARK CNNaffinity 6.29848623
REMARK  4 active torsions:
REMARK  status: ('A' for Active; 'I' for Inactive)
REMARK    1  A    between atoms: C4_4  and  C5_5 
REMARK    2  A    between atoms: C5_5  and  C6_7 
REMARK    3  A    between atoms: C6_7  and  C7_8 
REMARK    4  A    between atoms: C7_8  and  C9_10 
ROOT
HETATM    1  C9  UNL     1      -3.293  49.628 -22.749  1.00  0.00    -0.001 C 
HETATM    2  C10 UNL     1      -3.692  48.801 -24.007  1.00  0.00     0.007 C 
HETATM    3  C11 UNL     1      -4.976  48.022 -23.657  1.00  0.00     0.015 C 
HETATM    4  C12 UNL     1      -5.113  48.157 -22.127  1.00  0.00    -0.013 C 
HETATM    5  C13 UNL     1      -4.195  47.051 -21.509  1.00  0.00     0.021 C 
HETATM    6  C14 UNL     1      -6.494  47.953 -21.508  1.00  0.00    -0.070 C 
HETATM    7  C15 UNL     1      -7.378  47.067 -22.003  1.00  0.00    -0.022 C 
HETATM    8  C16 UNL     1      -8.698  46.739 -21.369  1.00  0.00     0.034 C 
HETATM    9  C17 UNL     1      -9.104  47.697 -20.227  1.00  0.00     0.013 C 
HETATM   10  C18 UNL     1     -10.434  47.320 -19.467  1.00  0.00     0.018 C 
HETATM   11  C19 UNL     1     -10.995  45.936 -19.860  1.00  0.00     0.023 C 
HETATM   12  C20 UNL     1     -11.525  48.365 -19.798  1.00  0.00     0.023 C 
HETATM   13  C21 UNL     1     -10.274  47.346 -17.940  1.00  0.00     0.135 C 
HETATM   14  O2  UNL     1     -10.882  46.561 -17.207  1.00  0.00    -0.297 OA
HETATM   15  C22 UNL     1      -9.429  48.426 -17.306  1.00  0.00     0.080 C 
HETATM   16  C23 UNL     1      -8.367  49.009 -18.223  1.00  0.00     0.017 C 
HETATM   17  C24 UNL     1      -7.870  48.033 -19.315  1.00  0.00    -0.031 C 
HETATM   18  C25 UNL     1      -7.261  46.769 -18.659  1.00  0.00     0.016 C 
HETATM   19  C26 UNL     1      -6.803  48.753 -20.235  1.00  0.00     0.024 C 
HETATM   20  C27 UNL     1      -5.520  49.217 -19.502  1.00  0.00     0.010 C 
HETATM   21  C28 UNL     1      -4.449  49.889 -20.396  1.00  0.00     0.011 C 
HETATM   22  C29 UNL     1      -4.614  49.630 -21.910  1.00  0.00    -0.029 C 
HETATM   23  C30 UNL     1      -5.570  50.711 -22.511  1.00  0.00     0.016 C 
ENDROOT
BRANCH   1  24
HETATM   24  C7  UNL     1      -2.616  50.979 -23.116  1.00  0.00    -0.007 C 
HETATM   25  C8  UNL     1      -1.733  51.534 -21.993  1.00  0.00     0.011 C 
BRANCH  24  26
HETATM   26  C6  UNL     1      -1.824  50.921 -24.445  1.00  0.00     0.087 C 
BRANCH  26  27
HETATM   27  C5  UNL     1      -1.048  52.173 -24.829  1.00  0.00     0.149 C 
HETATM   28  O1  UNL     1      -1.567  53.276 -24.963  1.00  0.00    -0.293 OA
BRANCH  27  29
HETATM   29  C4  UNL     1       0.410  51.964 -25.099  1.00  0.00     0.052 C 
HETATM   30  C2  UNL     1       0.945  51.610 -26.282  1.00  0.00    -0.084 C 
HETATM   31  C1  UNL     1       2.427  51.374 -26.410  1.00  0.00     0.043 C 
HETATM   32  C3  UNL     1       0.172  51.417 -27.561  1.00  0.00     0.043 C 
ENDBRANCH  27  29
ENDBRANCH  26  27
ENDBRANCH  24  26
ENDBRANCH   1  24
TORSDOF 4
ENDMDL
MODEL 8
REMARK minimizedAffinity -9.5522356
REMARK CNNscore 0.282076299
REMARK CNNaffinity 6.84051323
REMARK  4 active torsions:
REMARK  status: ('A' for Active; 'I' for Inactive)
REMARK    1  A    between atoms: C4_4  and  C5_5 
REMARK    2  A    between atoms: C5_5  and  C6_7 
REMARK    3  A    between atoms: C6_7  and  C7_8 
REMARK    4  A    between atoms: C7_8  and  C9_10 
ROOT
HETATM    1  C9  UNL     1      -3.423  48.544 -19.809  1.00  0.00    -0.001 C 
HETATM    2  C10 UNL     1      -3.951  47.414 -20.741  1.00  0.00     0.007 C 
HETATM    3  C11 UNL     1      -3.614  47.819 -22.191  1.00  0.00     0.015 C 
HETATM    4  C12 UNL     1      -3.194  49.300 -22.098  1.00  0.00    -0.013 C 
HETATM    5  C13 UNL     1      -4.521  50.128 -22.106  1.00  0.00     0.021 C 
HETATM    6  C14 UNL     1      -2.332  49.874 -23.219  1.00  0.00    -0.070 C 
HETATM    7  C15 UNL     1      -2.465  49.483 -24.500  1.00  0.00    -0.022 C 
HETATM    8  C16 UNL     1      -1.731  50.094 -25.657  1.00  0.00     0.034 C 
HETATM    9  C17 UNL     1      -0.589  51.050 -25.244  1.00  0.00     0.013 C 
HETATM   10  C18 UNL     1       0.134  51.793 -26.433  1.00  0.00     0.018 C 
HETATM   11  C19 UNL     1      -0.563  51.595 -27.797  1.00  0.00     0.023 C 
HETATM   12  C20 UNL     1       1.575  51.249 -26.574  1.00  0.00     0.023 C 
HETATM   13  C21 UNL     1       0.276  53.303 -26.191  1.00  0.00     0.135 C 
HETATM   14  O2  UNL     1       0.217  54.119 -27.115  1.00  0.00    -0.297 OA
HETATM   15  C22 UNL     1       0.598  53.800 -24.802  1.00  0.00     0.080 C 
HETATM   16  C23 UNL     1       0.180  52.856 -23.687  1.00  0.00     0.017 C 
HETATM   17  C24 UNL     1      -1.028  51.957 -24.039  1.00  0.00    -0.031 C 
HETATM   18  C25 UNL     1      -2.259  52.833 -24.380  1.00  0.00     0.016 C 
HETATM   19  C26 UNL     1      -1.349  50.989 -22.830  1.00  0.00     0.024 C 
HETATM   20  C27 UNL     1      -1.755  51.702 -21.517  1.00  0.00     0.010 C 
HETATM   21  C28 UNL     1      -2.110  50.767 -20.335  1.00  0.00     0.011 C 
HETATM   22  C29 UNL     1      -2.417  49.306 -20.734  1.00  0.00    -0.029 C 
HETATM   23  C30 UNL     1      -1.080  48.496 -20.769  1.00  0.00     0.016 C 
ENDROOT
BRANCH   1  24
HETATM   24  C7  UNL     1      -2.942  48.003 -18.433  1.00  0.00    -0.007 C 
HETATM   25  C8  UNL     1      -3.028  46.477 -18.321  1.00  0.00     0.011 C 
BRANCH  24  26
HETATM   26  C6  UNL     1      -1.524  48.493 -18.050  1.00  0.00     0.087 C 
BRANCH  26  27
HETATM   27  C5  UNL     1      -1.439  49.515 -16.925  1.00  0.00     0.149 C 
HETATM   28  O1  UNL     1      -2.128  49.465 -15.912  1.00  0.00    -0.293 OA
BRANCH  27  29
HETATM   29  C4  UNL     1      -0.485  50.646 -17.159  1.00  0.00     0.052 C 
HETATM   30  C2  UNL     1       0.599  50.923 -16.411  1.00  0.00    -0.084 C 
HETATM   31  C1  UNL     1       1.449  52.129 -16.718  1.00  0.00     0.043 C 
HETATM   32  C3  UNL     1       1.077  50.108 -15.238  1.00  0.00     0.043 C 
ENDBRANCH  27  29
ENDBRANCH  26  27
ENDBRANCH  24  26
ENDBRANCH   1  24
TORSDOF 4
ENDMDL
MODEL 9
REMARK minimizedAffinity -8.97253036
REMARK CNNscore 0.250892371
REMARK CNNaffinity 6.73280096
REMARK  4 active torsions:
REMARK  status: ('A' for Active; 'I' for Inactive)
REMARK    1  A    between atoms: C4_4  and  C5_5 
REMARK    2  A    between atoms: C5_5  and  C6_7 
REMARK    3  A    between atoms: C6_7  and  C7_8 
REMARK    4  A    between atoms: C7_8  and  C9_10 
ROOT
HETATM    1  C9  UNL     1      -0.428  52.582 -21.812  1.00  0.00    -0.001 C 
HETATM    2  C10 UNL     1       0.911  53.312 -21.497  1.00  0.00     0.007 C 
HETATM    3  C11 UNL     1       1.299  52.957 -20.047  1.00  0.00     0.015 C 
HETATM    4  C12 UNL     1       0.036  52.302 -19.452  1.00  0.00    -0.013 C 
HETATM    5  C13 UNL     1      -0.885  53.478 -18.987  1.00  0.00     0.021 C 
HETATM    6  C14 UNL     1       0.203  51.392 -18.238  1.00  0.00    -0.070 C 
HETATM    7  C15 UNL     1       1.128  51.624 -17.288  1.00  0.00    -0.022 C 
HETATM    8  C16 UNL     1       1.260  50.835 -16.018  1.00  0.00     0.034 C 
HETATM    9  C17 UNL     1       0.414  49.543 -15.989  1.00  0.00     0.013 C 
HETATM   10  C18 UNL     1       0.445  48.745 -14.629  1.00  0.00     0.018 C 
HETATM   11  C19 UNL     1       1.153  49.504 -13.486  1.00  0.00     0.023 C 
HETATM   12  C20 UNL     1       1.208  47.415 -14.834  1.00  0.00     0.023 C 
HETATM   13  C21 UNL     1      -0.957  48.355 -14.136  1.00  0.00     0.135 C 
HETATM   14  O2  UNL     1      -1.236  48.309 -12.935  1.00  0.00    -0.297 OA
HETATM   15  C22 UNL     1      -1.995  47.916 -15.142  1.00  0.00     0.080 C 
HETATM   16  C23 UNL     1      -1.769  48.447 -16.547  1.00  0.00     0.017 C 
HETATM   17  C24 UNL     1      -1.012  49.795 -16.599  1.00  0.00    -0.031 C 
HETATM   18  C25 UNL     1      -1.801  50.878 -15.824  1.00  0.00     0.016 C 
HETATM   19  C26 UNL     1      -0.795  50.232 -18.104  1.00  0.00     0.024 C 
HETATM   20  C27 UNL     1      -2.098  50.478 -18.904  1.00  0.00     0.010 C 
HETATM   21  C28 UNL     1      -1.902  50.944 -20.367  1.00  0.00     0.011 C 
HETATM   22  C29 UNL     1      -0.494  51.494 -20.690  1.00  0.00    -0.029 C 
HETATM   23  C30 UNL     1       0.433  50.306 -21.108  1.00  0.00     0.016 C 
ENDROOT
BRANCH   1  24
HETATM   24  C7  UNL     1      -0.536  52.154 -23.303  1.00  0.00    -0.007 C 
HETATM   25  C8  UNL     1      -1.843  52.602 -23.965  1.00  0.00     0.011 C 
BRANCH  24  26
HETATM   26  C6  UNL     1       0.679  52.599 -24.152  1.00  0.00     0.087 C 
BRANCH  26  27
HETATM   27  C5  UNL     1       0.393  53.568 -25.292  1.00  0.00     0.149 C 
HETATM   28  O1  UNL     1       0.254  54.776 -25.134  1.00  0.00    -0.293 OA
BRANCH  27  29
HETATM   29  C4  UNL     1       0.228  52.938 -26.641  1.00  0.00     0.052 C 
HETATM   30  C2  UNL     1       1.111  52.111 -27.233  1.00  0.00    -0.084 C 
HETATM   31  C1  UNL     1       0.853  51.589 -28.622  1.00  0.00     0.043 C 
HETATM   32  C3  UNL     1       2.397  51.629 -26.615  1.00  0.00     0.043 C 
ENDBRANCH  27  29
ENDBRANCH  26  27
ENDBRANCH  24  26
ENDBRANCH   1  24
TORSDOF 4
ENDMDL
