MODEL 1
REMARK minimizedAffinity -10.2488365
REMARK CNNscore 0.652222574
REMARK CNNaffinity 7.49379492
REMARK  13 active torsions:
REMARK  status: ('A' for Active; 'I' for Inactive)
REMARK    1  A    between atoms: C2_2  and  C3_3 
REMARK    2  A    between atoms: C3_3  and  C5_5 
REMARK    3  A    between atoms: C5_5  and  N1_6 
REMARK    4  A    between atoms: C5_5  and  C31_39 
REMARK       I    between atoms: N1_6  and  C6_7 
REMARK    5  A    between atoms: C6_7  and  C7_9 
REMARK    6  A    between atoms: C7_9  and  C8_10 
REMARK    7  A    between atoms: C8_10  and  C9_11 
REMARK    8  A    between atoms: C9_11  and  O3_13 
REMARK    9  A    between atoms: O3_13  and  C10_14 
REMARK   10  A    between atoms: C10_14  and  C11_15 
REMARK   11  A    between atoms: C11_15  and  C12_17 
REMARK   12  A    between atoms: C12_17  and  O5_18 
REMARK   13  A    between atoms: C31_39  and  O9_41 
ROOT
HETATM    1  C12 UNL     1      -6.640  49.736 -22.527  1.00  0.00     0.128 C 
HETATM    2  C13 UNL     1      -7.167  49.565 -21.083  1.00  0.00     0.047 C 
HETATM    3  C14 UNL     1      -5.999  49.940 -20.150  1.00  0.00     0.009 C 
HETATM    4  C15 UNL     1      -4.911  50.469 -21.079  1.00  0.00     0.002 C 
HETATM    5  C16 UNL     1      -3.469  50.493 -20.557  1.00  0.00     0.003 C 
HETATM    6  C17 UNL     1      -3.354  51.351 -19.288  1.00  0.00     0.010 C 
HETATM    7  C18 UNL     1      -1.918  51.414 -18.783  1.00  0.00     0.035 C 
HETATM    8  C19 UNL     1      -0.963  51.881 -19.861  1.00  0.00    -0.067 C 
HETATM    9  C20 UNL     1      -0.141  52.914 -19.612  1.00  0.00     0.053 C 
HETATM   10  C21 UNL     1       0.887  53.341 -20.589  1.00  0.00     0.149 C 
HETATM   11  O6  UNL     1       1.542  54.357 -20.375  1.00  0.00    -0.293 OA
HETATM   12  C22 UNL     1       1.129  52.447 -21.773  1.00  0.00     0.084 C 
HETATM   13  C23 UNL     1      -0.202  51.906 -22.282  1.00  0.00     0.022 C 
HETATM   14  C24 UNL     1      -1.025  51.130 -21.208  1.00  0.00    -0.009 C 
HETATM   15  C25 UNL     1      -0.407  49.728 -21.008  1.00  0.00     0.021 C 
HETATM   16  C26 UNL     1      -2.530  51.062 -21.663  1.00  0.00     0.072 C 
HETATM   17  C27 UNL     1      -2.799  50.358 -23.011  1.00  0.00     0.133 C 
HETATM   18  O7  UNL     1      -1.903  49.926 -23.737  1.00  0.00    -0.297 OA
HETATM   19  C28 UNL     1      -4.250  50.285 -23.469  1.00  0.00     0.091 C 
HETATM   20  C29 UNL     1      -5.095  49.629 -22.372  1.00  0.00     0.005 C 
HETATM   21  C30 UNL     1      -4.641  48.159 -22.205  1.00  0.00     0.019 C 
ENDROOT
BRANCH   1  22
HETATM   22  C11 UNL     1      -7.315  48.860 -23.608  1.00  0.00     0.185 C 
HETATM   23  O4  UNL     1      -8.503  49.081 -23.896  1.00  0.00    -0.292 OA
BRANCH  22  24
HETATM   24  C10 UNL     1      -6.525  47.726 -24.265  1.00  0.00     0.260 C 
BRANCH  24  25
HETATM   25  O3  UNL     1      -5.643  48.181 -25.291  1.00  0.00    -0.314 OA
BRANCH  25  26
HETATM   26  C9  UNL     1      -6.018  47.873 -26.563  1.00  0.00     0.259 C 
HETATM   27  O2  UNL     1      -7.120  47.458 -26.889  1.00  0.00    -0.265 OA
BRANCH  26  28
HETATM   28  C8  UNL     1      -4.881  48.173 -27.497  1.00  0.00     0.120 C 
BRANCH  28  29
HETATM   29  C7  UNL     1      -3.614  48.583 -26.754  1.00  0.00     0.112 C 
BRANCH  29  30
HETATM   30  C6  UNL     1      -2.979  49.775 -27.439  1.00  0.00     0.218 C 
HETATM   31  N1  UNL     1      -1.898  50.294 -26.757  1.00  0.00    -0.346 N 
HETATM   32  H11 UNL     1      -1.849  50.072 -25.768  1.00  0.00     0.163 HD
HETATM   33  O1  UNL     1      -3.379  50.223 -28.510  1.00  0.00    -0.274 OA
BRANCH  31  34
HETATM   34  C5  UNL     1      -1.348  51.604 -27.145  1.00  0.00     0.186 C 
BRANCH  34  35
HETATM   35  C3  UNL     1       0.171  51.507 -27.421  1.00  0.00     0.014 C 
HETATM   36  C4  UNL     1       0.591  52.522 -28.492  1.00  0.00     0.012 C 
BRANCH  35  37
HETATM   37  C2  UNL     1       1.032  51.646 -26.143  1.00  0.00     0.002 C 
HETATM   38  C1  UNL     1       2.446  51.102 -26.306  1.00  0.00     0.005 C 
ENDBRANCH  35  37
ENDBRANCH  34  35
BRANCH  34  39
HETATM   39  C31 UNL     1      -1.691  52.658 -26.075  1.00  0.00     0.163 C 
HETATM   40  O8  UNL     1      -0.979  53.577 -25.704  1.00  0.00    -0.648 OA
BRANCH  39  41
HETATM   41  O9  UNL     1      -2.886  52.455 -25.471  1.00  0.00    -0.775 OA
HETATM   42  H43 UNL     1      -2.952  53.208 -24.844  1.00  0.00     0.167 HD
ENDBRANCH  39  41
ENDBRANCH  34  39
ENDBRANCH  31  34
ENDBRANCH  29  30
ENDBRANCH  28  29
ENDBRANCH  26  28
ENDBRANCH  25  26
ENDBRANCH  24  25
ENDBRANCH  22  24
ENDBRANCH   1  22
BRANCH   1  43
HETATM   43  O5  UNL     1      -6.961  51.097 -22.902  1.00  0.00    -0.381 OA
HETATM   44  H18 UNL     1      -7.080  51.100 -23.874  1.00  0.00     0.211 HD
ENDBRANCH   1  43
TORSDOF 13
ENDMDL
MODEL 2
REMARK minimizedAffinity -7.65976429
REMARK CNNscore 0.392968982
REMARK CNNaffinity 6.10737467
REMARK  13 active torsions:
REMARK  status: ('A' for Active; 'I' for Inactive)
REMARK    1  A    between atoms: C2_2  and  C3_3 
REMARK    2  A    between atoms: C3_3  and  C5_5 
REMARK    3  A    between atoms: C5_5  and  N1_6 
REMARK    4  A    between atoms: C5_5  and  C31_39 
REMARK       I    between atoms: N1_6  and  C6_7 
REMARK    5  A    between atoms: C6_7  and  C7_9 
REMARK    6  A    between atoms: C7_9  and  C8_10 
REMARK    7  A    between atoms: C8_10  and  C9_11 
REMARK    8  A    between atoms: C9_11  and  O3_13 
REMARK    9  A    between atoms: O3_13  and  C10_14 
REMARK   10  A    between atoms: C10_14  and  C11_15 
REMARK   11  A    between atoms: C11_15  and  C12_17 
REMARK   12  A    between atoms: C12_17  and  O5_18 
REMARK   13  A    between atoms: C31_39  and  O9_41 
ROOT
HETATM    1  C12 UNL     1       1.347  68.125 -38.069  1.00  0.00     0.128 C 
HETATM    2  C13 UNL     1       1.319  69.210 -36.966  1.00  0.00     0.047 C 
HETATM    3  C14 UNL     1       0.121  70.123 -37.289  1.00  0.00     0.009 C 
HETATM    4  C15 UNL     1      -0.589  69.439 -38.454  1.00  0.00     0.002 C 
HETATM    5  C16 UNL     1      -1.529  70.287 -39.321  1.00  0.00     0.003 C 
HETATM    6  C17 UNL     1      -2.656  70.900 -38.478  1.00  0.00     0.010 C 
HETATM    7  C18 UNL     1      -3.619  71.712 -39.336  1.00  0.00     0.035 C 
HETATM    8  C19 UNL     1      -4.163  70.900 -40.491  1.00  0.00    -0.067 C 
HETATM    9  C20 UNL     1      -5.492  70.821 -40.674  1.00  0.00     0.053 C 
HETATM   10  C21 UNL     1      -6.075  70.133 -41.849  1.00  0.00     0.149 C 
HETATM   11  O6  UNL     1      -7.291  69.984 -41.923  1.00  0.00    -0.293 OA
HETATM   12  C22 UNL     1      -5.133  69.716 -42.943  1.00  0.00     0.084 C 
HETATM   13  C23 UNL     1      -3.846  69.179 -42.328  1.00  0.00     0.022 C 
HETATM   14  C24 UNL     1      -3.125  70.186 -41.381  1.00  0.00    -0.009 C 
HETATM   15  C25 UNL     1      -2.401  71.255 -42.231  1.00  0.00     0.021 C 
HETATM   16  C26 UNL     1      -2.138  69.396 -40.445  1.00  0.00     0.072 C 
HETATM   17  C27 UNL     1      -1.026  68.593 -41.156  1.00  0.00     0.133 C 
HETATM   18  O7  UNL     1      -0.934  68.506 -42.380  1.00  0.00    -0.297 OA
HETATM   19  C28 UNL     1      -0.062  67.819 -40.265  1.00  0.00     0.091 C 
HETATM   20  C29 UNL     1       0.569  68.777 -39.249  1.00  0.00     0.005 C 
HETATM   21  C30 UNL     1       1.443  69.803 -40.008  1.00  0.00     0.019 C 
ENDROOT
BRANCH   1  22
HETATM   22  C11 UNL     1       2.728  67.501 -38.378  1.00  0.00     0.185 C 
HETATM   23  O4  UNL     1       3.304  67.825 -39.429  1.00  0.00    -0.292 OA
BRANCH  22  24
HETATM   24  C10 UNL     1       3.329  66.480 -37.411  1.00  0.00     0.260 C 
BRANCH  24  25
HETATM   25  O3  UNL     1       4.675  66.129 -37.735  1.00  0.00    -0.314 OA
BRANCH  25  26
HETATM   26  C9  UNL     1       5.240  65.182 -36.936  1.00  0.00     0.259 C 
HETATM   27  O2  UNL     1       5.460  64.025 -37.265  1.00  0.00    -0.265 OA
BRANCH  26  28
HETATM   28  C8  UNL     1       5.591  65.800 -35.613  1.00  0.00     0.120 C 
BRANCH  28  29
HETATM   29  C7  UNL     1       7.086  66.064 -35.475  1.00  0.00     0.112 C 
BRANCH  29  30
HETATM   30  C6  UNL     1       7.853  64.766 -35.614  1.00  0.00     0.218 C 
HETATM   31  N1  UNL     1       7.427  63.776 -34.753  1.00  0.00    -0.346 N 
HETATM   32  H11 UNL     1       6.920  64.091 -33.932  1.00  0.00     0.163 HD
HETATM   33  O1  UNL     1       8.756  64.606 -36.431  1.00  0.00    -0.274 OA
BRANCH  31  34
HETATM   34  C5  UNL     1       8.240  62.561 -34.575  1.00  0.00     0.186 C 
BRANCH  34  35
HETATM   35  C3  UNL     1       7.344  61.336 -34.271  1.00  0.00     0.014 C 
HETATM   36  C4  UNL     1       5.906  61.591 -34.740  1.00  0.00     0.012 C 
BRANCH  35  37
HETATM   37  C2  UNL     1       7.902  60.016 -34.852  1.00  0.00     0.002 C 
HETATM   38  C1  UNL     1       6.844  59.169 -35.549  1.00  0.00     0.005 C 
ENDBRANCH  35  37
ENDBRANCH  34  35
BRANCH  34  39
HETATM   39  C31 UNL     1       9.311  62.796 -33.494  1.00  0.00     0.163 C 
HETATM   40  O8  UNL     1       9.545  63.847 -32.918  1.00  0.00    -0.648 OA
BRANCH  39  41
HETATM   41  O9  UNL     1      10.085  61.714 -33.245  1.00  0.00    -0.775 OA
HETATM   42  H43 UNL     1      10.689  62.026 -32.537  1.00  0.00     0.167 HD
ENDBRANCH  39  41
ENDBRANCH  34  39
ENDBRANCH  31  34
ENDBRANCH  29  30
ENDBRANCH  28  29
ENDBRANCH  26  28
ENDBRANCH  25  26
ENDBRANCH  24  25
ENDBRANCH  22  24
ENDBRANCH   1  22
BRANCH   1  43
HETATM   43  O5  UNL     1       0.552  67.029 -37.557  1.00  0.00    -0.381 OA
HETATM   44  H18 UNL     1       0.909  66.211 -37.962  1.00  0.00     0.211 HD
ENDBRANCH   1  43
TORSDOF 13
ENDMDL
MODEL 3
REMARK minimizedAffinity -7.80190659
REMARK CNNscore 0.379549086
REMARK CNNaffinity 6.05251694
REMARK  13 active torsions:
REMARK  status: ('A' for Active; 'I' for Inactive)
REMARK    1  A    between atoms: C2_2  and  C3_3 
REMARK    2  A    between atoms: C3_3  and  C5_5 
REMARK    3  A    between atoms: C5_5  and  N1_6 
REMARK    4  A    between atoms: C5_5  and  C31_39 
REMARK       I    between atoms: N1_6  and  C6_7 
REMARK    5  A    between atoms: C6_7  and  C7_9 
REMARK    6  A    between atoms: C7_9  and  C8_10 
REMARK    7  A    between atoms: C8_10  and  C9_11 
REMARK    8  A    between atoms: C9_11  and  O3_13 
REMARK    9  A    between atoms: O3_13  and  C10_14 
REMARK   10  A    between atoms: C10_14  and  C11_15 
REMARK   11  A    between atoms: C11_15  and  C12_17 
REMARK   12  A    between atoms: C12_17  and  O5_18 
REMARK   13  A    between atoms: C31_39  and  O9_41 
ROOT
HETATM    1  C12 UNL     1     -10.867  47.042 -28.963  1.00  0.00     0.128 C 
HETATM    2  C13 UNL     1     -11.084  45.946 -30.033  1.00  0.00     0.047 C 
HETATM    3  C14 UNL     1     -12.413  45.252 -29.676  1.00  0.00     0.009 C 
HETATM    4  C15 UNL     1     -12.988  46.076 -28.528  1.00  0.00     0.002 C 
HETATM    5  C16 UNL     1     -14.046  45.419 -27.631  1.00  0.00     0.003 C 
HETATM    6  C17 UNL     1     -15.268  44.977 -28.449  1.00  0.00     0.010 C 
HETATM    7  C18 UNL     1     -16.342  44.359 -27.562  1.00  0.00     0.035 C 
HETATM    8  C19 UNL     1     -16.733  45.282 -26.428  1.00  0.00    -0.067 C 
HETATM    9  C20 UNL     1     -18.028  45.583 -26.240  1.00  0.00     0.053 C 
HETATM   10  C21 UNL     1     -18.478  46.391 -25.082  1.00  0.00     0.149 C 
HETATM   11  O6  UNL     1     -19.652  46.741 -25.006  1.00  0.00    -0.293 OA
HETATM   12  C22 UNL     1     -17.468  46.678 -24.006  1.00  0.00     0.084 C 
HETATM   13  C23 UNL     1     -16.117  46.979 -24.644  1.00  0.00     0.022 C 
HETATM   14  C24 UNL     1     -15.582  45.840 -25.565  1.00  0.00    -0.009 C 
HETATM   15  C25 UNL     1     -15.034  44.691 -24.689  1.00  0.00     0.021 C 
HETATM   16  C26 UNL     1     -14.488  46.430 -26.530  1.00  0.00     0.072 C 
HETATM   17  C27 UNL     1     -13.252  47.059 -25.850  1.00  0.00     0.133 C 
HETATM   18  O7  UNL     1     -13.134  47.163 -24.629  1.00  0.00    -0.297 OA
HETATM   19  C28 UNL     1     -12.183  47.638 -26.768  1.00  0.00     0.091 C 
HETATM   20  C29 UNL     1     -11.729  46.561 -27.759  1.00  0.00     0.005 C 
HETATM   21  C30 UNL     1     -11.027  45.426 -26.976  1.00  0.00     0.019 C 
ENDROOT
BRANCH   1  22
HETATM   22  C11 UNL     1      -9.399  47.439 -28.680  1.00  0.00     0.185 C 
HETATM   23  O4  UNL     1      -8.498  46.877 -29.325  1.00  0.00    -0.292 OA
BRANCH  22  24
HETATM   24  C10 UNL     1      -9.090  48.475 -27.598  1.00  0.00     0.260 C 
BRANCH  24  25
HETATM   25  O3  UNL     1      -8.151  48.008 -26.629  1.00  0.00    -0.314 OA
BRANCH  25  26
HETATM   26  C9  UNL     1      -8.546  48.121 -25.331  1.00  0.00     0.259 C 
HETATM   27  O2  UNL     1      -9.634  48.538 -24.962  1.00  0.00    -0.265 OA
BRANCH  26  28
HETATM   28  C8  UNL     1      -7.453  47.606 -24.438  1.00  0.00     0.120 C 
BRANCH  28  29
HETATM   29  C7  UNL     1      -6.068  48.024 -24.919  1.00  0.00     0.112 C 
BRANCH  29  30
HETATM   30  C6  UNL     1      -5.667  49.328 -24.264  1.00  0.00     0.218 C 
HETATM   31  N1  UNL     1      -4.711  50.031 -24.968  1.00  0.00    -0.346 N 
HETATM   32  H11 UNL     1      -4.153  49.489 -25.621  1.00  0.00     0.163 HD
HETATM   33  O1  UNL     1      -6.162  49.731 -23.214  1.00  0.00    -0.274 OA
BRANCH  31  34
HETATM   34  C5  UNL     1      -4.025  51.170 -24.334  1.00  0.00     0.186 C 
BRANCH  34  35
HETATM   35  C3  UNL     1      -3.329  52.056 -25.395  1.00  0.00     0.014 C 
HETATM   36  C4  UNL     1      -2.077  52.717 -24.808  1.00  0.00     0.012 C 
BRANCH  35  37
HETATM   37  C2  UNL     1      -3.007  51.297 -26.704  1.00  0.00     0.002 C 
HETATM   38  C1  UNL     1      -1.532  50.941 -26.847  1.00  0.00     0.005 C 
ENDBRANCH  35  37
ENDBRANCH  34  35
BRANCH  34  39
HETATM   39  C31 UNL     1      -3.052  50.664 -23.253  1.00  0.00     0.163 C 
HETATM   40  O8  UNL     1      -2.958  51.076 -22.108  1.00  0.00    -0.648 OA
BRANCH  39  41
HETATM   41  O9  UNL     1      -2.193  49.713 -23.691  1.00  0.00    -0.775 OA
HETATM   42  H43 UNL     1      -1.668  49.496 -22.889  1.00  0.00     0.167 HD
ENDBRANCH  39  41
ENDBRANCH  34  39
ENDBRANCH  31  34
ENDBRANCH  29  30
ENDBRANCH  28  29
ENDBRANCH  26  28
ENDBRANCH  25  26
ENDBRANCH  24  25
ENDBRANCH  22  24
ENDBRANCH   1  22
BRANCH   1  43
HETATM   43  O5  UNL     1     -11.476  48.240 -29.502  1.00  0.00    -0.381 OA
HETATM   44  H18 UNL     1     -10.985  48.999 -29.124  1.00  0.00     0.211 HD
ENDBRANCH   1  43
TORSDOF 13
ENDMDL
MODEL 4
REMARK minimizedAffinity -7.60412312
REMARK CNNscore 0.372485876
REMARK CNNaffinity 6.50451469
REMARK  13 active torsions:
REMARK  status: ('A' for Active; 'I' for Inactive)
REMARK    1  A    between atoms: C2_2  and  C3_3 
REMARK    2  A    between atoms: C3_3  and  C5_5 
REMARK    3  A    between atoms: C5_5  and  N1_6 
REMARK    4  A    between atoms: C5_5  and  C31_39 
REMARK       I    between atoms: N1_6  and  C6_7 
REMARK    5  A    between atoms: C6_7  and  C7_9 
REMARK    6  A    between atoms: C7_9  and  C8_10 
REMARK    7  A    between atoms: C8_10  and  C9_11 
REMARK    8  A    between atoms: C9_11  and  O3_13 
REMARK    9  A    between atoms: O3_13  and  C10_14 
REMARK   10  A    between atoms: C10_14  and  C11_15 
REMARK   11  A    between atoms: C11_15  and  C12_17 
REMARK   12  A    between atoms: C12_17  and  O5_18 
REMARK   13  A    between atoms: C31_39  and  O9_41 
ROOT
HETATM    1  C12 UNL     1      -2.314  50.549 -19.661  1.00  0.00     0.128 C 
HETATM    2  C13 UNL     1      -0.867  50.819 -19.186  1.00  0.00     0.047 C 
HETATM    3  C14 UNL     1      -0.082  51.274 -20.431  1.00  0.00     0.009 C 
HETATM    4  C15 UNL     1      -1.133  51.411 -21.528  1.00  0.00     0.002 C 
HETATM    5  C16 UNL     1      -0.658  51.391 -22.987  1.00  0.00     0.003 C 
HETATM    6  C17 UNL     1       0.342  52.524 -23.257  1.00  0.00     0.010 C 
HETATM    7  C18 UNL     1       0.791  52.538 -24.714  1.00  0.00     0.035 C 
HETATM    8  C19 UNL     1      -0.386  52.592 -25.664  1.00  0.00    -0.067 C 
HETATM    9  C20 UNL     1      -0.426  53.547 -26.609  1.00  0.00     0.053 C 
HETATM   10  C21 UNL     1      -1.497  53.581 -27.633  1.00  0.00     0.149 C 
HETATM   11  O6  UNL     1      -1.564  54.530 -28.408  1.00  0.00    -0.293 OA
HETATM   12  C22 UNL     1      -2.412  52.391 -27.715  1.00  0.00     0.084 C 
HETATM   13  C23 UNL     1      -2.742  51.905 -26.309  1.00  0.00     0.022 C 
HETATM   14  C24 UNL     1      -1.491  51.536 -25.454  1.00  0.00    -0.009 C 
HETATM   15  C25 UNL     1      -0.943  50.167 -25.917  1.00  0.00     0.021 C 
HETATM   16  C26 UNL     1      -1.889  51.539 -23.932  1.00  0.00     0.072 C 
HETATM   17  C27 UNL     1      -3.003  50.552 -23.522  1.00  0.00     0.133 C 
HETATM   18  O7  UNL     1      -3.606  49.842 -24.327  1.00  0.00    -0.297 OA
HETATM   19  C28 UNL     1      -3.404  50.542 -22.052  1.00  0.00     0.091 C 
HETATM   20  C29 UNL     1      -2.161  50.296 -21.189  1.00  0.00     0.005 C 
HETATM   21  C30 UNL     1      -1.626  48.874 -21.480  1.00  0.00     0.019 C 
ENDROOT
BRANCH   1  22
HETATM   22  C11 UNL     1      -3.120  49.514 -18.841  1.00  0.00     0.185 C 
HETATM   23  O4  UNL     1      -4.353  49.471 -18.987  1.00  0.00    -0.292 OA
BRANCH  22  24
HETATM   24  C10 UNL     1      -2.394  48.604 -17.849  1.00  0.00     0.260 C 
BRANCH  24  25
HETATM   25  O3  UNL     1      -2.683  48.917 -16.487  1.00  0.00    -0.314 OA
BRANCH  25  26
HETATM   26  C9  UNL     1      -1.724  49.631 -15.835  1.00  0.00     0.259 C 
HETATM   27  O2  UNL     1      -1.940  50.520 -15.024  1.00  0.00    -0.265 OA
BRANCH  26  28
HETATM   28  C8  UNL     1      -0.371  49.116 -16.235  1.00  0.00     0.120 C 
BRANCH  28  29
HETATM   29  C7  UNL     1       0.362  48.451 -15.075  1.00  0.00     0.112 C 
BRANCH  29  30
HETATM   30  C6  UNL     1       1.374  49.411 -14.487  1.00  0.00     0.218 C 
HETATM   31  N1  UNL     1       2.015  48.924 -13.367  1.00  0.00    -0.346 N 
HETATM   32  H11 UNL     1       1.538  48.176 -12.873  1.00  0.00     0.163 HD
HETATM   33  O1  UNL     1       1.614  50.513 -14.975  1.00  0.00    -0.274 OA
BRANCH  31  34
HETATM   34  C5  UNL     1       2.817  49.831 -12.529  1.00  0.00     0.186 C 
BRANCH  34  35
HETATM   35  C3  UNL     1       2.111  51.197 -12.359  1.00  0.00     0.014 C 
HETATM   36  C4  UNL     1       0.836  51.043 -11.520  1.00  0.00     0.012 C 
BRANCH  35  37
HETATM   37  C2  UNL     1       3.038  52.293 -11.782  1.00  0.00     0.002 C 
HETATM   38  C1  UNL     1       2.300  53.323 -10.935  1.00  0.00     0.005 C 
ENDBRANCH  35  37
ENDBRANCH  34  35
BRANCH  34  39
HETATM   39  C31 UNL     1       4.238  49.966 -13.109  1.00  0.00     0.163 C 
HETATM   40  O8  UNL     1       5.280  49.639 -12.564  1.00  0.00    -0.648 OA
BRANCH  39  41
HETATM   41  O9  UNL     1       4.281  50.575 -14.318  1.00  0.00    -0.775 OA
HETATM   42  H43 UNL     1       5.236  50.563 -14.543  1.00  0.00     0.167 HD
ENDBRANCH  39  41
ENDBRANCH  34  39
ENDBRANCH  31  34
ENDBRANCH  29  30
ENDBRANCH  28  29
ENDBRANCH  26  28
ENDBRANCH  25  26
ENDBRANCH  24  25
ENDBRANCH  22  24
ENDBRANCH   1  22
BRANCH   1  43
HETATM   43  O5  UNL     1      -3.024  51.797 -19.480  1.00  0.00    -0.381 OA
HETATM   44  H18 UNL     1      -3.962  51.566 -19.317  1.00  0.00     0.211 HD
ENDBRANCH   1  43
TORSDOF 13
ENDMDL
MODEL 5
REMARK minimizedAffinity -8.4330101
REMARK CNNscore 0.347650915
REMARK CNNaffinity 6.18321753
REMARK  13 active torsions:
REMARK  status: ('A' for Active; 'I' for Inactive)
REMARK    1  A    between atoms: C2_2  and  C3_3 
REMARK    2  A    between atoms: C3_3  and  C5_5 
REMARK    3  A    between atoms: C5_5  and  N1_6 
REMARK    4  A    between atoms: C5_5  and  C31_39 
REMARK       I    between atoms: N1_6  and  C6_7 
REMARK    5  A    between atoms: C6_7  and  C7_9 
REMARK    6  A    between atoms: C7_9  and  C8_10 
REMARK    7  A    between atoms: C8_10  and  C9_11 
REMARK    8  A    between atoms: C9_11  and  O3_13 
REMARK    9  A    between atoms: O3_13  and  C10_14 
REMARK   10  A    between atoms: C10_14  and  C11_15 
REMARK   11  A    between atoms: C11_15  and  C12_17 
REMARK   12  A    between atoms: C12_17  and  O5_18 
REMARK   13  A    between atoms: C31_39  and  O9_41 
ROOT
HETATM    1  C12 UNL     1      -6.491  49.720 -22.504  1.00  0.00     0.128 C 
HETATM    2  C13 UNL     1      -7.042  49.606 -21.063  1.00  0.00     0.047 C 
HETATM    3  C14 UNL     1      -5.888  50.013 -20.126  1.00  0.00     0.009 C 
HETATM    4  C15 UNL     1      -4.784  50.503 -21.058  1.00  0.00     0.002 C 
HETATM    5  C16 UNL     1      -3.350  50.544 -20.514  1.00  0.00     0.003 C 
HETATM    6  C17 UNL     1      -3.253  51.449 -19.277  1.00  0.00     0.010 C 
HETATM    7  C18 UNL     1      -1.824  51.528 -18.752  1.00  0.00     0.035 C 
HETATM    8  C19 UNL     1      -0.851  51.950 -19.831  1.00  0.00    -0.067 C 
HETATM    9  C20 UNL     1      -0.030  52.990 -19.609  1.00  0.00     0.053 C 
HETATM   10  C21 UNL     1       1.016  53.377 -20.585  1.00  0.00     0.149 C 
HETATM   11  O6  UNL     1       1.670  54.399 -20.399  1.00  0.00    -0.293 OA
HETATM   12  C22 UNL     1       1.273  52.438 -21.730  1.00  0.00     0.084 C 
HETATM   13  C23 UNL     1      -0.051  51.881 -22.239  1.00  0.00     0.022 C 
HETATM   14  C24 UNL     1      -0.893  51.149 -21.150  1.00  0.00    -0.009 C 
HETATM   15  C25 UNL     1      -0.283  49.754 -20.886  1.00  0.00     0.021 C 
HETATM   16  C26 UNL     1      -2.391  51.067 -21.625  1.00  0.00     0.072 C 
HETATM   17  C27 UNL     1      -2.641  50.313 -22.950  1.00  0.00     0.133 C 
HETATM   18  O7  UNL     1      -1.735  49.851 -23.644  1.00  0.00    -0.297 OA
HETATM   19  C28 UNL     1      -4.084  50.226 -23.428  1.00  0.00     0.091 C 
HETATM   20  C29 UNL     1      -4.949  49.614 -22.321  1.00  0.00     0.005 C 
HETATM   21  C30 UNL     1      -4.503  48.151 -22.090  1.00  0.00     0.019 C 
ENDROOT
BRANCH   1  22
HETATM   22  C11 UNL     1      -7.152  48.804 -23.562  1.00  0.00     0.185 C 
HETATM   23  O4  UNL     1      -8.308  48.399 -23.357  1.00  0.00    -0.292 OA
BRANCH  22  24
HETATM   24  C10 UNL     1      -6.361  48.391 -24.804  1.00  0.00     0.260 C 
BRANCH  24  25
HETATM   25  O3  UNL     1      -7.161  47.721 -25.778  1.00  0.00    -0.314 OA
BRANCH  25  26
HETATM   26  C9  UNL     1      -6.561  47.508 -26.982  1.00  0.00     0.259 C 
HETATM   27  O2  UNL     1      -5.493  47.993 -27.329  1.00  0.00    -0.265 OA
BRANCH  26  28
HETATM   28  C8  UNL     1      -7.394  46.552 -27.786  1.00  0.00     0.120 C 
BRANCH  28  29
HETATM   29  C7  UNL     1      -8.768  46.321 -27.167  1.00  0.00     0.112 C 
BRANCH  29  30
HETATM   30  C6  UNL     1      -9.758  45.931 -28.245  1.00  0.00     0.218 C 
HETATM   31  N1  UNL     1      -9.174  45.669 -29.466  1.00  0.00    -0.346 N 
HETATM   32  H11 UNL     1      -8.252  46.071 -29.612  1.00  0.00     0.163 HD
HETATM   33  O1  UNL     1     -10.966  45.839 -28.043  1.00  0.00    -0.274 OA
BRANCH  31  34
HETATM   34  C5  UNL     1     -10.014  45.546 -30.669  1.00  0.00     0.186 C 
BRANCH  34  35
HETATM   35  C3  UNL     1     -10.237  46.927 -31.332  1.00  0.00     0.014 C 
HETATM   36  C4  UNL     1     -10.002  48.054 -30.319  1.00  0.00     0.012 C 
BRANCH  35  37
HETATM   37  C2  UNL     1      -9.392  47.131 -32.611  1.00  0.00     0.002 C 
HETATM   38  C1  UNL     1      -8.292  48.172 -32.447  1.00  0.00     0.005 C 
ENDBRANCH  35  37
ENDBRANCH  34  35
BRANCH  34  39
HETATM   39  C31 UNL     1     -11.334  44.834 -30.320  1.00  0.00     0.163 C 
HETATM   40  O8  UNL     1     -11.480  43.644 -30.090  1.00  0.00    -0.648 OA
BRANCH  39  41
HETATM   41  O9  UNL     1     -12.418  45.645 -30.351  1.00  0.00    -0.775 OA
HETATM   42  H43 UNL     1     -13.154  45.047 -30.094  1.00  0.00     0.167 HD
ENDBRANCH  39  41
ENDBRANCH  34  39
ENDBRANCH  31  34
ENDBRANCH  29  30
ENDBRANCH  28  29
ENDBRANCH  26  28
ENDBRANCH  25  26
ENDBRANCH  24  25
ENDBRANCH  22  24
ENDBRANCH   1  22
BRANCH   1  43
HETATM   43  O5  UNL     1      -6.802  51.066 -22.936  1.00  0.00    -0.381 OA
HETATM   44  H18 UNL     1      -6.905  51.032 -23.909  1.00  0.00     0.211 HD
ENDBRANCH   1  43
TORSDOF 13
ENDMDL
MODEL 6
REMARK minimizedAffinity -8.51238918
REMARK CNNscore 0.337854564
REMARK CNNaffinity 6.44226837
REMARK  13 active torsions:
REMARK  status: ('A' for Active; 'I' for Inactive)
REMARK    1  A    between atoms: C2_2  and  C3_3 
REMARK    2  A    between atoms: C3_3  and  C5_5 
REMARK    3  A    between atoms: C5_5  and  N1_6 
REMARK    4  A    between atoms: C5_5  and  C31_39 
REMARK       I    between atoms: N1_6  and  C6_7 
REMARK    5  A    between atoms: C6_7  and  C7_9 
REMARK    6  A    between atoms: C7_9  and  C8_10 
REMARK    7  A    between atoms: C8_10  and  C9_11 
REMARK    8  A    between atoms: C9_11  and  O3_13 
REMARK    9  A    between atoms: O3_13  and  C10_14 
REMARK   10  A    between atoms: C10_14  and  C11_15 
REMARK   11  A    between atoms: C11_15  and  C12_17 
REMARK   12  A    between atoms: C12_17  and  O5_18 
REMARK   13  A    between atoms: C31_39  and  O9_41 
ROOT
HETATM    1  C12 UNL     1      -2.084  48.295 -19.936  1.00  0.00     0.128 C 
HETATM    2  C13 UNL     1      -3.212  47.385 -20.478  1.00  0.00     0.047 C 
HETATM    3  C14 UNL     1      -3.411  47.779 -21.955  1.00  0.00     0.009 C 
HETATM    4  C15 UNL     1      -2.290  48.770 -22.250  1.00  0.00     0.002 C 
HETATM    5  C16 UNL     1      -2.455  49.705 -23.455  1.00  0.00     0.003 C 
HETATM    6  C17 UNL     1      -2.625  48.906 -24.755  1.00  0.00     0.010 C 
HETATM    7  C18 UNL     1      -2.750  49.824 -25.965  1.00  0.00     0.035 C 
HETATM    8  C19 UNL     1      -1.594  50.796 -26.054  1.00  0.00    -0.067 C 
HETATM    9  C20 UNL     1      -0.891  50.882 -27.196  1.00  0.00     0.053 C 
HETATM   10  C21 UNL     1       0.179  51.891 -27.376  1.00  0.00     0.149 C 
HETATM   11  O6  UNL     1       0.873  51.865 -28.387  1.00  0.00    -0.293 OA
HETATM   12  C22 UNL     1       0.306  52.958 -26.325  1.00  0.00     0.084 C 
HETATM   13  C23 UNL     1       0.086  52.343 -24.948  1.00  0.00     0.022 C 
HETATM   14  C24 UNL     1      -1.285  51.620 -24.786  1.00  0.00    -0.009 C 
HETATM   15  C25 UNL     1      -2.401  52.675 -24.613  1.00  0.00     0.021 C 
HETATM   16  C26 UNL     1      -1.204  50.629 -23.566  1.00  0.00     0.072 C 
HETATM   17  C27 UNL     1      -0.883  51.266 -22.196  1.00  0.00     0.133 C 
HETATM   18  O7  UNL     1      -0.637  52.463 -22.050  1.00  0.00    -0.297 OA
HETATM   19  C28 UNL     1      -0.798  50.321 -21.004  1.00  0.00     0.091 C 
HETATM   20  C29 UNL     1      -2.097  49.516 -20.901  1.00  0.00     0.005 C 
HETATM   21  C30 UNL     1      -3.260  50.484 -20.577  1.00  0.00     0.019 C 
ENDROOT
BRANCH   1  22
HETATM   22  C11 UNL     1      -2.111  48.582 -18.416  1.00  0.00     0.185 C 
HETATM   23  O4  UNL     1      -2.676  47.767 -17.668  1.00  0.00    -0.292 OA
BRANCH  22  24
HETATM   24  C10 UNL     1      -1.482  49.868 -17.878  1.00  0.00     0.260 C 
BRANCH  24  25
HETATM   25  O3  UNL     1      -0.125  49.698 -17.468  1.00  0.00    -0.314 OA
BRANCH  25  26
HETATM   26  C9  UNL     1       0.486  50.817 -16.990  1.00  0.00     0.259 C 
HETATM   27  O2  UNL     1       0.698  51.832 -17.637  1.00  0.00    -0.265 OA
BRANCH  26  28
HETATM   28  C8  UNL     1       0.808  50.618 -15.536  1.00  0.00     0.120 C 
BRANCH  28  29
HETATM   29  C7  UNL     1       0.708  51.914 -14.739  1.00  0.00     0.112 C 
BRANCH  29  30
HETATM   30  C6  UNL     1      -0.524  51.882 -13.859  1.00  0.00     0.218 C 
HETATM   31  N1  UNL     1      -0.375  52.567 -12.671  1.00  0.00    -0.346 N 
HETATM   32  H11 UNL     1       0.581  52.717 -12.363  1.00  0.00     0.163 HD
HETATM   33  O1  UNL     1      -1.565  51.315 -14.184  1.00  0.00    -0.274 OA
BRANCH  31  34
HETATM   34  C5  UNL     1      -1.373  52.402 -11.600  1.00  0.00     0.186 C 
BRANCH  34  35
HETATM   35  C3  UNL     1      -1.257  53.540 -10.557  1.00  0.00     0.014 C 
HETATM   36  C4  UNL     1      -0.003  54.383 -10.817  1.00  0.00     0.012 C 
BRANCH  35  37
HETATM   37  C2  UNL     1      -2.525  54.423 -10.478  1.00  0.00     0.002 C 
HETATM   38  C1  UNL     1      -3.820  53.633 -10.627  1.00  0.00     0.005 C 
ENDBRANCH  35  37
ENDBRANCH  34  35
BRANCH  34  39
HETATM   39  C31 UNL     1      -1.243  51.003 -10.970  1.00  0.00     0.163 C 
HETATM   40  O8  UNL     1      -2.006  50.062 -11.123  1.00  0.00    -0.648 OA
BRANCH  39  41
HETATM   41  O9  UNL     1      -0.198  50.881 -10.118  1.00  0.00    -0.775 OA
HETATM   42  H43 UNL     1      -0.252  49.945  -9.826  1.00  0.00     0.167 HD
ENDBRANCH  39  41
ENDBRANCH  34  39
ENDBRANCH  31  34
ENDBRANCH  29  30
ENDBRANCH  28  29
ENDBRANCH  26  28
ENDBRANCH  25  26
ENDBRANCH  24  25
ENDBRANCH  22  24
ENDBRANCH   1  22
BRANCH   1  43
HETATM   43  O5  UNL     1      -0.854  47.564 -20.152  1.00  0.00    -0.381 OA
HETATM   44  H18 UNL     1      -0.231  47.850 -19.452  1.00  0.00     0.211 HD
ENDBRANCH   1  43
TORSDOF 13
ENDMDL
MODEL 7
REMARK minimizedAffinity -7.87088203
REMARK CNNscore 0.297242701
REMARK CNNaffinity 5.87499666
REMARK  13 active torsions:
REMARK  status: ('A' for Active; 'I' for Inactive)
REMARK    1  A    between atoms: C2_2  and  C3_3 
REMARK    2  A    between atoms: C3_3  and  C5_5 
REMARK    3  A    between atoms: C5_5  and  N1_6 
REMARK    4  A    between atoms: C5_5  and  C31_39 
REMARK       I    between atoms: N1_6  and  C6_7 
REMARK    5  A    between atoms: C6_7  and  C7_9 
REMARK    6  A    between atoms: C7_9  and  C8_10 
REMARK    7  A    between atoms: C8_10  and  C9_11 
REMARK    8  A    between atoms: C9_11  and  O3_13 
REMARK    9  A    between atoms: O3_13  and  C10_14 
REMARK   10  A    between atoms: C10_14  and  C11_15 
REMARK   11  A    between atoms: C11_15  and  C12_17 
REMARK   12  A    between atoms: C12_17  and  O5_18 
REMARK   13  A    between atoms: C31_39  and  O9_41 
ROOT
HETATM    1  C12 UNL     1      -6.541  49.731 -22.528  1.00  0.00     0.128 C 
HETATM    2  C13 UNL     1      -7.093  49.642 -21.086  1.00  0.00     0.047 C 
HETATM    3  C14 UNL     1      -5.937  50.056 -20.154  1.00  0.00     0.009 C 
HETATM    4  C15 UNL     1      -4.829  50.525 -21.092  1.00  0.00     0.002 C 
HETATM    5  C16 UNL     1      -3.395  50.564 -20.549  1.00  0.00     0.003 C 
HETATM    6  C17 UNL     1      -3.292  51.487 -19.326  1.00  0.00     0.010 C 
HETATM    7  C18 UNL     1      -1.864  51.564 -18.801  1.00  0.00     0.035 C 
HETATM    8  C19 UNL     1      -0.887  51.964 -19.886  1.00  0.00    -0.067 C 
HETATM    9  C20 UNL     1      -0.060  53.002 -19.679  1.00  0.00     0.053 C 
HETATM   10  C21 UNL     1       0.988  53.368 -20.660  1.00  0.00     0.149 C 
HETATM   11  O6  UNL     1       1.649  54.388 -20.490  1.00  0.00    -0.293 OA
HETATM   12  C22 UNL     1       1.240  52.410 -21.791  1.00  0.00     0.084 C 
HETATM   13  C23 UNL     1      -0.087  51.855 -22.292  1.00  0.00     0.022 C 
HETATM   14  C24 UNL     1      -0.935  51.144 -21.192  1.00  0.00    -0.009 C 
HETATM   15  C25 UNL     1      -0.333  49.749 -20.908  1.00  0.00     0.021 C 
HETATM   16  C26 UNL     1      -2.433  51.065 -21.668  1.00  0.00     0.072 C 
HETATM   17  C27 UNL     1      -2.687  50.293 -22.981  1.00  0.00     0.133 C 
HETATM   18  O7  UNL     1      -1.784  49.814 -23.668  1.00  0.00    -0.297 OA
HETATM   19  C28 UNL     1      -4.131  50.208 -23.458  1.00  0.00     0.091 C 
HETATM   20  C29 UNL     1      -5.000  49.618 -22.342  1.00  0.00     0.005 C 
HETATM   21  C30 UNL     1      -4.563  48.156 -22.090  1.00  0.00     0.019 C 
ENDROOT
BRANCH   1  22
HETATM   22  C11 UNL     1      -7.207  48.804 -23.572  1.00  0.00     0.185 C 
HETATM   23  O4  UNL     1      -8.363  48.404 -23.359  1.00  0.00    -0.292 OA
BRANCH  22  24
HETATM   24  C10 UNL     1      -6.421  48.373 -24.811  1.00  0.00     0.260 C 
BRANCH  24  25
HETATM   25  O3  UNL     1      -6.801  47.084 -25.294  1.00  0.00    -0.314 OA
BRANCH  25  26
HETATM   26  C9  UNL     1      -7.423  47.073 -26.505  1.00  0.00     0.259 C 
HETATM   27  O2  UNL     1      -7.266  47.909 -27.383  1.00  0.00    -0.265 OA
BRANCH  26  28
HETATM   28  C8  UNL     1      -8.289  45.850 -26.603  1.00  0.00     0.120 C 
BRANCH  28  29
HETATM   29  C7  UNL     1      -8.794  45.388 -25.240  1.00  0.00     0.112 C 
BRANCH  29  30
HETATM   30  C6  UNL     1     -10.236  45.810 -25.055  1.00  0.00     0.218 C 
HETATM   31  N1  UNL     1     -11.033  45.552 -26.151  1.00  0.00    -0.346 N 
HETATM   32  H11 UNL     1     -10.548  45.438 -27.036  1.00  0.00     0.163 HD
HETATM   33  O1  UNL     1     -10.658  46.317 -24.019  1.00  0.00    -0.274 OA
BRANCH  31  34
HETATM   34  C5  UNL     1     -12.379  46.144 -26.233  1.00  0.00     0.186 C 
BRANCH  34  35
HETATM   35  C3  UNL     1     -12.339  47.512 -26.955  1.00  0.00     0.014 C 
HETATM   36  C4  UNL     1     -10.992  48.206 -26.719  1.00  0.00     0.012 C 
BRANCH  35  37
HETATM   37  C2  UNL     1     -12.667  47.413 -28.464  1.00  0.00     0.002 C 
HETATM   38  C1  UNL     1     -13.717  46.357 -28.784  1.00  0.00     0.005 C 
ENDBRANCH  35  37
ENDBRANCH  34  35
BRANCH  34  39
HETATM   39  C31 UNL     1     -13.003  46.232 -24.827  1.00  0.00     0.163 C 
HETATM   40  O8  UNL     1     -13.311  47.251 -24.230  1.00  0.00    -0.648 OA
BRANCH  39  41
HETATM   41  O9  UNL     1     -13.140  45.033 -24.213  1.00  0.00    -0.775 OA
HETATM   42  H43 UNL     1     -13.559  45.265 -23.356  1.00  0.00     0.167 HD
ENDBRANCH  39  41
ENDBRANCH  34  39
ENDBRANCH  31  34
ENDBRANCH  29  30
ENDBRANCH  28  29
ENDBRANCH  26  28
ENDBRANCH  25  26
ENDBRANCH  24  25
ENDBRANCH  22  24
ENDBRANCH   1  22
BRANCH   1  43
HETATM   43  O5  UNL     1      -6.843  51.072 -22.979  1.00  0.00    -0.381 OA
HETATM   44  H18 UNL     1      -6.946  51.025 -23.953  1.00  0.00     0.211 HD
ENDBRANCH   1  43
TORSDOF 13
ENDMDL
MODEL 8
REMARK minimizedAffinity -7.52258778
REMARK CNNscore 0.294988841
REMARK CNNaffinity 6.31474113
REMARK  13 active torsions:
REMARK  status: ('A' for Active; 'I' for Inactive)
REMARK    1  A    between atoms: C2_2  and  C3_3 
REMARK    2  A    between atoms: C3_3  and  C5_5 
REMARK    3  A    between atoms: C5_5  and  N1_6 
REMARK    4  A    between atoms: C5_5  and  C31_39 
REMARK       I    between atoms: N1_6  and  C6_7 
REMARK    5  A    between atoms: C6_7  and  C7_9 
REMARK    6  A    between atoms: C7_9  and  C8_10 
REMARK    7  A    between atoms: C8_10  and  C9_11 
REMARK    8  A    between atoms: C9_11  and  O3_13 
REMARK    9  A    between atoms: O3_13  and  C10_14 
REMARK   10  A    between atoms: C10_14  and  C11_15 
REMARK   11  A    between atoms: C11_15  and  C12_17 
REMARK   12  A    between atoms: C12_17  and  O5_18 
REMARK   13  A    between atoms: C31_39  and  O9_41 
ROOT
HETATM    1  C12 UNL     1      -2.066  48.454 -19.968  1.00  0.00     0.128 C 
HETATM    2  C13 UNL     1      -3.260  47.613 -20.477  1.00  0.00     0.047 C 
HETATM    3  C14 UNL     1      -3.475  48.015 -21.949  1.00  0.00     0.009 C 
HETATM    4  C15 UNL     1      -2.304  48.936 -22.278  1.00  0.00     0.002 C 
HETATM    5  C16 UNL     1      -2.445  49.876 -23.482  1.00  0.00     0.003 C 
HETATM    6  C17 UNL     1      -2.698  49.086 -24.774  1.00  0.00     0.010 C 
HETATM    7  C18 UNL     1      -2.800  50.008 -25.983  1.00  0.00     0.035 C 
HETATM    8  C19 UNL     1      -1.589  50.908 -26.107  1.00  0.00    -0.067 C 
HETATM    9  C20 UNL     1      -0.914  50.949 -27.267  1.00  0.00     0.053 C 
HETATM   10  C21 UNL     1       0.210  51.891 -27.480  1.00  0.00     0.149 C 
HETATM   11  O6  UNL     1       0.874  51.820 -28.509  1.00  0.00    -0.293 OA
HETATM   12  C22 UNL     1       0.430  52.950 -26.436  1.00  0.00     0.084 C 
HETATM   13  C23 UNL     1       0.211  52.353 -25.051  1.00  0.00     0.022 C 
HETATM   14  C24 UNL     1      -1.198  51.714 -24.850  1.00  0.00    -0.009 C 
HETATM   15  C25 UNL     1      -2.242  52.835 -24.651  1.00  0.00     0.021 C 
HETATM   16  C26 UNL     1      -1.144  50.722 -23.629  1.00  0.00     0.072 C 
HETATM   17  C27 UNL     1      -0.748  51.341 -22.271  1.00  0.00     0.133 C 
HETATM   18  O7  UNL     1      -0.426  52.522 -22.135  1.00  0.00    -0.297 OA
HETATM   19  C28 UNL     1      -0.688  50.396 -21.078  1.00  0.00     0.091 C 
HETATM   20  C29 UNL     1      -2.031  49.671 -20.937  1.00  0.00     0.005 C 
HETATM   21  C30 UNL     1      -3.123  50.709 -20.586  1.00  0.00     0.019 C 
ENDROOT
BRANCH   1  22
HETATM   22  C11 UNL     1      -2.034  48.745 -18.449  1.00  0.00     0.185 C 
HETATM   23  O4  UNL     1      -0.966  49.119 -17.939  1.00  0.00    -0.292 OA
BRANCH  22  24
HETATM   24  C10 UNL     1      -3.295  48.530 -17.612  1.00  0.00     0.260 C 
BRANCH  24  25
HETATM   25  O3  UNL     1      -3.094  48.786 -16.222  1.00  0.00    -0.314 OA
BRANCH  25  26
HETATM   26  C9  UNL     1      -2.754  47.702 -15.471  1.00  0.00     0.259 C 
HETATM   27  O2  UNL     1      -3.094  46.551 -15.705  1.00  0.00    -0.265 OA
BRANCH  26  28
HETATM   28  C8  UNL     1      -1.862  48.143 -14.346  1.00  0.00     0.120 C 
BRANCH  28  29
HETATM   29  C7  UNL     1      -2.143  49.577 -13.912  1.00  0.00     0.112 C 
BRANCH  29  30
HETATM   30  C6  UNL     1      -2.915  49.579 -12.610  1.00  0.00     0.218 C 
HETATM   31  N1  UNL     1      -2.341  50.357 -11.626  1.00  0.00    -0.346 N 
HETATM   32  H11 UNL     1      -1.352  50.558 -11.740  1.00  0.00     0.163 HD
HETATM   33  O1  UNL     1      -3.964  48.959 -12.452  1.00  0.00    -0.274 OA
BRANCH  31  34
HETATM   34  C5  UNL     1      -2.815  50.248 -10.236  1.00  0.00     0.186 C 
BRANCH  34  35
HETATM   35  C3  UNL     1      -3.320  51.615  -9.715  1.00  0.00     0.014 C 
HETATM   36  C4  UNL     1      -2.143  52.487  -9.263  1.00  0.00     0.012 C 
BRANCH  35  37
HETATM   37  C2  UNL     1      -4.217  52.359 -10.732  1.00  0.00     0.002 C 
HETATM   38  C1  UNL     1      -3.723  53.763 -11.057  1.00  0.00     0.005 C 
ENDBRANCH  35  37
ENDBRANCH  34  35
BRANCH  34  39
HETATM   39  C31 UNL     1      -1.709  49.645  -9.349  1.00  0.00     0.163 C 
HETATM   40  O8  UNL     1      -0.520  49.574  -9.615  1.00  0.00    -0.648 OA
BRANCH  39  41
HETATM   41  O9  UNL     1      -2.169  49.093  -8.201  1.00  0.00    -0.775 OA
HETATM   42  H43 UNL     1      -1.351  48.779  -7.758  1.00  0.00     0.167 HD
ENDBRANCH  39  41
ENDBRANCH  34  39
ENDBRANCH  31  34
ENDBRANCH  29  30
ENDBRANCH  28  29
ENDBRANCH  26  28
ENDBRANCH  25  26
ENDBRANCH  24  25
ENDBRANCH  22  24
ENDBRANCH   1  22
BRANCH   1  43
HETATM   43  O5  UNL     1      -0.888  47.649 -20.214  1.00  0.00    -0.381 OA
HETATM   44  H18 UNL     1      -0.230  47.898 -19.533  1.00  0.00     0.211 HD
ENDBRANCH   1  43
TORSDOF 13
ENDMDL
MODEL 9
REMARK minimizedAffinity -8.84772778
REMARK CNNscore 0.284668714
REMARK CNNaffinity 6.09546661
REMARK  13 active torsions:
REMARK  status: ('A' for Active; 'I' for Inactive)
REMARK    1  A    between atoms: C2_2  and  C3_3 
REMARK    2  A    between atoms: C3_3  and  C5_5 
REMARK    3  A    between atoms: C5_5  and  N1_6 
REMARK    4  A    between atoms: C5_5  and  C31_39 
REMARK       I    between atoms: N1_6  and  C6_7 
REMARK    5  A    between atoms: C6_7  and  C7_9 
REMARK    6  A    between atoms: C7_9  and  C8_10 
REMARK    7  A    between atoms: C8_10  and  C9_11 
REMARK    8  A    between atoms: C9_11  and  O3_13 
REMARK    9  A    between atoms: O3_13  and  C10_14 
REMARK   10  A    between atoms: C10_14  and  C11_15 
REMARK   11  A    between atoms: C11_15  and  C12_17 
REMARK   12  A    between atoms: C12_17  and  O5_18 
REMARK   13  A    between atoms: C31_39  and  O9_41 
ROOT
HETATM    1  C12 UNL     1      -6.397  49.746 -22.718  1.00  0.00     0.128 C 
HETATM    2  C13 UNL     1      -7.001  49.622 -21.299  1.00  0.00     0.047 C 
HETATM    3  C14 UNL     1      -5.882  50.021 -20.318  1.00  0.00     0.009 C 
HETATM    4  C15 UNL     1      -4.743  50.516 -21.204  1.00  0.00     0.002 C 
HETATM    5  C16 UNL     1      -3.330  50.551 -20.607  1.00  0.00     0.003 C 
HETATM    6  C17 UNL     1      -3.278  51.447 -19.361  1.00  0.00     0.010 C 
HETATM    7  C18 UNL     1      -1.870  51.520 -18.783  1.00  0.00     0.035 C 
HETATM    8  C19 UNL     1      -0.857  51.949 -19.823  1.00  0.00    -0.067 C 
HETATM    9  C20 UNL     1      -0.043  52.986 -19.562  1.00  0.00     0.053 C 
HETATM   10  C21 UNL     1       1.038  53.378 -20.496  1.00  0.00     0.149 C 
HETATM   11  O6  UNL     1       1.686  54.398 -20.280  1.00  0.00    -0.293 OA
HETATM   12  C22 UNL     1       1.337  52.447 -21.637  1.00  0.00     0.084 C 
HETATM   13  C23 UNL     1       0.032  51.896 -22.199  1.00  0.00     0.022 C 
HETATM   14  C24 UNL     1      -0.851  51.157 -21.147  1.00  0.00    -0.009 C 
HETATM   15  C25 UNL     1      -0.253  49.760 -20.871  1.00  0.00     0.021 C 
HETATM   16  C26 UNL     1      -2.331  51.081 -21.679  1.00  0.00     0.072 C 
HETATM   17  C27 UNL     1      -2.532  50.337 -23.017  1.00  0.00     0.133 C 
HETATM   18  O7  UNL     1      -1.602  49.878 -23.681  1.00  0.00    -0.297 OA
HETATM   19  C28 UNL     1      -3.957  50.255 -23.549  1.00  0.00     0.091 C 
HETATM   20  C29 UNL     1      -4.863  49.637 -22.479  1.00  0.00     0.005 C 
HETATM   21  C30 UNL     1      -4.427  48.171 -22.243  1.00  0.00     0.019 C 
ENDROOT
BRANCH   1  22
HETATM   22  C11 UNL     1      -7.019  48.839 -23.806  1.00  0.00     0.185 C 
HETATM   23  O4  UNL     1      -6.279  48.383 -24.694  1.00  0.00    -0.292 OA
BRANCH  22  24
HETATM   24  C10 UNL     1      -8.522  48.558 -23.788  1.00  0.00     0.260 C 
BRANCH  24  25
HETATM   25  O3  UNL     1      -8.982  47.893 -24.965  1.00  0.00    -0.314 OA
BRANCH  25  26
HETATM   26  C9  UNL     1      -9.290  48.707 -26.013  1.00  0.00     0.259 C 
HETATM   27  O2  UNL     1      -9.929  49.745 -25.931  1.00  0.00    -0.265 OA
BRANCH  26  28
HETATM   28  C8  UNL     1      -8.678  48.149 -27.265  1.00  0.00     0.120 C 
BRANCH  28  29
HETATM   29  C7  UNL     1      -9.682  48.061 -28.410  1.00  0.00     0.112 C 
BRANCH  29  30
HETATM   30  C6  UNL     1      -8.951  48.063 -29.736  1.00  0.00     0.218 C 
HETATM   31  N1  UNL     1      -7.747  47.391 -29.706  1.00  0.00    -0.346 N 
HETATM   32  H11 UNL     1      -7.328  47.272 -28.788  1.00  0.00     0.163 HD
HETATM   33  O1  UNL     1      -9.399  48.596 -30.748  1.00  0.00    -0.274 OA
BRANCH  31  34
HETATM   34  C5  UNL     1      -6.800  47.534 -30.825  1.00  0.00     0.186 C 
BRANCH  34  35
HETATM   35  C3  UNL     1      -6.313  46.150 -31.318  1.00  0.00     0.014 C 
HETATM   36  C4  UNL     1      -4.806  46.177 -31.600  1.00  0.00     0.012 C 
BRANCH  35  37
HETATM   37  C2  UNL     1      -6.687  44.997 -30.356  1.00  0.00     0.002 C 
HETATM   38  C1  UNL     1      -7.614  43.964 -30.985  1.00  0.00     0.005 C 
ENDBRANCH  35  37
ENDBRANCH  34  35
BRANCH  34  39
HETATM   39  C31 UNL     1      -5.639  48.461 -30.419  1.00  0.00     0.163 C 
HETATM   40  O8  UNL     1      -4.909  49.085 -31.171  1.00  0.00    -0.648 OA
BRANCH  39  41
HETATM   41  O9  UNL     1      -5.408  48.497 -29.085  1.00  0.00    -0.775 OA
HETATM   42  H43 UNL     1      -4.665  49.134 -29.001  1.00  0.00     0.167 HD
ENDBRANCH  39  41
ENDBRANCH  34  39
ENDBRANCH  31  34
ENDBRANCH  29  30
ENDBRANCH  28  29
ENDBRANCH  26  28
ENDBRANCH  25  26
ENDBRANCH  24  25
ENDBRANCH  22  24
ENDBRANCH   1  22
BRANCH   1  43
HETATM   43  O5  UNL     1      -6.690  51.095 -23.151  1.00  0.00    -0.381 OA
HETATM   44  H18 UNL     1      -6.757  51.069 -24.128  1.00  0.00     0.211 HD
ENDBRANCH   1  43
TORSDOF 13
ENDMDL
