MODEL 1
REMARK minimizedAffinity -7.52309513
REMARK CNNscore 0.831643701
REMARK CNNaffinity 7.35273743
REMARK  7 active torsions:
REMARK  status: ('A' for Active; 'I' for Inactive)
REMARK    1  A    between atoms: C2_2  and  O2_4 
REMARK    2  A    between atoms: O2_4  and  C3_5 
REMARK    3  A    between atoms: C3_5  and  C4_6 
REMARK    4  A    between atoms: C3_5  and  C9_12 
REMARK    5  A    between atoms: C5_7  and  C6_8 
REMARK    6  A    between atoms: C6_8  and  O3_11 
REMARK    7  A    between atoms: C9_12  and  C11_14 
ROOT
HETATM    1  C11 UNL     1       2.036  53.579 -10.795  1.00  0.00     0.001 C 
HETATM    2  C12 UNL     1       0.947  54.627 -10.423  1.00  0.00     0.007 C 
HETATM    3  C13 UNL     1       1.554  55.599  -9.394  1.00  0.00     0.015 C 
HETATM    4  C14 UNL     1       3.062  55.313  -9.428  1.00  0.00    -0.013 C 
HETATM    5  C15 UNL     1       3.660  56.133 -10.615  1.00  0.00     0.021 C 
HETATM    6  C16 UNL     1       3.900  55.699  -8.216  1.00  0.00    -0.068 C 
HETATM    7  C17 UNL     1       5.020  55.003  -7.897  1.00  0.00    -0.068 C 
HETATM    8  C18 UNL     1       5.455  53.799  -8.748  1.00  0.00     0.036 C 
HETATM    9  C19 UNL     1       4.514  53.339  -9.887  1.00  0.00     0.015 C 
HETATM   10  C20 UNL     1       3.059  53.749  -9.623  1.00  0.00    -0.029 C 
HETATM   11  C21 UNL     1       2.536  52.970  -8.374  1.00  0.00     0.016 C 
HETATM   12  C22 UNL     1       5.877  55.323  -6.637  1.00  0.00    -0.015 C 
HETATM   13  C23 UNL     1       5.786  54.085  -5.699  1.00  0.00     0.020 C 
HETATM   14  C24 UNL     1       7.347  55.574  -7.043  1.00  0.00     0.021 C 
HETATM   15  C25 UNL     1       8.292  55.736  -5.857  1.00  0.00     0.080 C 
HETATM   16  C26 UNL     1       7.640  56.399  -4.667  1.00  0.00     0.135 C 
HETATM   17  O4  UNL     1       8.124  56.254  -3.543  1.00  0.00    -0.297 OA
HETATM   18  C27 UNL     1       6.437  57.309  -4.930  1.00  0.00     0.018 C 
HETATM   19  C28 UNL     1       5.782  57.691  -3.583  1.00  0.00     0.023 C 
HETATM   20  C29 UNL     1       7.020  58.605  -5.538  1.00  0.00     0.023 C 
HETATM   21  C30 UNL     1       5.357  56.577  -5.821  1.00  0.00     0.013 C 
HETATM   22  C31 UNL     1       4.608  57.574  -6.720  1.00  0.00     0.011 C 
HETATM   23  C32 UNL     1       3.453  56.907  -7.445  1.00  0.00     0.036 C 
ENDROOT
BRANCH   1  24
HETATM   24  C9  UNL     1       1.443  52.164 -11.108  1.00  0.00     0.020 C 
HETATM   25  C10 UNL     1       1.280  51.334  -9.825  1.00  0.00     0.013 C 
BRANCH  24  26
HETATM   26  C3  UNL     1       2.277  51.310 -12.122  1.00  0.00     0.158 C 
BRANCH  26  27
HETATM   27  O2  UNL     1       3.597  51.060 -11.602  1.00  0.00    -0.312 OA
BRANCH  27  28
HETATM   28  C2  UNL     1       4.168  49.864 -11.913  1.00  0.00     0.255 C 
HETATM   29  C1  UNL     1       3.568  48.780 -11.071  1.00  0.00     0.126 C 
HETATM   30  O1  UNL     1       5.017  49.672 -12.772  1.00  0.00    -0.266 OA
ENDBRANCH  27  28
ENDBRANCH  26  27
BRANCH  26  31
HETATM   31  C4  UNL     1       2.476  51.964 -13.468  1.00  0.00     0.005 C 
HETATM   32  C5  UNL     1       1.846  51.580 -14.592  1.00  0.00     0.008 C 
BRANCH  32  33
HETATM   33  C6  UNL     1       1.984  52.176 -15.975  1.00  0.00     0.068 C 
HETATM   34  C7  UNL     1       1.201  51.331 -16.985  1.00  0.00     0.050 C 
HETATM   35  C8  UNL     1       3.421  52.375 -16.469  1.00  0.00     0.050 C 
BRANCH  33  36
HETATM   36  O3  UNL     1       1.363  53.462 -15.919  1.00  0.00    -0.387 OA
HETATM   37  H13 UNL     1       1.818  53.966 -15.222  1.00  0.00     0.211 HD
ENDBRANCH  33  36
ENDBRANCH  32  33
ENDBRANCH  26  31
ENDBRANCH  24  26
ENDBRANCH   1  24
TORSDOF 7
ENDMDL
MODEL 2
REMARK minimizedAffinity -9.74619484
REMARK CNNscore 0.624401867
REMARK CNNaffinity 7.58033323
REMARK  7 active torsions:
REMARK  status: ('A' for Active; 'I' for Inactive)
REMARK    1  A    between atoms: C2_2  and  O2_4 
REMARK    2  A    between atoms: O2_4  and  C3_5 
REMARK    3  A    between atoms: C3_5  and  C4_6 
REMARK    4  A    between atoms: C3_5  and  C9_12 
REMARK    5  A    between atoms: C5_7  and  C6_8 
REMARK    6  A    between atoms: C6_8  and  O3_11 
REMARK    7  A    between atoms: C9_12  and  C11_14 
ROOT
HETATM    1  C11 UNL     1      -1.402  50.722 -22.809  1.00  0.00     0.001 C 
HETATM    2  C12 UNL     1      -1.093  52.248 -22.801  1.00  0.00     0.007 C 
HETATM    3  C13 UNL     1      -0.542  52.615 -21.411  1.00  0.00     0.015 C 
HETATM    4  C14 UNL     1      -0.229  51.267 -20.745  1.00  0.00    -0.013 C 
HETATM    5  C15 UNL     1       1.187  50.829 -21.234  1.00  0.00     0.021 C 
HETATM    6  C16 UNL     1      -0.161  51.207 -19.224  1.00  0.00    -0.068 C 
HETATM    7  C17 UNL     1      -0.480  50.069 -18.559  1.00  0.00    -0.068 C 
HETATM    8  C18 UNL     1      -0.933  48.819 -19.332  1.00  0.00     0.036 C 
HETATM    9  C19 UNL     1      -1.132  48.945 -20.861  1.00  0.00     0.015 C 
HETATM   10  C20 UNL     1      -1.427  50.391 -21.279  1.00  0.00    -0.029 C 
HETATM   11  C21 UNL     1      -2.812  50.812 -20.691  1.00  0.00     0.016 C 
HETATM   12  C22 UNL     1      -0.480  49.977 -17.005  1.00  0.00    -0.015 C 
HETATM   13  C23 UNL     1      -1.950  49.716 -16.566  1.00  0.00     0.020 C 
HETATM   14  C24 UNL     1       0.427  48.815 -16.541  1.00  0.00     0.021 C 
HETATM   15  C25 UNL     1       0.361  48.546 -15.041  1.00  0.00     0.080 C 
HETATM   16  C26 UNL     1       0.142  49.798 -14.225  1.00  0.00     0.135 C 
HETATM   17  O4  UNL     1      -0.311  49.713 -13.082  1.00  0.00    -0.297 OA
HETATM   18  C27 UNL     1       0.582  51.131 -14.835  1.00  0.00     0.018 C 
HETATM   19  C28 UNL     1       0.060  52.291 -13.957  1.00  0.00     0.023 C 
HETATM   20  C29 UNL     1       2.125  51.144 -14.738  1.00  0.00     0.023 C 
HETATM   21  C30 UNL     1      -0.000  51.307 -16.293  1.00  0.00     0.013 C 
HETATM   22  C31 UNL     1       0.957  52.118 -17.181  1.00  0.00     0.011 C 
HETATM   23  C32 UNL     1       0.327  52.442 -18.524  1.00  0.00     0.036 C 
ENDROOT
BRANCH   1  24
HETATM   24  C9  UNL     1      -2.633  50.351 -23.703  1.00  0.00     0.020 C 
HETATM   25  C10 UNL     1      -2.969  48.855 -23.592  1.00  0.00     0.013 C 
BRANCH  24  26
HETATM   26  C3  UNL     1      -2.467  50.688 -25.224  1.00  0.00     0.158 C 
BRANCH  26  27
HETATM   27  O2  UNL     1      -2.371  49.478 -25.999  1.00  0.00    -0.312 OA
BRANCH  27  28
HETATM   28  C2  UNL     1      -3.184  49.373 -27.085  1.00  0.00     0.255 C 
HETATM   29  C1  UNL     1      -4.261  48.367 -26.819  1.00  0.00     0.126 C 
HETATM   30  O1  UNL     1      -3.093  50.020 -28.119  1.00  0.00    -0.266 OA
ENDBRANCH  27  28
ENDBRANCH  26  27
BRANCH  26  31
HETATM   31  C4  UNL     1      -1.231  51.491 -25.550  1.00  0.00     0.005 C 
HETATM   32  C5  UNL     1      -0.184  51.013 -26.244  1.00  0.00     0.008 C 
BRANCH  32  33
HETATM   33  C6  UNL     1       1.087  51.743 -26.614  1.00  0.00     0.068 C 
HETATM   34  C7  UNL     1       1.103  52.030 -28.118  1.00  0.00     0.050 C 
HETATM   35  C8  UNL     1       2.392  51.050 -26.205  1.00  0.00     0.050 C 
BRANCH  33  36
HETATM   36  O3  UNL     1       1.036  53.003 -25.939  1.00  0.00    -0.387 OA
HETATM   37  H13 UNL     1       0.950  52.810 -24.988  1.00  0.00     0.211 HD
ENDBRANCH  33  36
ENDBRANCH  32  33
ENDBRANCH  26  31
ENDBRANCH  24  26
ENDBRANCH   1  24
TORSDOF 7
ENDMDL
MODEL 3
REMARK minimizedAffinity -7.27758074
REMARK CNNscore 0.614229023
REMARK CNNaffinity 7.50982857
REMARK  7 active torsions:
REMARK  status: ('A' for Active; 'I' for Inactive)
REMARK    1  A    between atoms: C2_2  and  O2_4 
REMARK    2  A    between atoms: O2_4  and  C3_5 
REMARK    3  A    between atoms: C3_5  and  C4_6 
REMARK    4  A    between atoms: C3_5  and  C9_12 
REMARK    5  A    between atoms: C5_7  and  C6_8 
REMARK    6  A    between atoms: C6_8  and  O3_11 
REMARK    7  A    between atoms: C9_12  and  C11_14 
ROOT
HETATM    1  C11 UNL     1       1.966  53.611 -11.042  1.00  0.00     0.001 C 
HETATM    2  C12 UNL     1       0.868  54.641 -10.648  1.00  0.00     0.007 C 
HETATM    3  C13 UNL     1       1.461  55.589  -9.590  1.00  0.00     0.015 C 
HETATM    4  C14 UNL     1       2.972  55.314  -9.622  1.00  0.00    -0.013 C 
HETATM    5  C15 UNL     1       3.571  56.170 -10.782  1.00  0.00     0.021 C 
HETATM    6  C16 UNL     1       3.800  55.673  -8.394  1.00  0.00    -0.068 C 
HETATM    7  C17 UNL     1       4.923  54.977  -8.087  1.00  0.00    -0.068 C 
HETATM    8  C18 UNL     1       5.371  53.798  -8.968  1.00  0.00     0.036 C 
HETATM    9  C19 UNL     1       4.441  53.363 -10.125  1.00  0.00     0.015 C 
HETATM   10  C20 UNL     1       2.982  53.756  -9.859  1.00  0.00    -0.029 C 
HETATM   11  C21 UNL     1       2.457  52.940  -8.635  1.00  0.00     0.016 C 
HETATM   12  C22 UNL     1       5.770  55.268  -6.813  1.00  0.00    -0.015 C 
HETATM   13  C23 UNL     1       5.681  54.005  -5.910  1.00  0.00     0.020 C 
HETATM   14  C24 UNL     1       7.240  55.540  -7.203  1.00  0.00     0.021 C 
HETATM   15  C25 UNL     1       8.177  55.677  -6.008  1.00  0.00     0.080 C 
HETATM   16  C26 UNL     1       7.513  56.303  -4.804  1.00  0.00     0.135 C 
HETATM   17  O4  UNL     1       7.991  56.131  -3.681  1.00  0.00    -0.297 OA
HETATM   18  C27 UNL     1       6.305  57.212  -5.050  1.00  0.00     0.018 C 
HETATM   19  C28 UNL     1       5.639  57.552  -3.698  1.00  0.00     0.023 C 
HETATM   20  C29 UNL     1       6.883  58.527  -5.620  1.00  0.00     0.023 C 
HETATM   21  C30 UNL     1       5.236  56.496  -5.968  1.00  0.00     0.013 C 
HETATM   22  C31 UNL     1       4.486  57.512  -6.845  1.00  0.00     0.011 C 
HETATM   23  C32 UNL     1       3.339  56.856  -7.594  1.00  0.00     0.036 C 
ENDROOT
BRANCH   1  24
HETATM   24  C9  UNL     1       1.385  52.200 -11.396  1.00  0.00     0.020 C 
HETATM   25  C10 UNL     1       2.442  51.320 -12.082  1.00  0.00     0.013 C 
BRANCH  24  26
HETATM   26  C3  UNL     1       0.118  52.223 -12.317  1.00  0.00     0.158 C 
BRANCH  26  27
HETATM   27  O2  UNL     1      -0.795  51.175 -11.942  1.00  0.00    -0.312 OA
BRANCH  27  28
HETATM   28  C2  UNL     1      -1.808  51.510 -11.098  1.00  0.00     0.255 C 
HETATM   29  C1  UNL     1      -2.902  52.193 -11.861  1.00  0.00     0.126 C 
HETATM   30  O1  UNL     1      -1.859  51.267  -9.900  1.00  0.00    -0.266 OA
ENDBRANCH  27  28
ENDBRANCH  26  27
BRANCH  26  31
HETATM   31  C4  UNL     1       0.413  52.016 -13.783  1.00  0.00     0.005 C 
HETATM   32  C5  UNL     1       1.544  52.420 -14.388  1.00  0.00     0.008 C 
BRANCH  32  33
HETATM   33  C6  UNL     1       1.921  52.255 -15.842  1.00  0.00     0.068 C 
HETATM   34  C7  UNL     1       1.244  51.006 -16.416  1.00  0.00     0.050 C 
HETATM   35  C8  UNL     1       3.425  52.210 -16.135  1.00  0.00     0.050 C 
BRANCH  33  36
HETATM   36  O3  UNL     1       1.380  53.388 -16.527  1.00  0.00    -0.387 OA
HETATM   37  H13 UNL     1       1.759  54.179 -16.106  1.00  0.00     0.211 HD
ENDBRANCH  33  36
ENDBRANCH  32  33
ENDBRANCH  26  31
ENDBRANCH  24  26
ENDBRANCH   1  24
TORSDOF 7
ENDMDL
MODEL 4
REMARK minimizedAffinity -7.42763138
REMARK CNNscore 0.595136046
REMARK CNNaffinity 6.3181591
REMARK  7 active torsions:
REMARK  status: ('A' for Active; 'I' for Inactive)
REMARK    1  A    between atoms: C2_2  and  O2_4 
REMARK    2  A    between atoms: O2_4  and  C3_5 
REMARK    3  A    between atoms: C3_5  and  C4_6 
REMARK    4  A    between atoms: C3_5  and  C9_12 
REMARK    5  A    between atoms: C5_7  and  C6_8 
REMARK    6  A    between atoms: C6_8  and  O3_11 
REMARK    7  A    between atoms: C9_12  and  C11_14 
ROOT
HETATM    1  C11 UNL     1     -14.230  45.829 -26.383  1.00  0.00     0.001 C 
HETATM    2  C12 UNL     1     -15.040  45.685 -27.704  1.00  0.00     0.007 C 
HETATM    3  C13 UNL     1     -14.045  45.709 -28.879  1.00  0.00     0.015 C 
HETATM    4  C14 UNL     1     -12.666  45.535 -28.226  1.00  0.00    -0.013 C 
HETATM    5  C15 UNL     1     -12.444  44.004 -28.019  1.00  0.00     0.021 C 
HETATM    6  C16 UNL     1     -11.437  46.015 -28.989  1.00  0.00    -0.068 C 
HETATM    7  C17 UNL     1     -10.335  46.446 -28.327  1.00  0.00    -0.068 C 
HETATM    8  C18 UNL     1     -10.312  46.474 -26.790  1.00  0.00     0.036 C 
HETATM    9  C19 UNL     1     -11.618  46.118 -26.040  1.00  0.00     0.015 C 
HETATM   10  C20 UNL     1     -12.859  46.374 -26.905  1.00  0.00    -0.029 C 
HETATM   11  C21 UNL     1     -12.985  47.910 -27.160  1.00  0.00     0.016 C 
HETATM   12  C22 UNL     1      -9.077  47.000 -29.061  1.00  0.00    -0.015 C 
HETATM   13  C23 UNL     1      -8.942  48.498 -28.665  1.00  0.00     0.020 C 
HETATM   14  C24 UNL     1      -7.819  46.218 -28.622  1.00  0.00     0.021 C 
HETATM   15  C25 UNL     1      -6.516  46.796 -29.167  1.00  0.00     0.080 C 
HETATM   16  C26 UNL     1      -6.670  47.409 -30.539  1.00  0.00     0.135 C 
HETATM   17  O4  UNL     1      -5.846  48.234 -30.938  1.00  0.00    -0.297 OA
HETATM   18  C27 UNL     1      -7.814  46.902 -31.421  1.00  0.00     0.018 C 
HETATM   19  C28 UNL     1      -7.940  47.811 -32.665  1.00  0.00     0.023 C 
HETATM   20  C29 UNL     1      -7.372  45.507 -31.916  1.00  0.00     0.023 C 
HETATM   21  C30 UNL     1      -9.187  46.933 -30.640  1.00  0.00     0.013 C 
HETATM   22  C31 UNL     1     -10.116  45.798 -31.101  1.00  0.00     0.011 C 
HETATM   23  C32 UNL     1     -11.499  45.928 -30.486  1.00  0.00     0.036 C 
ENDROOT
BRANCH   1  24
HETATM   24  C9  UNL     1     -15.004  46.615 -25.272  1.00  0.00     0.020 C 
HETATM   25  C10 UNL     1     -14.117  46.854 -24.040  1.00  0.00     0.013 C 
BRANCH  24  26
HETATM   26  C3  UNL     1     -16.324  45.929 -24.779  1.00  0.00     0.158 C 
BRANCH  26  27
HETATM   27  O2  UNL     1     -17.405  46.208 -25.689  1.00  0.00    -0.312 OA
BRANCH  27  28
HETATM   28  C2  UNL     1     -18.653  46.304 -25.155  1.00  0.00     0.255 C 
HETATM   29  C1  UNL     1     -19.280  44.946 -25.079  1.00  0.00     0.126 C 
HETATM   30  O1  UNL     1     -19.189  47.328 -24.755  1.00  0.00    -0.266 OA
ENDBRANCH  27  28
ENDBRANCH  26  27
BRANCH  26  31
HETATM   31  C4  UNL     1     -16.792  46.389 -23.420  1.00  0.00     0.005 C 
HETATM   32  C5  UNL     1     -16.849  45.597 -22.335  1.00  0.00     0.008 C 
BRANCH  32  33
HETATM   33  C6  UNL     1     -17.301  45.972 -20.943  1.00  0.00     0.068 C 
HETATM   34  C7  UNL     1     -16.234  46.835 -20.264  1.00  0.00     0.050 C 
HETATM   35  C8  UNL     1     -17.677  44.798 -20.031  1.00  0.00     0.050 C 
BRANCH  33  36
HETATM   36  O3  UNL     1     -18.467  46.783 -21.107  1.00  0.00    -0.387 OA
HETATM   37  H13 UNL     1     -19.113  46.253 -21.605  1.00  0.00     0.211 HD
ENDBRANCH  33  36
ENDBRANCH  32  33
ENDBRANCH  26  31
ENDBRANCH  24  26
ENDBRANCH   1  24
TORSDOF 7
ENDMDL
MODEL 5
REMARK minimizedAffinity -7.23872662
REMARK CNNscore 0.54197973
REMARK CNNaffinity 7.22572184
REMARK  7 active torsions:
REMARK  status: ('A' for Active; 'I' for Inactive)
REMARK    1  A    between atoms: C2_2  and  O2_4 
REMARK    2  A    between atoms: O2_4  and  C3_5 
REMARK    3  A    between atoms: C3_5  and  C4_6 
REMARK    4  A    between atoms: C3_5  and  C9_12 
REMARK    5  A    between atoms: C5_7  and  C6_8 
REMARK    6  A    between atoms: C6_8  and  O3_11 
REMARK    7  A    between atoms: C9_12  and  C11_14 
ROOT
HETATM    1  C11 UNL     1       1.982  53.262 -11.143  1.00  0.00     0.001 C 
HETATM    2  C12 UNL     1       0.891  54.342 -10.889  1.00  0.00     0.007 C 
HETATM    3  C13 UNL     1       1.449  55.352  -9.870  1.00  0.00     0.015 C 
HETATM    4  C14 UNL     1       2.951  55.043  -9.794  1.00  0.00    -0.013 C 
HETATM    5  C15 UNL     1       3.637  55.797 -10.977  1.00  0.00     0.021 C 
HETATM    6  C16 UNL     1       3.718  55.472  -8.550  1.00  0.00    -0.068 C 
HETATM    7  C17 UNL     1       4.803  54.776  -8.129  1.00  0.00    -0.068 C 
HETATM    8  C18 UNL     1       5.269  53.526  -8.894  1.00  0.00     0.036 C 
HETATM    9  C19 UNL     1       4.393  53.027 -10.068  1.00  0.00     0.015 C 
HETATM   10  C20 UNL     1       2.932  53.471  -9.917  1.00  0.00    -0.029 C 
HETATM   11  C21 UNL     1       2.318  52.759  -8.669  1.00  0.00     0.016 C 
HETATM   12  C22 UNL     1       5.584  55.142  -6.832  1.00  0.00    -0.015 C 
HETATM   13  C23 UNL     1       5.412  53.951  -5.846  1.00  0.00     0.020 C 
HETATM   14  C24 UNL     1       7.081  55.351  -7.155  1.00  0.00     0.021 C 
HETATM   15  C25 UNL     1       7.952  55.555  -5.920  1.00  0.00     0.080 C 
HETATM   16  C26 UNL     1       7.238  56.283  -4.805  1.00  0.00     0.135 C 
HETATM   17  O4  UNL     1       7.648  56.184  -3.648  1.00  0.00    -0.297 OA
HETATM   18  C27 UNL     1       6.071  57.198  -5.187  1.00  0.00     0.018 C 
HETATM   19  C28 UNL     1       5.340  57.652  -3.903  1.00  0.00     0.023 C 
HETATM   20  C29 UNL     1       6.715  58.454  -5.815  1.00  0.00     0.023 C 
HETATM   21  C30 UNL     1       5.037  56.440  -6.110  1.00  0.00     0.013 C 
HETATM   22  C31 UNL     1       4.364  57.405  -7.100  1.00  0.00     0.011 C 
HETATM   23  C32 UNL     1       3.244  56.722  -7.866  1.00  0.00     0.036 C 
ENDROOT
BRANCH   1  24
HETATM   24  C9  UNL     1       1.384  51.842 -11.427  1.00  0.00     0.020 C 
HETATM   25  C10 UNL     1       2.497  50.806 -11.653  1.00  0.00     0.013 C 
BRANCH  24  26
HETATM   26  C3  UNL     1       0.414  51.771 -12.655  1.00  0.00     0.158 C 
BRANCH  26  27
HETATM   27  O2  UNL     1       1.001  52.420 -13.799  1.00  0.00    -0.312 OA
BRANCH  27  28
HETATM   28  C2  UNL     1       1.102  51.688 -14.941  1.00  0.00     0.255 C 
HETATM   29  C1  UNL     1       1.688  52.528 -16.034  1.00  0.00     0.126 C 
HETATM   30  O1  UNL     1       0.802  50.509 -15.071  1.00  0.00    -0.266 OA
ENDBRANCH  27  28
ENDBRANCH  26  27
BRANCH  26  31
HETATM   31  C4  UNL     1      -0.919  52.444 -12.431  1.00  0.00     0.005 C 
HETATM   32  C5  UNL     1      -1.817  52.049 -11.511  1.00  0.00     0.008 C 
BRANCH  32  33
HETATM   33  C6  UNL     1      -3.168  52.661 -11.221  1.00  0.00     0.068 C 
HETATM   34  C7  UNL     1      -3.019  53.784 -10.190  1.00  0.00     0.050 C 
HETATM   35  C8  UNL     1      -4.254  51.680 -10.766  1.00  0.00     0.050 C 
BRANCH  33  36
HETATM   36  O3  UNL     1      -3.607  53.258 -12.444  1.00  0.00    -0.387 OA
HETATM   37  H13 UNL     1      -3.627  52.551 -13.112  1.00  0.00     0.211 HD
ENDBRANCH  33  36
ENDBRANCH  32  33
ENDBRANCH  26  31
ENDBRANCH  24  26
ENDBRANCH   1  24
TORSDOF 7
ENDMDL
MODEL 6
REMARK minimizedAffinity -9.17718124
REMARK CNNscore 0.538512707
REMARK CNNaffinity 6.90449381
REMARK  7 active torsions:
REMARK  status: ('A' for Active; 'I' for Inactive)
REMARK    1  A    between atoms: C2_2  and  O2_4 
REMARK    2  A    between atoms: O2_4  and  C3_5 
REMARK    3  A    between atoms: C3_5  and  C4_6 
REMARK    4  A    between atoms: C3_5  and  C9_12 
REMARK    5  A    between atoms: C5_7  and  C6_8 
REMARK    6  A    between atoms: C6_8  and  O3_11 
REMARK    7  A    between atoms: C9_12  and  C11_14 
ROOT
HETATM    1  C11 UNL     1      -1.664  50.758 -21.913  1.00  0.00     0.001 C 
HETATM    2  C12 UNL     1      -1.245  50.642 -23.407  1.00  0.00     0.007 C 
HETATM    3  C13 UNL     1      -2.406  49.991 -24.180  1.00  0.00     0.015 C 
HETATM    4  C14 UNL     1      -3.596  50.039 -23.210  1.00  0.00    -0.013 C 
HETATM    5  C15 UNL     1      -4.245  51.452 -23.345  1.00  0.00     0.021 C 
HETATM    6  C16 UNL     1      -4.740  49.054 -23.417  1.00  0.00    -0.068 C 
HETATM    7  C17 UNL     1      -5.479  48.618 -22.366  1.00  0.00    -0.068 C 
HETATM    8  C18 UNL     1      -5.162  49.100 -20.940  1.00  0.00     0.036 C 
HETATM    9  C19 UNL     1      -3.910  49.986 -20.737  1.00  0.00     0.015 C 
HETATM   10  C20 UNL     1      -2.868  49.760 -21.839  1.00  0.00    -0.029 C 
HETATM   11  C21 UNL     1      -2.315  48.304 -21.717  1.00  0.00     0.016 C 
HETATM   12  C22 UNL     1      -6.620  47.569 -22.519  1.00  0.00    -0.015 C 
HETATM   13  C23 UNL     1      -6.181  46.302 -21.730  1.00  0.00     0.020 C 
HETATM   14  C24 UNL     1      -7.938  48.128 -21.937  1.00  0.00     0.021 C 
HETATM   15  C25 UNL     1      -9.072  47.109 -21.897  1.00  0.00     0.080 C 
HETATM   16  C26 UNL     1      -9.027  46.129 -23.046  1.00  0.00     0.135 C 
HETATM   17  O4  UNL     1      -9.610  45.048 -22.952  1.00  0.00    -0.297 OA
HETATM   18  C27 UNL     1      -8.321  46.570 -24.331  1.00  0.00     0.018 C 
HETATM   19  C28 UNL     1      -8.181  45.357 -25.278  1.00  0.00     0.023 C 
HETATM   20  C29 UNL     1      -9.281  47.573 -25.011  1.00  0.00     0.023 C 
HETATM   21  C30 UNL     1      -6.877  47.130 -24.019  1.00  0.00     0.013 C 
HETATM   22  C31 UNL     1      -6.480  48.233 -25.014  1.00  0.00     0.011 C 
HETATM   23  C32 UNL     1      -5.031  48.649 -24.833  1.00  0.00     0.036 C 
ENDROOT
BRANCH   1  24
HETATM   24  C9  UNL     1      -0.461  50.596 -20.924  1.00  0.00     0.020 C 
HETATM   25  C10 UNL     1      -0.803  49.620 -19.787  1.00  0.00     0.013 C 
BRANCH  24  26
HETATM   26  C3  UNL     1       0.037  51.930 -20.270  1.00  0.00     0.158 C 
BRANCH  26  27
HETATM   27  O2  UNL     1       1.266  52.362 -20.883  1.00  0.00    -0.312 OA
BRANCH  27  28
HETATM   28  C2  UNL     1       1.261  53.582 -21.485  1.00  0.00     0.255 C 
HETATM   29  C1  UNL     1       0.841  53.442 -22.916  1.00  0.00     0.126 C 
HETATM   30  O1  UNL     1       1.520  54.652 -20.950  1.00  0.00    -0.266 OA
ENDBRANCH  27  28
ENDBRANCH  26  27
BRANCH  26  31
HETATM   31  C4  UNL     1       0.322  51.826 -18.791  1.00  0.00     0.005 C 
HETATM   32  C5  UNL     1       1.382  52.392 -18.187  1.00  0.00     0.008 C 
BRANCH  32  33
HETATM   33  C6  UNL     1       1.742  52.340 -16.720  1.00  0.00     0.068 C 
HETATM   34  C7  UNL     1       3.264  52.406 -16.556  1.00  0.00     0.050 C 
HETATM   35  C8  UNL     1       1.189  51.139 -15.945  1.00  0.00     0.050 C 
BRANCH  33  36
HETATM   36  O3  UNL     1       1.196  53.524 -16.133  1.00  0.00    -0.387 OA
HETATM   37  H13 UNL     1       0.239  53.510 -16.307  1.00  0.00     0.211 HD
ENDBRANCH  33  36
ENDBRANCH  32  33
ENDBRANCH  26  31
ENDBRANCH  24  26
ENDBRANCH   1  24
TORSDOF 7
ENDMDL
MODEL 7
REMARK minimizedAffinity -9.57948971
REMARK CNNscore 0.46206069
REMARK CNNaffinity 6.92199707
REMARK  7 active torsions:
REMARK  status: ('A' for Active; 'I' for Inactive)
REMARK    1  A    between atoms: C2_2  and  O2_4 
REMARK    2  A    between atoms: O2_4  and  C3_5 
REMARK    3  A    between atoms: C3_5  and  C4_6 
REMARK    4  A    between atoms: C3_5  and  C9_12 
REMARK    5  A    between atoms: C5_7  and  C6_8 
REMARK    6  A    between atoms: C6_8  and  O3_11 
REMARK    7  A    between atoms: C9_12  and  C11_14 
ROOT
HETATM    1  C11 UNL     1      -1.816  50.859 -23.107  1.00  0.00     0.001 C 
HETATM    2  C12 UNL     1      -1.619  50.474 -24.602  1.00  0.00     0.007 C 
HETATM    3  C13 UNL     1      -2.865  49.696 -25.061  1.00  0.00     0.015 C 
HETATM    4  C14 UNL     1      -3.899  49.921 -23.949  1.00  0.00    -0.013 C 
HETATM    5  C15 UNL     1      -4.597  51.288 -24.237  1.00  0.00     0.021 C 
HETATM    6  C16 UNL     1      -5.036  48.918 -23.801  1.00  0.00    -0.068 C 
HETATM    7  C17 UNL     1      -5.601  48.681 -22.591  1.00  0.00    -0.068 C 
HETATM    8  C18 UNL     1      -5.089  49.413 -21.339  1.00  0.00     0.036 C 
HETATM    9  C19 UNL     1      -3.843  50.318 -21.487  1.00  0.00     0.015 C 
HETATM   10  C20 UNL     1      -2.970  49.894 -22.675  1.00  0.00    -0.029 C 
HETATM   11  C21 UNL     1      -2.368  48.483 -22.378  1.00  0.00     0.016 C 
HETATM   12  C22 UNL     1      -6.725  47.625 -22.380  1.00  0.00    -0.015 C 
HETATM   13  C23 UNL     1      -6.143  46.521 -21.451  1.00  0.00     0.020 C 
HETATM   14  C24 UNL     1      -7.956  48.283 -21.717  1.00  0.00     0.021 C 
HETATM   15  C25 UNL     1      -9.046  47.291 -21.325  1.00  0.00     0.080 C 
HETATM   16  C26 UNL     1      -9.147  46.118 -22.273  1.00  0.00     0.135 C 
HETATM   17  O4  UNL     1      -9.682  45.073 -21.900  1.00  0.00    -0.297 OA
HETATM   18  C27 UNL     1      -8.650  46.318 -23.707  1.00  0.00     0.018 C 
HETATM   19  C28 UNL     1      -8.621  44.953 -24.431  1.00  0.00     0.023 C 
HETATM   20  C29 UNL     1      -9.724  47.183 -24.404  1.00  0.00     0.023 C 
HETATM   21  C30 UNL     1      -7.190  46.922 -23.721  1.00  0.00     0.013 C 
HETATM   22  C31 UNL     1      -6.973  47.825 -24.946  1.00  0.00     0.011 C 
HETATM   23  C32 UNL     1      -5.523  48.263 -25.061  1.00  0.00     0.036 C 
ENDROOT
BRANCH   1  24
HETATM   24  C9  UNL     1      -0.476  50.877 -22.297  1.00  0.00     0.020 C 
HETATM   25  C10 UNL     1      -0.742  50.949 -20.784  1.00  0.00     0.013 C 
BRANCH  24  26
HETATM   26  C3  UNL     1       0.499  52.048 -22.662  1.00  0.00     0.158 C 
BRANCH  26  27
HETATM   27  O2  UNL     1       0.144  53.242 -21.940  1.00  0.00    -0.312 OA
BRANCH  27  28
HETATM   28  C2  UNL     1       1.163  53.961 -21.396  1.00  0.00     0.255 C 
HETATM   29  C1  UNL     1       1.436  53.485 -20.003  1.00  0.00     0.126 C 
HETATM   30  O1  UNL     1       1.801  54.843 -21.955  1.00  0.00    -0.266 OA
ENDBRANCH  27  28
ENDBRANCH  26  27
BRANCH  26  31
HETATM   31  C4  UNL     1       0.492  52.426 -24.123  1.00  0.00     0.005 C 
HETATM   32  C5  UNL     1       1.154  51.751 -25.079  1.00  0.00     0.008 C 
BRANCH  32  33
HETATM   33  C6  UNL     1       1.202  52.057 -26.559  1.00  0.00     0.068 C 
HETATM   34  C7  UNL     1       0.126  51.251 -27.292  1.00  0.00     0.050 C 
HETATM   35  C8  UNL     1       2.561  51.843 -27.235  1.00  0.00     0.050 C 
BRANCH  33  36
HETATM   36  O3  UNL     1       0.866  53.441 -26.691  1.00  0.00    -0.387 OA
HETATM   37  H13 UNL     1       1.511  53.940 -26.161  1.00  0.00     0.211 HD
ENDBRANCH  33  36
ENDBRANCH  32  33
ENDBRANCH  26  31
ENDBRANCH  24  26
ENDBRANCH   1  24
TORSDOF 7
ENDMDL
MODEL 8
REMARK minimizedAffinity -7.53360367
REMARK CNNscore 0.39415136
REMARK CNNaffinity 6.14145279
REMARK  7 active torsions:
REMARK  status: ('A' for Active; 'I' for Inactive)
REMARK    1  A    between atoms: C2_2  and  O2_4 
REMARK    2  A    between atoms: O2_4  and  C3_5 
REMARK    3  A    between atoms: C3_5  and  C4_6 
REMARK    4  A    between atoms: C3_5  and  C9_12 
REMARK    5  A    between atoms: C5_7  and  C6_8 
REMARK    6  A    between atoms: C6_8  and  O3_11 
REMARK    7  A    between atoms: C9_12  and  C11_14 
ROOT
HETATM    1  C11 UNL     1     -13.458  46.149 -27.636  1.00  0.00     0.001 C 
HETATM    2  C12 UNL     1     -13.097  47.566 -27.103  1.00  0.00     0.007 C 
HETATM    3  C13 UNL     1     -11.804  48.023 -27.802  1.00  0.00     0.015 C 
HETATM    4  C14 UNL     1     -11.612  47.030 -28.957  1.00  0.00    -0.013 C 
HETATM    5  C15 UNL     1     -12.483  47.536 -30.150  1.00  0.00     0.021 C 
HETATM    6  C16 UNL     1     -10.213  46.850 -29.534  1.00  0.00    -0.068 C 
HETATM    7  C17 UNL     1      -9.834  45.667 -30.078  1.00  0.00    -0.068 C 
HETATM    8  C18 UNL     1     -10.808  44.478 -30.108  1.00  0.00     0.036 C 
HETATM    9  C19 UNL     1     -12.170  44.638 -29.391  1.00  0.00     0.015 C 
HETATM   10  C20 UNL     1     -12.106  45.694 -28.280  1.00  0.00    -0.029 C 
HETATM   11  C21 UNL     1     -11.153  45.181 -27.153  1.00  0.00     0.016 C 
HETATM   12  C22 UNL     1      -8.398  45.418 -30.628  1.00  0.00    -0.015 C 
HETATM   13  C23 UNL     1      -7.754  44.319 -29.734  1.00  0.00     0.020 C 
HETATM   14  C24 UNL     1      -8.466  44.937 -32.095  1.00  0.00     0.021 C 
HETATM   15  C25 UNL     1      -7.117  44.513 -32.665  1.00  0.00     0.080 C 
HETATM   16  C26 UNL     1      -5.963  45.316 -32.112  1.00  0.00     0.135 C 
HETATM   17  O4  UNL     1      -4.819  44.861 -32.165  1.00  0.00    -0.297 OA
HETATM   18  C27 UNL     1      -6.262  46.720 -31.583  1.00  0.00     0.018 C 
HETATM   19  C28 UNL     1      -5.013  47.268 -30.857  1.00  0.00     0.023 C 
HETATM   20  C29 UNL     1      -6.486  47.599 -32.835  1.00  0.00     0.023 C 
HETATM   21  C30 UNL     1      -7.464  46.695 -30.558  1.00  0.00     0.013 C 
HETATM   22  C31 UNL     1      -8.275  48.000 -30.617  1.00  0.00     0.011 C 
HETATM   23  C32 UNL     1      -9.318  48.055 -29.515  1.00  0.00     0.036 C 
ENDROOT
BRANCH   1  24
HETATM   24  C9  UNL     1     -14.147  45.246 -26.558  1.00  0.00     0.020 C 
HETATM   25  C10 UNL     1     -15.306  44.441 -27.166  1.00  0.00     0.013 C 
BRANCH  24  26
HETATM   26  C3  UNL     1     -14.705  46.016 -25.313  1.00  0.00     0.158 C 
BRANCH  26  27
HETATM   27  O2  UNL     1     -13.974  45.652 -24.127  1.00  0.00    -0.312 OA
BRANCH  27  28
HETATM   28  C2  UNL     1     -13.298  46.645 -23.489  1.00  0.00     0.255 C 
HETATM   29  C1  UNL     1     -14.106  47.152 -22.335  1.00  0.00     0.126 C 
HETATM   30  O1  UNL     1     -12.180  47.054 -23.773  1.00  0.00    -0.266 OA
ENDBRANCH  27  28
ENDBRANCH  26  27
BRANCH  26  31
HETATM   31  C4  UNL     1     -16.158  45.735 -25.011  1.00  0.00     0.005 C 
HETATM   32  C5  UNL     1     -17.058  46.683 -24.696  1.00  0.00     0.008 C 
BRANCH  32  33
HETATM   33  C6  UNL     1     -18.524  46.493 -24.380  1.00  0.00     0.068 C 
HETATM   34  C7  UNL     1     -18.714  46.332 -22.869  1.00  0.00     0.050 C 
HETATM   35  C8  UNL     1     -19.214  45.339 -25.116  1.00  0.00     0.050 C 
BRANCH  33  36
HETATM   36  O3  UNL     1     -19.176  47.705 -24.768  1.00  0.00    -0.387 OA
HETATM   37  H13 UNL     1     -18.987  47.838 -25.713  1.00  0.00     0.211 HD
ENDBRANCH  33  36
ENDBRANCH  32  33
ENDBRANCH  26  31
ENDBRANCH  24  26
ENDBRANCH   1  24
TORSDOF 7
ENDMDL
MODEL 9
REMARK minimizedAffinity -8.67260361
REMARK CNNscore 0.333981037
REMARK CNNaffinity 6.50619268
REMARK  7 active torsions:
REMARK  status: ('A' for Active; 'I' for Inactive)
REMARK    1  A    between atoms: C2_2  and  O2_4 
REMARK    2  A    between atoms: O2_4  and  C3_5 
REMARK    3  A    between atoms: C3_5  and  C4_6 
REMARK    4  A    between atoms: C3_5  and  C9_12 
REMARK    5  A    between atoms: C5_7  and  C6_8 
REMARK    6  A    between atoms: C6_8  and  O3_11 
REMARK    7  A    between atoms: C9_12  and  C11_14 
ROOT
HETATM    1  C11 UNL     1      -3.138  50.390 -22.182  1.00  0.00     0.001 C 
HETATM    2  C12 UNL     1      -3.574  50.368 -20.688  1.00  0.00     0.007 C 
HETATM    3  C13 UNL     1      -4.822  49.475 -20.569  1.00  0.00     0.015 C 
HETATM    4  C14 UNL     1      -4.902  48.733 -21.911  1.00  0.00    -0.013 C 
HETATM    5  C15 UNL     1      -3.957  47.494 -21.809  1.00  0.00     0.021 C 
HETATM    6  C16 UNL     1      -6.248  48.171 -22.350  1.00  0.00    -0.068 C 
HETATM    7  C17 UNL     1      -6.555  48.054 -23.665  1.00  0.00    -0.068 C 
HETATM    8  C18 UNL     1      -5.552  48.504 -24.741  1.00  0.00     0.036 C 
HETATM    9  C19 UNL     1      -4.253  49.201 -24.272  1.00  0.00     0.015 C 
HETATM   10  C20 UNL     1      -4.426  49.865 -22.900  1.00  0.00    -0.029 C 
HETATM   11  C21 UNL     1      -5.448  51.039 -23.035  1.00  0.00     0.016 C 
HETATM   12  C22 UNL     1      -7.939  47.540 -24.162  1.00  0.00    -0.015 C 
HETATM   13  C23 UNL     1      -8.620  48.721 -24.912  1.00  0.00     0.020 C 
HETATM   14  C24 UNL     1      -7.748  46.342 -25.120  1.00  0.00     0.021 C 
HETATM   15  C25 UNL     1      -9.040  45.875 -25.783  1.00  0.00     0.080 C 
HETATM   16  C26 UNL     1     -10.253  46.039 -24.897  1.00  0.00     0.135 C 
HETATM   17  O4  UNL     1     -11.377  46.078 -25.399  1.00  0.00    -0.297 OA
HETATM   18  C27 UNL     1     -10.029  46.059 -23.383  1.00  0.00     0.018 C 
HETATM   19  C28 UNL     1     -11.343  46.468 -22.679  1.00  0.00     0.023 C 
HETATM   20  C29 UNL     1      -9.735  44.594 -22.985  1.00  0.00     0.023 C 
HETATM   21  C30 UNL     1      -8.907  47.099 -22.989  1.00  0.00     0.013 C 
HETATM   22  C31 UNL     1      -8.128  46.636 -21.748  1.00  0.00     0.011 C 
HETATM   23  C32 UNL     1      -7.172  47.710 -21.260  1.00  0.00     0.036 C 
ENDROOT
BRANCH   1  24
HETATM   24  C9  UNL     1      -2.510  51.757 -22.618  1.00  0.00     0.020 C 
HETATM   25  C10 UNL     1      -3.212  52.318 -23.864  1.00  0.00     0.013 C 
BRANCH  24  26
HETATM   26  C3  UNL     1      -0.974  51.708 -22.921  1.00  0.00     0.158 C 
BRANCH  26  27
HETATM   27  O2  UNL     1      -0.296  52.792 -22.257  1.00  0.00    -0.312 OA
BRANCH  27  28
HETATM   28  C2  UNL     1       0.327  52.505 -21.082  1.00  0.00     0.255 C 
HETATM   29  C1  UNL     1       1.296  53.595 -20.741  1.00  0.00     0.126 C 
HETATM   30  O1  UNL     1       0.117  51.530 -20.374  1.00  0.00    -0.266 OA
ENDBRANCH  27  28
ENDBRANCH  26  27
BRANCH  26  31
HETATM   31  C4  UNL     1      -0.626  51.832 -24.384  1.00  0.00     0.005 C 
HETATM   32  C5  UNL     1       0.630  51.827 -24.863  1.00  0.00     0.008 C 
BRANCH  32  33
HETATM   33  C6  UNL     1       1.068  51.945 -26.305  1.00  0.00     0.068 C 
HETATM   34  C7  UNL     1       0.106  51.164 -27.205  1.00  0.00     0.050 C 
HETATM   35  C8  UNL     1       2.511  51.520 -26.595  1.00  0.00     0.050 C 
BRANCH  33  36
HETATM   36  O3  UNL     1       0.947  53.328 -26.647  1.00  0.00    -0.387 OA
HETATM   37  H13 UNL     1       1.503  53.824 -26.022  1.00  0.00     0.211 HD
ENDBRANCH  33  36
ENDBRANCH  32  33
ENDBRANCH  26  31
ENDBRANCH  24  26
ENDBRANCH   1  24
TORSDOF 7
ENDMDL
