MODEL 1
REMARK minimizedAffinity -8.26781273
REMARK CNNscore 0.613547862
REMARK CNNaffinity 6.51391935
REMARK  11 active torsions:
REMARK  status: ('A' for Active; 'I' for Inactive)
REMARK    1  A    between atoms: C3_4  and  O2_5 
REMARK    2  A    between atoms: O2_5  and  C4_6 
REMARK    3  A    between atoms: C7_9  and  C8_10 
REMARK    4  A    between atoms: N1_11  and  C9_13 
REMARK    5  A    between atoms: C9_13  and  C10_14 
REMARK    6  A    between atoms: C10_14  and  C11_15 
REMARK    7  A    between atoms: C22_26  and  C23_27 
REMARK    8  A    between atoms: C29_35  and  O5_36 
REMARK    9  A    between atoms: C33_40  and  O6_41 
REMARK   10  A    between atoms: C36_44  and  O7_45 
REMARK   11  A    between atoms: C37_46  and  O8_47 
ROOT
HETATM    1  C4  UNL     1      -0.360  53.944 -10.742  1.00  0.00     0.127 C 
HETATM    2  C5  UNL     1      -0.878  55.184  -9.995  1.00  0.00     0.033 C 
HETATM    3  C6  UNL     1       0.212  55.879  -9.189  1.00  0.00     0.021 C 
HETATM    4  C7  UNL     1       0.873  54.966  -8.093  1.00  0.00     0.026 C 
HETATM    5  C17 UNL     1       2.405  55.360  -8.001  1.00  0.00     0.009 C 
HETATM    6  C18 UNL     1       2.650  56.807  -7.523  1.00  0.00     0.007 C 
HETATM    7  C19 UNL     1       4.130  57.176  -7.536  1.00  0.00     0.013 C 
HETATM    8  C20 UNL     1       5.005  56.235  -6.660  1.00  0.00    -0.005 C 
HETATM    9  C21 UNL     1       4.700  56.515  -5.174  1.00  0.00     0.019 C 
HETATM   10  C22 UNL     1       6.512  56.463  -7.039  1.00  0.00     0.028 C 
HETATM   11  C27 UNL     1       6.719  55.585  -8.294  1.00  0.00     0.013 C 
HETATM   12  C28 UNL     1       5.545  54.603  -8.375  1.00  0.00     0.040 C 
HETATM   13  C29 UNL     1       4.753  54.757  -7.064  1.00  0.00     0.070 C 
HETATM   14  C30 UNL     1       3.251  54.366  -7.172  1.00  0.00     0.026 C 
HETATM   15  C31 UNL     1       3.088  52.944  -7.733  1.00  0.00     0.011 C 
HETATM   16  C32 UNL     1       1.637  52.509  -7.702  1.00  0.00     0.039 C 
HETATM   17  C33 UNL     1       0.681  53.443  -8.459  1.00  0.00     0.073 C 
HETATM   18  C34 UNL     1       0.802  53.267  -9.990  1.00  0.00     0.071 C 
ENDROOT
BRANCH   1  19
HETATM   19  O2  UNL     1      -1.479  53.066 -10.859  1.00  0.00    -0.356 OA
BRANCH  19  20
HETATM   20  C3  UNL     1      -2.716  53.510 -10.321  1.00  0.00     0.263 C 
HETATM   21  O1  UNL     1      -3.184  52.534  -9.388  1.00  0.00    -0.354 OA
HETATM   22  C2  UNL     1      -3.754  51.344  -9.961  1.00  0.00     0.151 C 
HETATM   23  C1  UNL     1      -3.226  50.154  -9.163  1.00  0.00     0.042 C 
HETATM   24  C37 UNL     1      -3.496  51.172 -11.469  1.00  0.00     0.175 C 
HETATM   25  C36 UNL     1      -3.936  52.435 -12.231  1.00  0.00     0.154 C 
HETATM   26  C35 UNL     1      -3.768  53.711 -11.408  1.00  0.00     0.095 C 
BRANCH  24  27
HETATM   27  O8  UNL     1      -4.210  50.046 -11.995  1.00  0.00    -0.390 OA
HETATM   28  H51 UNL     1      -3.924  49.964 -12.925  1.00  0.00     0.210 HD
ENDBRANCH  24  27
BRANCH  25  29
HETATM   29  O7  UNL     1      -3.176  52.524 -13.450  1.00  0.00    -0.393 OA
HETATM   30  H49 UNL     1      -3.616  53.186 -14.013  1.00  0.00     0.210 HD
ENDBRANCH  25  29
ENDBRANCH  19  20
ENDBRANCH   1  19
BRANCH  17  31
HETATM   31  O6  UNL     1      -0.631  53.002  -8.065  1.00  0.00    -0.389 OA
HETATM   32  H43 UNL     1      -0.863  52.190  -8.569  1.00  0.00     0.210 HD
ENDBRANCH  17  31
BRANCH   4  33
HETATM   33  C8  UNL     1       0.188  55.205  -6.737  1.00  0.00     0.068 C 
HETATM   34  N1  UNL     1       0.495  56.208  -5.984  1.00  0.00    -0.401 N 
ATOM     35  H1  UNL     1       1.206  56.894  -6.236  1.00  0.00     0.158 HD
BRANCH  34  36
HETATM   36  C9  UNL     1      -0.270  56.273  -4.732  1.00  0.00     0.123 C 
BRANCH  36  37
HETATM   37  C10 UNL     1       0.414  57.238  -3.757  1.00  0.00     0.058 C 
BRANCH  37  38
HETATM   38  C11 UNL     1      -0.505  58.309  -3.220  1.00  0.00    -0.057 A 
HETATM   39  C12 UNL     1      -1.892  58.212  -3.391  1.00  0.00     0.007 A 
HETATM   40  C13 UNL     1      -2.736  59.208  -2.897  1.00  0.00     0.001 A 
HETATM   41  C14 UNL     1      -2.204  60.311  -2.231  1.00  0.00     0.000 A 
HETATM   42  C15 UNL     1      -0.825  60.421  -2.064  1.00  0.00     0.001 A 
HETATM   43  C16 UNL     1       0.022  59.428  -2.558  1.00  0.00     0.007 A 
ENDBRANCH  37  38
ENDBRANCH  36  37
ENDBRANCH  34  36
ENDBRANCH   4  33
BRANCH  13  44
HETATM   44  O5  UNL     1       5.369  53.867  -6.125  1.00  0.00    -0.389 OA
HETATM   45  H37 UNL     1       4.860  53.890  -5.296  1.00  0.00     0.210 HD
ENDBRANCH  13  44
BRANCH  10  46
HETATM   46  C23 UNL     1       7.539  56.209  -5.963  1.00  0.00    -0.045 A 
HETATM   47  C24 UNL     1       8.162  55.076  -5.637  1.00  0.00     0.087 A 
HETATM   48  C25 UNL     1       9.057  55.379  -4.524  1.00  0.00     0.283 A 
HETATM   49  O3  UNL     1       9.753  54.567  -3.946  1.00  0.00    -0.260 OA
HETATM   50  O4  UNL     1       8.976  56.704  -4.235  1.00  0.00    -0.314 OA
HETATM   51  C26 UNL     1       8.030  57.316  -5.107  1.00  0.00     0.213 A 
ENDBRANCH  10  46
TORSDOF 11
ENDMDL
MODEL 2
REMARK minimizedAffinity -9.24225712
REMARK CNNscore 0.571846545
REMARK CNNaffinity 7.06821966
REMARK  11 active torsions:
REMARK  status: ('A' for Active; 'I' for Inactive)
REMARK    1  A    between atoms: C3_4  and  O2_5 
REMARK    2  A    between atoms: O2_5  and  C4_6 
REMARK    3  A    between atoms: C7_9  and  C8_10 
REMARK    4  A    between atoms: N1_11  and  C9_13 
REMARK    5  A    between atoms: C9_13  and  C10_14 
REMARK    6  A    between atoms: C10_14  and  C11_15 
REMARK    7  A    between atoms: C22_26  and  C23_27 
REMARK    8  A    between atoms: C29_35  and  O5_36 
REMARK    9  A    between atoms: C33_40  and  O6_41 
REMARK   10  A    between atoms: C36_44  and  O7_45 
REMARK   11  A    between atoms: C37_46  and  O8_47 
ROOT
HETATM    1  C4  UNL     1      -6.341  45.284 -19.327  1.00  0.00     0.127 C 
HETATM    2  C5  UNL     1      -5.845  44.902 -20.731  1.00  0.00     0.033 C 
HETATM    3  C6  UNL     1      -4.651  45.737 -21.177  1.00  0.00     0.021 C 
HETATM    4  C7  UNL     1      -4.941  47.282 -21.233  1.00  0.00     0.026 C 
HETATM    5  C17 UNL     1      -3.616  48.034 -20.800  1.00  0.00     0.009 C 
HETATM    6  C18 UNL     1      -2.429  47.810 -21.762  1.00  0.00     0.007 C 
HETATM    7  C19 UNL     1      -1.149  48.475 -21.264  1.00  0.00     0.013 C 
HETATM    8  C20 UNL     1      -1.298  50.008 -21.046  1.00  0.00    -0.005 C 
HETATM    9  C21 UNL     1      -1.407  50.696 -22.422  1.00  0.00     0.019 C 
HETATM   10  C22 UNL     1      -0.078  50.509 -20.195  1.00  0.00     0.028 C 
HETATM   11  C27 UNL     1      -0.488  50.202 -18.737  1.00  0.00     0.013 C 
HETATM   12  C28 UNL     1      -1.997  49.939 -18.722  1.00  0.00     0.040 C 
HETATM   13  C29 UNL     1      -2.518  50.291 -20.127  1.00  0.00     0.070 C 
HETATM   14  C30 UNL     1      -3.820  49.544 -20.535  1.00  0.00     0.026 C 
HETATM   15  C31 UNL     1      -4.926  49.747 -19.487  1.00  0.00     0.011 C 
HETATM   16  C32 UNL     1      -6.235  49.142 -19.953  1.00  0.00     0.039 C 
HETATM   17  C33 UNL     1      -6.155  47.646 -20.292  1.00  0.00     0.073 C 
HETATM   18  C34 UNL     1      -6.093  46.774 -19.018  1.00  0.00     0.071 C 
ENDROOT
BRANCH   1  19
HETATM   19  O2  UNL     1      -7.736  44.980 -19.312  1.00  0.00    -0.356 OA
BRANCH  19  20
HETATM   20  C3  UNL     1      -8.295  44.545 -18.081  1.00  0.00     0.263 C 
HETATM   21  O1  UNL     1      -9.240  43.507 -18.351  1.00  0.00    -0.354 OA
HETATM   22  C2  UNL     1     -10.506  43.938 -18.882  1.00  0.00     0.151 C 
HETATM   23  C1  UNL     1     -10.882  42.974 -20.005  1.00  0.00     0.042 C 
HETATM   24  C37 UNL     1     -10.537  45.400 -19.360  1.00  0.00     0.175 C 
HETATM   25  C36 UNL     1     -10.044  46.336 -18.241  1.00  0.00     0.154 C 
HETATM   26  C35 UNL     1      -8.995  45.683 -17.343  1.00  0.00     0.095 C 
BRANCH  24  27
HETATM   27  O8  UNL     1     -11.860  45.797 -19.740  1.00  0.00    -0.390 OA
HETATM   28  H51 UNL     1     -11.771  46.698 -20.105  1.00  0.00     0.210 HD
ENDBRANCH  24  27
BRANCH  25  29
HETATM   29  O7  UNL     1      -9.513  47.531 -18.842  1.00  0.00    -0.393 OA
HETATM   30  H49 UNL     1      -9.418  48.190 -18.131  1.00  0.00     0.210 HD
ENDBRANCH  25  29
ENDBRANCH  19  20
ENDBRANCH   1  19
BRANCH  17  31
HETATM   31  O6  UNL     1      -7.399  47.367 -20.960  1.00  0.00    -0.389 OA
HETATM   32  H43 UNL     1      -8.112  47.281 -20.290  1.00  0.00     0.210 HD
ENDBRANCH  17  31
BRANCH   4  33
HETATM   33  C8  UNL     1      -5.329  47.684 -22.665  1.00  0.00     0.068 C 
HETATM   34  N1  UNL     1      -5.613  48.904 -22.979  1.00  0.00    -0.401 N 
ATOM     35  H1  UNL     1      -5.601  49.668 -22.304  1.00  0.00     0.158 HD
BRANCH  34  36
HETATM   36  C9  UNL     1      -5.954  49.095 -24.395  1.00  0.00     0.123 C 
BRANCH  36  37
HETATM   37  C10 UNL     1      -4.922  48.382 -25.276  1.00  0.00     0.058 C 
BRANCH  37  38
HETATM   38  C11 UNL     1      -5.429  48.056 -26.661  1.00  0.00    -0.057 A 
HETATM   39  C12 UNL     1      -6.700  47.494 -26.841  1.00  0.00     0.007 A 
HETATM   40  C13 UNL     1      -7.162  47.189 -28.123  1.00  0.00     0.001 A 
HETATM   41  C14 UNL     1      -6.359  47.439 -29.236  1.00  0.00     0.000 A 
HETATM   42  C15 UNL     1      -5.090  47.989 -29.065  1.00  0.00     0.001 A 
HETATM   43  C16 UNL     1      -4.625  48.293 -27.785  1.00  0.00     0.007 A 
ENDBRANCH  37  38
ENDBRANCH  36  37
ENDBRANCH  34  36
ENDBRANCH   4  33
BRANCH  13  44
HETATM   44  O5  UNL     1      -2.811  51.694 -20.099  1.00  0.00    -0.389 OA
HETATM   45  H37 UNL     1      -3.200  51.947 -20.955  1.00  0.00     0.210 HD
ENDBRANCH  13  44
BRANCH  10  46
HETATM   46  C23 UNL     1       0.363  51.938 -20.397  1.00  0.00    -0.045 A 
HETATM   47  C24 UNL     1       1.059  52.476 -21.399  1.00  0.00     0.087 A 
HETATM   48  C25 UNL     1       1.214  53.897 -21.104  1.00  0.00     0.283 A 
HETATM   49  O3  UNL     1       1.833  54.690 -21.788  1.00  0.00    -0.260 OA
HETATM   50  O4  UNL     1       0.569  54.185 -19.943  1.00  0.00    -0.314 OA
HETATM   51  C26 UNL     1      -0.008  52.991 -19.421  1.00  0.00     0.213 A 
ENDBRANCH  10  46
TORSDOF 11
ENDMDL
MODEL 3
REMARK minimizedAffinity -9.29927921
REMARK CNNscore 0.555097818
REMARK CNNaffinity 6.9130969
REMARK  11 active torsions:
REMARK  status: ('A' for Active; 'I' for Inactive)
REMARK    1  A    between atoms: C3_4  and  O2_5 
REMARK    2  A    between atoms: O2_5  and  C4_6 
REMARK    3  A    between atoms: C7_9  and  C8_10 
REMARK    4  A    between atoms: N1_11  and  C9_13 
REMARK    5  A    between atoms: C9_13  and  C10_14 
REMARK    6  A    between atoms: C10_14  and  C11_15 
REMARK    7  A    between atoms: C22_26  and  C23_27 
REMARK    8  A    between atoms: C29_35  and  O5_36 
REMARK    9  A    between atoms: C33_40  and  O6_41 
REMARK   10  A    between atoms: C36_44  and  O7_45 
REMARK   11  A    between atoms: C37_46  and  O8_47 
ROOT
HETATM    1  C4  UNL     1      -6.578  45.368 -19.444  1.00  0.00     0.127 C 
HETATM    2  C5  UNL     1      -6.351  45.198 -20.956  1.00  0.00     0.033 C 
HETATM    3  C6  UNL     1      -5.200  46.053 -21.473  1.00  0.00     0.021 C 
HETATM    4  C7  UNL     1      -5.399  47.596 -21.242  1.00  0.00     0.026 C 
HETATM    5  C17 UNL     1      -3.975  48.222 -20.941  1.00  0.00     0.009 C 
HETATM    6  C18 UNL     1      -2.985  48.114 -22.121  1.00  0.00     0.007 C 
HETATM    7  C19 UNL     1      -1.600  48.645 -21.761  1.00  0.00     0.013 C 
HETATM    8  C20 UNL     1      -1.615  50.127 -21.290  1.00  0.00    -0.005 C 
HETATM    9  C21 UNL     1      -1.911  51.031 -22.505  1.00  0.00     0.019 C 
HETATM   10  C22 UNL     1      -0.239  50.443 -20.602  1.00  0.00     0.028 C 
HETATM   11  C27 UNL     1      -0.415  49.920 -19.158  1.00  0.00     0.013 C 
HETATM   12  C28 UNL     1      -1.914  49.711 -18.917  1.00  0.00     0.040 C 
HETATM   13  C29 UNL     1      -2.641  50.302 -20.138  1.00  0.00     0.070 C 
HETATM   14  C30 UNL     1      -4.038  49.676 -20.418  1.00  0.00     0.026 C 
HETATM   15  C31 UNL     1      -4.936  49.747 -19.173  1.00  0.00     0.011 C 
HETATM   16  C32 UNL     1      -6.340  49.270 -19.486  1.00  0.00     0.039 C 
HETATM   17  C33 UNL     1      -6.411  47.846 -20.057  1.00  0.00     0.073 C 
HETATM   18  C34 UNL     1      -6.190  46.779 -18.962  1.00  0.00     0.071 C 
ENDROOT
BRANCH   1  19
HETATM   19  O2  UNL     1      -7.967  45.114 -19.229  1.00  0.00    -0.356 OA
BRANCH  19  20
HETATM   20  C3  UNL     1      -8.707  44.576 -20.316  1.00  0.00     0.263 C 
HETATM   21  O1  UNL     1      -9.683  45.539 -20.723  1.00  0.00    -0.354 OA
HETATM   22  C2  UNL     1     -10.837  45.657 -19.872  1.00  0.00     0.151 C 
HETATM   23  C1  UNL     1     -11.136  47.146 -19.712  1.00  0.00     0.042 C 
HETATM   24  C37 UNL     1     -10.702  44.958 -18.508  1.00  0.00     0.175 C 
HETATM   25  C36 UNL     1     -10.288  43.488 -18.702  1.00  0.00     0.154 C 
HETATM   26  C35 UNL     1      -9.411  43.278 -19.935  1.00  0.00     0.095 C 
BRANCH  24  27
HETATM   27  O8  UNL     1     -11.934  44.996 -17.778  1.00  0.00    -0.390 OA
HETATM   28  H51 UNL     1     -11.735  44.611 -16.904  1.00  0.00     0.210 HD
ENDBRANCH  24  27
BRANCH  25  29
HETATM   29  O7  UNL     1      -9.601  43.044 -17.518  1.00  0.00    -0.393 OA
HETATM   30  H49 UNL     1      -9.549  42.072 -17.565  1.00  0.00     0.210 HD
ENDBRANCH  25  29
ENDBRANCH  19  20
ENDBRANCH   1  19
BRANCH  17  31
HETATM   31  O6  UNL     1      -7.765  47.722 -20.529  1.00  0.00    -0.389 OA
HETATM   32  H43 UNL     1      -8.359  47.554 -19.764  1.00  0.00     0.210 HD
ENDBRANCH  17  31
BRANCH   4  33
HETATM   33  C8  UNL     1      -5.998  48.236 -22.505  1.00  0.00     0.068 C 
HETATM   34  N1  UNL     1      -6.905  47.643 -23.208  1.00  0.00    -0.401 N 
ATOM     35  H1  UNL     1      -7.273  46.721 -22.974  1.00  0.00     0.158 HD
BRANCH  34  36
HETATM   36  C9  UNL     1      -7.358  48.412 -24.373  1.00  0.00     0.123 C 
BRANCH  36  37
HETATM   37  C10 UNL     1      -6.999  47.662 -25.661  1.00  0.00     0.058 C 
BRANCH  37  38
HETATM   38  C11 UNL     1      -5.648  48.034 -26.223  1.00  0.00    -0.057 A 
HETATM   39  C12 UNL     1      -5.413  47.993 -27.604  1.00  0.00     0.007 A 
HETATM   40  C13 UNL     1      -4.160  48.332 -28.118  1.00  0.00     0.001 A 
HETATM   41  C14 UNL     1      -3.129  48.712 -27.258  1.00  0.00     0.000 A 
HETATM   42  C15 UNL     1      -3.351  48.747 -25.883  1.00  0.00     0.001 A 
HETATM   43  C16 UNL     1      -4.602  48.406 -25.367  1.00  0.00     0.007 A 
ENDBRANCH  37  38
ENDBRANCH  36  37
ENDBRANCH  34  36
ENDBRANCH   4  33
BRANCH  13  44
HETATM   44  O5  UNL     1      -2.837  51.691 -19.846  1.00  0.00    -0.389 OA
HETATM   45  H37 UNL     1      -3.349  52.092 -20.571  1.00  0.00     0.210 HD
ENDBRANCH  13  44
BRANCH  10  46
HETATM   46  C23 UNL     1       0.249  51.869 -20.660  1.00  0.00    -0.045 A 
HETATM   47  C24 UNL     1       0.936  52.492 -21.619  1.00  0.00     0.087 A 
HETATM   48  C25 UNL     1       1.153  53.865 -21.174  1.00  0.00     0.283 A 
HETATM   49  O3  UNL     1       1.781  54.707 -21.787  1.00  0.00    -0.260 OA
HETATM   50  O4  UNL     1       0.553  54.043 -19.968  1.00  0.00    -0.314 OA
HETATM   51  C26 UNL     1      -0.053  52.819 -19.562  1.00  0.00     0.213 A 
ENDBRANCH  10  46
TORSDOF 11
ENDMDL
MODEL 4
REMARK minimizedAffinity -8.4125452
REMARK CNNscore 0.386503428
REMARK CNNaffinity 5.95608664
REMARK  11 active torsions:
REMARK  status: ('A' for Active; 'I' for Inactive)
REMARK    1  A    between atoms: C3_4  and  O2_5 
REMARK    2  A    between atoms: O2_5  and  C4_6 
REMARK    3  A    between atoms: C7_9  and  C8_10 
REMARK    4  A    between atoms: N1_11  and  C9_13 
REMARK    5  A    between atoms: C9_13  and  C10_14 
REMARK    6  A    between atoms: C10_14  and  C11_15 
REMARK    7  A    between atoms: C22_26  and  C23_27 
REMARK    8  A    between atoms: C29_35  and  O5_36 
REMARK    9  A    between atoms: C33_40  and  O6_41 
REMARK   10  A    between atoms: C36_44  and  O7_45 
REMARK   11  A    between atoms: C37_46  and  O8_47 
ROOT
HETATM    1  C4  UNL     1       5.103  67.053 -34.926  1.00  0.00     0.127 C 
HETATM    2  C5  UNL     1       5.864  68.024 -35.844  1.00  0.00     0.033 C 
HETATM    3  C6  UNL     1       4.947  69.048 -36.500  1.00  0.00     0.021 C 
HETATM    4  C7  UNL     1       3.818  68.412 -37.392  1.00  0.00     0.026 C 
HETATM    5  C17 UNL     1       2.526  69.318 -37.247  1.00  0.00     0.009 C 
HETATM    6  C18 UNL     1       2.707  70.753 -37.786  1.00  0.00     0.007 C 
HETATM    7  C19 UNL     1       1.474  71.619 -37.545  1.00  0.00     0.013 C 
HETATM    8  C20 UNL     1       0.180  71.035 -38.182  1.00  0.00    -0.005 C 
HETATM    9  C21 UNL     1       0.276  71.174 -39.715  1.00  0.00     0.019 C 
HETATM   10  C22 UNL     1      -1.057  71.782 -37.567  1.00  0.00     0.028 C 
HETATM   11  C27 UNL     1      -1.311  71.047 -36.231  1.00  0.00     0.013 C 
HETATM   12  C28 UNL     1      -0.551  69.717 -36.279  1.00  0.00     0.040 C 
HETATM   13  C29 UNL     1      -0.018  69.567 -37.715  1.00  0.00     0.070 C 
HETATM   14  C30 UNL     1       1.251  68.675 -37.839  1.00  0.00     0.026 C 
HETATM   15  C31 UNL     1       1.019  67.293 -37.207  1.00  0.00     0.011 C 
HETATM   16  C32 UNL     1       2.199  66.376 -37.454  1.00  0.00     0.039 C 
HETATM   17  C33 UNL     1       3.542  66.923 -36.948  1.00  0.00     0.073 C 
HETATM   18  C34 UNL     1       3.659  66.818 -35.411  1.00  0.00     0.071 C 
ENDROOT
BRANCH   1  19
HETATM   19  O2  UNL     1       5.854  65.839 -34.936  1.00  0.00    -0.356 OA
BRANCH  19  20
HETATM   20  C3  UNL     1       6.351  65.369 -33.692  1.00  0.00     0.263 C 
HETATM   21  O1  UNL     1       7.542  64.614 -33.933  1.00  0.00    -0.354 OA
HETATM   22  C2  UNL     1       7.345  63.290 -34.461  1.00  0.00     0.151 C 
HETATM   23  C1  UNL     1       8.384  63.079 -35.561  1.00  0.00     0.042 C 
HETATM   24  C37 UNL     1       5.921  63.007 -34.968  1.00  0.00     0.175 C 
HETATM   25  C36 UNL     1       4.891  63.338 -33.873  1.00  0.00     0.154 C 
HETATM   26  C35 UNL     1       5.335  64.488 -32.971  1.00  0.00     0.095 C 
BRANCH  24  27
HETATM   27  O8  UNL     1       5.765  61.633 -35.345  1.00  0.00    -0.390 OA
HETATM   28  H51 UNL     1       4.869  61.565 -35.728  1.00  0.00     0.210 HD
ENDBRANCH  24  27
BRANCH  25  29
HETATM   29  O7  UNL     1       3.635  63.653 -34.502  1.00  0.00    -0.393 OA
HETATM   30  H49 UNL     1       2.955  63.638 -33.806  1.00  0.00     0.210 HD
ENDBRANCH  25  29
ENDBRANCH  19  20
ENDBRANCH   1  19
BRANCH  17  31
HETATM   31  O6  UNL     1       4.524  66.045 -37.528  1.00  0.00    -0.389 OA
HETATM   32  H43 UNL     1       4.554  65.210 -37.012  1.00  0.00     0.210 HD
ENDBRANCH  17  31
BRANCH   4  33
HETATM   33  C8  UNL     1       4.274  68.380 -38.860  1.00  0.00     0.068 C 
HETATM   34  N1  UNL     1       3.663  69.048 -39.780  1.00  0.00    -0.401 N 
ATOM     35  H1  UNL     1       2.846  69.629 -39.594  1.00  0.00     0.158 HD
BRANCH  34  36
HETATM   36  C9  UNL     1       4.248  68.898 -41.119  1.00  0.00     0.123 C 
BRANCH  36  37
HETATM   37  C10 UNL     1       3.287  69.462 -42.171  1.00  0.00     0.058 C 
BRANCH  37  38
HETATM   38  C11 UNL     1       1.888  68.902 -42.076  1.00  0.00    -0.057 A 
HETATM   39  C12 UNL     1       0.798  69.612 -42.598  1.00  0.00     0.007 A 
HETATM   40  C13 UNL     1      -0.495  69.091 -42.502  1.00  0.00     0.001 A 
HETATM   41  C14 UNL     1      -0.711  67.861 -41.883  1.00  0.00     0.000 A 
HETATM   42  C15 UNL     1       0.366  67.152 -41.353  1.00  0.00     0.001 A 
HETATM   43  C16 UNL     1       1.659  67.671 -41.446  1.00  0.00     0.007 A 
ENDBRANCH  37  38
ENDBRANCH  36  37
ENDBRANCH  34  36
ENDBRANCH   4  33
BRANCH  13  44
HETATM   44  O5  UNL     1      -1.067  68.939 -38.462  1.00  0.00    -0.389 OA
HETATM   45  H37 UNL     1      -0.747  68.773 -39.366  1.00  0.00     0.210 HD
ENDBRANCH  13  44
BRANCH  10  46
HETATM   46  C23 UNL     1      -2.292  71.893 -38.426  1.00  0.00    -0.045 A 
HETATM   47  C24 UNL     1      -3.106  72.933 -38.609  1.00  0.00     0.087 A 
HETATM   48  C25 UNL     1      -4.148  72.508 -39.539  1.00  0.00     0.283 A 
HETATM   49  O3  UNL     1      -5.085  73.194 -39.900  1.00  0.00    -0.260 OA
HETATM   50  O4  UNL     1      -3.909  71.226 -39.922  1.00  0.00    -0.314 OA
HETATM   51  C26 UNL     1      -2.739  70.752 -39.261  1.00  0.00     0.213 A 
ENDBRANCH  10  46
TORSDOF 11
ENDMDL
MODEL 5
REMARK minimizedAffinity -8.27995968
REMARK CNNscore 0.327182174
REMARK CNNaffinity 6.04247522
REMARK  11 active torsions:
REMARK  status: ('A' for Active; 'I' for Inactive)
REMARK    1  A    between atoms: C3_4  and  O2_5 
REMARK    2  A    between atoms: O2_5  and  C4_6 
REMARK    3  A    between atoms: C7_9  and  C8_10 
REMARK    4  A    between atoms: N1_11  and  C9_13 
REMARK    5  A    between atoms: C9_13  and  C10_14 
REMARK    6  A    between atoms: C10_14  and  C11_15 
REMARK    7  A    between atoms: C22_26  and  C23_27 
REMARK    8  A    between atoms: C29_35  and  O5_36 
REMARK    9  A    between atoms: C33_40  and  O6_41 
REMARK   10  A    between atoms: C36_44  and  O7_45 
REMARK   11  A    between atoms: C37_46  and  O8_47 
ROOT
HETATM    1  C4  UNL     1       4.400  66.651 -34.922  1.00  0.00     0.127 C 
HETATM    2  C5  UNL     1       5.327  67.706 -35.548  1.00  0.00     0.033 C 
HETATM    3  C6  UNL     1       4.566  68.744 -36.363  1.00  0.00     0.021 C 
HETATM    4  C7  UNL     1       3.743  68.135 -37.558  1.00  0.00     0.026 C 
HETATM    5  C17 UNL     1       2.416  68.988 -37.709  1.00  0.00     0.009 C 
HETATM    6  C18 UNL     1       2.662  70.462 -38.096  1.00  0.00     0.007 C 
HETATM    7  C19 UNL     1       1.368  71.269 -38.141  1.00  0.00     0.013 C 
HETATM    8  C20 UNL     1       0.317  70.690 -39.131  1.00  0.00    -0.005 C 
HETATM    9  C21 UNL     1       0.806  70.936 -40.573  1.00  0.00     0.019 C 
HETATM   10  C22 UNL     1      -1.073  71.353 -38.824  1.00  0.00     0.028 C 
HETATM   11  C27 UNL     1      -1.632  70.520 -37.649  1.00  0.00     0.013 C 
HETATM   12  C28 UNL     1      -0.823  69.221 -37.570  1.00  0.00     0.040 C 
HETATM   13  C29 UNL     1       0.076  69.188 -38.819  1.00  0.00     0.070 C 
HETATM   14  C30 UNL     1       1.374  68.346 -38.654  1.00  0.00     0.026 C 
HETATM   15  C31 UNL     1       1.052  66.918 -38.187  1.00  0.00     0.011 C 
HETATM   16  C32 UNL     1       2.299  66.058 -38.166  1.00  0.00     0.039 C 
HETATM   17  C33 UNL     1       3.434  66.611 -37.290  1.00  0.00     0.073 C 
HETATM   18  C34 UNL     1       3.148  66.404 -35.786  1.00  0.00     0.071 C 
ENDROOT
BRANCH   1  19
HETATM   19  O2  UNL     1       5.186  65.465 -34.804  1.00  0.00    -0.356 OA
BRANCH  19  20
HETATM   20  C3  UNL     1       5.741  65.175 -33.529  1.00  0.00     0.263 C 
HETATM   21  O1  UNL     1       6.987  64.499 -33.718  1.00  0.00    -0.354 OA
HETATM   22  C2  UNL     1       6.895  63.115 -34.097  1.00  0.00     0.151 C 
HETATM   23  C1  UNL     1       7.930  62.872 -35.194  1.00  0.00     0.042 C 
HETATM   24  C37 UNL     1       5.492  62.661 -34.535  1.00  0.00     0.175 C 
HETATM   25  C36 UNL     1       4.455  63.022 -33.456  1.00  0.00     0.154 C 
HETATM   26  C35 UNL     1       4.814  64.297 -32.694  1.00  0.00     0.095 C 
BRANCH  24  27
HETATM   27  O8  UNL     1       5.447  61.246 -34.760  1.00  0.00    -0.390 OA
HETATM   28  H51 UNL     1       4.555  61.064 -35.112  1.00  0.00     0.210 HD
ENDBRANCH  24  27
BRANCH  25  29
HETATM   29  O7  UNL     1       3.167  63.163 -34.085  1.00  0.00    -0.393 OA
HETATM   30  H49 UNL     1       2.502  63.167 -33.374  1.00  0.00     0.210 HD
ENDBRANCH  25  29
ENDBRANCH  19  20
ENDBRANCH   1  19
BRANCH  17  31
HETATM   31  O6  UNL     1       4.575  65.807 -37.639  1.00  0.00    -0.389 OA
HETATM   32  H43 UNL     1       4.509  64.939 -37.182  1.00  0.00     0.210 HD
ENDBRANCH  17  31
BRANCH   4  33
HETATM   33  C8  UNL     1       4.570  68.219 -38.851  1.00  0.00     0.068 C 
HETATM   34  N1  UNL     1       5.825  68.522 -38.842  1.00  0.00    -0.401 N 
ATOM     35  H1  UNL     1       6.340  68.726 -37.986  1.00  0.00     0.158 HD
BRANCH  34  36
HETATM   36  C9  UNL     1       6.446  68.546 -40.172  1.00  0.00     0.123 C 
BRANCH  36  37
HETATM   37  C10 UNL     1       7.913  68.114 -40.067  1.00  0.00     0.058 C 
BRANCH  37  38
HETATM   38  C11 UNL     1       8.700  68.329 -41.338  1.00  0.00    -0.057 A 
HETATM   39  C12 UNL     1      10.091  68.498 -41.296  1.00  0.00     0.007 A 
HETATM   40  C13 UNL     1      10.813  68.702 -42.474  1.00  0.00     0.001 A 
HETATM   41  C14 UNL     1      10.154  68.743 -43.702  1.00  0.00     0.000 A 
HETATM   42  C15 UNL     1       8.770  68.586 -43.752  1.00  0.00     0.001 A 
HETATM   43  C16 UNL     1       8.046  68.384 -42.577  1.00  0.00     0.007 A 
ENDBRANCH  37  38
ENDBRANCH  36  37
ENDBRANCH  34  36
ENDBRANCH   4  33
BRANCH  13  44
HETATM   44  O5  UNL     1      -0.709  68.580 -39.853  1.00  0.00    -0.389 OA
HETATM   45  H37 UNL     1      -0.155  68.486 -40.649  1.00  0.00     0.210 HD
ENDBRANCH  13  44
BRANCH  10  46
HETATM   46  C23 UNL     1      -2.043  71.483 -39.972  1.00  0.00    -0.045 A 
HETATM   47  C24 UNL     1      -1.971  72.253 -41.059  1.00  0.00     0.087 A 
HETATM   48  C25 UNL     1      -3.170  71.997 -41.850  1.00  0.00     0.283 A 
HETATM   49  O3  UNL     1      -3.454  72.558 -42.891  1.00  0.00    -0.260 OA
HETATM   50  O4  UNL     1      -3.918  71.045 -41.232  1.00  0.00    -0.314 OA
HETATM   51  C26 UNL     1      -3.272  70.655 -40.023  1.00  0.00     0.213 A 
ENDBRANCH  10  46
TORSDOF 11
ENDMDL
MODEL 6
REMARK minimizedAffinity -9.64087582
REMARK CNNscore 0.312752038
REMARK CNNaffinity 6.59363365
REMARK  11 active torsions:
REMARK  status: ('A' for Active; 'I' for Inactive)
REMARK    1  A    between atoms: C3_4  and  O2_5 
REMARK    2  A    between atoms: O2_5  and  C4_6 
REMARK    3  A    between atoms: C7_9  and  C8_10 
REMARK    4  A    between atoms: N1_11  and  C9_13 
REMARK    5  A    between atoms: C9_13  and  C10_14 
REMARK    6  A    between atoms: C10_14  and  C11_15 
REMARK    7  A    between atoms: C22_26  and  C23_27 
REMARK    8  A    between atoms: C29_35  and  O5_36 
REMARK    9  A    between atoms: C33_40  and  O6_41 
REMARK   10  A    between atoms: C36_44  and  O7_45 
REMARK   11  A    between atoms: C37_46  and  O8_47 
ROOT
HETATM    1  C4  UNL     1      -7.078  46.701 -18.513  1.00  0.00     0.127 C 
HETATM    2  C5  UNL     1      -6.643  45.715 -19.610  1.00  0.00     0.033 C 
HETATM    3  C6  UNL     1      -5.412  46.193 -20.370  1.00  0.00     0.021 C 
HETATM    4  C7  UNL     1      -5.607  47.576 -21.092  1.00  0.00     0.026 C 
HETATM    5  C17 UNL     1      -4.227  48.351 -21.024  1.00  0.00     0.009 C 
HETATM    6  C18 UNL     1      -3.082  47.653 -21.789  1.00  0.00     0.007 C 
HETATM    7  C19 UNL     1      -1.750  48.381 -21.623  1.00  0.00     0.013 C 
HETATM    8  C20 UNL     1      -1.798  49.863 -22.093  1.00  0.00    -0.005 C 
HETATM    9  C21 UNL     1      -1.899  49.892 -23.632  1.00  0.00     0.019 C 
HETATM   10  C22 UNL     1      -0.527  50.601 -21.540  1.00  0.00     0.028 C 
HETATM   11  C27 UNL     1      -0.919  50.984 -20.094  1.00  0.00     0.013 C 
HETATM   12  C28 UNL     1      -2.441  50.855 -19.973  1.00  0.00     0.040 C 
HETATM   13  C29 UNL     1      -2.974  50.597 -21.393  1.00  0.00     0.070 C 
HETATM   14  C30 UNL     1      -4.330  49.836 -21.442  1.00  0.00     0.026 C 
HETATM   15  C31 UNL     1      -5.394  50.547 -20.590  1.00  0.00     0.011 C 
HETATM   16  C32 UNL     1      -6.750  49.889 -20.752  1.00  0.00     0.039 C 
HETATM   17  C33 UNL     1      -6.771  48.392 -20.408  1.00  0.00     0.073 C 
HETATM   18  C34 UNL     1      -6.732  48.157 -18.881  1.00  0.00     0.071 C 
ENDROOT
BRANCH   1  19
HETATM   19  O2  UNL     1      -8.489  46.528 -18.373  1.00  0.00    -0.356 OA
BRANCH  19  20
HETATM   20  C3  UNL     1      -8.943  45.302 -17.818  1.00  0.00     0.263 C 
HETATM   21  O1  UNL     1     -10.080  44.858 -18.563  1.00  0.00    -0.354 OA
HETATM   22  C2  UNL     1     -11.313  45.546 -18.291  1.00  0.00     0.151 C 
HETATM   23  C1  UNL     1     -11.997  45.807 -19.631  1.00  0.00     0.042 C 
HETATM   24  C37 UNL     1     -11.157  46.842 -17.475  1.00  0.00     0.175 C 
HETATM   25  C36 UNL     1     -10.366  46.566 -16.184  1.00  0.00     0.154 C 
HETATM   26  C35 UNL     1      -9.332  45.453 -16.351  1.00  0.00     0.095 C 
BRANCH  24  27
HETATM   27  O8  UNL     1     -12.433  47.392 -17.122  1.00  0.00    -0.390 OA
HETATM   28  H51 UNL     1     -12.240  48.245 -16.687  1.00  0.00     0.210 HD
ENDBRANCH  24  27
BRANCH  25  29
HETATM   29  O7  UNL     1      -9.724  47.785 -15.769  1.00  0.00    -0.393 OA
HETATM   30  H49 UNL     1      -9.422  47.651 -14.853  1.00  0.00     0.210 HD
ENDBRANCH  25  29
ENDBRANCH  19  20
ENDBRANCH   1  19
BRANCH  17  31
HETATM   31  O6  UNL     1      -8.047  47.936 -20.893  1.00  0.00    -0.389 OA
HETATM   32  H43 UNL     1      -8.747  48.197 -20.255  1.00  0.00     0.210 HD
ENDBRANCH  17  31
BRANCH   4  33
HETATM   33  C8  UNL     1      -6.006  47.343 -22.558  1.00  0.00     0.068 C 
HETATM   34  N1  UNL     1      -5.909  48.272 -23.449  1.00  0.00    -0.401 N 
ATOM     35  H1  UNL     1      -5.570  49.210 -23.238  1.00  0.00     0.158 HD
BRANCH  34  36
HETATM   36  C9  UNL     1      -6.331  47.860 -24.794  1.00  0.00     0.123 C 
BRANCH  36  37
HETATM   37  C10 UNL     1      -5.259  48.252 -25.816  1.00  0.00     0.058 C 
BRANCH  37  38
HETATM   38  C11 UNL     1      -5.655  47.975 -27.247  1.00  0.00    -0.057 A 
HETATM   39  C12 UNL     1      -6.835  47.277 -27.539  1.00  0.00     0.007 A 
HETATM   40  C13 UNL     1      -7.194  47.019 -28.863  1.00  0.00     0.001 A 
HETATM   41  C14 UNL     1      -6.377  47.450 -29.908  1.00  0.00     0.000 A 
HETATM   42  C15 UNL     1      -5.197  48.136 -29.627  1.00  0.00     0.001 A 
HETATM   43  C16 UNL     1      -4.835  48.395 -28.304  1.00  0.00     0.007 A 
ENDBRANCH  37  38
ENDBRANCH  36  37
ENDBRANCH  34  36
ENDBRANCH   4  33
BRANCH  13  44
HETATM   44  O5  UNL     1      -3.179  51.890 -21.978  1.00  0.00    -0.389 OA
HETATM   45  H37 UNL     1      -3.573  51.772 -22.861  1.00  0.00     0.210 HD
ENDBRANCH  13  44
BRANCH  10  46
HETATM   46  C23 UNL     1      -0.004  51.767 -22.341  1.00  0.00    -0.045 A 
HETATM   47  C24 UNL     1      -0.116  52.016 -23.646  1.00  0.00     0.087 A 
HETATM   48  C25 UNL     1       0.570  53.279 -23.905  1.00  0.00     0.283 A 
HETATM   49  O3  UNL     1       0.701  53.791 -25.000  1.00  0.00    -0.260 OA
HETATM   50  O4  UNL     1       1.046  53.777 -22.734  1.00  0.00    -0.314 OA
HETATM   51  C26 UNL     1       0.723  52.876 -21.678  1.00  0.00     0.213 A 
ENDBRANCH  10  46
TORSDOF 11
ENDMDL
MODEL 7
REMARK minimizedAffinity -9.28779125
REMARK CNNscore 0.306818336
REMARK CNNaffinity 6.05907869
REMARK  11 active torsions:
REMARK  status: ('A' for Active; 'I' for Inactive)
REMARK    1  A    between atoms: C3_4  and  O2_5 
REMARK    2  A    between atoms: O2_5  and  C4_6 
REMARK    3  A    between atoms: C7_9  and  C8_10 
REMARK    4  A    between atoms: N1_11  and  C9_13 
REMARK    5  A    between atoms: C9_13  and  C10_14 
REMARK    6  A    between atoms: C10_14  and  C11_15 
REMARK    7  A    between atoms: C22_26  and  C23_27 
REMARK    8  A    between atoms: C29_35  and  O5_36 
REMARK    9  A    between atoms: C33_40  and  O6_41 
REMARK   10  A    between atoms: C36_44  and  O7_45 
REMARK   11  A    between atoms: C37_46  and  O8_47 
ROOT
HETATM    1  C4  UNL     1      -8.600  45.115 -30.527  1.00  0.00     0.127 C 
HETATM    2  C5  UNL     1      -8.098  44.434 -29.243  1.00  0.00     0.033 C 
HETATM    3  C6  UNL     1      -9.229  44.102 -28.277  1.00  0.00     0.021 C 
HETATM    4  C7  UNL     1     -10.048  45.358 -27.802  1.00  0.00     0.026 C 
HETATM    5  C17 UNL     1     -11.558  44.910 -27.636  1.00  0.00     0.009 C 
HETATM    6  C18 UNL     1     -11.776  43.846 -26.538  1.00  0.00     0.007 C 
HETATM    7  C19 UNL     1     -13.226  43.374 -26.471  1.00  0.00     0.013 C 
HETATM    8  C20 UNL     1     -14.236  44.530 -26.216  1.00  0.00    -0.005 C 
HETATM    9  C21 UNL     1     -14.074  45.018 -24.762  1.00  0.00     0.019 C 
HETATM   10  C22 UNL     1     -15.681  44.006 -26.538  1.00  0.00     0.028 C 
HETATM   11  C27 UNL     1     -15.800  44.160 -28.072  1.00  0.00     0.013 C 
HETATM   12  C28 UNL     1     -14.677  45.093 -28.536  1.00  0.00     0.040 C 
HETATM   13  C29 UNL     1     -14.019  45.656 -27.264  1.00  0.00     0.070 C 
HETATM   14  C30 UNL     1     -12.537  46.092 -27.445  1.00  0.00     0.026 C 
HETATM   15  C31 UNL     1     -12.391  47.086 -28.608  1.00  0.00     0.011 C 
HETATM   16  C32 UNL     1     -10.976  47.620 -28.693  1.00  0.00     0.039 C 
HETATM   17  C33 UNL     1      -9.898  46.536 -28.842  1.00  0.00     0.073 C 
HETATM   18  C34 UNL     1      -9.867  45.953 -30.273  1.00  0.00     0.071 C 
ENDROOT
BRANCH   1  19
HETATM   19  O2  UNL     1      -7.521  45.936 -30.977  1.00  0.00    -0.356 OA
BRANCH  19  20
HETATM   20  C3  UNL     1      -7.566  46.391 -32.322  1.00  0.00     0.263 C 
HETATM   21  O1  UNL     1      -6.292  46.151 -32.926  1.00  0.00    -0.354 OA
HETATM   22  C2  UNL     1      -5.242  47.062 -32.554  1.00  0.00     0.151 C 
HETATM   23  C1  UNL     1      -3.982  46.233 -32.315  1.00  0.00     0.042 C 
HETATM   24  C37 UNL     1      -5.568  47.955 -31.344  1.00  0.00     0.175 C 
HETATM   25  C36 UNL     1      -6.902  48.690 -31.568  1.00  0.00     0.154 C 
HETATM   26  C35 UNL     1      -7.890  47.879 -32.407  1.00  0.00     0.095 C 
BRANCH  24  27
HETATM   27  O8  UNL     1      -4.540  48.928 -31.122  1.00  0.00    -0.390 OA
HETATM   28  H51 UNL     1      -4.785  49.387 -30.296  1.00  0.00     0.210 HD
ENDBRANCH  24  27
BRANCH  25  29
HETATM   29  O7  UNL     1      -7.476  49.003 -30.286  1.00  0.00    -0.393 OA
HETATM   30  H49 UNL     1      -8.186  49.651 -30.442  1.00  0.00     0.210 HD
ENDBRANCH  25  29
ENDBRANCH  19  20
ENDBRANCH   1  19
BRANCH  17  31
HETATM   31  O6  UNL     1      -8.659  47.235 -28.622  1.00  0.00    -0.389 OA
HETATM   32  H43 UNL     1      -8.419  47.729 -29.437  1.00  0.00     0.210 HD
ENDBRANCH  17  31
BRANCH   4  33
HETATM   33  C8  UNL     1      -9.497  45.857 -26.457  1.00  0.00     0.068 C 
HETATM   34  N1  UNL     1      -8.234  45.849 -26.190  1.00  0.00    -0.401 N 
ATOM     35  H1  UNL     1      -7.531  45.511 -26.846  1.00  0.00     0.158 HD
BRANCH  34  36
HETATM   36  C9  UNL     1      -7.899  46.368 -24.858  1.00  0.00     0.123 C 
BRANCH  36  37
HETATM   37  C10 UNL     1      -7.531  47.853 -24.959  1.00  0.00     0.058 C 
BRANCH  37  38
HETATM   38  C11 UNL     1      -6.061  48.096 -25.209  1.00  0.00    -0.057 A 
HETATM   39  C12 UNL     1      -5.552  48.107 -26.514  1.00  0.00     0.007 A 
HETATM   40  C13 UNL     1      -4.191  48.327 -26.739  1.00  0.00     0.001 A 
HETATM   41  C14 UNL     1      -3.328  48.536 -25.664  1.00  0.00     0.000 A 
HETATM   42  C15 UNL     1      -3.824  48.518 -24.362  1.00  0.00     0.001 A 
HETATM   43  C16 UNL     1      -5.183  48.296 -24.135  1.00  0.00     0.007 A 
ENDBRANCH  37  38
ENDBRANCH  36  37
ENDBRANCH  34  36
ENDBRANCH   4  33
BRANCH  13  44
HETATM   44  O5  UNL     1     -14.776  46.821 -26.912  1.00  0.00    -0.389 OA
HETATM   45  H37 UNL     1     -14.356  47.243 -26.141  1.00  0.00     0.210 HD
ENDBRANCH  13  44
BRANCH  10  46
HETATM   46  C23 UNL     1     -16.826  44.639 -25.789  1.00  0.00    -0.045 A 
HETATM   47  C24 UNL     1     -17.605  45.663 -26.140  1.00  0.00     0.087 A 
HETATM   48  C25 UNL     1     -18.559  45.873 -25.055  1.00  0.00     0.283 A 
HETATM   49  O3  UNL     1     -19.397  46.754 -25.020  1.00  0.00    -0.260 OA
HETATM   50  O4  UNL     1     -18.350  44.938 -24.090  1.00  0.00    -0.314 OA
HETATM   51  C26 UNL     1     -17.262  44.103 -24.477  1.00  0.00     0.213 A 
ENDBRANCH  10  46
TORSDOF 11
ENDMDL
MODEL 8
REMARK minimizedAffinity -12.4584846
REMARK CNNscore 0.295716614
REMARK CNNaffinity 7.27914667
REMARK  11 active torsions:
REMARK  status: ('A' for Active; 'I' for Inactive)
REMARK    1  A    between atoms: C3_4  and  O2_5 
REMARK    2  A    between atoms: O2_5  and  C4_6 
REMARK    3  A    between atoms: C7_9  and  C8_10 
REMARK    4  A    between atoms: N1_11  and  C9_13 
REMARK    5  A    between atoms: C9_13  and  C10_14 
REMARK    6  A    between atoms: C10_14  and  C11_15 
REMARK    7  A    between atoms: C22_26  and  C23_27 
REMARK    8  A    between atoms: C29_35  and  O5_36 
REMARK    9  A    between atoms: C33_40  and  O6_41 
REMARK   10  A    between atoms: C36_44  and  O7_45 
REMARK   11  A    between atoms: C37_46  and  O8_47 
ROOT
HETATM    1  C4  UNL     1      -6.246  47.957 -24.013  1.00  0.00     0.127 C 
HETATM    2  C5  UNL     1      -5.041  48.191 -24.941  1.00  0.00     0.033 C 
HETATM    3  C6  UNL     1      -3.779  48.566 -24.175  1.00  0.00     0.021 C 
HETATM    4  C7  UNL     1      -3.920  49.878 -23.318  1.00  0.00     0.026 C 
HETATM    5  C17 UNL     1      -3.065  49.683 -21.999  1.00  0.00     0.009 C 
HETATM    6  C18 UNL     1      -1.550  49.529 -22.256  1.00  0.00     0.007 C 
HETATM    7  C19 UNL     1      -0.773  49.253 -20.971  1.00  0.00     0.013 C 
HETATM    8  C20 UNL     1      -0.960  50.357 -19.892  1.00  0.00    -0.005 C 
HETATM    9  C21 UNL     1      -0.220  51.630 -20.352  1.00  0.00     0.019 C 
HETATM   10  C22 UNL     1      -0.442  49.800 -18.518  1.00  0.00     0.028 C 
HETATM   11  C27 UNL     1      -1.636  48.983 -17.973  1.00  0.00     0.013 C 
HETATM   12  C28 UNL     1      -2.882  49.390 -18.767  1.00  0.00     0.040 C 
HETATM   13  C29 UNL     1      -2.474  50.592 -19.638  1.00  0.00     0.070 C 
HETATM   14  C30 UNL     1      -3.324  50.768 -20.929  1.00  0.00     0.026 C 
HETATM   15  C31 UNL     1      -4.824  50.830 -20.598  1.00  0.00     0.011 C 
HETATM   16  C32 UNL     1      -5.641  51.146 -21.834  1.00  0.00     0.039 C 
HETATM   17  C33 UNL     1      -5.439  50.160 -22.995  1.00  0.00     0.073 C 
HETATM   18  C34 UNL     1      -6.165  48.820 -22.740  1.00  0.00     0.071 C 
ENDROOT
BRANCH   1  19
HETATM   19  O2  UNL     1      -7.400  48.286 -24.786  1.00  0.00    -0.356 OA
BRANCH  19  20
HETATM   20  C3  UNL     1      -8.309  47.235 -25.082  1.00  0.00     0.263 C 
HETATM   21  O1  UNL     1      -7.816  46.512 -26.213  1.00  0.00    -0.354 OA
HETATM   22  C2  UNL     1      -7.994  47.152 -27.489  1.00  0.00     0.151 C 
HETATM   23  C1  UNL     1      -6.698  46.970 -28.277  1.00  0.00     0.042 C 
HETATM   24  C37 UNL     1      -8.405  48.632 -27.412  1.00  0.00     0.175 C 
HETATM   25  C36 UNL     1      -9.648  48.794 -26.519  1.00  0.00     0.154 C 
HETATM   26  C35 UNL     1      -9.706  47.763 -25.393  1.00  0.00     0.095 C 
BRANCH  24  27
HETATM   27  O8  UNL     1      -8.701  49.159 -28.712  1.00  0.00    -0.390 OA
HETATM   28  H51 UNL     1      -8.867  50.112 -28.578  1.00  0.00     0.210 HD
ENDBRANCH  24  27
BRANCH  25  29
HETATM   29  O7  UNL     1      -9.654  50.127 -25.977  1.00  0.00    -0.393 OA
HETATM   30  H49 UNL     1     -10.542  50.281 -25.608  1.00  0.00     0.210 HD
ENDBRANCH  25  29
ENDBRANCH  19  20
ENDBRANCH   1  19
BRANCH  17  31
HETATM   31  O6  UNL     1      -6.073  50.800 -24.118  1.00  0.00    -0.389 OA
HETATM   32  H43 UNL     1      -7.046  50.679 -24.051  1.00  0.00     0.210 HD
ENDBRANCH  17  31
BRANCH   4  33
HETATM   33  C8  UNL     1      -3.387  51.078 -24.118  1.00  0.00     0.068 C 
HETATM   34  N1  UNL     1      -3.254  51.039 -25.402  1.00  0.00    -0.401 N 
ATOM     35  H1  UNL     1      -3.488  50.218 -25.959  1.00  0.00     0.158 HD
BRANCH  34  36
HETATM   36  C9  UNL     1      -2.736  52.282 -25.988  1.00  0.00     0.123 C 
BRANCH  36  37
HETATM   37  C10 UNL     1      -2.008  51.971 -27.300  1.00  0.00     0.058 C 
BRANCH  37  38
HETATM   38  C11 UNL     1      -0.510  51.852 -27.148  1.00  0.00    -0.057 A 
HETATM   39  C12 UNL     1       0.066  51.654 -25.886  1.00  0.00     0.007 A 
HETATM   40  C13 UNL     1       1.452  51.550 -25.751  1.00  0.00     0.001 A 
HETATM   41  C14 UNL     1       2.275  51.645 -26.873  1.00  0.00     0.000 A 
HETATM   42  C15 UNL     1       1.712  51.851 -28.131  1.00  0.00     0.001 A 
HETATM   43  C16 UNL     1       0.327  51.957 -28.268  1.00  0.00     0.007 A 
ENDBRANCH  37  38
ENDBRANCH  36  37
ENDBRANCH  34  36
ENDBRANCH   4  33
BRANCH  13  44
HETATM   44  O5  UNL     1      -2.672  51.754 -18.823  1.00  0.00    -0.389 OA
HETATM   45  H37 UNL     1      -2.480  52.545 -19.358  1.00  0.00     0.210 HD
ENDBRANCH  13  44
BRANCH  10  46
HETATM   46  C23 UNL     1       0.091  50.803 -17.524  1.00  0.00    -0.045 A 
HETATM   47  C24 UNL     1       0.225  50.696 -16.202  1.00  0.00     0.087 A 
HETATM   48  C25 UNL     1       0.790  51.954 -15.722  1.00  0.00     0.283 A 
HETATM   49  O3  UNL     1       1.010  52.222 -14.556  1.00  0.00    -0.260 OA
HETATM   50  O4  UNL     1       1.018  52.774 -16.781  1.00  0.00    -0.314 OA
HETATM   51  C26 UNL     1       0.603  52.119 -17.977  1.00  0.00     0.213 A 
ENDBRANCH  10  46
TORSDOF 11
ENDMDL
MODEL 9
REMARK minimizedAffinity -8.87335873
REMARK CNNscore 0.291144699
REMARK CNNaffinity 5.49797964
REMARK  11 active torsions:
REMARK  status: ('A' for Active; 'I' for Inactive)
REMARK    1  A    between atoms: C3_4  and  O2_5 
REMARK    2  A    between atoms: O2_5  and  C4_6 
REMARK    3  A    between atoms: C7_9  and  C8_10 
REMARK    4  A    between atoms: N1_11  and  C9_13 
REMARK    5  A    between atoms: C9_13  and  C10_14 
REMARK    6  A    between atoms: C10_14  and  C11_15 
REMARK    7  A    between atoms: C22_26  and  C23_27 
REMARK    8  A    between atoms: C29_35  and  O5_36 
REMARK    9  A    between atoms: C33_40  and  O6_41 
REMARK   10  A    between atoms: C36_44  and  O7_45 
REMARK   11  A    between atoms: C37_46  and  O8_47 
ROOT
HETATM    1  C4  UNL     1     -12.266  47.825 -28.687  1.00  0.00     0.127 C 
HETATM    2  C5  UNL     1     -12.753  46.664 -29.570  1.00  0.00     0.033 C 
HETATM    3  C6  UNL     1     -14.033  46.027 -29.043  1.00  0.00     0.021 C 
HETATM    4  C7  UNL     1     -13.898  45.434 -27.592  1.00  0.00     0.026 C 
HETATM    5  C17 UNL     1     -15.281  45.657 -26.853  1.00  0.00     0.009 C 
HETATM    6  C18 UNL     1     -16.461  44.895 -27.493  1.00  0.00     0.007 C 
HETATM    7  C19 UNL     1     -17.789  45.208 -26.810  1.00  0.00     0.013 C 
HETATM    8  C20 UNL     1     -17.787  44.883 -25.288  1.00  0.00    -0.005 C 
HETATM    9  C21 UNL     1     -17.778  43.351 -25.108  1.00  0.00     0.019 C 
HETATM   10  C22 UNL     1     -19.032  45.579 -24.631  1.00  0.00     0.028 C 
HETATM   11  C27 UNL     1     -18.561  47.030 -24.383  1.00  0.00     0.013 C 
HETATM   12  C28 UNL     1     -17.033  47.051 -24.495  1.00  0.00     0.040 C 
HETATM   13  C29 UNL     1     -16.581  45.583 -24.604  1.00  0.00     0.070 C 
HETATM   14  C30 UNL     1     -15.221  45.382 -25.332  1.00  0.00     0.026 C 
HETATM   15  C31 UNL     1     -14.117  46.237 -24.689  1.00  0.00     0.011 C 
HETATM   16  C32 UNL     1     -12.766  45.933 -25.303  1.00  0.00     0.039 C 
HETATM   17  C33 UNL     1     -12.705  46.127 -26.826  1.00  0.00     0.073 C 
HETATM   18  C34 UNL     1     -12.652  47.623 -27.210  1.00  0.00     0.071 C 
ENDROOT
BRANCH   1  19
HETATM   19  O2  UNL     1     -10.848  47.866 -28.848  1.00  0.00    -0.356 OA
BRANCH  19  20
HETATM   20  C3  UNL     1     -10.288  47.088 -29.897  1.00  0.00     0.263 C 
HETATM   21  O1  UNL     1      -9.419  46.109 -29.322  1.00  0.00    -0.354 OA
HETATM   22  C2  UNL     1      -8.142  46.593 -28.872  1.00  0.00     0.151 C 
HETATM   23  C1  UNL     1      -7.857  45.944 -27.519  1.00  0.00     0.042 C 
HETATM   24  C37 UNL     1      -8.027  48.126 -28.798  1.00  0.00     0.175 C 
HETATM   25  C36 UNL     1      -8.430  48.755 -30.144  1.00  0.00     0.154 C 
HETATM   26  C35 UNL     1      -9.497  47.946 -30.879  1.00  0.00     0.095 C 
BRANCH  24  27
HETATM   27  O8  UNL     1      -6.690  48.534 -28.481  1.00  0.00    -0.390 OA
HETATM   28  H51 UNL     1      -6.730  49.504 -28.372  1.00  0.00     0.210 HD
ENDBRANCH  24  27
BRANCH  25  29
HETATM   29  O7  UNL     1      -8.897  50.096 -29.903  1.00  0.00    -0.393 OA
HETATM   30  H49 UNL     1      -8.931  50.545 -30.766  1.00  0.00     0.210 HD
ENDBRANCH  25  29
ENDBRANCH  19  20
ENDBRANCH   1  19
BRANCH  17  31
HETATM   31  O6  UNL     1     -11.455  45.527 -27.210  1.00  0.00    -0.389 OA
HETATM   32  H43 UNL     1     -10.722  46.146 -27.000  1.00  0.00     0.210 HD
ENDBRANCH  17  31
BRANCH   4  33
HETATM   33  C8  UNL     1     -13.583  43.931 -27.674  1.00  0.00     0.068 C 
HETATM   34  N1  UNL     1     -13.417  43.209 -26.617  1.00  0.00    -0.401 N 
ATOM     35  H1  UNL     1     -13.479  43.586 -25.672  1.00  0.00     0.158 HD
BRANCH  34  36
HETATM   36  C9  UNL     1     -13.130  41.796 -26.896  1.00  0.00     0.123 C 
BRANCH  36  37
HETATM   37  C10 UNL     1     -13.816  41.376 -28.201  1.00  0.00     0.058 C 
BRANCH  37  38
HETATM   38  C11 UNL     1     -15.143  40.687 -27.994  1.00  0.00    -0.057 A 
HETATM   39  C12 UNL     1     -15.202  39.309 -27.749  1.00  0.00     0.007 A 
HETATM   40  C13 UNL     1     -16.433  38.676 -27.564  1.00  0.00     0.001 A 
HETATM   41  C14 UNL     1     -17.616  39.412 -27.626  1.00  0.00     0.000 A 
HETATM   42  C15 UNL     1     -17.568  40.782 -27.879  1.00  0.00     0.001 A 
HETATM   43  C16 UNL     1     -16.339  41.416 -28.066  1.00  0.00     0.007 A 
ENDBRANCH  37  38
ENDBRANCH  36  37
ENDBRANCH  34  36
ENDBRANCH   4  33
BRANCH  13  44
HETATM   44  O5  UNL     1     -16.427  45.117 -23.258  1.00  0.00    -0.389 OA
HETATM   45  H37 UNL     1     -16.085  44.206 -23.282  1.00  0.00     0.210 HD
ENDBRANCH  13  44
BRANCH  10  46
HETATM   46  C23 UNL     1     -19.616  44.928 -23.401  1.00  0.00    -0.045 A 
HETATM   47  C24 UNL     1     -20.485  43.921 -23.308  1.00  0.00     0.087 A 
HETATM   48  C25 UNL     1     -20.719  43.682 -21.887  1.00  0.00     0.283 A 
HETATM   49  O3  UNL     1     -21.490  42.858 -21.434  1.00  0.00    -0.260 OA
HETATM   50  O4  UNL     1     -19.947  44.532 -21.159  1.00  0.00    -0.314 OA
HETATM   51  C26 UNL     1     -19.205  45.365 -22.045  1.00  0.00     0.213 A 
ENDBRANCH  10  46
TORSDOF 11
ENDMDL
