MODEL 1
REMARK minimizedAffinity -10.2904463
REMARK  9 active torsions:
REMARK  status: ('A' for Active; 'I' for Inactive)
REMARK    1  A    between atoms: C4_4  and  C5_5 
REMARK    2  A    between atoms: C5_5  and  C6_6 
REMARK    3  A    between atoms: C6_6  and  C7_7 
REMARK    4  A    between atoms: C13_14  and  O2_15 
REMARK    5  A    between atoms: C14_16  and  C15_17 
REMARK    6  A    between atoms: C15_17  and  C16_18 
REMARK    7  A    between atoms: C22_25  and  C23_26 
REMARK    8  A    between atoms: C25_28  and  O4_29 
REMARK    9  A    between atoms: C27_31  and  O5_32 
ROOT
HETATM    1  C7  UNL     1       1.633   7.631  11.979  1.00  0.00     0.082 A 
HETATM    2  C8  UNL     1       2.846   7.399  12.891  1.00  0.00     0.051 C 
HETATM    3  C9  UNL     1       1.054   6.274  11.613  1.00  0.00     0.012 A 
HETATM    4  C10 UNL     1      -0.206   5.911  11.870  1.00  0.00     0.016 A 
HETATM    5  C11 UNL     1      -1.039   6.886  12.537  1.00  0.00     0.035 A 
HETATM    6  C12 UNL     1      -0.546   8.125  12.926  1.00  0.00     0.117 A 
HETATM    7  O1  UNL     1       0.750   8.515  12.710  1.00  0.00    -0.333 OA
HETATM    8  C13 UNL     1      -1.375   9.044  13.581  1.00  0.00     0.107 A 
HETATM    9  C14 UNL     1      -2.728   8.778  13.881  1.00  0.00    -0.006 A 
HETATM   10  C20 UNL     1      -3.226   7.516  13.467  1.00  0.00     0.011 A 
HETATM   11  C21 UNL     1      -2.379   6.620  12.819  1.00  0.00     0.100 A 
HETATM   12  O3  UNL     1      -3.054   5.474  12.515  1.00  0.00    -0.308 OA
HETATM   13  C22 UNL     1      -4.341   5.616  12.952  1.00  0.00     0.087 A 
HETATM   14  C29 UNL     1      -4.486   6.857  13.542  1.00  0.00     0.053 A 
ENDROOT
BRANCH  13  15
HETATM   15  C23 UNL     1      -5.236   4.486  12.713  1.00  0.00     0.003 A 
HETATM   16  C24 UNL     1      -4.783   3.353  12.020  1.00  0.00     0.051 A 
HETATM   17  C25 UNL     1      -5.636   2.275  11.793  1.00  0.00     0.069 A 
HETATM   18  C26 UNL     1      -6.949   2.294  12.244  1.00  0.00     0.073 A 
HETATM   19  C27 UNL     1      -7.403   3.412  12.930  1.00  0.00     0.069 A 
HETATM   20  C28 UNL     1      -6.565   4.502  13.168  1.00  0.00     0.051 A 
BRANCH  17  21
HETATM   21  O4  UNL     1      -5.135   1.203  11.114  1.00  0.00    -0.361 OA
HETATM   22  H28 UNL     1      -5.834   0.532  11.036  1.00  0.00     0.217 HD
ENDBRANCH  17  21
BRANCH  19  23
HETATM   23  O5  UNL     1      -8.698   3.406  13.363  1.00  0.00    -0.361 OA
HETATM   24  H30 UNL     1      -8.875   4.244  13.822  1.00  0.00     0.217 HD
ENDBRANCH  19  23
ENDBRANCH  13  15
BRANCH   9  25
HETATM   25  C15 UNL     1      -3.589   9.809  14.574  1.00  0.00     0.070 C 
BRANCH  25  26
HETATM   26  C16 UNL     1      -3.465   9.730  16.073  1.00  0.00    -0.020 C 
HETATM   27  C17 UNL     1      -3.548  10.723  16.980  1.00  0.00    -0.091 C 
HETATM   28  C18 UNL     1      -3.795  12.173  16.672  1.00  0.00     0.042 C 
HETATM   29  C19 UNL     1      -3.387  10.425  18.449  1.00  0.00     0.042 C 
ENDBRANCH  25  26
ENDBRANCH   9  25
BRANCH   8  30
HETATM   30  O2  UNL     1      -0.842  10.258  13.945  1.00  0.00    -0.357 OA
HETATM   31  H17 UNL     1       0.090  10.232  13.651  1.00  0.00     0.217 HD
ENDBRANCH   8  30
BRANCH   1  32
HETATM   32  C6  UNL     1       2.035   8.351  10.669  1.00  0.00     0.046 C 
BRANCH  32  33
HETATM   33  C5  UNL     1       3.296   7.795   9.997  1.00  0.00     0.030 C 
BRANCH  33  34
HETATM   34  C4  UNL     1       3.015   7.402   8.572  1.00  0.00    -0.025 C 
HETATM   35  C2  UNL     1       1.878   7.593   7.874  1.00  0.00    -0.091 C 
HETATM   36  C1  UNL     1       0.653   8.296   8.392  1.00  0.00     0.042 C 
HETATM   37  C3  UNL     1       1.757   7.101   6.455  1.00  0.00     0.042 C 
ENDBRANCH  33  34
ENDBRANCH  32  33
ENDBRANCH   1  32
TORSDOF 9
ENDMDL
MODEL 2
REMARK minimizedAffinity -9.8821516
REMARK  9 active torsions:
REMARK  status: ('A' for Active; 'I' for Inactive)
REMARK    1  A    between atoms: C4_4  and  C5_5 
REMARK    2  A    between atoms: C5_5  and  C6_6 
REMARK    3  A    between atoms: C6_6  and  C7_7 
REMARK    4  A    between atoms: C13_14  and  O2_15 
REMARK    5  A    between atoms: C14_16  and  C15_17 
REMARK    6  A    between atoms: C15_17  and  C16_18 
REMARK    7  A    between atoms: C22_25  and  C23_26 
REMARK    8  A    between atoms: C25_28  and  O4_29 
REMARK    9  A    between atoms: C27_31  and  O5_32 
ROOT
HETATM    1  C7  UNL     1       1.230   7.036  11.617  1.00  0.00     0.082 A 
HETATM    2  C8  UNL     1       2.499   6.203  11.849  1.00  0.00     0.051 C 
HETATM    3  C9  UNL     1       0.192   6.138  10.962  1.00  0.00     0.012 A 
HETATM    4  C10 UNL     1      -1.014   5.897  11.482  1.00  0.00     0.016 A 
HETATM    5  C11 UNL     1      -1.319   6.538  12.741  1.00  0.00     0.035 A 
HETATM    6  C12 UNL     1      -0.391   7.336  13.398  1.00  0.00     0.117 A 
HETATM    7  O1  UNL     1       0.868   7.575  12.911  1.00  0.00    -0.333 OA
HETATM    8  C13 UNL     1      -0.711   7.934  14.623  1.00  0.00     0.107 A 
HETATM    9  C14 UNL     1      -1.964   7.769  15.252  1.00  0.00    -0.006 A 
HETATM   10  C20 UNL     1      -2.909   6.964  14.567  1.00  0.00     0.011 A 
HETATM   11  C21 UNL     1      -2.563   6.379  13.351  1.00  0.00     0.100 A 
HETATM   12  O3  UNL     1      -3.609   5.648  12.868  1.00  0.00    -0.308 OA
HETATM   13  C22 UNL     1      -4.642   5.756  13.756  1.00  0.00     0.087 A 
HETATM   14  C29 UNL     1      -4.252   6.556  14.812  1.00  0.00     0.053 A 
ENDROOT
BRANCH  13  15
HETATM   15  C23 UNL     1      -5.869   5.041  13.414  1.00  0.00     0.003 A 
HETATM   16  C24 UNL     1      -7.120   5.653  13.582  1.00  0.00     0.051 A 
HETATM   17  C25 UNL     1      -8.291   4.971  13.255  1.00  0.00     0.069 A 
HETATM   18  C26 UNL     1      -8.250   3.675  12.758  1.00  0.00     0.073 A 
HETATM   19  C27 UNL     1      -7.015   3.064  12.590  1.00  0.00     0.069 A 
HETATM   20  C28 UNL     1      -5.831   3.729  12.911  1.00  0.00     0.051 A 
BRANCH  17  21
HETATM   21  O4  UNL     1      -9.475   5.622  13.440  1.00  0.00    -0.361 OA
HETATM   22  H28 UNL     1     -10.198   5.032  13.167  1.00  0.00     0.217 HD
ENDBRANCH  17  21
BRANCH  19  23
HETATM   23  O5  UNL     1      -7.001   1.790  12.099  1.00  0.00    -0.361 OA
HETATM   24  H30 UNL     1      -6.078   1.492  12.035  1.00  0.00     0.217 HD
ENDBRANCH  19  23
ENDBRANCH  13  15
BRANCH   9  25
HETATM   25  C15 UNL     1      -2.271   8.450  16.567  1.00  0.00     0.070 C 
BRANCH  25  26
HETATM   26  C16 UNL     1      -2.962   9.772  16.368  1.00  0.00    -0.020 C 
HETATM   27  C17 UNL     1      -3.390  10.650  17.298  1.00  0.00    -0.091 C 
HETATM   28  C18 UNL     1      -3.257  10.484  18.785  1.00  0.00     0.042 C 
HETATM   29  C19 UNL     1      -4.071  11.928  16.881  1.00  0.00     0.042 C 
ENDBRANCH  25  26
ENDBRANCH   9  25
BRANCH   8  30
HETATM   30  O2  UNL     1       0.239   8.717  15.235  1.00  0.00    -0.357 OA
HETATM   31  H17 UNL     1       1.016   8.693  14.642  1.00  0.00     0.217 HD
ENDBRANCH   8  30
BRANCH   1  32
HETATM   32  C6  UNL     1       1.498   8.232  10.671  1.00  0.00     0.046 C 
BRANCH  32  33
HETATM   33  C5  UNL     1       0.386   8.495   9.647  1.00  0.00     0.030 C 
BRANCH  33  34
HETATM   34  C4  UNL     1       0.663   7.772   8.357  1.00  0.00    -0.025 C 
HETATM   35  C2  UNL     1       1.773   7.843   7.596  1.00  0.00    -0.091 C 
HETATM   36  C1  UNL     1       2.999   8.651   7.926  1.00  0.00     0.042 C 
HETATM   37  C3  UNL     1       1.869   7.070   6.306  1.00  0.00     0.042 C 
ENDBRANCH  33  34
ENDBRANCH  32  33
ENDBRANCH   1  32
TORSDOF 9
ENDMDL
MODEL 3
REMARK minimizedAffinity -9.63976669
REMARK  9 active torsions:
REMARK  status: ('A' for Active; 'I' for Inactive)
REMARK    1  A    between atoms: C4_4  and  C5_5 
REMARK    2  A    between atoms: C5_5  and  C6_6 
REMARK    3  A    between atoms: C6_6  and  C7_7 
REMARK    4  A    between atoms: C13_14  and  O2_15 
REMARK    5  A    between atoms: C14_16  and  C15_17 
REMARK    6  A    between atoms: C15_17  and  C16_18 
REMARK    7  A    between atoms: C22_25  and  C23_26 
REMARK    8  A    between atoms: C25_28  and  O4_29 
REMARK    9  A    between atoms: C27_31  and  O5_32 
ROOT
HETATM    1  C7  UNL     1      -3.240  10.667  16.315  1.00  0.00     0.082 A 
HETATM    2  C8  UNL     1      -3.595  12.100  15.895  1.00  0.00     0.051 C 
HETATM    3  C9  UNL     1      -4.510   9.833  16.260  1.00  0.00     0.012 A 
HETATM    4  C10 UNL     1      -4.644   8.736  15.510  1.00  0.00     0.016 A 
HETATM    5  C11 UNL     1      -3.500   8.347  14.716  1.00  0.00     0.035 A 
HETATM    6  C12 UNL     1      -2.331   9.097  14.703  1.00  0.00     0.117 A 
HETATM    7  O1  UNL     1      -2.173  10.247  15.432  1.00  0.00    -0.333 OA
HETATM    8  C13 UNL     1      -1.244   8.702  13.915  1.00  0.00     0.107 A 
HETATM    9  C14 UNL     1      -1.265   7.547  13.104  1.00  0.00    -0.006 A 
HETATM   10  C20 UNL     1      -2.457   6.781  13.134  1.00  0.00     0.011 A 
HETATM   11  C21 UNL     1      -3.524   7.198  13.926  1.00  0.00     0.100 A 
HETATM   12  O3  UNL     1      -4.567   6.325  13.806  1.00  0.00    -0.308 OA
HETATM   13  C22 UNL     1      -4.187   5.334  12.947  1.00  0.00     0.087 A 
HETATM   14  C29 UNL     1      -2.898   5.577  12.513  1.00  0.00     0.053 A 
ENDROOT
BRANCH  13  15
HETATM   15  C23 UNL     1      -5.172   4.287  12.687  1.00  0.00     0.003 A 
HETATM   16  C24 UNL     1      -4.826   3.152  11.938  1.00  0.00     0.051 A 
HETATM   17  C25 UNL     1      -5.766   2.154  11.691  1.00  0.00     0.069 A 
HETATM   18  C26 UNL     1      -7.062   2.255  12.177  1.00  0.00     0.073 A 
HETATM   19  C27 UNL     1      -7.411   3.374  12.919  1.00  0.00     0.069 A 
HETATM   20  C28 UNL     1      -6.486   4.386  13.178  1.00  0.00     0.051 A 
BRANCH  17  21
HETATM   21  O4  UNL     1      -5.365   1.076  10.957  1.00  0.00    -0.361 OA
HETATM   22  H28 UNL     1      -6.116   0.464  10.871  1.00  0.00     0.217 HD
ENDBRANCH  17  21
BRANCH  19  23
HETATM   23  O5  UNL     1      -8.692   3.450  13.386  1.00  0.00    -0.361 OA
HETATM   24  H30 UNL     1      -8.793   4.279  13.883  1.00  0.00     0.217 HD
ENDBRANCH  19  23
ENDBRANCH  13  15
BRANCH   9  25
HETATM   25  C15 UNL     1      -0.059   7.150  12.282  1.00  0.00     0.070 C 
BRANCH  25  26
HETATM   26  C16 UNL     1      -0.066   7.799  10.924  1.00  0.00    -0.020 C 
HETATM   27  C17 UNL     1       0.668   7.489   9.836  1.00  0.00    -0.091 C 
HETATM   28  C18 UNL     1       1.684   6.384   9.751  1.00  0.00     0.042 C 
HETATM   29  C19 UNL     1       0.510   8.278   8.562  1.00  0.00     0.042 C 
ENDBRANCH  25  26
ENDBRANCH   9  25
BRANCH   8  30
HETATM   30  O2  UNL     1      -0.107   9.476  13.936  1.00  0.00    -0.357 OA
HETATM   31  H17 UNL     1      -0.306  10.212  14.548  1.00  0.00     0.217 HD
ENDBRANCH   8  30
BRANCH   1  32
HETATM   32  C6  UNL     1      -2.694  10.617  17.763  1.00  0.00     0.046 C 
BRANCH  32  33
HETATM   33  C5  UNL     1      -1.547  11.595  18.047  1.00  0.00     0.030 C 
BRANCH  33  34
HETATM   34  C4  UNL     1      -0.523  10.971  18.955  1.00  0.00    -0.025 C 
HETATM   35  C2  UNL     1       0.340  11.600  19.777  1.00  0.00    -0.091 C 
HETATM   36  C1  UNL     1       0.416  13.089  19.978  1.00  0.00     0.042 C 
HETATM   37  C3  UNL     1       1.329  10.814  20.598  1.00  0.00     0.042 C 
ENDBRANCH  33  34
ENDBRANCH  32  33
ENDBRANCH   1  32
TORSDOF 9
ENDMDL
MODEL 4
REMARK minimizedAffinity -9.49485493
REMARK  9 active torsions:
REMARK  status: ('A' for Active; 'I' for Inactive)
REMARK    1  A    between atoms: C4_4  and  C5_5 
REMARK    2  A    between atoms: C5_5  and  C6_6 
REMARK    3  A    between atoms: C6_6  and  C7_7 
REMARK    4  A    between atoms: C13_14  and  O2_15 
REMARK    5  A    between atoms: C14_16  and  C15_17 
REMARK    6  A    between atoms: C15_17  and  C16_18 
REMARK    7  A    between atoms: C22_25  and  C23_26 
REMARK    8  A    between atoms: C25_28  and  O4_29 
REMARK    9  A    between atoms: C27_31  and  O5_32 
ROOT
HETATM    1  C7  UNL     1      -1.466  10.005  15.271  1.00  0.00     0.082 A 
HETATM    2  C8  UNL     1      -1.554  11.434  14.719  1.00  0.00     0.051 C 
HETATM    3  C9  UNL     1      -2.880   9.455  15.378  1.00  0.00     0.012 A 
HETATM    4  C10 UNL     1      -3.293   8.345  14.759  1.00  0.00     0.016 A 
HETATM    5  C11 UNL     1      -2.317   7.652  13.949  1.00  0.00     0.035 A 
HETATM    6  C12 UNL     1      -1.024   8.135  13.789  1.00  0.00     0.117 A 
HETATM    7  O1  UNL     1      -0.579   9.289  14.379  1.00  0.00    -0.333 OA
HETATM    8  C13 UNL     1      -0.105   7.448  12.987  1.00  0.00     0.107 A 
HETATM    9  C14 UNL     1      -0.423   6.252  12.308  1.00  0.00    -0.006 A 
HETATM   10  C20 UNL     1      -1.741   5.760  12.488  1.00  0.00     0.011 A 
HETATM   11  C21 UNL     1      -2.636   6.465  13.289  1.00  0.00     0.100 A 
HETATM   12  O3  UNL     1      -3.840   5.824  13.323  1.00  0.00    -0.308 OA
HETATM   13  C22 UNL     1      -3.738   4.699  12.556  1.00  0.00     0.087 A 
HETATM   14  C29 UNL     1      -2.464   4.623  12.026  1.00  0.00     0.053 A 
ENDROOT
BRANCH  13  15
HETATM   15  C23 UNL     1      -4.933   3.863  12.466  1.00  0.00     0.003 A 
HETATM   16  C24 UNL     1      -6.081   4.181  13.208  1.00  0.00     0.051 A 
HETATM   17  C25 UNL     1      -7.221   3.384  13.122  1.00  0.00     0.069 A 
HETATM   18  C26 UNL     1      -7.251   2.263  12.306  1.00  0.00     0.073 A 
HETATM   19  C27 UNL     1      -6.119   1.943  11.569  1.00  0.00     0.069 A 
HETATM   20  C28 UNL     1      -4.967   2.726  11.640  1.00  0.00     0.051 A 
BRANCH  17  21
HETATM   21  O4  UNL     1      -8.304   3.748  13.868  1.00  0.00    -0.361 OA
HETATM   22  H28 UNL     1      -9.020   3.111  13.705  1.00  0.00     0.217 HD
ENDBRANCH  17  21
BRANCH  19  23
HETATM   23  O5  UNL     1      -6.174   0.835  10.773  1.00  0.00    -0.361 OA
HETATM   24  H30 UNL     1      -5.319   0.734  10.322  1.00  0.00     0.217 HD
ENDBRANCH  19  23
ENDBRANCH  13  15
BRANCH   9  25
HETATM   25  C15 UNL     1       0.609   5.535  11.467  1.00  0.00     0.070 C 
BRANCH  25  26
HETATM   26  C16 UNL     1       0.898   6.269  10.185  1.00  0.00    -0.020 C 
HETATM   27  C17 UNL     1       2.045   6.314   9.478  1.00  0.00    -0.091 C 
HETATM   28  C18 UNL     1       3.323   5.610   9.837  1.00  0.00     0.042 C 
HETATM   29  C19 UNL     1       2.125   7.123   8.209  1.00  0.00     0.042 C 
ENDBRANCH  25  26
ENDBRANCH   9  25
BRANCH   8  30
HETATM   30  O2  UNL     1       1.164   7.963  12.861  1.00  0.00    -0.357 OA
HETATM   31  H17 UNL     1       1.167   8.779  13.400  1.00  0.00     0.217 HD
ENDBRANCH   8  30
BRANCH   1  32
HETATM   32  C6  UNL     1      -0.832   9.976  16.683  1.00  0.00     0.046 C 
BRANCH  32  33
HETATM   33  C5  UNL     1      -1.757  10.459  17.807  1.00  0.00     0.030 C 
BRANCH  33  34
HETATM   34  C4  UNL     1      -1.308  11.795  18.335  1.00  0.00    -0.025 C 
HETATM   35  C2  UNL     1      -0.407  12.035  19.307  1.00  0.00    -0.091 C 
HETATM   36  C1  UNL     1       0.376  10.981  20.041  1.00  0.00     0.042 C 
HETATM   37  C3  UNL     1      -0.099  13.446  19.736  1.00  0.00     0.042 C 
ENDBRANCH  33  34
ENDBRANCH  32  33
ENDBRANCH   1  32
TORSDOF 9
ENDMDL
MODEL 5
REMARK minimizedAffinity -9.2934885
REMARK  9 active torsions:
REMARK  status: ('A' for Active; 'I' for Inactive)
REMARK    1  A    between atoms: C4_4  and  C5_5 
REMARK    2  A    between atoms: C5_5  and  C6_6 
REMARK    3  A    between atoms: C6_6  and  C7_7 
REMARK    4  A    between atoms: C13_14  and  O2_15 
REMARK    5  A    between atoms: C14_16  and  C15_17 
REMARK    6  A    between atoms: C15_17  and  C16_18 
REMARK    7  A    between atoms: C22_25  and  C23_26 
REMARK    8  A    between atoms: C25_28  and  O4_29 
REMARK    9  A    between atoms: C27_31  and  O5_32 
ROOT
HETATM    1  C7  UNL     1      -8.631   7.607  15.245  1.00  0.00     0.082 A 
HETATM    2  C8  UNL     1      -9.097   7.373  16.689  1.00  0.00     0.051 C 
HETATM    3  C9  UNL     1      -7.482   8.603  15.277  1.00  0.00     0.012 A 
HETATM    4  C10 UNL     1      -6.265   8.347  14.791  1.00  0.00     0.016 A 
HETATM    5  C11 UNL     1      -6.059   7.039  14.211  1.00  0.00     0.035 A 
HETATM    6  C12 UNL     1      -7.065   6.081  14.192  1.00  0.00     0.117 A 
HETATM    7  O1  UNL     1      -8.314   6.298  14.714  1.00  0.00    -0.333 OA
HETATM    8  C13 UNL     1      -6.832   4.819  13.634  1.00  0.00     0.107 A 
HETATM    9  C14 UNL     1      -5.593   4.447  13.069  1.00  0.00    -0.006 A 
HETATM   10  C20 UNL     1      -4.576   5.437  13.080  1.00  0.00     0.011 A 
HETATM   11  C21 UNL     1      -4.835   6.683  13.644  1.00  0.00     0.100 A 
HETATM   12  O3  UNL     1      -3.729   7.477  13.555  1.00  0.00    -0.308 OA
HETATM   13  C22 UNL     1      -2.749   6.761  12.928  1.00  0.00     0.087 A 
HETATM   14  C29 UNL     1      -3.230   5.504  12.620  1.00  0.00     0.053 A 
ENDROOT
BRANCH  13  15
HETATM   15  C23 UNL     1      -1.472   7.444  12.729  1.00  0.00     0.003 A 
HETATM   16  C24 UNL     1      -1.166   8.606  13.454  1.00  0.00     0.051 A 
HETATM   17  C25 UNL     1       0.052   9.257  13.265  1.00  0.00     0.069 A 
HETATM   18  C26 UNL     1       0.988   8.775  12.360  1.00  0.00     0.073 A 
HETATM   19  C27 UNL     1       0.691   7.626  11.640  1.00  0.00     0.069 A 
HETATM   20  C28 UNL     1      -0.522   6.959  11.814  1.00  0.00     0.051 A 
BRANCH  17  21
HETATM   21  O4  UNL     1       0.289  10.381  14.001  1.00  0.00    -0.361 OA
HETATM   22  H28 UNL     1       1.170  10.721  13.770  1.00  0.00     0.217 HD
ENDBRANCH  17  21
BRANCH  19  23
HETATM   23  O5  UNL     1       1.629   7.173  10.757  1.00  0.00    -0.361 OA
HETATM   24  H30 UNL     1       1.289   6.369  10.329  1.00  0.00     0.217 HD
ENDBRANCH  19  23
ENDBRANCH  13  15
BRANCH   9  25
HETATM   25  C15 UNL     1      -5.393   3.078  12.461  1.00  0.00     0.070 C 
BRANCH  25  26
HETATM   26  C16 UNL     1      -5.787   3.044  11.008  1.00  0.00    -0.020 C 
HETATM   27  C17 UNL     1      -5.015   3.235   9.919  1.00  0.00    -0.091 C 
HETATM   28  C18 UNL     1      -3.542   3.529   9.931  1.00  0.00     0.042 C 
HETATM   29  C19 UNL     1      -5.617   3.163   8.539  1.00  0.00     0.042 C 
ENDBRANCH  25  26
ENDBRANCH   9  25
BRANCH   8  30
HETATM   30  O2  UNL     1      -7.859   3.904  13.637  1.00  0.00    -0.357 OA
HETATM   31  H17 UNL     1      -8.609   4.358  14.069  1.00  0.00     0.217 HD
ENDBRANCH   8  30
BRANCH   1  32
HETATM   32  C6  UNL     1      -9.761   8.204  14.371  1.00  0.00     0.046 C 
BRANCH  32  33
HETATM   33  C5  UNL     1     -10.521   7.176  13.524  1.00  0.00     0.030 C 
BRANCH  33  34
HETATM   34  C4  UNL     1     -11.845   7.729  13.070  1.00  0.00    -0.025 C 
HETATM   35  C2  UNL     1     -13.075   7.263  13.362  1.00  0.00    -0.091 C 
HETATM   36  C1  UNL     1     -13.367   6.091  14.258  1.00  0.00     0.042 C 
HETATM   37  C3  UNL     1     -14.302   7.926  12.790  1.00  0.00     0.042 C 
ENDBRANCH  33  34
ENDBRANCH  32  33
ENDBRANCH   1  32
TORSDOF 9
ENDMDL
MODEL 6
REMARK minimizedAffinity -9.28164101
REMARK  9 active torsions:
REMARK  status: ('A' for Active; 'I' for Inactive)
REMARK    1  A    between atoms: C4_4  and  C5_5 
REMARK    2  A    between atoms: C5_5  and  C6_6 
REMARK    3  A    between atoms: C6_6  and  C7_7 
REMARK    4  A    between atoms: C13_14  and  O2_15 
REMARK    5  A    between atoms: C14_16  and  C15_17 
REMARK    6  A    between atoms: C15_17  and  C16_18 
REMARK    7  A    between atoms: C22_25  and  C23_26 
REMARK    8  A    between atoms: C25_28  and  O4_29 
REMARK    9  A    between atoms: C27_31  and  O5_32 
ROOT
HETATM    1  C7  UNL     1       1.832   7.470  11.895  1.00  0.00     0.082 A 
HETATM    2  C8  UNL     1       3.019   7.279  12.850  1.00  0.00     0.051 C 
HETATM    3  C9  UNL     1       1.246   6.100  11.593  1.00  0.00     0.012 A 
HETATM    4  C10 UNL     1      -0.024   5.767  11.838  1.00  0.00     0.016 A 
HETATM    5  C11 UNL     1      -0.862   6.788  12.425  1.00  0.00     0.035 A 
HETATM    6  C12 UNL     1      -0.364   8.042  12.754  1.00  0.00     0.117 A 
HETATM    7  O1  UNL     1       0.942   8.405  12.550  1.00  0.00    -0.333 OA
HETATM    8  C13 UNL     1      -1.197   9.006  13.333  1.00  0.00     0.107 A 
HETATM    9  C14 UNL     1      -2.561   8.773  13.613  1.00  0.00    -0.006 A 
HETATM   10  C20 UNL     1      -3.064   7.495  13.260  1.00  0.00     0.011 A 
HETATM   11  C21 UNL     1      -2.212   6.553  12.688  1.00  0.00     0.100 A 
HETATM   12  O3  UNL     1      -2.893   5.398  12.433  1.00  0.00    -0.308 OA
HETATM   13  C22 UNL     1      -4.188   5.580  12.828  1.00  0.00     0.087 A 
HETATM   14  C29 UNL     1      -4.333   6.854  13.341  1.00  0.00     0.053 A 
ENDROOT
BRANCH  13  15
HETATM   15  C23 UNL     1      -5.090   4.447  12.632  1.00  0.00     0.003 A 
HETATM   16  C24 UNL     1      -6.384   4.466  13.175  1.00  0.00     0.051 A 
HETATM   17  C25 UNL     1      -7.245   3.386  12.988  1.00  0.00     0.069 A 
HETATM   18  C26 UNL     1      -6.848   2.271  12.264  1.00  0.00     0.073 A 
HETATM   19  C27 UNL     1      -5.569   2.246  11.724  1.00  0.00     0.069 A 
HETATM   20  C28 UNL     1      -4.691   3.316  11.899  1.00  0.00     0.051 A 
BRANCH  17  21
HETATM   21  O4  UNL     1      -8.490   3.466  13.540  1.00  0.00    -0.361 OA
HETATM   22  H28 UNL     1      -8.977   2.653  13.325  1.00  0.00     0.217 HD
ENDBRANCH  17  21
BRANCH  19  23
HETATM   23  O5  UNL     1      -5.202   1.138  11.016  1.00  0.00    -0.361 OA
HETATM   24  H30 UNL     1      -4.291   1.259  10.700  1.00  0.00     0.217 HD
ENDBRANCH  19  23
ENDBRANCH  13  15
BRANCH   9  25
HETATM   25  C15 UNL     1      -3.427   9.852  14.223  1.00  0.00     0.070 C 
BRANCH  25  26
HETATM   26  C16 UNL     1      -2.937  10.264  15.585  1.00  0.00    -0.020 C 
HETATM   27  C17 UNL     1      -2.587   9.485  16.628  1.00  0.00    -0.091 C 
HETATM   28  C18 UNL     1      -2.612   7.982  16.646  1.00  0.00     0.042 C 
HETATM   29  C19 UNL     1      -2.123  10.107  17.920  1.00  0.00     0.042 C 
ENDBRANCH  25  26
ENDBRANCH   9  25
BRANCH   8  30
HETATM   30  O2  UNL     1      -0.659  10.234  13.639  1.00  0.00    -0.357 OA
HETATM   31  H17 UNL     1       0.279  10.181  13.372  1.00  0.00     0.217 HD
ENDBRANCH   8  30
BRANCH   1  32
HETATM   32  C6  UNL     1       2.275   8.108  10.556  1.00  0.00     0.046 C 
BRANCH  32  33
HETATM   33  C5  UNL     1       3.606   7.579  10.007  1.00  0.00     0.030 C 
BRANCH  33  34
HETATM   34  C4  UNL     1       4.640   8.671   9.959  1.00  0.00    -0.025 C 
HETATM   35  C2  UNL     1       5.865   8.669  10.519  1.00  0.00    -0.091 C 
HETATM   36  C1  UNL     1       6.466   7.522  11.283  1.00  0.00     0.042 C 
HETATM   37  C3  UNL     1       6.765   9.872  10.399  1.00  0.00     0.042 C 
ENDBRANCH  33  34
ENDBRANCH  32  33
ENDBRANCH   1  32
TORSDOF 9
ENDMDL
MODEL 7
REMARK minimizedAffinity -9.27624226
REMARK  9 active torsions:
REMARK  status: ('A' for Active; 'I' for Inactive)
REMARK    1  A    between atoms: C4_4  and  C5_5 
REMARK    2  A    between atoms: C5_5  and  C6_6 
REMARK    3  A    between atoms: C6_6  and  C7_7 
REMARK    4  A    between atoms: C13_14  and  O2_15 
REMARK    5  A    between atoms: C14_16  and  C15_17 
REMARK    6  A    between atoms: C15_17  and  C16_18 
REMARK    7  A    between atoms: C22_25  and  C23_26 
REMARK    8  A    between atoms: C25_28  and  O4_29 
REMARK    9  A    between atoms: C27_31  and  O5_32 
ROOT
HETATM    1  C7  UNL     1       1.865   6.537  10.076  1.00  0.00     0.082 A 
HETATM    2  C8  UNL     1       1.829   6.858   8.575  1.00  0.00     0.051 C 
HETATM    3  C9  UNL     1       1.731   7.845  10.840  1.00  0.00     0.012 A 
HETATM    4  C10 UNL     1       0.759   8.093  11.721  1.00  0.00     0.016 A 
HETATM    5  C11 UNL     1      -0.206   7.039  11.938  1.00  0.00     0.035 A 
HETATM    6  C12 UNL     1      -0.149   5.842  11.237  1.00  0.00     0.117 A 
HETATM    7  O1  UNL     1       0.813   5.568  10.300  1.00  0.00    -0.333 OA
HETATM    8  C13 UNL     1      -1.106   4.844  11.460  1.00  0.00     0.107 A 
HETATM    9  C14 UNL     1      -2.161   4.986  12.386  1.00  0.00    -0.006 A 
HETATM   10  C20 UNL     1      -2.203   6.207  13.107  1.00  0.00     0.011 A 
HETATM   11  C21 UNL     1      -1.240   7.183  12.863  1.00  0.00     0.100 A 
HETATM   12  O3  UNL     1      -1.466   8.273  13.654  1.00  0.00    -0.308 OA
HETATM   13  C22 UNL     1      -2.566   8.012  14.421  1.00  0.00     0.087 A 
HETATM   14  C29 UNL     1      -3.047   6.754  14.115  1.00  0.00     0.053 A 
ENDROOT
BRANCH  13  15
HETATM   15  C23 UNL     1      -2.974   9.065  15.349  1.00  0.00     0.003 A 
HETATM   16  C24 UNL     1      -2.725   8.937  16.724  1.00  0.00     0.051 A 
HETATM   17  C25 UNL     1      -3.113   9.941  17.609  1.00  0.00     0.069 A 
HETATM   18  C26 UNL     1      -3.752  11.087  17.156  1.00  0.00     0.073 A 
HETATM   19  C27 UNL     1      -4.001  11.219  15.797  1.00  0.00     0.069 A 
HETATM   20  C28 UNL     1      -3.621  10.226  14.894  1.00  0.00     0.051 A 
BRANCH  17  21
HETATM   21  O4  UNL     1      -2.841   9.757  18.933  1.00  0.00    -0.361 OA
HETATM   22  H28 UNL     1      -3.160  10.532  19.425  1.00  0.00     0.217 HD
ENDBRANCH  17  21
BRANCH  19  23
HETATM   23  O5  UNL     1      -4.631  12.355  15.377  1.00  0.00    -0.361 OA
HETATM   24  H30 UNL     1      -4.739  12.312  14.412  1.00  0.00     0.217 HD
ENDBRANCH  19  23
ENDBRANCH  13  15
BRANCH   9  25
HETATM   25  C15 UNL     1      -3.161   3.874  12.606  1.00  0.00     0.070 C 
BRANCH  25  26
HETATM   26  C16 UNL     1      -4.573   4.392  12.680  1.00  0.00    -0.020 C 
HETATM   27  C17 UNL     1      -5.714   3.791  12.287  1.00  0.00    -0.091 C 
HETATM   28  C18 UNL     1      -5.818   2.424  11.673  1.00  0.00     0.042 C 
HETATM   29  C19 UNL     1      -7.037   4.495  12.447  1.00  0.00     0.042 C 
ENDBRANCH  25  26
ENDBRANCH   9  25
BRANCH   8  30
HETATM   30  O2  UNL     1      -1.007   3.674  10.744  1.00  0.00    -0.357 OA
HETATM   31  H17 UNL     1      -0.224   3.786  10.171  1.00  0.00     0.217 HD
ENDBRANCH   8  30
BRANCH   1  32
HETATM   32  C6  UNL     1       3.203   5.876  10.486  1.00  0.00     0.046 C 
BRANCH  32  33
HETATM   33  C5  UNL     1       4.443   6.750  10.256  1.00  0.00     0.030 C 
BRANCH  33  34
HETATM   34  C4  UNL     1       5.344   6.729  11.461  1.00  0.00    -0.025 C 
HETATM   35  C2  UNL     1       6.263   7.648  11.817  1.00  0.00    -0.091 C 
HETATM   36  C1  UNL     1       6.540   8.928  11.077  1.00  0.00     0.042 C 
HETATM   37  C3  UNL     1       7.109   7.449  13.048  1.00  0.00     0.042 C 
ENDBRANCH  33  34
ENDBRANCH  32  33
ENDBRANCH   1  32
TORSDOF 9
ENDMDL
MODEL 8
REMARK minimizedAffinity -9.08012199
REMARK  9 active torsions:
REMARK  status: ('A' for Active; 'I' for Inactive)
REMARK    1  A    between atoms: C4_4  and  C5_5 
REMARK    2  A    between atoms: C5_5  and  C6_6 
REMARK    3  A    between atoms: C6_6  and  C7_7 
REMARK    4  A    between atoms: C13_14  and  O2_15 
REMARK    5  A    between atoms: C14_16  and  C15_17 
REMARK    6  A    between atoms: C15_17  and  C16_18 
REMARK    7  A    between atoms: C22_25  and  C23_26 
REMARK    8  A    between atoms: C25_28  and  O4_29 
REMARK    9  A    between atoms: C27_31  and  O5_32 
ROOT
HETATM    1  C7  UNL     1      -2.877   9.796  16.216  1.00  0.00     0.082 A 
HETATM    2  C8  UNL     1      -2.513   9.762  17.707  1.00  0.00     0.051 C 
HETATM    3  C9  UNL     1      -1.629  10.180  15.437  1.00  0.00     0.012 A 
HETATM    4  C10 UNL     1      -1.091   9.422  14.477  1.00  0.00     0.016 A 
HETATM    5  C11 UNL     1      -1.756   8.171  14.189  1.00  0.00     0.035 A 
HETATM    6  C12 UNL     1      -2.876   7.758  14.899  1.00  0.00     0.117 A 
HETATM    7  O1  UNL     1      -3.431   8.494  15.913  1.00  0.00    -0.333 OA
HETATM    8  C13 UNL     1      -3.490   6.535  14.605  1.00  0.00     0.107 A 
HETATM    9  C14 UNL     1      -3.024   5.666  13.595  1.00  0.00    -0.006 A 
HETATM   10  C20 UNL     1      -1.889   6.103  12.866  1.00  0.00     0.011 A 
HETATM   11  C21 UNL     1      -1.296   7.323  13.181  1.00  0.00     0.100 A 
HETATM   12  O3  UNL     1      -0.223   7.547  12.368  1.00  0.00    -0.308 OA
HETATM   13  C22 UNL     1      -0.114   6.485  11.516  1.00  0.00     0.087 A 
HETATM   14  C29 UNL     1      -1.119   5.577  11.790  1.00  0.00     0.053 A 
ENDROOT
BRANCH  13  15
HETATM   15  C23 UNL     1       0.982   6.536  10.552  1.00  0.00     0.003 A 
HETATM   16  C24 UNL     1       1.010   7.526   9.558  1.00  0.00     0.051 A 
HETATM   17  C25 UNL     1       2.056   7.576   8.638  1.00  0.00     0.069 A 
HETATM   18  C26 UNL     1       3.092   6.653   8.681  1.00  0.00     0.073 A 
HETATM   19  C27 UNL     1       3.070   5.671   9.663  1.00  0.00     0.069 A 
HETATM   20  C28 UNL     1       2.032   5.603  10.593  1.00  0.00     0.051 A 
BRANCH  17  21
HETATM   21  O4  UNL     1       2.025   8.563   7.697  1.00  0.00    -0.361 OA
HETATM   22  H28 UNL     1       2.813   8.479   7.134  1.00  0.00     0.217 HD
ENDBRANCH  17  21
BRANCH  19  23
HETATM   23  O5  UNL     1       4.100   4.775   9.684  1.00  0.00    -0.361 OA
HETATM   24  H30 UNL     1       3.955   4.152  10.416  1.00  0.00     0.217 HD
ENDBRANCH  19  23
ENDBRANCH  13  15
BRANCH   9  25
HETATM   25  C15 UNL     1      -3.732   4.363  13.301  1.00  0.00     0.070 C 
BRANCH  25  26
HETATM   26  C16 UNL     1      -5.201   4.566  13.040  1.00  0.00    -0.020 C 
HETATM   27  C17 UNL     1      -6.050   3.786  12.342  1.00  0.00    -0.091 C 
HETATM   28  C18 UNL     1      -5.693   2.497  11.656  1.00  0.00     0.042 C 
HETATM   29  C19 UNL     1      -7.498   4.180  12.195  1.00  0.00     0.042 C 
ENDBRANCH  25  26
ENDBRANCH   9  25
BRANCH   8  30
HETATM   30  O2  UNL     1      -4.598   6.170  15.334  1.00  0.00    -0.357 OA
HETATM   31  H17 UNL     1      -4.743   6.899  15.968  1.00  0.00     0.217 HD
ENDBRANCH   8  30
BRANCH   1  32
HETATM   32  C6  UNL     1      -3.971  10.850  15.921  1.00  0.00     0.046 C 
BRANCH  32  33
HETATM   33  C5  UNL     1      -3.619  12.276  16.361  1.00  0.00     0.030 C 
BRANCH  33  34
HETATM   34  C4  UNL     1      -4.401  12.668  17.585  1.00  0.00    -0.025 C 
HETATM   35  C2  UNL     1      -3.920  13.128  18.757  1.00  0.00    -0.091 C 
HETATM   36  C1  UNL     1      -2.468  13.385  19.056  1.00  0.00     0.042 C 
HETATM   37  C3  UNL     1      -4.853  13.443  19.898  1.00  0.00     0.042 C 
ENDBRANCH  33  34
ENDBRANCH  32  33
ENDBRANCH   1  32
TORSDOF 9
ENDMDL
MODEL 9
REMARK minimizedAffinity -8.9789257
REMARK  9 active torsions:
REMARK  status: ('A' for Active; 'I' for Inactive)
REMARK    1  A    between atoms: C4_4  and  C5_5 
REMARK    2  A    between atoms: C5_5  and  C6_6 
REMARK    3  A    between atoms: C6_6  and  C7_7 
REMARK    4  A    between atoms: C13_14  and  O2_15 
REMARK    5  A    between atoms: C14_16  and  C15_17 
REMARK    6  A    between atoms: C15_17  and  C16_18 
REMARK    7  A    between atoms: C22_25  and  C23_26 
REMARK    8  A    between atoms: C25_28  and  O4_29 
REMARK    9  A    between atoms: C27_31  and  O5_32 
ROOT
HETATM    1  C7  UNL     1     -10.280   7.637  14.415  1.00  0.00     0.082 A 
HETATM    2  C8  UNL     1     -11.196   7.321  15.606  1.00  0.00     0.051 C 
HETATM    3  C9  UNL     1      -9.230   8.632  14.881  1.00  0.00     0.012 A 
HETATM    4  C10 UNL     1      -7.915   8.407  14.818  1.00  0.00     0.016 A 
HETATM    5  C11 UNL     1      -7.499   7.136  14.271  1.00  0.00     0.035 A 
HETATM    6  C12 UNL     1      -8.420   6.178  13.867  1.00  0.00     0.117 A 
HETATM    7  O1  UNL     1      -9.776   6.361  13.953  1.00  0.00    -0.333 OA
HETATM    8  C13 UNL     1      -7.987   4.950  13.353  1.00  0.00     0.107 A 
HETATM    9  C14 UNL     1      -6.623   4.614  13.216  1.00  0.00    -0.006 A 
HETATM   10  C20 UNL     1      -5.690   5.604  13.618  1.00  0.00     0.011 A 
HETATM   11  C21 UNL     1      -6.149   6.816  14.128  1.00  0.00     0.100 A 
HETATM   12  O3  UNL     1      -5.093   7.617  14.456  1.00  0.00    -0.308 OA
HETATM   13  C22 UNL     1      -3.945   6.940  14.156  1.00  0.00     0.087 A 
HETATM   14  C29 UNL     1      -4.269   5.700  13.639  1.00  0.00     0.053 A 
ENDROOT
BRANCH  13  15
HETATM   15  C23 UNL     1      -2.691   7.636  14.431  1.00  0.00     0.003 A 
HETATM   16  C24 UNL     1      -1.727   7.060  15.273  1.00  0.00     0.051 A 
HETATM   17  C25 UNL     1      -0.530   7.724  15.535  1.00  0.00     0.069 A 
HETATM   18  C26 UNL     1      -0.262   8.965  14.974  1.00  0.00     0.073 A 
HETATM   19  C27 UNL     1      -1.211   9.540  14.140  1.00  0.00     0.069 A 
HETATM   20  C28 UNL     1      -2.416   8.893  13.865  1.00  0.00     0.051 A 
BRANCH  17  21
HETATM   21  O4  UNL     1       0.366   7.111  16.361  1.00  0.00    -0.361 OA
HETATM   22  H28 UNL     1       1.148   7.681  16.447  1.00  0.00     0.217 HD
ENDBRANCH  17  21
BRANCH  19  23
HETATM   23  O5  UNL     1      -0.923  10.760  13.601  1.00  0.00    -0.361 OA
HETATM   24  H30 UNL     1      -1.670  11.038  13.044  1.00  0.00     0.217 HD
ENDBRANCH  19  23
ENDBRANCH  13  15
BRANCH   9  25
HETATM   25  C15 UNL     1      -6.202   3.282  12.638  1.00  0.00     0.070 C 
BRANCH  25  26
HETATM   26  C16 UNL     1      -4.812   3.331  12.063  1.00  0.00    -0.020 C 
HETATM   27  C17 UNL     1      -4.433   3.354  10.770  1.00  0.00    -0.091 C 
HETATM   28  C18 UNL     1      -5.358   3.338   9.586  1.00  0.00     0.042 C 
HETATM   29  C19 UNL     1      -2.971   3.398  10.406  1.00  0.00     0.042 C 
ENDBRANCH  25  26
ENDBRANCH   9  25
BRANCH   8  30
HETATM   30  O2  UNL     1      -8.936   4.034  12.964  1.00  0.00    -0.357 OA
HETATM   31  H17 UNL     1      -9.797   4.460  13.144  1.00  0.00     0.217 HD
ENDBRANCH   8  30
BRANCH   1  32
HETATM   32  C6  UNL     1     -11.066   8.280  13.247  1.00  0.00     0.046 C 
BRANCH  32  33
HETATM   33  C5  UNL     1     -12.342   9.020  13.668  1.00  0.00     0.030 C 
BRANCH  33  34
HETATM   34  C4  UNL     1     -13.516   8.584  12.833  1.00  0.00    -0.025 C 
HETATM   35  C2  UNL     1     -14.224   7.443  12.942  1.00  0.00    -0.091 C 
HETATM   36  C1  UNL     1     -13.994   6.377  13.979  1.00  0.00     0.042 C 
HETATM   37  C3  UNL     1     -15.357   7.149  11.993  1.00  0.00     0.042 C 
ENDBRANCH  33  34
ENDBRANCH  32  33
ENDBRANCH   1  32
TORSDOF 9
ENDMDL
