MODEL 1
REMARK minimizedAffinity -9.3900404
REMARK  12 active torsions:
REMARK  status: ('A' for Active; 'I' for Inactive)
REMARK    1  A    between atoms: C4_4  and  C5_5 
REMARK    2  A    between atoms: C5_5  and  C6_6 
REMARK    3  A    between atoms: C6_6  and  C7_7 
REMARK    4  A    between atoms: C7_7  and  C9_9 
REMARK    5  A    between atoms: C17_17  and  C18_18 
REMARK    6  A    between atoms: C18_18  and  O1_20 
REMARK    7  A    between atoms: C18_18  and  C20_21 
REMARK    8  A    between atoms: C20_21  and  O2_22 
REMARK    9  A    between atoms: C21_23  and  C22_24 
REMARK   10  A    between atoms: C22_24  and  C23_25 
REMARK   11  A    between atoms: C23_25  and  C24_26 
REMARK   12  A    between atoms: C24_26  and  O4_28 
ROOT
HETATM    1  C9  UNL     1       0.720   6.866  12.969  1.00  0.00    -0.002 C 
HETATM    2  C10 UNL     1       0.393   7.976  13.991  1.00  0.00     0.006 C 
HETATM    3  C11 UNL     1      -1.122   7.960  14.164  1.00  0.00     0.011 C 
HETATM    4  C12 UNL     1      -1.673   7.613  12.763  1.00  0.00    -0.032 C 
HETATM    5  C13 UNL     1      -1.551   8.872  11.860  1.00  0.00     0.016 C 
HETATM    6  C14 UNL     1      -3.197   7.183  12.774  1.00  0.00     0.004 C 
HETATM    7  C15 UNL     1      -4.099   8.295  13.340  1.00  0.00     0.007 C 
HETATM    8  C16 UNL     1      -5.473   7.902  13.867  1.00  0.00     0.009 C 
HETATM    9  C17 UNL     1      -5.995   6.520  13.440  1.00  0.00     0.031 C 
HETATM   10  C21 UNL     1      -4.919   5.409  13.679  1.00  0.00    -0.025 A 
HETATM   11  C25 UNL     1      -3.885   5.595  14.791  1.00  0.00     0.021 A 
HETATM   12  C26 UNL     1      -3.448   5.796  13.362  1.00  0.00    -0.027 A 
HETATM   13  C27 UNL     1      -2.531   4.748  12.759  1.00  0.00     0.011 C 
HETATM   14  C28 UNL     1      -1.077   5.118  12.967  1.00  0.00     0.011 C 
HETATM   15  C29 UNL     1      -0.671   6.475  12.311  1.00  0.00    -0.032 C 
HETATM   16  C30 UNL     1      -0.677   6.267  10.788  1.00  0.00     0.016 C 
ENDROOT
BRANCH   1  17
HETATM   17  C7  UNL     1       2.030   7.129  12.160  1.00  0.00    -0.014 C 
HETATM   18  C8  UNL     1       3.138   7.729  13.037  1.00  0.00     0.010 C 
BRANCH  17  19
HETATM   19  C6  UNL     1       2.554   5.973  11.282  1.00  0.00     0.008 C 
BRANCH  19  20
HETATM   20  C5  UNL     1       3.425   6.453  10.112  1.00  0.00     0.028 C 
BRANCH  20  21
HETATM   21  C4  UNL     1       2.686   6.345   8.804  1.00  0.00    -0.025 C 
HETATM   22  C2  UNL     1       2.525   7.311   7.879  1.00  0.00    -0.091 C 
HETATM   23  C1  UNL     1       3.025   8.724   8.014  1.00  0.00     0.042 C 
HETATM   24  C3  UNL     1       1.785   7.033   6.597  1.00  0.00     0.042 C 
ENDBRANCH  20  21
ENDBRANCH  19  20
ENDBRANCH  17  19
ENDBRANCH   1  17
BRANCH  10  25
HETATM   25  C22 UNL     1      -5.361   3.994  13.256  1.00  0.00     0.021 C 
BRANCH  25  26
HETATM   26  C23 UNL     1      -5.642   3.820  11.762  1.00  0.00     0.111 C 
BRANCH  26  27
HETATM   27  C24 UNL     1      -5.483   2.383  11.350  1.00  0.00     0.139 C 
HETATM   28  O3  UNL     1      -6.335   1.510  11.349  1.00  0.00    -0.650 OA
BRANCH  27  29
HETATM   29  O4  UNL     1      -4.221   2.103  10.965  1.00  0.00    -0.776 OA
HETATM   30  H41 UNL     1      -4.251   1.151  10.738  1.00  0.00     0.167 HD
ENDBRANCH  27  29
ENDBRANCH  26  27
ENDBRANCH  25  26
ENDBRANCH  10  25
BRANCH   9  31
HETATM   31  C18 UNL     1      -7.436   6.222  14.048  1.00  0.00     0.080 C 
HETATM   32  C19 UNL     1      -8.473   5.653  13.056  1.00  0.00     0.048 C 
BRANCH  31  33
HETATM   33  O1  UNL     1      -8.041   7.425  14.551  1.00  0.00    -0.388 OA
HETATM   34  H33 UNL     1      -8.736   7.117  15.168  1.00  0.00     0.210 HD
ENDBRANCH  31  33
BRANCH  31  35
HETATM   35  C20 UNL     1      -7.323   5.216  15.231  1.00  0.00     0.201 C 
BRANCH  35  36
HETATM   36  O2  UNL     1      -8.435   5.397  16.116  1.00  0.00    -0.398 OA
HETATM   37  H36 UNL     1      -8.244   4.875  16.916  1.00  0.00     0.209 HD
ENDBRANCH  35  36
ENDBRANCH  31  35
ENDBRANCH   9  31
TORSDOF 12
ENDMDL
MODEL 2
REMARK minimizedAffinity -9.14984322
REMARK  12 active torsions:
REMARK  status: ('A' for Active; 'I' for Inactive)
REMARK    1  A    between atoms: C4_4  and  C5_5 
REMARK    2  A    between atoms: C5_5  and  C6_6 
REMARK    3  A    between atoms: C6_6  and  C7_7 
REMARK    4  A    between atoms: C7_7  and  C9_9 
REMARK    5  A    between atoms: C17_17  and  C18_18 
REMARK    6  A    between atoms: C18_18  and  O1_20 
REMARK    7  A    between atoms: C18_18  and  C20_21 
REMARK    8  A    between atoms: C20_21  and  O2_22 
REMARK    9  A    between atoms: C21_23  and  C22_24 
REMARK   10  A    between atoms: C22_24  and  C23_25 
REMARK   11  A    between atoms: C23_25  and  C24_26 
REMARK   12  A    between atoms: C24_26  and  O4_28 
ROOT
HETATM    1  C9  UNL     1       1.191   7.387  12.979  1.00  0.00    -0.002 C 
HETATM    2  C10 UNL     1       0.678   8.302  14.111  1.00  0.00     0.006 C 
HETATM    3  C11 UNL     1      -0.818   8.029  14.234  1.00  0.00     0.011 C 
HETATM    4  C12 UNL     1      -1.288   7.768  12.785  1.00  0.00    -0.032 C 
HETATM    5  C13 UNL     1      -1.357   9.129  12.037  1.00  0.00     0.016 C 
HETATM    6  C14 UNL     1      -2.725   7.107  12.698  1.00  0.00     0.004 C 
HETATM    7  C15 UNL     1      -3.799   7.990  13.359  1.00  0.00     0.007 C 
HETATM    8  C16 UNL     1      -5.100   7.327  13.794  1.00  0.00     0.009 C 
HETATM    9  C17 UNL     1      -5.390   5.941  13.195  1.00  0.00     0.031 C 
HETATM   10  C21 UNL     1      -4.154   4.991  13.338  1.00  0.00    -0.025 A 
HETATM   11  C25 UNL     1      -3.177   5.203  14.497  1.00  0.00     0.021 A 
HETATM   12  C26 UNL     1      -2.759   5.638  13.115  1.00  0.00    -0.027 A 
HETATM   13  C27 UNL     1      -1.680   4.825  12.425  1.00  0.00     0.011 C 
HETATM   14  C28 UNL     1      -0.306   5.391  12.720  1.00  0.00     0.011 C 
HETATM   15  C29 UNL     1      -0.112   6.864  12.237  1.00  0.00    -0.032 C 
HETATM   16  C30 UNL     1      -0.066   6.839  10.701  1.00  0.00     0.016 C 
ENDROOT
BRANCH   1  17
HETATM   17  C7  UNL     1       2.452   7.945  12.248  1.00  0.00    -0.014 C 
HETATM   18  C8  UNL     1       3.113   9.088  13.030  1.00  0.00     0.010 C 
BRANCH  17  19
HETATM   19  C6  UNL     1       3.488   6.914  11.752  1.00  0.00     0.008 C 
BRANCH  19  20
HETATM   20  C5  UNL     1       4.398   7.461  10.643  1.00  0.00     0.028 C 
BRANCH  20  21
HETATM   21  C4  UNL     1       3.590   7.990   9.488  1.00  0.00    -0.025 C 
HETATM   22  C2  UNL     1       2.933   7.271   8.557  1.00  0.00    -0.091 C 
HETATM   23  C1  UNL     1       2.931   5.768   8.475  1.00  0.00     0.042 C 
HETATM   24  C3  UNL     1       2.135   7.954   7.477  1.00  0.00     0.042 C 
ENDBRANCH  20  21
ENDBRANCH  19  20
ENDBRANCH  17  19
ENDBRANCH   1  17
BRANCH  10  25
HETATM   25  C22 UNL     1      -4.359   3.584  12.742  1.00  0.00     0.021 C 
BRANCH  25  26
HETATM   26  C23 UNL     1      -4.451   3.533  11.216  1.00  0.00     0.111 C 
BRANCH  26  27
HETATM   27  C24 UNL     1      -5.313   2.385  10.769  1.00  0.00     0.139 C 
HETATM   28  O3  UNL     1      -5.638   1.402  11.415  1.00  0.00    -0.650 OA
BRANCH  27  29
HETATM   29  O4  UNL     1      -5.722   2.524   9.491  1.00  0.00    -0.776 OA
HETATM   30  H41 UNL     1      -6.255   1.719   9.327  1.00  0.00     0.167 HD
ENDBRANCH  27  29
ENDBRANCH  26  27
ENDBRANCH  25  26
ENDBRANCH  10  25
BRANCH   9  31
HETATM   31  C18 UNL     1      -6.773   5.350  13.719  1.00  0.00     0.080 C 
HETATM   32  C19 UNL     1      -6.881   3.810  13.720  1.00  0.00     0.048 C 
BRANCH  31  33
HETATM   33  O1  UNL     1      -7.864   5.787  12.892  1.00  0.00    -0.388 OA
HETATM   34  H33 UNL     1      -8.663   5.660  13.445  1.00  0.00     0.210 HD
ENDBRANCH  31  33
BRANCH  31  35
HETATM   35  C20 UNL     1      -7.051   5.839  15.171  1.00  0.00     0.201 C 
BRANCH  35  36
HETATM   36  O2  UNL     1      -7.731   4.808  15.896  1.00  0.00    -0.398 OA
HETATM   37  H36 UNL     1      -8.031   5.206  16.733  1.00  0.00     0.209 HD
ENDBRANCH  35  36
ENDBRANCH  31  35
ENDBRANCH   9  31
TORSDOF 12
ENDMDL
MODEL 3
REMARK minimizedAffinity -9.04723549
REMARK  12 active torsions:
REMARK  status: ('A' for Active; 'I' for Inactive)
REMARK    1  A    between atoms: C4_4  and  C5_5 
REMARK    2  A    between atoms: C5_5  and  C6_6 
REMARK    3  A    between atoms: C6_6  and  C7_7 
REMARK    4  A    between atoms: C7_7  and  C9_9 
REMARK    5  A    between atoms: C17_17  and  C18_18 
REMARK    6  A    between atoms: C18_18  and  O1_20 
REMARK    7  A    between atoms: C18_18  and  C20_21 
REMARK    8  A    between atoms: C20_21  and  O2_22 
REMARK    9  A    between atoms: C21_23  and  C22_24 
REMARK   10  A    between atoms: C22_24  and  C23_25 
REMARK   11  A    between atoms: C23_25  and  C24_26 
REMARK   12  A    between atoms: C24_26  and  O4_28 
ROOT
HETATM    1  C9  UNL     1      -3.178   7.048  12.942  1.00  0.00    -0.002 C 
HETATM    2  C10 UNL     1      -3.041   8.575  12.757  1.00  0.00     0.006 C 
HETATM    3  C11 UNL     1      -1.561   8.842  12.506  1.00  0.00     0.011 C 
HETATM    4  C12 UNL     1      -0.822   7.810  13.388  1.00  0.00    -0.032 C 
HETATM    5  C13 UNL     1      -0.900   8.281  14.867  1.00  0.00     0.016 C 
HETATM    6  C14 UNL     1       0.710   7.651  13.021  1.00  0.00     0.004 C 
HETATM    7  C15 UNL     1       1.472   8.981  13.165  1.00  0.00     0.007 C 
HETATM    8  C16 UNL     1       2.790   9.134  12.416  1.00  0.00     0.009 C 
HETATM    9  C17 UNL     1       3.436   7.836  11.904  1.00  0.00     0.031 C 
HETATM   10  C21 UNL     1       2.401   6.956  11.127  1.00  0.00    -0.025 A 
HETATM   11  C25 UNL     1       1.228   7.632  10.414  1.00  0.00     0.021 A 
HETATM   12  C26 UNL     1       0.962   6.908  11.710  1.00  0.00    -0.027 A 
HETATM   13  C27 UNL     1       0.187   5.606  11.635  1.00  0.00     0.011 C 
HETATM   14  C28 UNL     1      -1.300   5.854  11.786  1.00  0.00     0.011 C 
HETATM   15  C29 UNL     1      -1.696   6.514  13.145  1.00  0.00    -0.032 C 
HETATM   16  C30 UNL     1      -1.489   5.460  14.243  1.00  0.00     0.016 C 
ENDROOT
BRANCH   1  17
HETATM   17  C7  UNL     1      -4.388   6.633  13.836  1.00  0.00    -0.014 C 
HETATM   18  C8  UNL     1      -5.570   7.603  13.692  1.00  0.00     0.010 C 
BRANCH  17  19
HETATM   19  C6  UNL     1      -4.842   5.160  13.761  1.00  0.00     0.008 C 
BRANCH  19  20
HETATM   20  C5  UNL     1      -6.190   4.981  13.048  1.00  0.00     0.028 C 
BRANCH  20  21
HETATM   21  C4  UNL     1      -6.357   3.569  12.549  1.00  0.00    -0.025 C 
HETATM   22  C2  UNL     1      -5.560   2.911  11.686  1.00  0.00    -0.091 C 
HETATM   23  C1  UNL     1      -4.352   3.502  11.009  1.00  0.00     0.042 C 
HETATM   24  C3  UNL     1      -5.845   1.481  11.311  1.00  0.00     0.042 C 
ENDBRANCH  20  21
ENDBRANCH  19  20
ENDBRANCH  17  19
ENDBRANCH   1  17
BRANCH  10  25
HETATM   25  C22 UNL     1       2.970   5.624  10.598  1.00  0.00     0.021 C 
BRANCH  25  26
HETATM   26  C23 UNL     1       3.066   5.517   9.075  1.00  0.00     0.111 C 
BRANCH  26  27
HETATM   27  C24 UNL     1       3.654   4.195   8.667  1.00  0.00     0.139 C 
HETATM   28  O3  UNL     1       4.178   3.909   7.603  1.00  0.00    -0.650 OA
BRANCH  27  29
HETATM   29  O4  UNL     1       3.535   3.265   9.638  1.00  0.00    -0.776 OA
HETATM   30  H41 UNL     1       3.939   2.464   9.245  1.00  0.00     0.167 HD
ENDBRANCH  27  29
ENDBRANCH  26  27
ENDBRANCH  25  26
ENDBRANCH  10  25
BRANCH   9  31
HETATM   31  C18 UNL     1       4.805   8.121  11.141  1.00  0.00     0.080 C 
HETATM   32  C19 UNL     1       5.639   9.299  11.689  1.00  0.00     0.048 C 
BRANCH  31  33
HETATM   33  O1  UNL     1       4.564   8.460   9.765  1.00  0.00    -0.388 OA
HETATM   34  H33 UNL     1       5.420   8.302   9.315  1.00  0.00     0.210 HD
ENDBRANCH  31  33
BRANCH  31  35
HETATM   35  C20 UNL     1       5.709   6.855  11.169  1.00  0.00     0.201 C 
BRANCH  35  36
HETATM   36  O2  UNL     1       5.798   6.365  12.512  1.00  0.00    -0.398 OA
HETATM   37  H36 UNL     1       6.495   5.684  12.515  1.00  0.00     0.209 HD
ENDBRANCH  35  36
ENDBRANCH  31  35
ENDBRANCH   9  31
TORSDOF 12
ENDMDL
MODEL 4
REMARK minimizedAffinity -8.67954731
REMARK  12 active torsions:
REMARK  status: ('A' for Active; 'I' for Inactive)
REMARK    1  A    between atoms: C4_4  and  C5_5 
REMARK    2  A    between atoms: C5_5  and  C6_6 
REMARK    3  A    between atoms: C6_6  and  C7_7 
REMARK    4  A    between atoms: C7_7  and  C9_9 
REMARK    5  A    between atoms: C17_17  and  C18_18 
REMARK    6  A    between atoms: C18_18  and  O1_20 
REMARK    7  A    between atoms: C18_18  and  C20_21 
REMARK    8  A    between atoms: C20_21  and  O2_22 
REMARK    9  A    between atoms: C21_23  and  C22_24 
REMARK   10  A    between atoms: C22_24  and  C23_25 
REMARK   11  A    between atoms: C23_25  and  C24_26 
REMARK   12  A    between atoms: C24_26  and  O4_28 
ROOT
HETATM    1  C9  UNL     1      -3.785   7.483  15.088  1.00  0.00    -0.002 C 
HETATM    2  C10 UNL     1      -3.336   6.103  15.614  1.00  0.00     0.006 C 
HETATM    3  C11 UNL     1      -2.227   5.632  14.679  1.00  0.00     0.011 C 
HETATM    4  C12 UNL     1      -2.644   6.151  13.285  1.00  0.00    -0.032 C 
HETATM    5  C13 UNL     1      -3.798   5.257  12.751  1.00  0.00     0.016 C 
HETATM    6  C14 UNL     1      -1.475   6.101  12.218  1.00  0.00     0.004 C 
HETATM    7  C15 UNL     1      -0.947   4.668  12.016  1.00  0.00     0.007 C 
HETATM    8  C16 UNL     1       0.446   4.496  11.424  1.00  0.00     0.009 C 
HETATM    9  C17 UNL     1       1.044   5.727  10.724  1.00  0.00     0.031 C 
HETATM   10  C21 UNL     1       0.926   7.004  11.623  1.00  0.00    -0.025 A 
HETATM   11  C25 UNL     1       0.902   6.849  13.145  1.00  0.00     0.021 A 
HETATM   12  C26 UNL     1      -0.392   7.156  12.432  1.00  0.00    -0.027 A 
HETATM   13  C27 UNL     1      -0.977   8.544  12.619  1.00  0.00     0.011 C 
HETATM   14  C28 UNL     1      -1.935   8.572  13.792  1.00  0.00     0.011 C 
HETATM   15  C29 UNL     1      -3.153   7.607  13.636  1.00  0.00    -0.032 C 
HETATM   16  C30 UNL     1      -4.059   8.186  12.539  1.00  0.00     0.016 C 
ENDROOT
BRANCH   1  17
HETATM   17  C7  UNL     1      -5.269   7.828  15.430  1.00  0.00    -0.014 C 
HETATM   18  C8  UNL     1      -5.478   9.336  15.631  1.00  0.00     0.010 C 
BRANCH  17  19
HETATM   19  C6  UNL     1      -6.358   7.213  14.526  1.00  0.00     0.008 C 
BRANCH  19  20
HETATM   20  C5  UNL     1      -7.203   6.150  15.241  1.00  0.00     0.028 C 
BRANCH  20  21
HETATM   21  C4  UNL     1      -7.012   4.792  14.618  1.00  0.00    -0.025 C 
HETATM   22  C2  UNL     1      -7.554   4.340  13.471  1.00  0.00    -0.091 C 
HETATM   23  C1  UNL     1      -8.514   5.115  12.609  1.00  0.00     0.042 C 
HETATM   24  C3  UNL     1      -7.234   2.960  12.959  1.00  0.00     0.042 C 
ENDBRANCH  20  21
ENDBRANCH  19  20
ENDBRANCH  17  19
ENDBRANCH   1  17
BRANCH  10  25
HETATM   25  C22 UNL     1       1.487   8.288  10.981  1.00  0.00     0.021 C 
BRANCH  25  26
HETATM   26  C23 UNL     1       1.396   8.345   9.455  1.00  0.00     0.111 C 
BRANCH  26  27
HETATM   27  C24 UNL     1      -0.008   8.651   9.013  1.00  0.00     0.139 C 
HETATM   28  O3  UNL     1      -0.867   9.259   9.629  1.00  0.00    -0.650 OA
BRANCH  27  29
HETATM   29  O4  UNL     1      -0.276   8.149   7.789  1.00  0.00    -0.776 OA
HETATM   30  H41 UNL     1      -1.208   8.405   7.631  1.00  0.00     0.167 HD
ENDBRANCH  27  29
ENDBRANCH  26  27
ENDBRANCH  25  26
ENDBRANCH  10  25
BRANCH   9  31
HETATM   31  C18 UNL     1       2.497   5.428  10.146  1.00  0.00     0.080 C 
HETATM   32  C19 UNL     1       2.715   5.807   8.665  1.00  0.00     0.048 C 
BRANCH  31  33
HETATM   33  O1  UNL     1       2.793   4.022  10.205  1.00  0.00    -0.388 OA
HETATM   34  H33 UNL     1       3.770   3.970  10.144  1.00  0.00     0.210 HD
ENDBRANCH  31  33
BRANCH  31  35
HETATM   35  C20 UNL     1       3.574   6.177  10.983  1.00  0.00     0.201 C 
BRANCH  35  36
HETATM   36  O2  UNL     1       4.832   6.116  10.301  1.00  0.00    -0.398 OA
HETATM   37  H36 UNL     1       5.505   6.444  10.924  1.00  0.00     0.209 HD
ENDBRANCH  35  36
ENDBRANCH  31  35
ENDBRANCH   9  31
TORSDOF 12
ENDMDL
MODEL 5
REMARK minimizedAffinity -8.40735435
REMARK  12 active torsions:
REMARK  status: ('A' for Active; 'I' for Inactive)
REMARK    1  A    between atoms: C4_4  and  C5_5 
REMARK    2  A    between atoms: C5_5  and  C6_6 
REMARK    3  A    between atoms: C6_6  and  C7_7 
REMARK    4  A    between atoms: C7_7  and  C9_9 
REMARK    5  A    between atoms: C17_17  and  C18_18 
REMARK    6  A    between atoms: C18_18  and  O1_20 
REMARK    7  A    between atoms: C18_18  and  C20_21 
REMARK    8  A    between atoms: C20_21  and  O2_22 
REMARK    9  A    between atoms: C21_23  and  C22_24 
REMARK   10  A    between atoms: C22_24  and  C23_25 
REMARK   11  A    between atoms: C23_25  and  C24_26 
REMARK   12  A    between atoms: C24_26  and  O4_28 
ROOT
HETATM    1  C9  UNL     1      -1.530   8.619  15.232  1.00  0.00    -0.002 C 
HETATM    2  C10 UNL     1      -2.563   8.108  16.258  1.00  0.00     0.006 C 
HETATM    3  C11 UNL     1      -3.374   7.031  15.545  1.00  0.00     0.011 C 
HETATM    4  C12 UNL     1      -3.484   7.526  14.085  1.00  0.00    -0.032 C 
HETATM    5  C13 UNL     1      -4.525   8.679  14.033  1.00  0.00     0.016 C 
HETATM    6  C14 UNL     1      -3.967   6.406  13.075  1.00  0.00     0.004 C 
HETATM    7  C15 UNL     1      -5.350   5.850  13.458  1.00  0.00     0.007 C 
HETATM    8  C16 UNL     1      -5.745   4.482  12.917  1.00  0.00     0.009 C 
HETATM    9  C17 UNL     1      -4.913   3.950  11.739  1.00  0.00     0.031 C 
HETATM   10  C21 UNL     1      -3.379   4.061  12.032  1.00  0.00    -0.025 A 
HETATM   11  C25 UNL     1      -2.888   4.011  13.480  1.00  0.00     0.021 A 
HETATM   12  C26 UNL     1      -2.911   5.343  12.775  1.00  0.00    -0.027 A 
HETATM   13  C27 UNL     1      -1.575   5.957  12.400  1.00  0.00     0.011 C 
HETATM   14  C28 UNL     1      -1.067   6.861  13.505  1.00  0.00     0.011 C 
HETATM   15  C29 UNL     1      -2.016   8.058  13.828  1.00  0.00    -0.032 C 
HETATM   16  C30 UNL     1      -1.950   9.028  12.639  1.00  0.00     0.016 C 
ENDROOT
BRANCH   1  17
HETATM   17  C7  UNL     1      -1.081  10.093  15.479  1.00  0.00    -0.014 C 
HETATM   18  C8  UNL     1      -2.265  11.005  15.831  1.00  0.00     0.010 C 
BRANCH  17  19
HETATM   19  C6  UNL     1       0.115  10.312  16.429  1.00  0.00     0.008 C 
BRANCH  19  20
HETATM   20  C5  UNL     1      -0.102  11.469  17.414  1.00  0.00     0.028 C 
BRANCH  20  21
HETATM   21  C4  UNL     1       0.183  11.040  18.829  1.00  0.00    -0.025 C 
HETATM   22  C2  UNL     1       1.390  10.820  19.385  1.00  0.00    -0.091 C 
HETATM   23  C1  UNL     1       2.703  10.917  18.657  1.00  0.00     0.042 C 
HETATM   24  C3  UNL     1       1.510  10.427  20.834  1.00  0.00     0.042 C 
ENDBRANCH  20  21
ENDBRANCH  19  20
ENDBRANCH  17  19
ENDBRANCH   1  17
BRANCH  10  25
HETATM   25  C22 UNL     1      -2.475   3.565  10.886  1.00  0.00     0.021 C 
BRANCH  25  26
HETATM   26  C23 UNL     1      -1.176   2.890  11.329  1.00  0.00     0.111 C 
BRANCH  26  27
HETATM   27  C24 UNL     1      -1.041   1.528  10.707  1.00  0.00     0.139 C 
HETATM   28  O3  UNL     1      -0.676   0.496  11.244  1.00  0.00    -0.650 OA
BRANCH  27  29
HETATM   29  O4  UNL     1      -1.365   1.535   9.397  1.00  0.00    -0.776 OA
HETATM   30  H41 UNL     1      -1.226   0.607   9.116  1.00  0.00     0.167 HD
ENDBRANCH  27  29
ENDBRANCH  26  27
ENDBRANCH  25  26
ENDBRANCH  10  25
BRANCH   9  31
HETATM   31  C18 UNL     1      -5.418   2.518  11.261  1.00  0.00     0.080 C 
HETATM   32  C19 UNL     1      -4.524   1.327  11.669  1.00  0.00     0.048 C 
BRANCH  31  33
HETATM   33  O1  UNL     1      -5.479   2.448   9.826  1.00  0.00    -0.388 OA
HETATM   34  H33 UNL     1      -6.078   1.696   9.637  1.00  0.00     0.210 HD
ENDBRANCH  31  33
BRANCH  31  35
HETATM   35  C20 UNL     1      -6.847   2.240  11.811  1.00  0.00     0.201 C 
BRANCH  35  36
HETATM   36  O2  UNL     1      -6.924   0.884  12.268  1.00  0.00    -0.398 OA
HETATM   37  H36 UNL     1      -7.864   0.702  12.447  1.00  0.00     0.209 HD
ENDBRANCH  35  36
ENDBRANCH  31  35
ENDBRANCH   9  31
TORSDOF 12
ENDMDL
MODEL 6
REMARK minimizedAffinity -8.39813232
REMARK  12 active torsions:
REMARK  status: ('A' for Active; 'I' for Inactive)
REMARK    1  A    between atoms: C4_4  and  C5_5 
REMARK    2  A    between atoms: C5_5  and  C6_6 
REMARK    3  A    between atoms: C6_6  and  C7_7 
REMARK    4  A    between atoms: C7_7  and  C9_9 
REMARK    5  A    between atoms: C17_17  and  C18_18 
REMARK    6  A    between atoms: C18_18  and  O1_20 
REMARK    7  A    between atoms: C18_18  and  C20_21 
REMARK    8  A    between atoms: C20_21  and  O2_22 
REMARK    9  A    between atoms: C21_23  and  C22_24 
REMARK   10  A    between atoms: C22_24  and  C23_25 
REMARK   11  A    between atoms: C23_25  and  C24_26 
REMARK   12  A    between atoms: C24_26  and  O4_28 
ROOT
HETATM    1  C9  UNL     1      -4.868   6.640  13.366  1.00  0.00    -0.002 C 
HETATM    2  C10 UNL     1      -4.871   8.169  13.149  1.00  0.00     0.006 C 
HETATM    3  C11 UNL     1      -3.407   8.589  13.071  1.00  0.00     0.011 C 
HETATM    4  C12 UNL     1      -2.679   7.661  14.069  1.00  0.00    -0.032 C 
HETATM    5  C13 UNL     1      -2.989   8.150  15.512  1.00  0.00     0.016 C 
HETATM    6  C14 UNL     1      -1.105   7.661  13.898  1.00  0.00     0.004 C 
HETATM    7  C15 UNL     1      -0.510   9.069  14.089  1.00  0.00     0.007 C 
HETATM    8  C16 UNL     1       0.867   9.348  13.501  1.00  0.00     0.009 C 
HETATM    9  C17 UNL     1       1.704   8.118  13.115  1.00  0.00     0.031 C 
HETATM   10  C21 UNL     1       0.872   7.116  12.247  1.00  0.00    -0.025 A 
HETATM   11  C25 UNL     1      -0.267   7.647  11.375  1.00  0.00     0.021 A 
HETATM   12  C26 UNL     1      -0.616   6.925  12.652  1.00  0.00    -0.027 A 
HETATM   13  C27 UNL     1      -1.235   5.545  12.526  1.00  0.00     0.011 C 
HETATM   14  C28 UNL     1      -2.747   5.633  12.487  1.00  0.00     0.011 C 
HETATM   15  C29 UNL     1      -3.375   6.274  13.765  1.00  0.00    -0.032 C 
HETATM   16  C30 UNL     1      -3.197   5.270  14.915  1.00  0.00     0.016 C 
ENDROOT
BRANCH   1  17
HETATM   17  C7  UNL     1      -6.131   6.115  14.119  1.00  0.00    -0.014 C 
HETATM   18  C8  UNL     1      -6.200   6.636  15.561  1.00  0.00     0.010 C 
BRANCH  17  19
HETATM   19  C6  UNL     1      -7.486   6.251  13.393  1.00  0.00     0.008 C 
BRANCH  19  20
HETATM   20  C5  UNL     1      -7.874   4.994  12.603  1.00  0.00     0.028 C 
BRANCH  20  21
HETATM   21  C4  UNL     1      -6.654   4.262  12.110  1.00  0.00    -0.025 C 
HETATM   22  C2  UNL     1      -6.435   2.933  12.140  1.00  0.00    -0.091 C 
HETATM   23  C1  UNL     1      -7.375   1.919  12.733  1.00  0.00     0.042 C 
HETATM   24  C3  UNL     1      -5.169   2.348  11.571  1.00  0.00     0.042 C 
ENDBRANCH  20  21
ENDBRANCH  19  20
ENDBRANCH  17  19
ENDBRANCH   1  17
BRANCH  10  25
HETATM   25  C22 UNL     1       1.638   5.843  11.835  1.00  0.00     0.021 C 
BRANCH  25  26
HETATM   26  C23 UNL     1       1.769   5.622  10.327  1.00  0.00     0.111 C 
BRANCH  26  27
HETATM   27  C24 UNL     1       3.120   5.060   9.983  1.00  0.00     0.139 C 
HETATM   28  O3  UNL     1       4.147   5.677   9.755  1.00  0.00    -0.650 OA
BRANCH  27  29
HETATM   29  O4  UNL     1       3.109   3.712   9.925  1.00  0.00    -0.776 OA
HETATM   30  H41 UNL     1       4.030   3.481   9.685  1.00  0.00     0.167 HD
ENDBRANCH  27  29
ENDBRANCH  26  27
ENDBRANCH  25  26
ENDBRANCH  10  25
BRANCH   9  31
HETATM   31  C18 UNL     1       3.119   8.534  12.515  1.00  0.00     0.080 C 
HETATM   32  C19 UNL     1       3.556   9.989  12.789  1.00  0.00     0.048 C 
BRANCH  31  33
HETATM   33  O1  UNL     1       3.123   8.421  11.082  1.00  0.00    -0.388 OA
HETATM   34  H33 UNL     1       4.070   8.377  10.837  1.00  0.00     0.210 HD
ENDBRANCH  31  33
BRANCH  31  35
HETATM   35  C20 UNL     1       4.234   7.600  13.069  1.00  0.00     0.201 C 
BRANCH  35  36
HETATM   36  O2  UNL     1       5.087   7.190  11.994  1.00  0.00    -0.398 OA
HETATM   37  H36 UNL     1       5.661   6.486  12.345  1.00  0.00     0.209 HD
ENDBRANCH  35  36
ENDBRANCH  31  35
ENDBRANCH   9  31
TORSDOF 12
ENDMDL
MODEL 7
REMARK minimizedAffinity -8.3101778
REMARK  12 active torsions:
REMARK  status: ('A' for Active; 'I' for Inactive)
REMARK    1  A    between atoms: C4_4  and  C5_5 
REMARK    2  A    between atoms: C5_5  and  C6_6 
REMARK    3  A    between atoms: C6_6  and  C7_7 
REMARK    4  A    between atoms: C7_7  and  C9_9 
REMARK    5  A    between atoms: C17_17  and  C18_18 
REMARK    6  A    between atoms: C18_18  and  O1_20 
REMARK    7  A    between atoms: C18_18  and  C20_21 
REMARK    8  A    between atoms: C20_21  and  O2_22 
REMARK    9  A    between atoms: C21_23  and  C22_24 
REMARK   10  A    between atoms: C22_24  and  C23_25 
REMARK   11  A    between atoms: C23_25  and  C24_26 
REMARK   12  A    between atoms: C24_26  and  O4_28 
ROOT
HETATM    1  C9  UNL     1      -1.547   8.608  15.026  1.00  0.00    -0.002 C 
HETATM    2  C10 UNL     1      -2.560   8.148  16.096  1.00  0.00     0.006 C 
HETATM    3  C11 UNL     1      -3.410   7.066  15.438  1.00  0.00     0.011 C 
HETATM    4  C12 UNL     1      -3.552   7.520  13.967  1.00  0.00    -0.032 C 
HETATM    5  C13 UNL     1      -4.573   8.692  13.910  1.00  0.00     0.016 C 
HETATM    6  C14 UNL     1      -4.084   6.381  13.004  1.00  0.00     0.004 C 
HETATM    7  C15 UNL     1      -5.466   5.863  13.442  1.00  0.00     0.007 C 
HETATM    8  C16 UNL     1      -5.902   4.488  12.954  1.00  0.00     0.009 C 
HETATM    9  C17 UNL     1      -5.113   3.906  11.769  1.00  0.00     0.031 C 
HETATM   10  C21 UNL     1      -3.570   3.996  12.016  1.00  0.00    -0.025 A 
HETATM   11  C25 UNL     1      -3.039   3.978  13.451  1.00  0.00     0.021 A 
HETATM   12  C26 UNL     1      -3.058   5.290  12.707  1.00  0.00    -0.027 A 
HETATM   13  C27 UNL     1      -1.722   5.866  12.277  1.00  0.00     0.011 C 
HETATM   14  C28 UNL     1      -1.166   6.792  13.340  1.00  0.00     0.011 C 
HETATM   15  C29 UNL     1      -2.083   8.016  13.654  1.00  0.00    -0.032 C 
HETATM   16  C30 UNL     1      -2.033   8.950  12.435  1.00  0.00     0.016 C 
ENDROOT
BRANCH   1  17
HETATM   17  C7  UNL     1      -1.064  10.081  15.216  1.00  0.00    -0.014 C 
HETATM   18  C8  UNL     1       0.449  10.224  15.000  1.00  0.00     0.010 C 
BRANCH  17  19
HETATM   19  C6  UNL     1      -1.856  11.178  14.475  1.00  0.00     0.008 C 
BRANCH  19  20
HETATM   20  C5  UNL     1      -2.566  12.153  15.424  1.00  0.00     0.028 C 
BRANCH  20  21
HETATM   21  C4  UNL     1      -3.189  11.425  16.586  1.00  0.00    -0.025 C 
HETATM   22  C2  UNL     1      -2.766  11.421  17.865  1.00  0.00    -0.091 C 
HETATM   23  C1  UNL     1      -1.531  12.121  18.365  1.00  0.00     0.042 C 
HETATM   24  C3  UNL     1      -3.524  10.666  18.925  1.00  0.00     0.042 C 
ENDBRANCH  20  21
ENDBRANCH  19  20
ENDBRANCH  17  19
ENDBRANCH   1  17
BRANCH  10  25
HETATM   25  C22 UNL     1      -2.708   3.449  10.861  1.00  0.00     0.021 C 
BRANCH  25  26
HETATM   26  C23 UNL     1      -1.969   2.144  11.162  1.00  0.00     0.111 C 
BRANCH  26  27
HETATM   27  C24 UNL     1      -0.481   2.351  11.133  1.00  0.00     0.139 C 
HETATM   28  O3  UNL     1       0.137   3.362  11.426  1.00  0.00    -0.650 OA
BRANCH  27  29
HETATM   29  O4  UNL     1       0.177   1.252  10.708  1.00  0.00    -0.776 OA
HETATM   30  H41 UNL     1       1.118   1.521  10.725  1.00  0.00     0.167 HD
ENDBRANCH  27  29
ENDBRANCH  26  27
ENDBRANCH  25  26
ENDBRANCH  10  25
BRANCH   9  31
HETATM   31  C18 UNL     1      -5.658   2.470  11.348  1.00  0.00     0.080 C 
HETATM   32  C19 UNL     1      -6.814   1.918  12.209  1.00  0.00     0.048 C 
BRANCH  31  33
HETATM   33  O1  UNL     1      -4.624   1.477  11.455  1.00  0.00    -0.388 OA
HETATM   34  H33 UNL     1      -4.932   0.734  10.894  1.00  0.00     0.210 HD
ENDBRANCH  31  33
BRANCH  31  35
HETATM   35  C20 UNL     1      -6.146   2.492   9.870  1.00  0.00     0.201 C 
BRANCH  35  36
HETATM   36  O2  UNL     1      -5.179   3.174   9.062  1.00  0.00    -0.398 OA
HETATM   37  H36 UNL     1      -5.591   3.312   8.190  1.00  0.00     0.209 HD
ENDBRANCH  35  36
ENDBRANCH  31  35
ENDBRANCH   9  31
TORSDOF 12
ENDMDL
MODEL 8
REMARK minimizedAffinity -8.29639149
REMARK  12 active torsions:
REMARK  status: ('A' for Active; 'I' for Inactive)
REMARK    1  A    between atoms: C4_4  and  C5_5 
REMARK    2  A    between atoms: C5_5  and  C6_6 
REMARK    3  A    between atoms: C6_6  and  C7_7 
REMARK    4  A    between atoms: C7_7  and  C9_9 
REMARK    5  A    between atoms: C17_17  and  C18_18 
REMARK    6  A    between atoms: C18_18  and  O1_20 
REMARK    7  A    between atoms: C18_18  and  C20_21 
REMARK    8  A    between atoms: C20_21  and  O2_22 
REMARK    9  A    between atoms: C21_23  and  C22_24 
REMARK   10  A    between atoms: C22_24  and  C23_25 
REMARK   11  A    between atoms: C23_25  and  C24_26 
REMARK   12  A    between atoms: C24_26  and  O4_28 
ROOT
HETATM    1  C9  UNL     1      -0.836   7.253  14.283  1.00  0.00    -0.002 C 
HETATM    2  C10 UNL     1      -1.069   7.721  15.735  1.00  0.00     0.006 C 
HETATM    3  C11 UNL     1      -2.581   7.793  15.921  1.00  0.00     0.011 C 
HETATM    4  C12 UNL     1      -3.121   8.267  14.553  1.00  0.00    -0.032 C 
HETATM    5  C13 UNL     1      -2.829   9.788  14.408  1.00  0.00     0.016 C 
HETATM    6  C14 UNL     1      -4.684   8.068  14.388  1.00  0.00     0.004 C 
HETATM    7  C15 UNL     1      -5.473   8.835  15.465  1.00  0.00     0.007 C 
HETATM    8  C16 UNL     1      -6.899   8.389  15.760  1.00  0.00     0.009 C 
HETATM    9  C17 UNL     1      -7.559   7.483  14.707  1.00  0.00     0.031 C 
HETATM   10  C21 UNL     1      -6.623   6.289  14.319  1.00  0.00    -0.025 A 
HETATM   11  C25 UNL     1      -5.612   5.768  15.342  1.00  0.00     0.021 A 
HETATM   12  C26 UNL     1      -5.108   6.613  14.200  1.00  0.00    -0.027 A 
HETATM   13  C27 UNL     1      -4.296   5.918  13.123  1.00  0.00     0.011 C 
HETATM   14  C28 UNL     1      -2.817   5.964  13.448  1.00  0.00     0.011 C 
HETATM   15  C29 UNL     1      -2.239   7.410  13.558  1.00  0.00    -0.032 C 
HETATM   16  C30 UNL     1      -2.219   8.004  12.141  1.00  0.00     0.016 C 
ENDROOT
BRANCH   1  17
HETATM   17  C7  UNL     1       0.521   7.738  13.682  1.00  0.00    -0.014 C 
HETATM   18  C8  UNL     1       1.172   8.834  14.537  1.00  0.00     0.010 C 
BRANCH  17  19
HETATM   19  C6  UNL     1       1.536   6.649  13.274  1.00  0.00     0.008 C 
BRANCH  19  20
HETATM   20  C5  UNL     1       1.145   5.913  11.985  1.00  0.00     0.028 C 
BRANCH  20  21
HETATM   21  C4  UNL     1       0.728   6.882  10.910  1.00  0.00    -0.025 C 
HETATM   22  C2  UNL     1       1.320   7.077   9.716  1.00  0.00    -0.091 C 
HETATM   23  C1  UNL     1       2.569   6.378   9.251  1.00  0.00     0.042 C 
HETATM   24  C3  UNL     1       0.757   8.066   8.729  1.00  0.00     0.042 C 
ENDBRANCH  20  21
ENDBRANCH  19  20
ENDBRANCH  17  19
ENDBRANCH   1  17
BRANCH  10  25
HETATM   25  C22 UNL     1      -7.208   5.344  13.251  1.00  0.00     0.021 C 
BRANCH  25  26
HETATM   26  C23 UNL     1      -7.461   3.911  13.720  1.00  0.00     0.111 C 
BRANCH  26  27
HETATM   27  C24 UNL     1      -7.133   2.925  12.634  1.00  0.00     0.139 C 
HETATM   28  O3  UNL     1      -6.240   2.998  11.807  1.00  0.00    -0.650 OA
BRANCH  27  29
HETATM   29  O4  UNL     1      -7.980   1.874  12.629  1.00  0.00    -0.776 OA
HETATM   30  H41 UNL     1      -7.667   1.325  11.881  1.00  0.00     0.167 HD
ENDBRANCH  27  29
ENDBRANCH  26  27
ENDBRANCH  25  26
ENDBRANCH  10  25
BRANCH   9  31
HETATM   31  C18 UNL     1      -9.044   7.084  15.122  1.00  0.00     0.080 C 
HETATM   32  C19 UNL     1      -9.795   8.120  15.985  1.00  0.00     0.048 C 
BRANCH  31  33
HETATM   33  O1  UNL     1      -9.051   5.883  15.913  1.00  0.00    -0.388 OA
HETATM   34  H33 UNL     1      -9.968   5.546  15.847  1.00  0.00     0.210 HD
ENDBRANCH  31  33
BRANCH  31  35
HETATM   35  C20 UNL     1      -9.905   6.822  13.852  1.00  0.00     0.201 C 
BRANCH  35  36
HETATM   36  O2  UNL     1     -10.757   7.949  13.616  1.00  0.00    -0.398 OA
HETATM   37  H36 UNL     1     -11.388   7.682  12.924  1.00  0.00     0.209 HD
ENDBRANCH  35  36
ENDBRANCH  31  35
ENDBRANCH   9  31
TORSDOF 12
ENDMDL
MODEL 9
REMARK minimizedAffinity -8.24234009
REMARK  12 active torsions:
REMARK  status: ('A' for Active; 'I' for Inactive)
REMARK    1  A    between atoms: C4_4  and  C5_5 
REMARK    2  A    between atoms: C5_5  and  C6_6 
REMARK    3  A    between atoms: C6_6  and  C7_7 
REMARK    4  A    between atoms: C7_7  and  C9_9 
REMARK    5  A    between atoms: C17_17  and  C18_18 
REMARK    6  A    between atoms: C18_18  and  O1_20 
REMARK    7  A    between atoms: C18_18  and  C20_21 
REMARK    8  A    between atoms: C20_21  and  O2_22 
REMARK    9  A    between atoms: C21_23  and  C22_24 
REMARK   10  A    between atoms: C22_24  and  C23_25 
REMARK   11  A    between atoms: C23_25  and  C24_26 
REMARK   12  A    between atoms: C24_26  and  O4_28 
ROOT
HETATM    1  C9  UNL     1      -3.077   7.099  13.113  1.00  0.00    -0.002 C 
HETATM    2  C10 UNL     1      -3.030   8.629  12.912  1.00  0.00     0.006 C 
HETATM    3  C11 UNL     1      -1.565   8.982  12.673  1.00  0.00     0.011 C 
HETATM    4  C12 UNL     1      -0.776   8.005  13.574  1.00  0.00    -0.032 C 
HETATM    5  C13 UNL     1      -0.898   8.487  15.048  1.00  0.00     0.016 C 
HETATM    6  C14 UNL     1       0.767   7.934  13.226  1.00  0.00     0.004 C 
HETATM    7  C15 UNL     1       1.447   9.309  13.363  1.00  0.00     0.007 C 
HETATM    8  C16 UNL     1       2.761   9.532  12.626  1.00  0.00     0.009 C 
HETATM    9  C17 UNL     1       3.490   8.270  12.136  1.00  0.00     0.031 C 
HETATM   10  C21 UNL     1       2.518   7.320  11.358  1.00  0.00    -0.025 A 
HETATM   11  C25 UNL     1       1.315   7.917  10.625  1.00  0.00     0.021 A 
HETATM   12  C26 UNL     1       1.077   7.194  11.927  1.00  0.00    -0.027 A 
HETATM   13  C27 UNL     1       0.382   5.847  11.859  1.00  0.00     0.011 C 
HETATM   14  C28 UNL     1      -1.119   6.007  11.991  1.00  0.00     0.011 C 
HETATM   15  C29 UNL     1      -1.568   6.657  13.337  1.00  0.00    -0.032 C 
HETATM   16  C30 UNL     1      -1.311   5.629  14.450  1.00  0.00     0.016 C 
ENDROOT
BRANCH   1  17
HETATM   17  C7  UNL     1      -4.271   6.623  13.999  1.00  0.00    -0.014 C 
HETATM   18  C8  UNL     1      -4.754   7.722  14.955  1.00  0.00     0.010 C 
BRANCH  17  19
HETATM   19  C6  UNL     1      -5.447   5.933  13.276  1.00  0.00     0.008 C 
BRANCH  19  20
HETATM   20  C5  UNL     1      -6.489   5.351  14.241  1.00  0.00     0.028 C 
BRANCH  20  21
HETATM   21  C4  UNL     1      -7.888   5.570  13.728  1.00  0.00    -0.025 C 
HETATM   22  C2  UNL     1      -8.739   6.554  14.079  1.00  0.00    -0.091 C 
HETATM   23  C1  UNL     1      -8.454   7.610  15.112  1.00  0.00     0.042 C 
HETATM   24  C3  UNL     1     -10.101   6.657  13.444  1.00  0.00     0.042 C 
ENDBRANCH  20  21
ENDBRANCH  19  20
ENDBRANCH  17  19
ENDBRANCH   1  17
BRANCH  10  25
HETATM   25  C22 UNL     1       3.170   6.019  10.851  1.00  0.00     0.021 C 
BRANCH  25  26
HETATM   26  C23 UNL     1       3.119   5.814   9.336  1.00  0.00     0.111 C 
BRANCH  26  27
HETATM   27  C24 UNL     1       3.426   4.386   8.978  1.00  0.00     0.139 C 
HETATM   28  O3  UNL     1       3.900   3.965   7.936  1.00  0.00    -0.650 OA
BRANCH  27  29
HETATM   29  O4  UNL     1       3.097   3.532   9.969  1.00  0.00    -0.776 OA
HETATM   30  H41 UNL     1       3.333   2.653   9.609  1.00  0.00     0.167 HD
ENDBRANCH  27  29
ENDBRANCH  26  27
ENDBRANCH  25  26
ENDBRANCH  10  25
BRANCH   9  31
HETATM   31  C18 UNL     1       4.847   8.627  11.385  1.00  0.00     0.080 C 
HETATM   32  C19 UNL     1       5.459  10.001  11.734  1.00  0.00     0.048 C 
BRANCH  31  33
HETATM   33  O1  UNL     1       4.649   8.673   9.961  1.00  0.00    -0.388 OA
HETATM   34  H33 UNL     1       5.547   8.575   9.581  1.00  0.00     0.210 HD
ENDBRANCH  31  33
BRANCH  31  35
HETATM   35  C20 UNL     1       5.927   7.546  11.681  1.00  0.00     0.201 C 
BRANCH  35  36
HETATM   36  O2  UNL     1       6.349   6.948  10.449  1.00  0.00    -0.398 OA
HETATM   37  H36 UNL     1       6.892   6.175  10.686  1.00  0.00     0.209 HD
ENDBRANCH  35  36
ENDBRANCH  31  35
ENDBRANCH   9  31
TORSDOF 12
ENDMDL
