MODEL 1
REMARK minimizedAffinity -7.49315596
REMARK CNNscore 0.660491049
REMARK CNNaffinity 6.83542252
REMARK  4 active torsions:
REMARK  status: ('A' for Active; 'I' for Inactive)
REMARK    1  A    between atoms: C2_2  and  C4_4 
REMARK    2  A    between atoms: C4_4  and  C5_5 
REMARK    3  A    between atoms: C5_5  and  O1_6 
REMARK    4  A    between atoms: C8_9  and  C9_10 
ROOT
HETATM    1  C9  UNL     1       3.148  52.540 -10.499  1.00  0.00     0.001 C 
HETATM    2  C10 UNL     1       4.503  51.900 -10.100  1.00  0.00     0.007 C 
HETATM    3  C11 UNL     1       5.173  52.853  -9.094  1.00  0.00     0.011 C 
HETATM    4  C12 UNL     1       4.061  53.827  -8.657  1.00  0.00    -0.032 C 
HETATM    5  C13 UNL     1       3.264  53.110  -7.521  1.00  0.00     0.016 C 
HETATM    6  C14 UNL     1       4.571  55.208  -8.167  1.00  0.00     0.004 C 
HETATM    7  C15 UNL     1       5.294  55.159  -6.816  1.00  0.00     0.007 C 
HETATM    8  C16 UNL     1       5.849  56.538  -6.484  1.00  0.00     0.007 C 
HETATM    9  C17 UNL     1       4.730  57.540  -6.134  1.00  0.00     0.010 C 
HETATM   10  C18 UNL     1       4.217  57.477  -4.639  1.00  0.00     0.018 C 
HETATM   11  C19 UNL     1       4.130  58.900  -4.036  1.00  0.00     0.023 C 
HETATM   12  C20 UNL     1       5.132  56.685  -3.678  1.00  0.00     0.023 C 
HETATM   13  C21 UNL     1       2.810  56.864  -4.593  1.00  0.00     0.135 C 
HETATM   14  O2  UNL     1       2.517  55.943  -3.827  1.00  0.00    -0.297 OA
HETATM   15  C22 UNL     1       1.737  57.477  -5.465  1.00  0.00     0.080 C 
HETATM   16  C23 UNL     1       2.315  58.172  -6.683  1.00  0.00     0.018 C 
HETATM   17  C24 UNL     1       3.568  57.471  -7.167  1.00  0.00    -0.026 A 
HETATM   18  C25 UNL     1       3.906  57.678  -8.621  1.00  0.00     0.021 A 
HETATM   19  C26 UNL     1       3.463  56.290  -8.180  1.00  0.00    -0.027 A 
HETATM   20  C27 UNL     1       2.063  55.849  -8.632  1.00  0.00     0.011 C 
HETATM   21  C28 UNL     1       1.953  54.729  -9.683  1.00  0.00     0.011 C 
HETATM   22  C29 UNL     1       3.272  54.016 -10.003  1.00  0.00    -0.032 C 
HETATM   23  C30 UNL     1       4.021  54.878 -11.056  1.00  0.00     0.016 C 
ENDROOT
BRANCH   1  24
HETATM   24  C8  UNL     1       2.681  52.170 -11.932  1.00  0.00     0.014 C 
HETATM   25  C7  UNL     1       1.209  52.448 -12.282  1.00  0.00     0.010 C 
HETATM   26  C6  UNL     1       0.625  51.375 -13.198  1.00  0.00     0.041 C 
HETATM   27  C4  UNL     1       1.605  50.930 -14.312  1.00  0.00     0.085 C 
HETATM   28  O3  UNL     1       2.897  50.570 -13.764  1.00  0.00    -0.377 OA
HETATM   29  C31 UNL     1       3.079  50.757 -12.361  1.00  0.00     0.174 C 
BRANCH  27  30
HETATM   30  C2  UNL     1       1.881  52.078 -15.350  1.00  0.00     0.014 C 
HETATM   31  C1  UNL     1       1.092  51.986 -16.659  1.00  0.00     0.012 C 
HETATM   32  C3  UNL     1       3.374  52.242 -15.681  1.00  0.00     0.012 C 
ENDBRANCH  27  30
BRANCH  27  33
HETATM   33  C5  UNL     1       1.063  49.633 -14.971  1.00  0.00     0.202 C 
BRANCH  33  34
HETATM   34  O1  UNL     1       1.652  48.439 -14.470  1.00  0.00    -0.398 OA
HETATM   35  H10 UNL     1       2.541  48.366 -14.854  1.00  0.00     0.209 HD
ENDBRANCH  33  34
ENDBRANCH  27  33
ENDBRANCH   1  24
TORSDOF 4
ENDMDL
MODEL 2
REMARK minimizedAffinity -7.24310875
REMARK CNNscore 0.588038921
REMARK CNNaffinity 6.92096472
REMARK  4 active torsions:
REMARK  status: ('A' for Active; 'I' for Inactive)
REMARK    1  A    between atoms: C2_2  and  C4_4 
REMARK    2  A    between atoms: C4_4  and  C5_5 
REMARK    3  A    between atoms: C5_5  and  O1_6 
REMARK    4  A    between atoms: C8_9  and  C9_10 
ROOT
HETATM    1  C9  UNL     1       1.668  50.768 -11.546  1.00  0.00     0.001 C 
HETATM    2  C10 UNL     1       2.787  49.765 -11.162  1.00  0.00     0.007 C 
HETATM    3  C11 UNL     1       3.902  50.575 -10.477  1.00  0.00     0.011 C 
HETATM    4  C12 UNL     1       3.270  51.943 -10.153  1.00  0.00    -0.032 C 
HETATM    5  C13 UNL     1       2.501  51.769  -8.806  1.00  0.00     0.016 C 
HETATM    6  C14 UNL     1       4.283  53.112 -10.048  1.00  0.00     0.004 C 
HETATM    7  C15 UNL     1       5.182  53.045  -8.807  1.00  0.00     0.007 C 
HETATM    8  C16 UNL     1       6.209  54.168  -8.859  1.00  0.00     0.007 C 
HETATM    9  C17 UNL     1       5.563  55.549  -8.626  1.00  0.00     0.010 C 
HETATM   10  C18 UNL     1       5.337  55.936  -7.109  1.00  0.00     0.018 C 
HETATM   11  C19 UNL     1       5.832  57.378  -6.839  1.00  0.00     0.023 C 
HETATM   12  C20 UNL     1       6.100  55.050  -6.099  1.00  0.00     0.023 C 
HETATM   13  C21 UNL     1       3.840  55.886  -6.773  1.00  0.00     0.135 C 
HETATM   14  O2  UNL     1       3.404  55.280  -5.791  1.00  0.00    -0.297 OA
HETATM   15  C22 UNL     1       2.888  56.681  -7.639  1.00  0.00     0.080 C 
HETATM   16  C23 UNL     1       3.432  56.898  -9.039  1.00  0.00     0.018 C 
HETATM   17  C24 UNL     1       4.276  55.722  -9.485  1.00  0.00    -0.026 A 
HETATM   18  C25 UNL     1       4.395  55.536 -10.975  1.00  0.00     0.021 A 
HETATM   19  C26 UNL     1       3.609  54.499 -10.185  1.00  0.00    -0.027 A 
HETATM   20  C27 UNL     1       2.084  54.518 -10.371  1.00  0.00     0.011 C 
HETATM   21  C28 UNL     1       1.425  53.346 -11.123  1.00  0.00     0.011 C 
HETATM   22  C29 UNL     1       2.356  52.164 -11.414  1.00  0.00    -0.032 C 
HETATM   23  C30 UNL     1       3.143  52.502 -12.710  1.00  0.00     0.016 C 
ENDROOT
BRANCH   1  24
HETATM   24  C8  UNL     1       0.854  50.346 -12.798  1.00  0.00     0.014 C 
HETATM   25  C7  UNL     1       0.531  51.443 -13.826  1.00  0.00     0.010 C 
HETATM   26  C6  UNL     1      -0.851  51.256 -14.449  1.00  0.00     0.041 C 
HETATM   27  C4  UNL     1      -1.170  49.778 -14.783  1.00  0.00     0.085 C 
HETATM   28  O3  UNL     1      -0.939  48.917 -13.640  1.00  0.00    -0.377 OA
HETATM   29  C31 UNL     1      -0.397  49.528 -12.470  1.00  0.00     0.174 C 
BRANCH  27  30
HETATM   30  C2  UNL     1      -0.255  49.222 -15.934  1.00  0.00     0.014 C 
HETATM   31  C1  UNL     1       0.829  48.233 -15.494  1.00  0.00     0.012 C 
HETATM   32  C3  UNL     1       0.398  50.334 -16.772  1.00  0.00     0.012 C 
ENDBRANCH  27  30
BRANCH  27  33
HETATM   33  C5  UNL     1      -2.686  49.648 -15.095  1.00  0.00     0.202 C 
BRANCH  33  34
HETATM   34  O1  UNL     1      -3.419  50.853 -14.914  1.00  0.00    -0.398 OA
HETATM   35  H10 UNL     1      -3.538  50.985 -13.959  1.00  0.00     0.209 HD
ENDBRANCH  33  34
ENDBRANCH  27  33
ENDBRANCH   1  24
TORSDOF 4
ENDMDL
MODEL 3
REMARK minimizedAffinity -7.20859671
REMARK CNNscore 0.559494436
REMARK CNNaffinity 6.6906991
REMARK  4 active torsions:
REMARK  status: ('A' for Active; 'I' for Inactive)
REMARK    1  A    between atoms: C2_2  and  C4_4 
REMARK    2  A    between atoms: C4_4  and  C5_5 
REMARK    3  A    between atoms: C5_5  and  O1_6 
REMARK    4  A    between atoms: C8_9  and  C9_10 
ROOT
HETATM    1  C9  UNL     1     -10.532  47.806 -18.675  1.00  0.00     0.001 C 
HETATM    2  C10 UNL     1     -10.116  47.189 -17.314  1.00  0.00     0.007 C 
HETATM    3  C11 UNL     1      -8.662  46.710 -17.462  1.00  0.00     0.011 C 
HETATM    4  C12 UNL     1      -8.147  47.368 -18.758  1.00  0.00    -0.032 C 
HETATM    5  C13 UNL     1      -7.685  48.808 -18.370  1.00  0.00     0.016 C 
HETATM    6  C14 UNL     1      -6.994  46.601 -19.455  1.00  0.00     0.004 C 
HETATM    7  C15 UNL     1      -5.662  46.659 -18.698  1.00  0.00     0.007 C 
HETATM    8  C16 UNL     1      -4.634  45.786 -19.405  1.00  0.00     0.007 C 
HETATM    9  C17 UNL     1      -4.186  46.399 -20.747  1.00  0.00     0.010 C 
HETATM   10  C18 UNL     1      -3.055  47.500 -20.637  1.00  0.00     0.018 C 
HETATM   11  C19 UNL     1      -1.938  47.236 -21.677  1.00  0.00     0.023 C 
HETATM   12  C20 UNL     1      -2.333  47.546 -19.271  1.00  0.00     0.023 C 
HETATM   13  C21 UNL     1      -3.644  48.888 -20.928  1.00  0.00     0.135 C 
HETATM   14  O2  UNL     1      -3.459  49.852 -20.182  1.00  0.00    -0.297 OA
HETATM   15  C22 UNL     1      -4.407  49.082 -22.219  1.00  0.00     0.080 C 
HETATM   16  C23 UNL     1      -5.008  47.786 -22.731  1.00  0.00     0.018 C 
HETATM   17  C24 UNL     1      -5.407  46.880 -21.584  1.00  0.00    -0.026 A 
HETATM   18  C25 UNL     1      -6.484  45.874 -21.897  1.00  0.00     0.021 A 
HETATM   19  C26 UNL     1      -6.820  47.009 -20.939  1.00  0.00    -0.027 A 
HETATM   20  C27 UNL     1      -7.763  48.095 -21.479  1.00  0.00     0.011 C 
HETATM   21  C28 UNL     1      -9.186  48.185 -20.894  1.00  0.00     0.011 C 
HETATM   22  C29 UNL     1      -9.431  47.305 -19.663  1.00  0.00    -0.032 C 
HETATM   23  C30 UNL     1      -9.773  45.879 -20.173  1.00  0.00     0.016 C 
ENDROOT
BRANCH   1  24
HETATM   24  C8  UNL     1     -12.050  47.688 -18.976  1.00  0.00     0.014 C 
HETATM   25  C7  UNL     1     -12.682  46.291 -18.852  1.00  0.00     0.010 C 
HETATM   26  C6  UNL     1     -13.761  46.055 -19.906  1.00  0.00     0.041 C 
HETATM   27  C4  UNL     1     -14.671  47.289 -20.129  1.00  0.00     0.085 C 
HETATM   28  O3  UNL     1     -13.888  48.484 -20.373  1.00  0.00    -0.377 OA
HETATM   29  C31 UNL     1     -12.470  48.356 -20.287  1.00  0.00     0.174 C 
BRANCH  27  30
HETATM   30  C2  UNL     1     -15.559  47.603 -18.871  1.00  0.00     0.014 C 
HETATM   31  C1  UNL     1     -17.064  47.397 -19.059  1.00  0.00     0.012 C 
HETATM   32  C3  UNL     1     -15.319  49.013 -18.303  1.00  0.00     0.012 C 
ENDBRANCH  27  30
BRANCH  27  33
HETATM   33  C5  UNL     1     -15.504  47.073 -21.422  1.00  0.00     0.202 C 
BRANCH  33  34
HETATM   34  O1  UNL     1     -14.963  47.711 -22.572  1.00  0.00    -0.398 OA
HETATM   35  H10 UNL     1     -15.158  48.660 -22.501  1.00  0.00     0.209 HD
ENDBRANCH  33  34
ENDBRANCH  27  33
ENDBRANCH   1  24
TORSDOF 4
ENDMDL
MODEL 4
REMARK minimizedAffinity -7.31643391
REMARK CNNscore 0.529370964
REMARK CNNaffinity 6.38376427
REMARK  4 active torsions:
REMARK  status: ('A' for Active; 'I' for Inactive)
REMARK    1  A    between atoms: C2_2  and  C4_4 
REMARK    2  A    between atoms: C4_4  and  C5_5 
REMARK    3  A    between atoms: C5_5  and  O1_6 
REMARK    4  A    between atoms: C8_9  and  C9_10 
ROOT
HETATM    1  C9  UNL     1       3.804  56.815  -5.616  1.00  0.00     0.001 C 
HETATM    2  C10 UNL     1       2.561  57.576  -5.086  1.00  0.00     0.007 C 
HETATM    3  C11 UNL     1       1.406  57.287  -6.062  1.00  0.00     0.011 C 
HETATM    4  C12 UNL     1       1.887  56.100  -6.920  1.00  0.00    -0.032 C 
HETATM    5  C13 UNL     1       1.581  54.807  -6.098  1.00  0.00     0.016 C 
HETATM    6  C14 UNL     1       1.234  56.013  -8.323  1.00  0.00     0.004 C 
HETATM    7  C15 UNL     1      -0.246  55.613  -8.296  1.00  0.00     0.007 C 
HETATM    8  C16 UNL     1      -0.816  55.668  -9.707  1.00  0.00     0.007 C 
HETATM    9  C17 UNL     1      -0.265  54.532 -10.594  1.00  0.00     0.010 C 
HETATM   10  C18 UNL     1      -1.003  53.141 -10.438  1.00  0.00     0.018 C 
HETATM   11  C19 UNL     1      -1.328  52.542 -11.828  1.00  0.00     0.023 C 
HETATM   12  C20 UNL     1      -2.359  53.212  -9.701  1.00  0.00     0.023 C 
HETATM   13  C21 UNL     1      -0.095  52.146  -9.702  1.00  0.00     0.135 C 
HETATM   14  O2  UNL     1      -0.485  51.489  -8.734  1.00  0.00    -0.297 OA
HETATM   15  C22 UNL     1       1.298  51.915 -10.244  1.00  0.00     0.080 C 
HETATM   16  C23 UNL     1       1.814  53.109 -11.027  1.00  0.00     0.018 C 
HETATM   17  C24 UNL     1       1.280  54.407 -10.456  1.00  0.00    -0.026 A 
HETATM   18  C25 UNL     1       2.112  55.631 -10.738  1.00  0.00     0.021 A 
HETATM   19  C26 UNL     1       2.043  55.128  -9.303  1.00  0.00    -0.027 A 
HETATM   20  C27 UNL     1       3.315  54.464  -8.754  1.00  0.00     0.011 C 
HETATM   21  C28 UNL     1       4.113  55.203  -7.663  1.00  0.00     0.011 C 
HETATM   22  C29 UNL     1       3.414  56.437  -7.081  1.00  0.00    -0.032 C 
HETATM   23  C30 UNL     1       3.699  57.626  -8.038  1.00  0.00     0.016 C 
ENDROOT
BRANCH   1  24
HETATM   24  C8  UNL     1       5.152  57.492  -5.252  1.00  0.00     0.014 C 
HETATM   25  C7  UNL     1       6.372  57.132  -6.116  1.00  0.00     0.010 C 
HETATM   26  C6  UNL     1       7.657  57.061  -5.293  1.00  0.00     0.041 C 
HETATM   27  C4  UNL     1       7.769  58.197  -4.246  1.00  0.00     0.085 C 
HETATM   28  O3  UNL     1       6.574  58.284  -3.431  1.00  0.00    -0.377 OA
HETATM   29  C31 UNL     1       5.500  57.406  -3.764  1.00  0.00     0.174 C 
BRANCH  27  30
HETATM   30  C2  UNL     1       7.935  59.607  -4.921  1.00  0.00     0.014 C 
HETATM   31  C1  UNL     1       9.371  60.000  -5.281  1.00  0.00     0.012 C 
HETATM   32  C3  UNL     1       7.301  60.744  -4.101  1.00  0.00     0.012 C 
ENDBRANCH  27  30
BRANCH  27  33
HETATM   33  C5  UNL     1       8.917  57.858  -3.256  1.00  0.00     0.202 C 
BRANCH  33  34
HETATM   34  O1  UNL     1       9.308  56.491  -3.271  1.00  0.00    -0.398 OA
HETATM   35  H10 UNL     1       8.631  55.986  -2.792  1.00  0.00     0.209 HD
ENDBRANCH  33  34
ENDBRANCH  27  33
ENDBRANCH   1  24
TORSDOF 4
ENDMDL
MODEL 5
REMARK minimizedAffinity -7.59855604
REMARK CNNscore 0.514130175
REMARK CNNaffinity 6.68632698
REMARK  4 active torsions:
REMARK  status: ('A' for Active; 'I' for Inactive)
REMARK    1  A    between atoms: C2_2  and  C4_4 
REMARK    2  A    between atoms: C4_4  and  C5_5 
REMARK    3  A    between atoms: C5_5  and  O1_6 
REMARK    4  A    between atoms: C8_9  and  C9_10 
ROOT
HETATM    1  C9  UNL     1       0.483  52.935 -10.095  1.00  0.00     0.001 C 
HETATM    2  C10 UNL     1       1.476  53.311 -11.226  1.00  0.00     0.007 C 
HETATM    3  C11 UNL     1       2.305  54.505 -10.720  1.00  0.00     0.011 C 
HETATM    4  C12 UNL     1       2.038  54.570  -9.203  1.00  0.00    -0.032 C 
HETATM    5  C13 UNL     1       3.013  53.548  -8.537  1.00  0.00     0.016 C 
HETATM    6  C14 UNL     1       2.222  55.976  -8.576  1.00  0.00     0.004 C 
HETATM    7  C15 UNL     1       3.682  56.441  -8.510  1.00  0.00     0.007 C 
HETATM    8  C16 UNL     1       3.739  57.870  -7.987  1.00  0.00     0.007 C 
HETATM    9  C17 UNL     1       3.384  57.948  -6.488  1.00  0.00     0.010 C 
HETATM   10  C18 UNL     1       4.574  57.624  -5.498  1.00  0.00     0.018 C 
HETATM   11  C19 UNL     1       4.653  58.690  -4.378  1.00  0.00     0.023 C 
HETATM   12  C20 UNL     1       5.974  57.623  -6.155  1.00  0.00     0.023 C 
HETATM   13  C21 UNL     1       4.344  56.261  -4.830  1.00  0.00     0.135 C 
HETATM   14  O2  UNL     1       5.215  55.388  -4.796  1.00  0.00    -0.297 OA
HETATM   15  C22 UNL     1       3.028  56.027  -4.123  1.00  0.00     0.080 C 
HETATM   16  C23 UNL     1       1.913  56.890  -4.684  1.00  0.00     0.018 C 
HETATM   17  C24 UNL     1       2.101  57.126  -6.169  1.00  0.00    -0.026 A 
HETATM   18  C25 UNL     1       0.848  57.452  -6.938  1.00  0.00     0.021 A 
HETATM   19  C26 UNL     1       1.521  56.112  -7.202  1.00  0.00    -0.027 A 
HETATM   20  C27 UNL     1       0.795  54.870  -6.664  1.00  0.00     0.011 C 
HETATM   21  C28 UNL     1       0.158  53.899  -7.677  1.00  0.00     0.011 C 
HETATM   22  C29 UNL     1       0.518  54.172  -9.142  1.00  0.00    -0.032 C 
HETATM   23  C30 UNL     1      -0.443  55.278  -9.658  1.00  0.00     0.016 C 
ENDROOT
BRANCH   1  24
HETATM   24  C8  UNL     1      -0.838  52.306 -10.610  1.00  0.00     0.014 C 
HETATM   25  C7  UNL     1      -1.252  50.953 -10.005  1.00  0.00     0.010 C 
HETATM   26  C6  UNL     1      -1.918  50.044 -11.036  1.00  0.00     0.041 C 
HETATM   27  C4  UNL     1      -2.902  50.799 -11.964  1.00  0.00     0.085 C 
HETATM   28  O3  UNL     1      -2.279  51.968 -12.553  1.00  0.00    -0.377 OA
HETATM   29  C31 UNL     1      -0.949  52.271 -12.135  1.00  0.00     0.174 C 
BRANCH  27  30
HETATM   30  C2  UNL     1      -4.161  51.327 -11.185  1.00  0.00     0.014 C 
HETATM   31  C1  UNL     1      -4.149  52.821 -10.848  1.00  0.00     0.012 C 
HETATM   32  C3  UNL     1      -4.450  50.531  -9.901  1.00  0.00     0.012 C 
ENDBRANCH  27  30
BRANCH  27  33
HETATM   33  C5  UNL     1      -3.268  49.882 -13.162  1.00  0.00     0.202 C 
BRANCH  33  34
HETATM   34  O1  UNL     1      -3.407  50.572 -14.398  1.00  0.00    -0.398 OA
HETATM   35  H10 UNL     1      -4.259  51.037 -14.381  1.00  0.00     0.209 HD
ENDBRANCH  33  34
ENDBRANCH  27  33
ENDBRANCH   1  24
TORSDOF 4
ENDMDL
MODEL 6
REMARK minimizedAffinity -7.71876574
REMARK CNNscore 0.466038674
REMARK CNNaffinity 5.96269798
REMARK  4 active torsions:
REMARK  status: ('A' for Active; 'I' for Inactive)
REMARK    1  A    between atoms: C2_2  and  C4_4 
REMARK    2  A    between atoms: C4_4  and  C5_5 
REMARK    3  A    between atoms: C5_5  and  O1_6 
REMARK    4  A    between atoms: C8_9  and  C9_10 
ROOT
HETATM    1  C9  UNL     1     -12.326  45.424 -28.334  1.00  0.00     0.001 C 
HETATM    2  C10 UNL     1     -12.481  43.961 -28.828  1.00  0.00     0.007 C 
HETATM    3  C11 UNL     1     -13.582  43.311 -27.973  1.00  0.00     0.011 C 
HETATM    4  C12 UNL     1     -14.287  44.482 -27.260  1.00  0.00    -0.032 C 
HETATM    5  C13 UNL     1     -15.336  45.049 -28.268  1.00  0.00     0.016 C 
HETATM    6  C14 UNL     1     -14.975  44.102 -25.923  1.00  0.00     0.004 C 
HETATM    7  C15 UNL     1     -16.226  43.232 -26.095  1.00  0.00     0.007 C 
HETATM    8  C16 UNL     1     -16.756  42.824 -24.726  1.00  0.00     0.007 C 
HETATM    9  C17 UNL     1     -17.381  44.016 -23.973  1.00  0.00     0.010 C 
HETATM   10  C18 UNL     1     -18.878  44.346 -24.363  1.00  0.00     0.018 C 
HETATM   11  C19 UNL     1     -19.737  44.546 -23.091  1.00  0.00     0.023 C 
HETATM   12  C20 UNL     1     -19.593  43.235 -25.164  1.00  0.00     0.023 C 
HETATM   13  C21 UNL     1     -18.933  45.649 -25.173  1.00  0.00     0.135 C 
HETATM   14  O2  UNL     1     -19.539  45.734 -26.244  1.00  0.00    -0.297 OA
HETATM   15  C22 UNL     1     -18.286  46.883 -24.585  1.00  0.00     0.080 C 
HETATM   16  C23 UNL     1     -17.170  46.538 -23.616  1.00  0.00     0.018 C 
HETATM   17  C24 UNL     1     -16.458  45.268 -24.033  1.00  0.00    -0.026 A 
HETATM   18  C25 UNL     1     -15.043  45.123 -23.536  1.00  0.00     0.021 A 
HETATM   19  C26 UNL     1     -15.259  45.333 -25.028  1.00  0.00    -0.027 A 
HETATM   20  C27 UNL     1     -14.858  46.707 -25.585  1.00  0.00     0.011 C 
HETATM   21  C28 UNL     1     -13.632  46.790 -26.514  1.00  0.00     0.011 C 
HETATM   22  C29 UNL     1     -13.072  45.435 -26.962  1.00  0.00    -0.032 C 
HETATM   23  C30 UNL     1     -12.134  44.925 -25.834  1.00  0.00     0.016 C 
ENDROOT
BRANCH   1  24
HETATM   24  C8  UNL     1     -10.897  45.997 -28.520  1.00  0.00     0.014 C 
HETATM   25  C7  UNL     1     -10.472  47.138 -27.580  1.00  0.00     0.010 C 
HETATM   26  C6  UNL     1      -9.588  48.164 -28.286  1.00  0.00     0.041 C 
HETATM   27  C4  UNL     1      -8.540  47.517 -29.225  1.00  0.00     0.085 C 
HETATM   28  O3  UNL     1      -9.158  46.574 -30.135  1.00  0.00    -0.377 OA
HETATM   29  C31 UNL     1     -10.556  46.340 -29.972  1.00  0.00     0.174 C 
BRANCH  27  30
HETATM   30  C2  UNL     1      -7.458  46.701 -28.428  1.00  0.00     0.014 C 
HETATM   31  C1  UNL     1      -6.148  47.444 -28.148  1.00  0.00     0.012 C 
HETATM   32  C3  UNL     1      -7.130  45.346 -29.077  1.00  0.00     0.012 C 
ENDBRANCH  27  30
BRANCH  27  33
HETATM   33  C5  UNL     1      -7.926  48.620 -30.130  1.00  0.00     0.202 C 
BRANCH  33  34
HETATM   34  O1  UNL     1      -8.703  49.809 -30.200  1.00  0.00    -0.398 OA
HETATM   35  H10 UNL     1      -9.459  49.631 -30.783  1.00  0.00     0.209 HD
ENDBRANCH  33  34
ENDBRANCH  27  33
ENDBRANCH   1  24
TORSDOF 4
ENDMDL
MODEL 7
REMARK minimizedAffinity -7.75933075
REMARK CNNscore 0.460878044
REMARK CNNaffinity 6.68670893
REMARK  4 active torsions:
REMARK  status: ('A' for Active; 'I' for Inactive)
REMARK    1  A    between atoms: C2_2  and  C4_4 
REMARK    2  A    between atoms: C4_4  and  C5_5 
REMARK    3  A    between atoms: C5_5  and  O1_6 
REMARK    4  A    between atoms: C8_9  and  C9_10 
ROOT
HETATM    1  C9  UNL     1       1.008  52.608  -9.555  1.00  0.00     0.001 C 
HETATM    2  C10 UNL     1       2.128  51.815 -10.278  1.00  0.00     0.007 C 
HETATM    3  C11 UNL     1       3.454  52.540  -9.986  1.00  0.00     0.011 C 
HETATM    4  C12 UNL     1       3.141  53.507  -8.827  1.00  0.00    -0.032 C 
HETATM    5  C13 UNL     1       3.250  52.672  -7.511  1.00  0.00     0.016 C 
HETATM    6  C14 UNL     1       4.067  54.748  -8.756  1.00  0.00     0.004 C 
HETATM    7  C15 UNL     1       5.503  54.427  -8.324  1.00  0.00     0.007 C 
HETATM    8  C16 UNL     1       6.353  55.689  -8.397  1.00  0.00     0.007 C 
HETATM    9  C17 UNL     1       5.978  56.698  -7.292  1.00  0.00     0.010 C 
HETATM   10  C18 UNL     1       6.645  56.428  -5.883  1.00  0.00     0.018 C 
HETATM   11  C19 UNL     1       7.240  57.736  -5.306  1.00  0.00     0.023 C 
HETATM   12  C20 UNL     1       7.821  55.426  -5.910  1.00  0.00     0.023 C 
HETATM   13  C21 UNL     1       5.589  55.919  -4.892  1.00  0.00     0.135 C 
HETATM   14  O2  UNL     1       5.761  54.908  -4.206  1.00  0.00    -0.297 OA
HETATM   15  C22 UNL     1       4.334  56.742  -4.702  1.00  0.00     0.080 C 
HETATM   16  C23 UNL     1       4.010  57.584  -5.922  1.00  0.00     0.018 C 
HETATM   17  C24 UNL     1       4.436  56.884  -7.196  1.00  0.00    -0.026 A 
HETATM   18  C25 UNL     1       3.699  57.300  -8.443  1.00  0.00     0.021 A 
HETATM   19  C26 UNL     1       3.463  55.894  -7.909  1.00  0.00    -0.027 A 
HETATM   20  C27 UNL     1       2.095  55.635  -7.260  1.00  0.00     0.011 C 
HETATM   21  C28 UNL     1       1.102  54.713  -7.993  1.00  0.00     0.011 C 
HETATM   22  C29 UNL     1       1.685  53.970  -9.199  1.00  0.00    -0.032 C 
HETATM   23  C30 UNL     1       1.623  54.936 -10.414  1.00  0.00     0.016 C 
ENDROOT
BRANCH   1  24
HETATM   24  C8  UNL     1      -0.374  52.512 -10.252  1.00  0.00     0.014 C 
HETATM   25  C7  UNL     1      -1.027  51.120 -10.325  1.00  0.00     0.010 C 
HETATM   26  C6  UNL     1      -1.786  50.911 -11.633  1.00  0.00     0.041 C 
HETATM   27  C4  UNL     1      -2.594  52.158 -12.071  1.00  0.00     0.085 C 
HETATM   28  O3  UNL     1      -1.766  53.347 -12.077  1.00  0.00    -0.377 OA
HETATM   29  C31 UNL     1      -0.423  53.202 -11.617  1.00  0.00     0.174 C 
BRANCH  27  30
HETATM   30  C2  UNL     1      -3.784  52.465 -11.091  1.00  0.00     0.014 C 
HETATM   31  C1  UNL     1      -3.683  53.789 -10.329  1.00  0.00     0.012 C 
HETATM   32  C3  UNL     1      -4.041  51.331 -10.084  1.00  0.00     0.012 C 
ENDBRANCH  27  30
BRANCH  27  33
HETATM   33  C5  UNL     1      -3.052  51.969 -13.543  1.00  0.00     0.202 C 
BRANCH  33  34
HETATM   34  O1  UNL     1      -3.865  53.027 -14.036  1.00  0.00    -0.398 OA
HETATM   35  H10 UNL     1      -4.752  52.919 -13.655  1.00  0.00     0.209 HD
ENDBRANCH  33  34
ENDBRANCH  27  33
ENDBRANCH   1  24
TORSDOF 4
ENDMDL
MODEL 8
REMARK minimizedAffinity -9.55639362
REMARK CNNscore 0.440594763
REMARK CNNaffinity 6.9257865
REMARK  4 active torsions:
REMARK  status: ('A' for Active; 'I' for Inactive)
REMARK    1  A    between atoms: C2_2  and  C4_4 
REMARK    2  A    between atoms: C4_4  and  C5_5 
REMARK    3  A    between atoms: C5_5  and  O1_6 
REMARK    4  A    between atoms: C8_9  and  C9_10 
ROOT
HETATM    1  C9  UNL     1      -2.544  51.388 -23.125  1.00  0.00     0.001 C 
HETATM    2  C10 UNL     1      -3.571  52.504 -22.797  1.00  0.00     0.007 C 
HETATM    3  C11 UNL     1      -4.767  51.825 -22.106  1.00  0.00     0.011 C 
HETATM    4  C12 UNL     1      -4.270  50.417 -21.724  1.00  0.00    -0.032 C 
HETATM    5  C13 UNL     1      -3.509  50.568 -20.368  1.00  0.00     0.016 C 
HETATM    6  C14 UNL     1      -5.388  49.351 -21.598  1.00  0.00     0.004 C 
HETATM    7  C15 UNL     1      -6.297  49.545 -20.377  1.00  0.00     0.007 C 
HETATM    8  C16 UNL     1      -7.423  48.520 -20.411  1.00  0.00     0.007 C 
HETATM    9  C17 UNL     1      -6.910  47.095 -20.117  1.00  0.00     0.010 C 
HETATM   10  C18 UNL     1      -6.745  46.743 -18.583  1.00  0.00     0.018 C 
HETATM   11  C19 UNL     1      -7.376  45.364 -18.273  1.00  0.00     0.023 C 
HETATM   12  C20 UNL     1      -7.439  47.732 -17.619  1.00  0.00     0.023 C 
HETATM   13  C21 UNL     1      -5.255  46.667 -18.221  1.00  0.00     0.135 C 
HETATM   14  O2  UNL     1      -4.782  47.266 -17.252  1.00  0.00    -0.297 OA
HETATM   15  C22 UNL     1      -4.368  45.758 -19.041  1.00  0.00     0.080 C 
HETATM   16  C23 UNL     1      -4.907  45.541 -20.443  1.00  0.00     0.018 C 
HETATM   17  C24 UNL     1      -5.632  46.773 -20.944  1.00  0.00    -0.026 A 
HETATM   18  C25 UNL     1      -5.709  46.915 -22.442  1.00  0.00     0.021 A 
HETATM   19  C26 UNL     1      -4.843  47.903 -21.674  1.00  0.00    -0.027 A 
HETATM   20  C27 UNL     1      -3.324  47.738 -21.829  1.00  0.00     0.011 C 
HETATM   21  C28 UNL     1      -2.547  48.817 -22.608  1.00  0.00     0.011 C 
HETATM   22  C29 UNL     1      -3.361  50.068 -22.958  1.00  0.00    -0.032 C 
HETATM   23  C30 UNL     1      -4.155  49.757 -24.256  1.00  0.00     0.016 C 
ENDROOT
BRANCH   1  24
HETATM   24  C8  UNL     1      -1.675  51.689 -24.374  1.00  0.00     0.014 C 
HETATM   25  C7  UNL     1      -0.383  52.493 -24.152  1.00  0.00     0.010 C 
HETATM   26  C6  UNL     1      -0.095  53.448 -25.309  1.00  0.00     0.041 C 
HETATM   27  C4  UNL     1      -0.375  52.820 -26.697  1.00  0.00     0.085 C 
HETATM   28  O3  UNL     1      -1.702  52.239 -26.754  1.00  0.00    -0.377 OA
HETATM   29  C31 UNL     1      -2.469  52.260 -25.551  1.00  0.00     0.174 C 
BRANCH  27  30
HETATM   30  C2  UNL     1       0.623  51.652 -27.029  1.00  0.00     0.014 C 
HETATM   31  C1  UNL     1       1.946  51.677 -26.259  1.00  0.00     0.012 C 
HETATM   32  C3  UNL     1       0.927  51.531 -28.532  1.00  0.00     0.012 C 
ENDBRANCH  27  30
BRANCH  27  33
HETATM   33  C5  UNL     1      -0.373  53.945 -27.768  1.00  0.00     0.202 C 
BRANCH  33  34
HETATM   34  O1  UNL     1      -1.652  54.208 -28.332  1.00  0.00    -0.398 OA
HETATM   35  H10 UNL     1      -1.849  53.493 -28.959  1.00  0.00     0.209 HD
ENDBRANCH  33  34
ENDBRANCH  27  33
ENDBRANCH   1  24
TORSDOF 4
ENDMDL
MODEL 9
REMARK minimizedAffinity -6.91755867
REMARK CNNscore 0.407722682
REMARK CNNaffinity 6.17013025
REMARK  4 active torsions:
REMARK  status: ('A' for Active; 'I' for Inactive)
REMARK    1  A    between atoms: C2_2  and  C4_4 
REMARK    2  A    between atoms: C4_4  and  C5_5 
REMARK    3  A    between atoms: C5_5  and  O1_6 
REMARK    4  A    between atoms: C8_9  and  C9_10 
ROOT
HETATM    1  C9  UNL     1       6.418  56.250  -5.480  1.00  0.00     0.001 C 
HETATM    2  C10 UNL     1       5.987  57.698  -5.832  1.00  0.00     0.007 C 
HETATM    3  C11 UNL     1       5.051  57.606  -7.050  1.00  0.00     0.011 C 
HETATM    4  C12 UNL     1       4.671  56.116  -7.158  1.00  0.00    -0.032 C 
HETATM    5  C13 UNL     1       3.485  55.888  -6.168  1.00  0.00     0.016 C 
HETATM    6  C14 UNL     1       4.277  55.655  -8.585  1.00  0.00     0.004 C 
HETATM    7  C15 UNL     1       2.931  56.207  -9.067  1.00  0.00     0.007 C 
HETATM    8  C16 UNL     1       2.695  55.788 -10.512  1.00  0.00     0.007 C 
HETATM    9  C17 UNL     1       2.403  54.278 -10.632  1.00  0.00     0.010 C 
HETATM   10  C18 UNL     1       0.904  53.860 -10.351  1.00  0.00     0.018 C 
HETATM   11  C19 UNL     1       0.395  52.897 -11.452  1.00  0.00     0.023 C 
HETATM   12  C20 UNL     1      -0.101  55.034 -10.345  1.00  0.00     0.023 C 
HETATM   13  C21 UNL     1       0.808  53.124  -9.007  1.00  0.00     0.135 C 
HETATM   14  O2  UNL     1      -0.019  53.431  -8.146  1.00  0.00    -0.297 OA
HETATM   15  C22 UNL     1       1.710  51.932  -8.781  1.00  0.00     0.080 C 
HETATM   16  C23 UNL     1       2.976  52.004  -9.615  1.00  0.00     0.018 C 
HETATM   17  C24 UNL     1       3.422  53.440  -9.806  1.00  0.00    -0.026 A 
HETATM   18  C25 UNL     1       4.888  53.631 -10.095  1.00  0.00     0.021 A 
HETATM   19  C26 UNL     1       4.353  54.117  -8.755  1.00  0.00    -0.027 A 
HETATM   20  C27 UNL     1       4.765  53.299  -7.522  1.00  0.00     0.011 C 
HETATM   21  C28 UNL     1       5.740  53.936  -6.514  1.00  0.00     0.011 C 
HETATM   22  C29 UNL     1       6.022  55.425  -6.746  1.00  0.00    -0.032 C 
HETATM   23  C30 UNL     1       7.134  55.525  -7.825  1.00  0.00     0.016 C 
ENDROOT
BRANCH   1  24
HETATM   24  C8  UNL     1       7.820  56.159  -4.821  1.00  0.00     0.014 C 
HETATM   25  C7  UNL     1       8.819  57.283  -5.144  1.00  0.00     0.010 C 
HETATM   26  C6  UNL     1      10.251  56.763  -5.252  1.00  0.00     0.041 C 
HETATM   27  C4  UNL     1      10.601  55.718  -4.164  1.00  0.00     0.085 C 
HETATM   28  O3  UNL     1       9.612  54.659  -4.113  1.00  0.00    -0.377 OA
HETATM   29  C31 UNL     1       8.482  54.788  -4.974  1.00  0.00     0.174 C 
BRANCH  27  30
HETATM   30  C2  UNL     1      10.630  56.351  -2.725  1.00  0.00     0.014 C 
HETATM   31  C1  UNL     1       9.464  55.963  -1.811  1.00  0.00     0.012 C 
HETATM   32  C3  UNL     1      10.756  57.883  -2.746  1.00  0.00     0.012 C 
ENDBRANCH  27  30
BRANCH  27  33
HETATM   33  C5  UNL     1      11.933  55.018  -4.547  1.00  0.00     0.202 C 
BRANCH  33  34
HETATM   34  O1  UNL     1      12.859  55.863  -5.218  1.00  0.00    -0.398 OA
HETATM   35  H10 UNL     1      12.550  55.969  -6.133  1.00  0.00     0.209 HD
ENDBRANCH  33  34
ENDBRANCH  27  33
ENDBRANCH   1  24
TORSDOF 4
ENDMDL
