MODEL 1
REMARK minimizedAffinity -7.34016609
REMARK CNNscore 0.790262818
REMARK CNNaffinity 7.06574678
REMARK  6 active torsions:
REMARK  status: ('A' for Active; 'I' for Inactive)
REMARK    1  A    between atoms: C2_2  and  C3_3 
REMARK    2  A    between atoms: C2_2  and  C27_30 
REMARK    3  A    between atoms: C3_3  and  C4_4 
REMARK    4  A    between atoms: C4_4  and  C5_5 
REMARK    5  A    between atoms: C5_5  and  C7_7 
REMARK    6  A    between atoms: C26_28  and  O3_29 
ROOT
HETATM    1  C7  UNL     1       3.485  56.089  -9.426  1.00  0.00    -0.002 C 
HETATM    2  C8  UNL     1       4.377  55.188 -10.316  1.00  0.00     0.006 C 
HETATM    3  C9  UNL     1       3.432  54.157 -10.967  1.00  0.00     0.010 C 
HETATM    4  C10 UNL     1       2.025  54.611 -10.564  1.00  0.00     0.027 C 
HETATM    5  C11 UNL     1       0.838  53.682 -10.637  1.00  0.00    -0.036 C 
HETATM    6  C12 UNL     1      -0.263  53.895  -9.872  1.00  0.00     0.002 C 
HETATM    7  C13 UNL     1      -0.248  55.047  -8.877  1.00  0.00     0.157 C 
HETATM    8  O1  UNL     1      -1.221  55.274  -8.160  1.00  0.00    -0.293 OA
HETATM    9  C14 UNL     1       0.976  55.944  -8.775  1.00  0.00     0.093 C 
HETATM   10  C15 UNL     1       2.247  55.185  -9.150  1.00  0.00    -0.026 C 
HETATM   11  C16 UNL     1       2.543  54.106  -8.078  1.00  0.00     0.016 C 
HETATM   12  C17 UNL     1      -1.531  53.016  -9.957  1.00  0.00    -0.008 C 
HETATM   13  C18 UNL     1      -1.509  52.105  -8.700  1.00  0.00     0.021 C 
HETATM   14  C19 UNL     1      -2.849  53.857  -9.955  1.00  0.00     0.022 C 
HETATM   15  C20 UNL     1      -4.023  53.265 -10.735  1.00  0.00     0.080 C 
HETATM   16  C21 UNL     1      -3.969  51.761 -10.791  1.00  0.00     0.131 C 
HETATM   17  O2  UNL     1      -4.941  51.069 -10.487  1.00  0.00    -0.298 OA
HETATM   18  C22 UNL     1      -2.686  51.138 -11.319  1.00  0.00     0.056 C 
HETATM   19  C23 UNL     1      -2.956  50.599 -12.724  1.00  0.00     0.018 C 
HETATM   20  C24 UNL     1      -1.534  52.173 -11.284  1.00  0.00     0.012 C 
HETATM   21  C25 UNL     1      -0.169  51.516 -11.531  1.00  0.00     0.042 C 
HETATM   22  C26 UNL     1       0.925  52.576 -11.653  1.00  0.00     0.148 C 
ENDROOT
BRANCH   1  23
HETATM   23  C5  UNL     1       4.139  56.765  -8.190  1.00  0.00    -0.014 C 
HETATM   24  C6  UNL     1       3.199  57.587  -7.309  1.00  0.00     0.010 C 
BRANCH  23  25
HETATM   25  C4  UNL     1       4.988  55.764  -7.362  1.00  0.00     0.009 C 
BRANCH  25  26
HETATM   26  C3  UNL     1       6.506  55.986  -7.285  1.00  0.00     0.034 C 
BRANCH  26  27
HETATM   27  C2  UNL     1       7.170  55.823  -5.931  1.00  0.00    -0.086 C 
HETATM   28  C1  UNL     1       7.710  54.638  -5.587  1.00  0.00     0.014 C 
BRANCH  27  29
HETATM   29  C27 UNL     1       7.332  57.016  -4.990  1.00  0.00     0.005 C 
HETATM   30  C28 UNL     1       8.783  57.321  -4.613  1.00  0.00     0.014 C 
HETATM   31  C29 UNL     1       6.631  58.273  -5.512  1.00  0.00     0.014 C 
ENDBRANCH  27  29
ENDBRANCH  26  27
ENDBRANCH  25  26
ENDBRANCH  23  25
ENDBRANCH   1  23
BRANCH  22  32
HETATM   32  O3  UNL     1       0.843  53.194 -12.933  1.00  0.00    -0.391 OA
HETATM   33  H37 UNL     1       1.096  52.529 -13.595  1.00  0.00     0.210 HD
ENDBRANCH  22  32
TORSDOF 6
ENDMDL
MODEL 2
REMARK minimizedAffinity -7.8336854
REMARK CNNscore 0.597181082
REMARK CNNaffinity 7.2830348
REMARK  6 active torsions:
REMARK  status: ('A' for Active; 'I' for Inactive)
REMARK    1  A    between atoms: C2_2  and  C3_3 
REMARK    2  A    between atoms: C2_2  and  C27_30 
REMARK    3  A    between atoms: C3_3  and  C4_4 
REMARK    4  A    between atoms: C4_4  and  C5_5 
REMARK    5  A    between atoms: C5_5  and  C7_7 
REMARK    6  A    between atoms: C26_28  and  O3_29 
ROOT
HETATM    1  C7  UNL     1      -3.111  49.387 -22.240  1.00  0.00    -0.002 C 
HETATM    2  C8  UNL     1      -4.140  48.237 -22.112  1.00  0.00     0.006 C 
HETATM    3  C9  UNL     1      -4.265  47.938 -20.604  1.00  0.00     0.010 C 
HETATM    4  C10 UNL     1      -3.441  49.035 -19.921  1.00  0.00     0.027 C 
HETATM    5  C11 UNL     1      -2.957  48.897 -18.499  1.00  0.00    -0.036 C 
HETATM    6  C12 UNL     1      -1.879  49.593 -18.057  1.00  0.00     0.002 C 
HETATM    7  C13 UNL     1      -1.114  50.458 -19.048  1.00  0.00     0.157 C 
HETATM    8  O1  UNL     1      -0.127  51.102 -18.694  1.00  0.00    -0.293 OA
HETATM    9  C14 UNL     1      -1.579  50.547 -20.494  1.00  0.00     0.093 C 
HETATM   10  C15 UNL     1      -2.290  49.264 -20.922  1.00  0.00    -0.026 C 
HETATM   11  C16 UNL     1      -1.269  48.100 -20.978  1.00  0.00     0.016 C 
HETATM   12  C17 UNL     1      -1.384  49.541 -16.594  1.00  0.00    -0.008 C 
HETATM   13  C18 UNL     1      -0.114  48.647 -16.599  1.00  0.00     0.021 C 
HETATM   14  C19 UNL     1      -1.011  50.953 -16.034  1.00  0.00     0.022 C 
HETATM   15  C20 UNL     1      -1.229  51.157 -14.535  1.00  0.00     0.080 C 
HETATM   16  C21 UNL     1      -1.106  49.871 -13.760  1.00  0.00     0.131 C 
HETATM   17  O2  UNL     1      -0.384  49.781 -12.768  1.00  0.00    -0.298 OA
HETATM   18  C22 UNL     1      -1.980  48.711 -14.213  1.00  0.00     0.056 C 
HETATM   19  C23 UNL     1      -3.109  48.535 -13.197  1.00  0.00     0.018 C 
HETATM   20  C24 UNL     1      -2.499  48.960 -15.651  1.00  0.00     0.012 C 
HETATM   21  C25 UNL     1      -3.138  47.701 -16.253  1.00  0.00     0.042 C 
HETATM   22  C26 UNL     1      -3.784  48.017 -17.601  1.00  0.00     0.148 C 
ENDROOT
BRANCH   1  23
HETATM   23  C5  UNL     1      -2.294  49.488 -23.558  1.00  0.00    -0.014 C 
HETATM   24  C6  UNL     1      -2.867  48.729 -24.754  1.00  0.00     0.010 C 
BRANCH  23  25
HETATM   25  C4  UNL     1      -1.944  50.957 -23.913  1.00  0.00     0.009 C 
BRANCH  25  26
HETATM   26  C3  UNL     1      -1.391  51.256 -25.315  1.00  0.00     0.034 C 
BRANCH  26  27
HETATM   27  C2  UNL     1       0.078  51.619 -25.426  1.00  0.00    -0.086 C 
HETATM   28  C1  UNL     1       0.670  52.326 -24.446  1.00  0.00     0.014 C 
BRANCH  27  29
HETATM   29  C27 UNL     1       0.925  51.102 -26.589  1.00  0.00     0.005 C 
HETATM   30  C28 UNL     1       0.469  51.598 -27.962  1.00  0.00     0.014 C 
HETATM   31  C29 UNL     1       2.420  51.362 -26.386  1.00  0.00     0.014 C 
ENDBRANCH  27  29
ENDBRANCH  26  27
ENDBRANCH  25  26
ENDBRANCH  23  25
ENDBRANCH   1  23
BRANCH  22  32
HETATM   32  O3  UNL     1      -5.015  48.700 -17.387  1.00  0.00    -0.391 OA
HETATM   33  H37 UNL     1      -5.633  48.068 -16.981  1.00  0.00     0.210 HD
ENDBRANCH  22  32
TORSDOF 6
ENDMDL
MODEL 3
REMARK minimizedAffinity -7.36568737
REMARK CNNscore 0.466341496
REMARK CNNaffinity 6.6914444
REMARK  6 active torsions:
REMARK  status: ('A' for Active; 'I' for Inactive)
REMARK    1  A    between atoms: C2_2  and  C3_3 
REMARK    2  A    between atoms: C2_2  and  C27_30 
REMARK    3  A    between atoms: C3_3  and  C4_4 
REMARK    4  A    between atoms: C4_4  and  C5_5 
REMARK    5  A    between atoms: C5_5  and  C7_7 
REMARK    6  A    between atoms: C26_28  and  O3_29 
ROOT
HETATM    1  C7  UNL     1       3.481  55.751  -9.343  1.00  0.00    -0.002 C 
HETATM    2  C8  UNL     1       4.355  54.879 -10.278  1.00  0.00     0.006 C 
HETATM    3  C9  UNL     1       3.389  53.906 -10.984  1.00  0.00     0.010 C 
HETATM    4  C10 UNL     1       1.991  54.370 -10.562  1.00  0.00     0.027 C 
HETATM    5  C11 UNL     1       0.784  53.473 -10.686  1.00  0.00    -0.036 C 
HETATM    6  C12 UNL     1      -0.315  53.670  -9.914  1.00  0.00     0.002 C 
HETATM    7  C13 UNL     1      -0.277  54.766  -8.859  1.00  0.00     0.157 C 
HETATM    8  O1  UNL     1      -1.246  54.977  -8.132  1.00  0.00    -0.293 OA
HETATM    9  C14 UNL     1       0.968  55.629  -8.705  1.00  0.00     0.093 C 
HETATM   10  C15 UNL     1       2.222  54.862  -9.118  1.00  0.00    -0.026 C 
HETATM   11  C16 UNL     1       2.489  53.721  -8.105  1.00  0.00     0.016 C 
HETATM   12  C17 UNL     1      -1.601  52.826 -10.048  1.00  0.00    -0.008 C 
HETATM   13  C18 UNL     1      -1.605  51.849  -8.841  1.00  0.00     0.021 C 
HETATM   14  C19 UNL     1      -2.900  53.695 -10.004  1.00  0.00     0.022 C 
HETATM   15  C20 UNL     1      -4.084  53.173 -10.817  1.00  0.00     0.080 C 
HETATM   16  C21 UNL     1      -4.065  51.673 -10.953  1.00  0.00     0.131 C 
HETATM   17  O2  UNL     1      -5.053  50.988 -10.689  1.00  0.00    -0.298 OA
HETATM   18  C22 UNL     1      -2.794  51.050 -11.511  1.00  0.00     0.056 C 
HETATM   19  C23 UNL     1      -3.072  50.593 -12.943  1.00  0.00     0.018 C 
HETATM   20  C24 UNL     1      -1.619  52.056 -11.418  1.00  0.00     0.012 C 
HETATM   21  C25 UNL     1      -0.269  51.382 -11.697  1.00  0.00     0.042 C 
HETATM   22  C26 UNL     1       0.849  52.421 -11.760  1.00  0.00     0.148 C 
ENDROOT
BRANCH   1  23
HETATM   23  C5  UNL     1       4.146  56.345  -8.070  1.00  0.00    -0.014 C 
HETATM   24  C6  UNL     1       5.623  56.006  -7.874  1.00  0.00     0.010 C 
BRANCH  23  25
HETATM   25  C4  UNL     1       3.873  57.865  -7.928  1.00  0.00     0.009 C 
BRANCH  25  26
HETATM   26  C3  UNL     1       2.765  58.319  -6.965  1.00  0.00     0.034 C 
BRANCH  26  27
HETATM   27  C2  UNL     1       2.900  57.925  -5.506  1.00  0.00    -0.086 C 
HETATM   28  C1  UNL     1       3.836  58.510  -4.736  1.00  0.00     0.014 C 
BRANCH  27  29
HETATM   29  C27 UNL     1       1.917  56.945  -4.867  1.00  0.00     0.005 C 
HETATM   30  C28 UNL     1       0.499  57.021  -5.439  1.00  0.00     0.014 C 
HETATM   31  C29 UNL     1       2.431  55.503  -4.882  1.00  0.00     0.014 C 
ENDBRANCH  27  29
ENDBRANCH  26  27
ENDBRANCH  25  26
ENDBRANCH  23  25
ENDBRANCH   1  23
BRANCH  22  32
HETATM   32  O3  UNL     1       0.786  53.109 -13.005  1.00  0.00    -0.391 OA
HETATM   33  H37 UNL     1       1.026  52.474 -13.702  1.00  0.00     0.210 HD
ENDBRANCH  22  32
TORSDOF 6
ENDMDL
MODEL 4
REMARK minimizedAffinity -8.28651237
REMARK CNNscore 0.436484635
REMARK CNNaffinity 7.01569176
REMARK  6 active torsions:
REMARK  status: ('A' for Active; 'I' for Inactive)
REMARK    1  A    between atoms: C2_2  and  C3_3 
REMARK    2  A    between atoms: C2_2  and  C27_30 
REMARK    3  A    between atoms: C3_3  and  C4_4 
REMARK    4  A    between atoms: C4_4  and  C5_5 
REMARK    5  A    between atoms: C5_5  and  C7_7 
REMARK    6  A    between atoms: C26_28  and  O3_29 
ROOT
HETATM    1  C7  UNL     1      -2.022  51.174 -20.637  1.00  0.00    -0.002 C 
HETATM    2  C8  UNL     1      -3.386  50.475 -20.417  1.00  0.00     0.006 C 
HETATM    3  C9  UNL     1      -3.537  50.301 -18.891  1.00  0.00     0.010 C 
HETATM    4  C10 UNL     1      -2.346  51.057 -18.294  1.00  0.00     0.027 C 
HETATM    5  C11 UNL     1      -1.877  50.812 -16.881  1.00  0.00    -0.036 C 
HETATM    6  C12 UNL     1      -0.601  51.093 -16.510  1.00  0.00     0.002 C 
HETATM    7  C13 UNL     1       0.374  51.587 -17.570  1.00  0.00     0.157 C 
HETATM    8  O1  UNL     1       1.540  51.849 -17.281  1.00  0.00    -0.293 OA
HETATM    9  C14 UNL     1      -0.098  51.778 -19.004  1.00  0.00     0.093 C 
HETATM   10  C15 UNL     1      -1.238  50.819 -19.340  1.00  0.00    -0.026 C 
HETATM   11  C16 UNL     1      -0.702  49.365 -19.363  1.00  0.00     0.016 C 
HETATM   12  C17 UNL     1      -0.089  50.927 -15.062  1.00  0.00    -0.008 C 
HETATM   13  C18 UNL     1       0.778  49.638 -15.057  1.00  0.00     0.021 C 
HETATM   14  C19 UNL     1       0.788  52.132 -14.591  1.00  0.00     0.022 C 
HETATM   15  C20 UNL     1       0.729  52.462 -13.099  1.00  0.00     0.080 C 
HETATM   16  C21 UNL     1       0.422  51.249 -12.260  1.00  0.00     0.131 C 
HETATM   17  O2  UNL     1       1.111  50.947 -11.286  1.00  0.00    -0.298 OA
HETATM   18  C22 UNL     1      -0.828  50.461 -12.623  1.00  0.00     0.056 C 
HETATM   19  C23 UNL     1      -1.896  50.741 -11.566  1.00  0.00     0.018 C 
HETATM   20  C24 UNL     1      -1.292  50.821 -14.056  1.00  0.00     0.012 C 
HETATM   21  C25 UNL     1      -2.365  49.851 -14.569  1.00  0.00     0.042 C 
HETATM   22  C26 UNL     1      -2.919  50.323 -15.913  1.00  0.00     0.148 C 
ENDROOT
BRANCH   1  23
HETATM   23  C5  UNL     1      -1.286  50.923 -21.983  1.00  0.00    -0.014 C 
HETATM   24  C6  UNL     1      -1.948  49.919 -22.924  1.00  0.00     0.010 C 
BRANCH  23  25
HETATM   25  C4  UNL     1      -0.927  52.249 -22.704  1.00  0.00     0.009 C 
BRANCH  25  26
HETATM   26  C3  UNL     1       0.442  52.355 -23.394  1.00  0.00     0.034 C 
BRANCH  26  27
HETATM   27  C2  UNL     1       0.454  52.581 -24.894  1.00  0.00    -0.086 C 
HETATM   28  C1  UNL     1       0.311  53.826 -25.386  1.00  0.00     0.014 C 
BRANCH  27  29
HETATM   29  C27 UNL     1       0.734  51.427 -25.857  1.00  0.00     0.005 C 
HETATM   30  C28 UNL     1      -0.524  50.718 -26.363  1.00  0.00     0.014 C 
HETATM   31  C29 UNL     1       1.631  51.843 -27.025  1.00  0.00     0.014 C 
ENDBRANCH  27  29
ENDBRANCH  26  27
ENDBRANCH  25  26
ENDBRANCH  23  25
ENDBRANCH   1  23
BRANCH  22  32
HETATM   32  O3  UNL     1      -3.815  51.409 -15.699  1.00  0.00    -0.391 OA
HETATM   33  H37 UNL     1      -4.597  51.057 -15.242  1.00  0.00     0.210 HD
ENDBRANCH  22  32
TORSDOF 6
ENDMDL
MODEL 5
REMARK minimizedAffinity -9.36960793
REMARK CNNscore 0.386840105
REMARK CNNaffinity 6.99185514
REMARK  6 active torsions:
REMARK  status: ('A' for Active; 'I' for Inactive)
REMARK    1  A    between atoms: C2_2  and  C3_3 
REMARK    2  A    between atoms: C2_2  and  C27_30 
REMARK    3  A    between atoms: C3_3  and  C4_4 
REMARK    4  A    between atoms: C4_4  and  C5_5 
REMARK    5  A    between atoms: C5_5  and  C7_7 
REMARK    6  A    between atoms: C26_28  and  O3_29 
ROOT
HETATM    1  C7  UNL     1      -0.032  51.900 -21.405  1.00  0.00    -0.002 C 
HETATM    2  C8  UNL     1       0.495  53.333 -21.147  1.00  0.00     0.006 C 
HETATM    3  C9  UNL     1       0.918  53.375 -19.664  1.00  0.00     0.010 C 
HETATM    4  C10 UNL     1       0.781  51.927 -19.181  1.00  0.00     0.027 C 
HETATM    5  C11 UNL     1       0.701  51.584 -17.714  1.00  0.00    -0.036 C 
HETATM    6  C12 UNL     1       0.123  50.428 -17.298  1.00  0.00     0.002 C 
HETATM    7  C13 UNL     1      -0.515  49.517 -18.337  1.00  0.00     0.157 C 
HETATM    8  O1  UNL     1      -1.055  48.463 -18.006  1.00  0.00    -0.293 OA
HETATM    9  C14 UNL     1      -0.476  49.902 -19.809  1.00  0.00     0.093 C 
HETATM   10  C15 UNL     1      -0.435  51.419 -19.980  1.00  0.00    -0.026 C 
HETATM   11  C16 UNL     1      -1.784  52.028 -19.520  1.00  0.00     0.016 C 
HETATM   12  C17 UNL     1       0.075  49.995 -15.816  1.00  0.00    -0.008 C 
HETATM   13  C18 UNL     1      -1.381  50.250 -15.339  1.00  0.00     0.021 C 
HETATM   14  C19 UNL     1       0.419  48.483 -15.618  1.00  0.00     0.022 C 
HETATM   15  C20 UNL     1       1.108  48.119 -14.302  1.00  0.00     0.080 C 
HETATM   16  C21 UNL     1       0.744  49.065 -13.188  1.00  0.00     0.131 C 
HETATM   17  O2  UNL     1       0.349  48.656 -12.097  1.00  0.00    -0.298 OA
HETATM   18  C22 UNL     1       0.966  50.548 -13.446  1.00  0.00     0.056 C 
HETATM   19  C23 UNL     1       2.188  50.997 -12.644  1.00  0.00     0.018 C 
HETATM   20  C24 UNL     1       1.115  50.811 -14.965  1.00  0.00     0.012 C 
HETATM   21  C25 UNL     1       1.052  52.309 -15.294  1.00  0.00     0.042 C 
HETATM   22  C26 UNL     1       1.363  52.550 -16.770  1.00  0.00     0.148 C 
ENDROOT
BRANCH   1  23
HETATM   23  C5  UNL     1      -1.089  51.705 -22.527  1.00  0.00    -0.014 C 
HETATM   24  C6  UNL     1      -2.547  51.861 -22.099  1.00  0.00     0.010 C 
BRANCH  23  25
HETATM   25  C4  UNL     1      -0.759  52.546 -23.788  1.00  0.00     0.009 C 
BRANCH  25  26
HETATM   26  C3  UNL     1       0.415  52.100 -24.674  1.00  0.00     0.034 C 
BRANCH  26  27
HETATM   27  C2  UNL     1       0.093  51.252 -25.890  1.00  0.00    -0.086 C 
HETATM   28  C1  UNL     1      -1.118  50.676 -26.005  1.00  0.00     0.014 C 
BRANCH  27  29
HETATM   29  C27 UNL     1       1.090  51.128 -27.043  1.00  0.00     0.005 C 
HETATM   30  C28 UNL     1       0.674  51.879 -28.310  1.00  0.00     0.014 C 
HETATM   31  C29 UNL     1       2.514  51.505 -26.630  1.00  0.00     0.014 C 
ENDBRANCH  27  29
ENDBRANCH  26  27
ENDBRANCH  25  26
ENDBRANCH  23  25
ENDBRANCH   1  23
BRANCH  22  32
HETATM   32  O3  UNL     1       2.765  52.428 -16.984  1.00  0.00    -0.391 OA
HETATM   33  H37 UNL     1       3.195  53.176 -16.535  1.00  0.00     0.210 HD
ENDBRANCH  22  32
TORSDOF 6
ENDMDL
MODEL 6
REMARK minimizedAffinity -9.32436848
REMARK CNNscore 0.354314327
REMARK CNNaffinity 6.20312834
REMARK  6 active torsions:
REMARK  status: ('A' for Active; 'I' for Inactive)
REMARK    1  A    between atoms: C2_2  and  C3_3 
REMARK    2  A    between atoms: C2_2  and  C27_30 
REMARK    3  A    between atoms: C3_3  and  C4_4 
REMARK    4  A    between atoms: C4_4  and  C5_5 
REMARK    5  A    between atoms: C5_5  and  C7_7 
REMARK    6  A    between atoms: C26_28  and  O3_29 
ROOT
HETATM    1  C7  UNL     1      -0.929  51.058 -15.868  1.00  0.00    -0.002 C 
HETATM    2  C8  UNL     1       0.550  51.504 -15.758  1.00  0.00     0.006 C 
HETATM    3  C9  UNL     1       0.967  51.961 -17.171  1.00  0.00     0.010 C 
HETATM    4  C10 UNL     1      -0.328  51.924 -17.989  1.00  0.00     0.027 C 
HETATM    5  C11 UNL     1      -0.314  51.901 -19.498  1.00  0.00    -0.036 C 
HETATM    6  C12 UNL     1      -1.366  51.405 -20.198  1.00  0.00     0.002 C 
HETATM    7  C13 UNL     1      -2.531  50.797 -19.430  1.00  0.00     0.157 C 
HETATM    8  O1  UNL     1      -3.502  50.330 -20.023  1.00  0.00    -0.293 OA
HETATM    9  C14 UNL     1      -2.508  50.776 -17.909  1.00  0.00     0.093 C 
HETATM   10  C15 UNL     1      -1.076  50.720 -17.381  1.00  0.00    -0.026 C 
HETATM   11  C16 UNL     1      -0.446  49.350 -17.736  1.00  0.00     0.016 C 
HETATM   12  C17 UNL     1      -1.433  51.421 -21.742  1.00  0.00    -0.008 C 
HETATM   13  C18 UNL     1      -1.148  49.965 -22.201  1.00  0.00     0.021 C 
HETATM   14  C19 UNL     1      -2.834  51.860 -22.280  1.00  0.00     0.022 C 
HETATM   15  C20 UNL     1      -2.836  52.603 -23.616  1.00  0.00     0.080 C 
HETATM   16  C21 UNL     1      -1.671  52.211 -24.487  1.00  0.00     0.131 C 
HETATM   17  O2  UNL     1      -1.827  51.869 -25.659  1.00  0.00    -0.298 OA
HETATM   18  C22 UNL     1      -0.283  52.337 -23.876  1.00  0.00     0.056 C 
HETATM   19  C23 UNL     1       0.408  53.549 -24.500  1.00  0.00     0.018 C 
HETATM   20  C24 UNL     1      -0.384  52.431 -22.333  1.00  0.00     0.012 C 
HETATM   21  C25 UNL     1       0.986  52.269 -21.661  1.00  0.00     0.042 C 
HETATM   22  C26 UNL     1       0.884  52.528 -20.159  1.00  0.00     0.148 C 
ENDROOT
BRANCH   1  23
HETATM   23  C5  UNL     1      -1.442  49.987 -14.866  1.00  0.00    -0.014 C 
HETATM   24  C6  UNL     1      -0.423  49.499 -13.838  1.00  0.00     0.010 C 
BRANCH  23  25
HETATM   25  C4  UNL     1      -2.783  50.404 -14.207  1.00  0.00     0.009 C 
BRANCH  25  26
HETATM   26  C3  UNL     1      -2.986  51.883 -13.843  1.00  0.00     0.034 C 
BRANCH  26  27
HETATM   27  C2  UNL     1      -2.786  52.282 -12.393  1.00  0.00    -0.086 C 
HETATM   28  C1  UNL     1      -1.543  52.475 -11.916  1.00  0.00     0.014 C 
BRANCH  27  29
HETATM   29  C27 UNL     1      -3.985  52.572 -11.490  1.00  0.00     0.005 C 
HETATM   30  C28 UNL     1      -4.390  51.399 -10.594  1.00  0.00     0.014 C 
HETATM   31  C29 UNL     1      -3.801  53.848 -10.664  1.00  0.00     0.014 C 
ENDBRANCH  27  29
ENDBRANCH  26  27
ENDBRANCH  25  26
ENDBRANCH  23  25
ENDBRANCH   1  23
BRANCH  22  32
HETATM   32  O3  UNL     1       0.788  53.929 -19.926  1.00  0.00    -0.391 OA
HETATM   33  H37 UNL     1       1.643  54.324 -20.167  1.00  0.00     0.210 HD
ENDBRANCH  22  32
TORSDOF 6
ENDMDL
MODEL 7
REMARK minimizedAffinity -8.30382919
REMARK CNNscore 0.304784536
REMARK CNNaffinity 5.46043348
REMARK  6 active torsions:
REMARK  status: ('A' for Active; 'I' for Inactive)
REMARK    1  A    between atoms: C2_2  and  C3_3 
REMARK    2  A    between atoms: C2_2  and  C27_30 
REMARK    3  A    between atoms: C3_3  and  C4_4 
REMARK    4  A    between atoms: C4_4  and  C5_5 
REMARK    5  A    between atoms: C5_5  and  C7_7 
REMARK    6  A    between atoms: C26_28  and  O3_29 
ROOT
HETATM    1  C7  UNL     1       4.698  65.642 -36.049  1.00  0.00    -0.002 C 
HETATM    2  C8  UNL     1       3.392  65.341 -35.273  1.00  0.00     0.006 C 
HETATM    3  C9  UNL     1       2.243  65.909 -36.131  1.00  0.00     0.010 C 
HETATM    4  C10 UNL     1       2.914  66.354 -37.434  1.00  0.00     0.027 C 
HETATM    5  C11 UNL     1       2.249  67.324 -38.380  1.00  0.00    -0.036 C 
HETATM    6  C12 UNL     1       2.982  68.067 -39.248  1.00  0.00     0.002 C 
HETATM    7  C13 UNL     1       4.500  67.965 -39.193  1.00  0.00     0.157 C 
HETATM    8  O1  UNL     1       5.205  68.624 -39.955  1.00  0.00    -0.293 OA
HETATM    9  C14 UNL     1       5.161  67.024 -38.197  1.00  0.00     0.093 C 
HETATM   10  C15 UNL     1       4.295  66.845 -36.952  1.00  0.00    -0.026 C 
HETATM   11  C16 UNL     1       4.243  68.176 -36.160  1.00  0.00     0.016 C 
HETATM   12  C17 UNL     1       2.349  69.022 -40.283  1.00  0.00    -0.008 C 
HETATM   13  C18 UNL     1       2.559  70.459 -39.732  1.00  0.00     0.021 C 
HETATM   14  C19 UNL     1       3.019  68.914 -41.692  1.00  0.00     0.022 C 
HETATM   15  C20 UNL     1       2.107  69.182 -42.890  1.00  0.00     0.080 C 
HETATM   16  C21 UNL     1       0.981  70.123 -42.550  1.00  0.00     0.131 C 
HETATM   17  O2  UNL     1       0.737  71.114 -43.238  1.00  0.00    -0.298 OA
HETATM   18  C22 UNL     1       0.107  69.747 -41.362  1.00  0.00     0.056 C 
HETATM   19  C23 UNL     1      -1.240  69.257 -41.894  1.00  0.00     0.018 C 
HETATM   20  C24 UNL     1       0.824  68.694 -40.481  1.00  0.00     0.012 C 
HETATM   21  C25 UNL     1       0.116  68.502 -39.133  1.00  0.00     0.042 C 
HETATM   22  C26 UNL     1       0.745  67.348 -38.354  1.00  0.00     0.148 C 
ENDROOT
BRANCH   1  23
HETATM   23  C5  UNL     1       6.010  65.799 -35.231  1.00  0.00    -0.014 C 
HETATM   24  C6  UNL     1       5.832  66.137 -33.751  1.00  0.00     0.010 C 
BRANCH  23  25
HETATM   25  C4  UNL     1       6.975  64.603 -35.444  1.00  0.00     0.009 C 
BRANCH  25  26
HETATM   26  C3  UNL     1       7.235  63.658 -34.262  1.00  0.00     0.034 C 
BRANCH  26  27
HETATM   27  C2  UNL     1       6.725  62.234 -34.378  1.00  0.00    -0.086 C 
HETATM   28  C1  UNL     1       5.406  62.003 -34.520  1.00  0.00     0.014 C 
BRANCH  27  29
HETATM   29  C27 UNL     1       7.698  61.057 -34.443  1.00  0.00     0.005 C 
HETATM   30  C28 UNL     1       7.060  59.744 -34.904  1.00  0.00     0.014 C 
HETATM   31  C29 UNL     1       8.947  61.374 -35.269  1.00  0.00     0.014 C 
ENDBRANCH  27  29
ENDBRANCH  26  27
ENDBRANCH  25  26
ENDBRANCH  23  25
ENDBRANCH   1  23
BRANCH  22  32
HETATM   32  O3  UNL     1       0.311  66.110 -38.910  1.00  0.00    -0.391 OA
HETATM   33  H37 UNL     1      -0.639  66.022 -38.719  1.00  0.00     0.210 HD
ENDBRANCH  22  32
TORSDOF 6
ENDMDL
MODEL 8
REMARK minimizedAffinity -7.49429083
REMARK CNNscore 0.286545694
REMARK CNNaffinity 6.60697699
REMARK  6 active torsions:
REMARK  status: ('A' for Active; 'I' for Inactive)
REMARK    1  A    between atoms: C2_2  and  C3_3 
REMARK    2  A    between atoms: C2_2  and  C27_30 
REMARK    3  A    between atoms: C3_3  and  C4_4 
REMARK    4  A    between atoms: C4_4  and  C5_5 
REMARK    5  A    between atoms: C5_5  and  C7_7 
REMARK    6  A    between atoms: C26_28  and  O3_29 
ROOT
HETATM    1  C7  UNL     1      -0.750  51.099 -14.012  1.00  0.00    -0.002 C 
HETATM    2  C8  UNL     1      -2.232  51.238 -13.586  1.00  0.00     0.006 C 
HETATM    3  C9  UNL     1      -2.247  52.228 -12.402  1.00  0.00     0.010 C 
HETATM    4  C10 UNL     1      -0.807  52.746 -12.312  1.00  0.00     0.027 C 
HETATM    5  C11 UNL     1      -0.280  53.413 -11.065  1.00  0.00    -0.036 C 
HETATM    6  C12 UNL     1       1.051  53.441 -10.798  1.00  0.00     0.002 C 
HETATM    7  C13 UNL     1       1.999  52.715 -11.742  1.00  0.00     0.157 C 
HETATM    8  O1  UNL     1       3.212  52.708 -11.536  1.00  0.00    -0.293 OA
HETATM    9  C14 UNL     1       1.449  51.999 -12.967  1.00  0.00     0.093 C 
HETATM   10  C15 UNL     1       0.021  51.513 -12.725  1.00  0.00    -0.026 C 
HETATM   11  C16 UNL     1       0.031  50.384 -11.664  1.00  0.00     0.016 C 
HETATM   12  C17 UNL     1       1.649  54.168  -9.573  1.00  0.00    -0.008 C 
HETATM   13  C18 UNL     1       2.027  53.059  -8.554  1.00  0.00     0.021 C 
HETATM   14  C19 UNL     1       2.930  54.992  -9.928  1.00  0.00     0.022 C 
HETATM   15  C20 UNL     1       3.166  56.255  -9.099  1.00  0.00     0.080 C 
HETATM   16  C21 UNL     1       2.574  56.149  -7.719  1.00  0.00     0.131 C 
HETATM   17  O2  UNL     1       3.234  56.404  -6.712  1.00  0.00    -0.298 OA
HETATM   18  C22 UNL     1       1.098  55.790  -7.629  1.00  0.00     0.056 C 
HETATM   19  C23 UNL     1       0.322  57.046  -7.231  1.00  0.00     0.018 C 
HETATM   20  C24 UNL     1       0.612  55.183  -8.968  1.00  0.00     0.012 C 
HETATM   21  C25 UNL     1      -0.778  54.546  -8.835  1.00  0.00     0.042 C 
HETATM   22  C26 UNL     1      -1.300  54.101 -10.200  1.00  0.00     0.148 C 
ENDROOT
BRANCH   1  23
HETATM   23  C5  UNL     1      -0.309  49.771 -14.687  1.00  0.00    -0.014 C 
HETATM   24  C6  UNL     1      -1.436  48.801 -15.040  1.00  0.00     0.010 C 
BRANCH  23  25
HETATM   25  C4  UNL     1       0.646  50.016 -15.885  1.00  0.00     0.009 C 
BRANCH  25  26
HETATM   26  C3  UNL     1       0.070  50.664 -17.154  1.00  0.00     0.034 C 
BRANCH  26  27
HETATM   27  C2  UNL     1       0.661  51.991 -17.592  1.00  0.00    -0.086 C 
HETATM   28  C1  UNL     1       1.720  52.503 -16.939  1.00  0.00     0.014 C 
BRANCH  27  29
HETATM   29  C27 UNL     1       0.136  52.707 -18.837  1.00  0.00     0.005 C 
HETATM   30  C28 UNL     1       1.234  53.274 -19.740  1.00  0.00     0.014 C 
HETATM   31  C29 UNL     1      -0.838  51.844 -19.643  1.00  0.00     0.014 C 
ENDBRANCH  27  29
ENDBRANCH  26  27
ENDBRANCH  25  26
ENDBRANCH  23  25
ENDBRANCH   1  23
BRANCH  22  32
HETATM   32  O3  UNL     1      -1.747  55.240 -10.929  1.00  0.00    -0.391 OA
HETATM   33  H37 UNL     1      -2.540  55.581 -10.481  1.00  0.00     0.210 HD
ENDBRANCH  22  32
TORSDOF 6
ENDMDL
MODEL 9
REMARK minimizedAffinity -7.19451523
REMARK CNNscore 0.282810748
REMARK CNNaffinity 6.32668495
REMARK  6 active torsions:
REMARK  status: ('A' for Active; 'I' for Inactive)
REMARK    1  A    between atoms: C2_2  and  C3_3 
REMARK    2  A    between atoms: C2_2  and  C27_30 
REMARK    3  A    between atoms: C3_3  and  C4_4 
REMARK    4  A    between atoms: C4_4  and  C5_5 
REMARK    5  A    between atoms: C5_5  and  C7_7 
REMARK    6  A    between atoms: C26_28  and  O3_29 
ROOT
HETATM    1  C7  UNL     1      -5.810  49.166 -23.532  1.00  0.00    -0.002 C 
HETATM    2  C8  UNL     1      -4.468  48.788 -24.206  1.00  0.00     0.006 C 
HETATM    3  C9  UNL     1      -4.829  48.229 -25.598  1.00  0.00     0.010 C 
HETATM    4  C10 UNL     1      -6.337  48.470 -25.734  1.00  0.00     0.027 C 
HETATM    5  C11 UNL     1      -7.172  47.726 -26.747  1.00  0.00    -0.036 C 
HETATM    6  C12 UNL     1      -8.509  47.571 -26.571  1.00  0.00     0.002 C 
HETATM    7  C13 UNL     1      -9.140  48.092 -25.288  1.00  0.00     0.157 C 
HETATM    8  O1  UNL     1     -10.346  47.968 -25.082  1.00  0.00    -0.293 OA
HETATM    9  C14 UNL     1      -8.277  48.792 -24.248  1.00  0.00     0.093 C 
HETATM   10  C15 UNL     1      -6.840  48.276 -24.289  1.00  0.00    -0.026 C 
HETATM   11  C16 UNL     1      -6.803  46.804 -23.807  1.00  0.00     0.016 C 
HETATM   12  C17 UNL     1      -9.421  46.880 -27.608  1.00  0.00    -0.008 C 
HETATM   13  C18 UNL     1      -9.738  45.472 -27.035  1.00  0.00     0.021 C 
HETATM   14  C19 UNL     1     -10.762  47.649 -27.840  1.00  0.00     0.022 C 
HETATM   15  C20 UNL     1     -11.361  47.545 -29.242  1.00  0.00     0.080 C 
HETATM   16  C21 UNL     1     -10.987  46.257 -29.927  1.00  0.00     0.131 C 
HETATM   17  O2  UNL     1     -11.835  45.531 -30.447  1.00  0.00    -0.298 OA
HETATM   18  C22 UNL     1      -9.503  45.934 -30.020  1.00  0.00     0.056 C 
HETATM   19  C23 UNL     1      -9.053  46.154 -31.464  1.00  0.00     0.018 C 
HETATM   20  C24 UNL     1      -8.704  46.789 -29.005  1.00  0.00     0.012 C 
HETATM   21  C25 UNL     1      -7.258  46.298 -28.858  1.00  0.00     0.042 C 
HETATM   22  C26 UNL     1      -6.451  47.252 -27.980  1.00  0.00     0.148 C 
ENDROOT
BRANCH   1  23
HETATM   23  C5  UNL     1      -5.878  49.136 -21.980  1.00  0.00    -0.014 C 
HETATM   24  C6  UNL     1      -7.282  49.108 -21.378  1.00  0.00     0.010 C 
BRANCH  23  25
HETATM   25  C4  UNL     1      -4.963  48.036 -21.380  1.00  0.00     0.009 C 
BRANCH  25  26
HETATM   26  C3  UNL     1      -3.755  48.474 -20.537  1.00  0.00     0.034 C 
BRANCH  26  27
HETATM   27  C2  UNL     1      -2.400  48.504 -21.218  1.00  0.00    -0.086 C 
HETATM   28  C1  UNL     1      -1.905  47.384 -21.777  1.00  0.00     0.014 C 
BRANCH  27  29
HETATM   29  C27 UNL     1      -1.632  49.817 -21.372  1.00  0.00     0.005 C 
HETATM   30  C28 UNL     1      -0.284  49.839 -20.648  1.00  0.00     0.014 C 
HETATM   31  C29 UNL     1      -1.468  50.232 -22.836  1.00  0.00     0.014 C 
ENDBRANCH  27  29
ENDBRANCH  26  27
ENDBRANCH  25  26
ENDBRANCH  23  25
ENDBRANCH   1  23
BRANCH  22  32
HETATM   32  O3  UNL     1      -6.119  48.417 -28.728  1.00  0.00    -0.391 OA
HETATM   33  H37 UNL     1      -5.486  48.151 -29.416  1.00  0.00     0.210 HD
ENDBRANCH  22  32
TORSDOF 6
ENDMDL
