MODEL 1
REMARK minimizedAffinity -7.62801743
REMARK CNNscore 0.531896949
REMARK CNNaffinity 6.59112978
REMARK  8 active torsions:
REMARK  status: ('A' for Active; 'I' for Inactive)
REMARK    1  A    between atoms: C4_4  and  C5_5 
REMARK    2  A    between atoms: C5_5  and  C6_6 
REMARK    3  A    between atoms: C6_6  and  C7_7 
REMARK    4  A    between atoms: C7_7  and  C9_9 
REMARK    5  A    between atoms: C25_26  and  C27_28 
REMARK    6  A    between atoms: C27_28  and  O3_30 
REMARK    7  A    between atoms: C28_31  and  O4_32 
REMARK    8  A    between atoms: C30_34  and  O5_35 
ROOT
HETATM    1  C9  UNL     1     -10.442   7.768  15.133  1.00  0.00    -0.002 C 
HETATM    2  C10 UNL     1      -9.954   9.185  14.724  1.00  0.00     0.007 C 
HETATM    3  C11 UNL     1     -11.177   9.944  14.166  1.00  0.00     0.015 C 
HETATM    4  C12 UNL     1     -12.399   9.077  14.541  1.00  0.00    -0.005 C 
HETATM    5  C13 UNL     1     -12.784   9.450  16.007  1.00  0.00     0.021 C 
HETATM    6  C14 UNL     1     -13.709   9.194  13.772  1.00  0.00    -0.000 C 
HETATM    7  C15 UNL     1     -14.555   8.136  13.645  1.00  0.00    -0.058 C 
HETATM    8  C16 UNL     1     -14.160   6.749  14.178  1.00  0.00     0.036 C 
HETATM    9  C17 UNL     1     -12.789   6.614  14.867  1.00  0.00     0.015 C 
HETATM   10  C18 UNL     1     -11.778   7.632  14.341  1.00  0.00    -0.028 C 
HETATM   11  C19 UNL     1     -11.509   7.304  12.840  1.00  0.00     0.016 C 
HETATM   12  C20 UNL     1     -15.940   8.221  12.912  1.00  0.00     0.011 C 
HETATM   13  C21 UNL     1     -15.665   7.622  11.510  1.00  0.00     0.023 C 
HETATM   14  C22 UNL     1     -16.401   9.714  12.859  1.00  0.00     0.029 C 
HETATM   15  C23 UNL     1     -15.301  10.639  12.336  1.00  0.00     0.090 C 
HETATM   16  C24 UNL     1     -14.069  10.530  13.199  1.00  0.00     0.157 C 
HETATM   17  O1  UNL     1     -13.366  11.521  13.388  1.00  0.00    -0.293 OA
HETATM   18  C25 UNL     1     -17.823   9.991  12.242  1.00  0.00     0.072 C 
HETATM   19  C26 UNL     1     -18.415  11.198  13.039  1.00  0.00     0.030 C 
HETATM   20  C28 UNL     1     -18.800   8.798  12.444  1.00  0.00     0.139 C 
HETATM   21  C29 UNL     1     -18.470   8.004  13.701  1.00  0.00     0.065 C 
HETATM   22  C30 UNL     1     -17.043   7.422  13.710  1.00  0.00     0.133 C 
ENDROOT
BRANCH   1  23
HETATM   23  C7  UNL     1      -9.297   6.710  15.126  1.00  0.00    -0.014 C 
HETATM   24  C8  UNL     1      -8.288   6.802  16.280  1.00  0.00     0.010 C 
BRANCH  23  25
HETATM   25  C6  UNL     1      -8.510   6.594  13.795  1.00  0.00     0.008 C 
BRANCH  25  26
HETATM   26  C5  UNL     1      -8.402   5.176  13.208  1.00  0.00     0.028 C 
BRANCH  26  27
HETATM   27  C4  UNL     1      -7.007   4.782  12.803  1.00  0.00    -0.025 C 
HETATM   28  C2  UNL     1      -6.534   3.550  12.526  1.00  0.00    -0.091 C 
HETATM   29  C1  UNL     1      -7.338   2.280  12.595  1.00  0.00     0.042 C 
HETATM   30  C3  UNL     1      -5.094   3.350  12.115  1.00  0.00     0.042 C 
ENDBRANCH  26  27
ENDBRANCH  25  26
ENDBRANCH  23  25
ENDBRANCH   1  23
BRANCH  22  31
HETATM   31  O5  UNL     1     -17.116   6.059  13.281  1.00  0.00    -0.394 OA
HETATM   32  H46 UNL     1     -17.471   6.065  12.372  1.00  0.00     0.210 HD
ENDBRANCH  22  31
BRANCH  18  33
HETATM   33  C27 UNL     1     -17.851  10.428  10.774  1.00  0.00     0.151 C 
HETATM   34  O2  UNL     1     -17.613   9.714   9.809  1.00  0.00    -0.649 OA
BRANCH  33  35
HETATM   35  O3  UNL     1     -18.145  11.723  10.583  1.00  0.00    -0.776 OA
HETATM   36  H40 UNL     1     -18.066  11.841   9.611  1.00  0.00     0.167 HD
ENDBRANCH  33  35
ENDBRANCH  18  33
BRANCH  20  37
HETATM   37  O4  UNL     1     -18.828   7.870  11.356  1.00  0.00    -0.394 OA
HETATM   38  H42 UNL     1     -19.675   7.395  11.428  1.00  0.00     0.210 HD
ENDBRANCH  20  37
TORSDOF 8
ENDMDL
MODEL 2
REMARK minimizedAffinity -7.02934122
REMARK CNNscore 0.521547973
REMARK CNNaffinity 5.94920349
REMARK  8 active torsions:
REMARK  status: ('A' for Active; 'I' for Inactive)
REMARK    1  A    between atoms: C4_4  and  C5_5 
REMARK    2  A    between atoms: C5_5  and  C6_6 
REMARK    3  A    between atoms: C6_6  and  C7_7 
REMARK    4  A    between atoms: C7_7  and  C9_9 
REMARK    5  A    between atoms: C25_26  and  C27_28 
REMARK    6  A    between atoms: C27_28  and  O3_30 
REMARK    7  A    between atoms: C28_31  and  O4_32 
REMARK    8  A    between atoms: C30_34  and  O5_35 
ROOT
HETATM    1  C9  UNL     1     -17.618   3.391  14.178  1.00  0.00    -0.002 C 
HETATM    2  C10 UNL     1     -17.641   3.301  15.730  1.00  0.00     0.007 C 
HETATM    3  C11 UNL     1     -16.965   1.968  16.118  1.00  0.00     0.015 C 
HETATM    4  C12 UNL     1     -16.296   1.459  14.822  1.00  0.00    -0.005 C 
HETATM    5  C13 UNL     1     -14.913   2.177  14.717  1.00  0.00     0.021 C 
HETATM    6  C14 UNL     1     -15.963  -0.016  14.638  1.00  0.00    -0.000 C 
HETATM    7  C15 UNL     1     -15.942  -0.592  13.406  1.00  0.00    -0.058 C 
HETATM    8  C16 UNL     1     -16.370   0.206  12.162  1.00  0.00     0.036 C 
HETATM    9  C17 UNL     1     -16.802   1.669  12.367  1.00  0.00     0.015 C 
HETATM   10  C18 UNL     1     -17.385   1.908  13.760  1.00  0.00    -0.028 C 
HETATM   11  C19 UNL     1     -18.701   1.079  13.874  1.00  0.00     0.016 C 
HETATM   12  C20 UNL     1     -15.551  -2.091  13.159  1.00  0.00     0.011 C 
HETATM   13  C21 UNL     1     -16.911  -2.818  13.006  1.00  0.00     0.023 C 
HETATM   14  C22 UNL     1     -14.715  -2.609  14.374  1.00  0.00     0.029 C 
HETATM   15  C23 UNL     1     -15.386  -2.296  15.712  1.00  0.00     0.090 C 
HETATM   16  C24 UNL     1     -15.604  -0.811  15.856  1.00  0.00     0.157 C 
HETATM   17  O1  UNL     1     -15.521  -0.286  16.965  1.00  0.00    -0.293 OA
HETATM   18  C25 UNL     1     -14.146  -4.074  14.265  1.00  0.00     0.072 C 
HETATM   19  C26 UNL     1     -12.763  -4.057  14.993  1.00  0.00     0.030 C 
HETATM   20  C28 UNL     1     -13.874  -4.497  12.794  1.00  0.00     0.139 C 
HETATM   21  C29 UNL     1     -13.535  -3.299  11.915  1.00  0.00     0.065 C 
HETATM   22  C30 UNL     1     -14.640  -2.226  11.877  1.00  0.00     0.133 C 
ENDROOT
BRANCH   1  23
HETATM   23  C7  UNL     1     -18.747   4.305  13.612  1.00  0.00    -0.014 C 
HETATM   24  C8  UNL     1     -19.739   3.632  12.652  1.00  0.00     0.010 C 
BRANCH  23  25
HETATM   25  C6  UNL     1     -18.267   5.632  12.970  1.00  0.00     0.008 C 
BRANCH  25  26
HETATM   26  C5  UNL     1     -17.573   6.619  13.924  1.00  0.00     0.028 C 
BRANCH  26  27
HETATM   27  C4  UNL     1     -16.193   6.197  14.351  1.00  0.00    -0.025 C 
HETATM   28  C2  UNL     1     -15.018   6.429  13.732  1.00  0.00    -0.091 C 
HETATM   29  C1  UNL     1     -14.859   7.167  12.431  1.00  0.00     0.042 C 
HETATM   30  C3  UNL     1     -13.721   5.937  14.328  1.00  0.00     0.042 C 
ENDBRANCH  26  27
ENDBRANCH  25  26
ENDBRANCH  23  25
ENDBRANCH   1  23
BRANCH  22  31
HETATM   31  O5  UNL     1     -15.423  -2.436  10.698  1.00  0.00    -0.394 OA
HETATM   32  H46 UNL     1     -15.820  -3.325  10.774  1.00  0.00     0.210 HD
ENDBRANCH  22  31
BRANCH  18  33
HETATM   33  C27 UNL     1     -14.956  -5.168  14.968  1.00  0.00     0.151 C 
HETATM   34  O2  UNL     1     -16.042  -5.598  14.606  1.00  0.00    -0.649 OA
BRANCH  33  35
HETATM   35  O3  UNL     1     -14.391  -5.648  16.086  1.00  0.00    -0.776 OA
HETATM   36  H40 UNL     1     -15.055  -6.286  16.429  1.00  0.00     0.167 HD
ENDBRANCH  33  35
ENDBRANCH  18  33
BRANCH  20  37
HETATM   37  O4  UNL     1     -14.962  -5.182  12.168  1.00  0.00    -0.394 OA
HETATM   38  H42 UNL     1     -14.576  -5.680  11.426  1.00  0.00     0.210 HD
ENDBRANCH  20  37
TORSDOF 8
ENDMDL
MODEL 3
REMARK minimizedAffinity -9.02901745
REMARK CNNscore 0.508228302
REMARK CNNaffinity 6.82659388
REMARK  8 active torsions:
REMARK  status: ('A' for Active; 'I' for Inactive)
REMARK    1  A    between atoms: C4_4  and  C5_5 
REMARK    2  A    between atoms: C5_5  and  C6_6 
REMARK    3  A    between atoms: C6_6  and  C7_7 
REMARK    4  A    between atoms: C7_7  and  C9_9 
REMARK    5  A    between atoms: C25_26  and  C27_28 
REMARK    6  A    between atoms: C27_28  and  O3_30 
REMARK    7  A    between atoms: C28_31  and  O4_32 
REMARK    8  A    between atoms: C30_34  and  O5_35 
ROOT
HETATM    1  C9  UNL     1      -6.224   7.038  14.053  1.00  0.00    -0.002 C 
HETATM    2  C10 UNL     1      -6.517   8.414  14.713  1.00  0.00     0.007 C 
HETATM    3  C11 UNL     1      -5.157   9.106  14.946  1.00  0.00     0.015 C 
HETATM    4  C12 UNL     1      -4.132   8.267  14.150  1.00  0.00    -0.005 C 
HETATM    5  C13 UNL     1      -4.184   8.774  12.675  1.00  0.00     0.021 C 
HETATM    6  C14 UNL     1      -2.650   8.298  14.502  1.00  0.00    -0.000 C 
HETATM    7  C15 UNL     1      -1.844   7.225  14.278  1.00  0.00    -0.058 C 
HETATM    8  C16 UNL     1      -2.431   5.898  13.766  1.00  0.00     0.036 C 
HETATM    9  C17 UNL     1      -3.948   5.842  13.507  1.00  0.00     0.015 C 
HETATM   10  C18 UNL     1      -4.720   6.815  14.398  1.00  0.00    -0.028 C 
HETATM   11  C19 UNL     1      -4.546   6.349  15.876  1.00  0.00     0.016 C 
HETATM   12  C20 UNL     1      -0.303   7.227  14.570  1.00  0.00     0.011 C 
HETATM   13  C21 UNL     1      -0.173   6.500  15.932  1.00  0.00     0.023 C 
HETATM   14  C22 UNL     1       0.208   8.704  14.614  1.00  0.00     0.029 C 
HETATM   15  C23 UNL     1      -0.653   9.586  15.520  1.00  0.00     0.090 C 
HETATM   16  C24 UNL     1      -2.088   9.570  15.057  1.00  0.00     0.157 C 
HETATM   17  O1  UNL     1      -2.779  10.581  15.174  1.00  0.00    -0.293 OA
HETATM   18  C25 UNL     1       1.758   8.908  14.803  1.00  0.00     0.072 C 
HETATM   19  C26 UNL     1       2.133  10.180  13.975  1.00  0.00     0.030 C 
HETATM   20  C28 UNL     1       2.587   7.731  14.215  1.00  0.00     0.139 C 
HETATM   21  C29 UNL     1       1.871   7.063  13.048  1.00  0.00     0.065 C 
HETATM   22  C30 UNL     1       0.485   6.498  13.413  1.00  0.00     0.133 C 
ENDROOT
BRANCH   1  23
HETATM   23  C7  UNL     1      -7.355   5.995  14.308  1.00  0.00    -0.014 C 
HETATM   24  C8  UNL     1      -7.365   5.337  15.695  1.00  0.00     0.010 C 
BRANCH  23  25
HETATM   25  C6  UNL     1      -7.485   4.882  13.236  1.00  0.00     0.008 C 
BRANCH  25  26
HETATM   26  C5  UNL     1      -7.535   3.442  13.774  1.00  0.00     0.028 C 
BRANCH  26  27
HETATM   27  C4  UNL     1      -7.327   2.384  12.725  1.00  0.00    -0.025 C 
HETATM   28  C2  UNL     1      -6.256   2.197  11.927  1.00  0.00    -0.091 C 
HETATM   29  C1  UNL     1      -5.024   3.060  11.919  1.00  0.00     0.042 C 
HETATM   30  C3  UNL     1      -6.222   1.058  10.935  1.00  0.00     0.042 C 
ENDBRANCH  26  27
ENDBRANCH  25  26
ENDBRANCH  23  25
ENDBRANCH   1  23
BRANCH  22  31
HETATM   31  O5  UNL     1       0.630   5.099  13.679  1.00  0.00    -0.394 OA
HETATM   32  H46 UNL     1       1.239   5.016  14.439  1.00  0.00     0.210 HD
ENDBRANCH  22  31
BRANCH  18  33
HETATM   33  C27 UNL     1       2.234   9.203  16.228  1.00  0.00     0.151 C 
HETATM   34  O2  UNL     1       3.395   9.371  16.576  1.00  0.00    -0.649 OA
BRANCH  33  35
HETATM   35  O3  UNL     1       1.255   9.248  17.145  1.00  0.00    -0.776 OA
HETATM   36  H40 UNL     1       1.732   9.389  17.991  1.00  0.00     0.167 HD
ENDBRANCH  33  35
ENDBRANCH  18  33
BRANCH  20  37
HETATM   37  O4  UNL     1       2.901   6.703  15.159  1.00  0.00    -0.394 OA
HETATM   38  H42 UNL     1       3.671   6.230  14.797  1.00  0.00     0.210 HD
ENDBRANCH  20  37
TORSDOF 8
ENDMDL
MODEL 4
REMARK minimizedAffinity -7.00597143
REMARK CNNscore 0.498676538
REMARK CNNaffinity 6.10482979
REMARK  8 active torsions:
REMARK  status: ('A' for Active; 'I' for Inactive)
REMARK    1  A    between atoms: C4_4  and  C5_5 
REMARK    2  A    between atoms: C5_5  and  C6_6 
REMARK    3  A    between atoms: C6_6  and  C7_7 
REMARK    4  A    between atoms: C7_7  and  C9_9 
REMARK    5  A    between atoms: C25_26  and  C27_28 
REMARK    6  A    between atoms: C27_28  and  O3_30 
REMARK    7  A    between atoms: C28_31  and  O4_32 
REMARK    8  A    between atoms: C30_34  and  O5_35 
ROOT
HETATM    1  C9  UNL     1     -15.116   6.885  21.329  1.00  0.00    -0.002 C 
HETATM    2  C10 UNL     1     -15.387   8.186  22.134  1.00  0.00     0.007 C 
HETATM    3  C11 UNL     1     -15.093   7.873  23.617  1.00  0.00     0.015 C 
HETATM    4  C12 UNL     1     -14.373   6.507  23.609  1.00  0.00    -0.005 C 
HETATM    5  C13 UNL     1     -12.864   6.794  23.329  1.00  0.00     0.021 C 
HETATM    6  C14 UNL     1     -14.358   5.621  24.849  1.00  0.00    -0.000 C 
HETATM    7  C15 UNL     1     -14.286   4.266  24.753  1.00  0.00    -0.058 C 
HETATM    8  C16 UNL     1     -14.335   3.575  23.379  1.00  0.00     0.036 C 
HETATM    9  C17 UNL     1     -14.451   4.472  22.133  1.00  0.00     0.015 C 
HETATM   10  C18 UNL     1     -15.164   5.789  22.437  1.00  0.00    -0.028 C 
HETATM   11  C19 UNL     1     -16.636   5.455  22.833  1.00  0.00     0.016 C 
HETATM   12  C20 UNL     1     -14.211   3.314  25.998  1.00  0.00     0.011 C 
HETATM   13  C21 UNL     1     -15.661   2.798  26.169  1.00  0.00     0.023 C 
HETATM   14  C22 UNL     1     -13.701   4.126  27.232  1.00  0.00     0.029 C 
HETATM   15  C23 UNL     1     -14.474   5.431  27.425  1.00  0.00     0.090 C 
HETATM   16  C24 UNL     1     -14.370   6.289  26.189  1.00  0.00     0.157 C 
HETATM   17  O1  UNL     1     -14.335   7.514  26.296  1.00  0.00    -0.293 OA
HETATM   18  C25 UNL     1     -13.467   3.314  28.562  1.00  0.00     0.072 C 
HETATM   19  C26 UNL     1     -12.239   3.977  29.265  1.00  0.00     0.030 C 
HETATM   20  C28 UNL     1     -13.084   1.832  28.292  1.00  0.00     0.139 C 
HETATM   21  C29 UNL     1     -12.358   1.668  26.962  1.00  0.00     0.065 C 
HETATM   22  C30 UNL     1     -13.176   2.149  25.748  1.00  0.00     0.133 C 
ENDROOT
BRANCH   1  23
HETATM   23  C7  UNL     1     -15.914   6.827  19.991  1.00  0.00    -0.014 C 
HETATM   24  C8  UNL     1     -16.643   5.508  19.697  1.00  0.00     0.010 C 
BRANCH  23  25
HETATM   25  C6  UNL     1     -15.119   7.241  18.726  1.00  0.00     0.008 C 
BRANCH  25  26
HETATM   26  C5  UNL     1     -15.790   6.912  17.381  1.00  0.00     0.028 C 
BRANCH  26  27
HETATM   27  C4  UNL     1     -14.847   6.894  16.209  1.00  0.00    -0.025 C 
HETATM   28  C2  UNL     1     -14.797   6.014  15.189  1.00  0.00    -0.091 C 
HETATM   29  C1  UNL     1     -15.700   4.821  15.034  1.00  0.00     0.042 C 
HETATM   30  C3  UNL     1     -13.781   6.171  14.083  1.00  0.00     0.042 C 
ENDBRANCH  26  27
ENDBRANCH  25  26
ENDBRANCH  23  25
ENDBRANCH   1  23
BRANCH  22  31
HETATM   31  O5  UNL     1     -13.804   1.009  25.154  1.00  0.00    -0.394 OA
HETATM   32  H46 UNL     1     -14.397   0.627  25.830  1.00  0.00     0.210 HD
ENDBRANCH  22  31
BRANCH  18  33
HETATM   33  C27 UNL     1     -14.597   3.367  29.595  1.00  0.00     0.151 C 
HETATM   34  O2  UNL     1     -14.491   3.745  30.753  1.00  0.00    -0.649 OA
BRANCH  33  35
HETATM   35  O3  UNL     1     -15.783   2.929  29.147  1.00  0.00    -0.776 OA
HETATM   36  H40 UNL     1     -16.366   2.979  29.936  1.00  0.00     0.167 HD
ENDBRANCH  33  35
ENDBRANCH  18  33
BRANCH  20  37
HETATM   37  O4  UNL     1     -14.194   0.930  28.278  1.00  0.00    -0.394 OA
HETATM   38  H42 UNL     1     -13.825   0.045  28.447  1.00  0.00     0.210 HD
ENDBRANCH  20  37
TORSDOF 8
ENDMDL
MODEL 5
REMARK minimizedAffinity -6.77841997
REMARK CNNscore 0.497948647
REMARK CNNaffinity 6.39261818
REMARK  8 active torsions:
REMARK  status: ('A' for Active; 'I' for Inactive)
REMARK    1  A    between atoms: C4_4  and  C5_5 
REMARK    2  A    between atoms: C5_5  and  C6_6 
REMARK    3  A    between atoms: C6_6  and  C7_7 
REMARK    4  A    between atoms: C7_7  and  C9_9 
REMARK    5  A    between atoms: C25_26  and  C27_28 
REMARK    6  A    between atoms: C27_28  and  O3_30 
REMARK    7  A    between atoms: C28_31  and  O4_32 
REMARK    8  A    between atoms: C30_34  and  O5_35 
ROOT
HETATM    1  C9  UNL     1     -10.501  15.836   3.550  1.00  0.00    -0.002 C 
HETATM    2  C10 UNL     1      -9.328  16.166   2.585  1.00  0.00     0.007 C 
HETATM    3  C11 UNL     1      -9.742  15.674   1.181  1.00  0.00     0.015 C 
HETATM    4  C12 UNL     1     -11.249  15.352   1.291  1.00  0.00    -0.005 C 
HETATM    5  C13 UNL     1     -12.013  16.698   1.090  1.00  0.00     0.021 C 
HETATM    6  C14 UNL     1     -11.920  14.395   0.314  1.00  0.00    -0.000 C 
HETATM    7  C15 UNL     1     -12.997  13.648   0.677  1.00  0.00    -0.058 C 
HETATM    8  C16 UNL     1     -13.504  13.660   2.129  1.00  0.00     0.036 C 
HETATM    9  C17 UNL     1     -12.759  14.554   3.137  1.00  0.00     0.015 C 
HETATM   10  C18 UNL     1     -11.291  14.751   2.757  1.00  0.00    -0.028 C 
HETATM   11  C19 UNL     1     -10.585  13.363   2.850  1.00  0.00     0.016 C 
HETATM   12  C20 UNL     1     -13.757  12.692  -0.308  1.00  0.00     0.011 C 
HETATM   13  C21 UNL     1     -13.205  11.284   0.029  1.00  0.00     0.023 C 
HETATM   14  C22 UNL     1     -13.460  13.129  -1.778  1.00  0.00     0.029 C 
HETATM   15  C23 UNL     1     -11.963  13.314  -2.034  1.00  0.00     0.090 C 
HETATM   16  C24 UNL     1     -11.391  14.337  -1.086  1.00  0.00     0.157 C 
HETATM   17  O1  UNL     1     -10.482  15.076  -1.461  1.00  0.00    -0.293 OA
HETATM   18  C25 UNL     1     -14.215  12.342  -2.914  1.00  0.00     0.072 C 
HETATM   19  C26 UNL     1     -14.503  13.383  -4.045  1.00  0.00     0.030 C 
HETATM   20  C28 UNL     1     -15.594  11.799  -2.444  1.00  0.00     0.139 C 
HETATM   21  C29 UNL     1     -16.202  12.671  -1.352  1.00  0.00     0.065 C 
HETATM   22  C30 UNL     1     -15.318  12.800  -0.098  1.00  0.00     0.133 C 
ENDROOT
BRANCH   1  23
HETATM   23  C7  UNL     1     -10.039  15.691   5.032  1.00  0.00    -0.014 C 
HETATM   24  C8  UNL     1     -11.115  15.936   6.100  1.00  0.00     0.010 C 
BRANCH  23  25
HETATM   25  C6  UNL     1      -8.774  16.501   5.414  1.00  0.00     0.008 C 
BRANCH  25  26
HETATM   26  C5  UNL     1      -8.954  17.517   6.556  1.00  0.00     0.028 C 
BRANCH  26  27
HETATM   27  C4  UNL     1      -7.680  17.872   7.272  1.00  0.00    -0.025 C 
HETATM   28  C2  UNL     1      -7.515  18.219   8.564  1.00  0.00    -0.091 C 
HETATM   29  C1  UNL     1      -8.626  18.344   9.572  1.00  0.00     0.042 C 
HETATM   30  C3  UNL     1      -6.142  18.527   9.113  1.00  0.00     0.042 C 
ENDBRANCH  26  27
ENDBRANCH  25  26
ENDBRANCH  23  25
ENDBRANCH   1  23
BRANCH  22  31
HETATM   31  O5  UNL     1     -15.782  11.857   0.874  1.00  0.00    -0.394 OA
HETATM   32  H46 UNL     1     -15.680  10.969   0.479  1.00  0.00     0.210 HD
ENDBRANCH  22  31
BRANCH  18  33
HETATM   33  C27 UNL     1     -13.430  11.217  -3.595  1.00  0.00     0.151 C 
HETATM   34  O2  UNL     1     -13.179  11.140  -4.790  1.00  0.00    -0.649 OA
BRANCH  33  35
HETATM   35  O3  UNL     1     -13.024  10.242  -2.769  1.00  0.00    -0.776 OA
HETATM   36  H40 UNL     1     -12.595   9.591  -3.366  1.00  0.00     0.167 HD
ENDBRANCH  33  35
ENDBRANCH  18  33
BRANCH  20  37
HETATM   37  O4  UNL     1     -15.558  10.461  -1.940  1.00  0.00    -0.394 OA
HETATM   38  H42 UNL     1     -16.468  10.123  -2.006  1.00  0.00     0.210 HD
ENDBRANCH  20  37
TORSDOF 8
ENDMDL
MODEL 6
REMARK minimizedAffinity -8.50304413
REMARK CNNscore 0.483098596
REMARK CNNaffinity 6.87576056
REMARK  8 active torsions:
REMARK  status: ('A' for Active; 'I' for Inactive)
REMARK    1  A    between atoms: C4_4  and  C5_5 
REMARK    2  A    between atoms: C5_5  and  C6_6 
REMARK    3  A    between atoms: C6_6  and  C7_7 
REMARK    4  A    between atoms: C7_7  and  C9_9 
REMARK    5  A    between atoms: C25_26  and  C27_28 
REMARK    6  A    between atoms: C27_28  and  O3_30 
REMARK    7  A    between atoms: C28_31  and  O4_32 
REMARK    8  A    between atoms: C30_34  and  O5_35 
ROOT
HETATM    1  C9  UNL     1      -6.044   6.690  14.624  1.00  0.00    -0.002 C 
HETATM    2  C10 UNL     1      -5.784   7.866  15.606  1.00  0.00     0.007 C 
HETATM    3  C11 UNL     1      -4.337   8.348  15.367  1.00  0.00     0.015 C 
HETATM    4  C12 UNL     1      -3.890   7.658  14.059  1.00  0.00    -0.005 C 
HETATM    5  C13 UNL     1      -4.420   8.536  12.882  1.00  0.00     0.021 C 
HETATM    6  C14 UNL     1      -2.413   7.462  13.740  1.00  0.00    -0.000 C 
HETATM    7  C15 UNL     1      -1.981   6.418  12.983  1.00  0.00    -0.058 C 
HETATM    8  C16 UNL     1      -2.964   5.330  12.518  1.00  0.00     0.036 C 
HETATM    9  C17 UNL     1      -4.440   5.480  12.928  1.00  0.00     0.015 C 
HETATM   10  C18 UNL     1      -4.598   6.251  14.239  1.00  0.00    -0.028 C 
HETATM   11  C19 UNL     1      -3.949   5.400  15.373  1.00  0.00     0.016 C 
HETATM   12  C20 UNL     1      -0.480   6.206  12.580  1.00  0.00     0.011 C 
HETATM   13  C21 UNL     1       0.033   5.138  13.580  1.00  0.00     0.023 C 
HETATM   14  C22 UNL     1       0.279   7.567  12.696  1.00  0.00     0.029 C 
HETATM   15  C23 UNL     1       0.030   8.254  14.040  1.00  0.00     0.090 C 
HETATM   16  C24 UNL     1      -1.445   8.489  14.243  1.00  0.00     0.157 C 
HETATM   17  O1  UNL     1      -1.827   9.492  14.844  1.00  0.00    -0.293 OA
HETATM   18  C25 UNL     1       1.787   7.574  12.239  1.00  0.00     0.072 C 
HETATM   19  C26 UNL     1       2.040   8.980  11.604  1.00  0.00     0.030 C 
HETATM   20  C28 UNL     1       2.075   6.523  11.131  1.00  0.00     0.139 C 
HETATM   21  C29 UNL     1       0.844   6.251  10.275  1.00  0.00     0.065 C 
HETATM   22  C30 UNL     1      -0.366   5.736  11.078  1.00  0.00     0.133 C 
ENDROOT
BRANCH   1  23
HETATM   23  C7  UNL     1      -7.160   5.723  15.124  1.00  0.00    -0.014 C 
HETATM   24  C8  UNL     1      -7.790   4.813  14.060  1.00  0.00     0.010 C 
BRANCH  23  25
HETATM   25  C6  UNL     1      -8.300   6.390  15.936  1.00  0.00     0.008 C 
BRANCH  25  26
HETATM   26  C5  UNL     1      -9.445   6.993  15.105  1.00  0.00     0.028 C 
BRANCH  26  27
HETATM   27  C4  UNL     1      -9.348   8.482  14.910  1.00  0.00    -0.025 C 
HETATM   28  C2  UNL     1      -9.756   9.463  15.740  1.00  0.00    -0.091 C 
HETATM   29  C1  UNL     1     -10.434   9.245  17.066  1.00  0.00     0.042 C 
HETATM   30  C3  UNL     1      -9.555  10.915  15.378  1.00  0.00     0.042 C 
ENDBRANCH  26  27
ENDBRANCH  25  26
ENDBRANCH  23  25
ENDBRANCH   1  23
BRANCH  22  31
HETATM   31  O5  UNL     1      -0.399   4.310  10.970  1.00  0.00    -0.394 OA
HETATM   32  H46 UNL     1       0.432   3.976  11.362  1.00  0.00     0.210 HD
ENDBRANCH  22  31
BRANCH  18  33
HETATM   33  C27 UNL     1       2.832   7.442  13.351  1.00  0.00     0.151 C 
HETATM   34  O2  UNL     1       2.601   7.406  14.551  1.00  0.00    -0.649 OA
BRANCH  33  35
HETATM   35  O3  UNL     1       4.101   7.387  12.918  1.00  0.00    -0.776 OA
HETATM   36  H40 UNL     1       4.630   7.359  13.746  1.00  0.00     0.167 HD
ENDBRANCH  33  35
ENDBRANCH  18  33
BRANCH  20  37
HETATM   37  O4  UNL     1       2.532   5.260  11.622  1.00  0.00    -0.394 OA
HETATM   38  H42 UNL     1       2.991   4.831  10.879  1.00  0.00     0.210 HD
ENDBRANCH  20  37
TORSDOF 8
ENDMDL
MODEL 7
REMARK minimizedAffinity -9.11701679
REMARK CNNscore 0.481278121
REMARK CNNaffinity 6.99672174
REMARK  8 active torsions:
REMARK  status: ('A' for Active; 'I' for Inactive)
REMARK    1  A    between atoms: C4_4  and  C5_5 
REMARK    2  A    between atoms: C5_5  and  C6_6 
REMARK    3  A    between atoms: C6_6  and  C7_7 
REMARK    4  A    between atoms: C7_7  and  C9_9 
REMARK    5  A    between atoms: C25_26  and  C27_28 
REMARK    6  A    between atoms: C27_28  and  O3_30 
REMARK    7  A    between atoms: C28_31  and  O4_32 
REMARK    8  A    between atoms: C30_34  and  O5_35 
ROOT
HETATM    1  C9  UNL     1      -6.072   6.908  14.427  1.00  0.00    -0.002 C 
HETATM    2  C10 UNL     1      -5.865   8.031  15.481  1.00  0.00     0.007 C 
HETATM    3  C11 UNL     1      -4.400   8.502  15.361  1.00  0.00     0.015 C 
HETATM    4  C12 UNL     1      -3.875   7.871  14.052  1.00  0.00    -0.005 C 
HETATM    5  C13 UNL     1      -4.317   8.814  12.889  1.00  0.00     0.021 C 
HETATM    6  C14 UNL     1      -2.383   7.670  13.821  1.00  0.00    -0.000 C 
HETATM    7  C15 UNL     1      -1.914   6.658  13.042  1.00  0.00    -0.058 C 
HETATM    8  C16 UNL     1      -2.876   5.608  12.461  1.00  0.00     0.036 C 
HETATM    9  C17 UNL     1      -4.375   5.759  12.781  1.00  0.00     0.015 C 
HETATM   10  C18 UNL     1      -4.610   6.467  14.115  1.00  0.00    -0.028 C 
HETATM   11  C19 UNL     1      -4.046   5.552  15.246  1.00  0.00     0.016 C 
HETATM   12  C20 UNL     1      -0.392   6.444  12.728  1.00  0.00     0.011 C 
HETATM   13  C21 UNL     1       0.043   5.321  13.704  1.00  0.00     0.023 C 
HETATM   14  C22 UNL     1       0.373   7.786  12.961  1.00  0.00     0.029 C 
HETATM   15  C23 UNL     1       0.044   8.411  14.318  1.00  0.00     0.090 C 
HETATM   16  C24 UNL     1      -1.439   8.657  14.436  1.00  0.00     0.157 C 
HETATM   17  O1  UNL     1      -1.848   9.635  15.060  1.00  0.00    -0.293 OA
HETATM   18  C25 UNL     1       1.907   7.794  12.604  1.00  0.00     0.072 C 
HETATM   19  C26 UNL     1       2.218   9.225  12.057  1.00  0.00     0.030 C 
HETATM   20  C28 UNL     1       2.257   6.794  11.465  1.00  0.00     0.139 C 
HETATM   21  C29 UNL     1       1.081   6.582  10.519  1.00  0.00     0.065 C 
HETATM   22  C30 UNL     1      -0.185   6.047  11.215  1.00  0.00     0.133 C 
ENDROOT
BRANCH   1  23
HETATM   23  C7  UNL     1      -7.230   5.934  14.804  1.00  0.00    -0.014 C 
HETATM   24  C8  UNL     1      -7.716   5.997  16.259  1.00  0.00     0.010 C 
BRANCH  23  25
HETATM   25  C6  UNL     1      -6.995   4.448  14.430  1.00  0.00     0.008 C 
BRANCH  25  26
HETATM   26  C5  UNL     1      -7.821   3.922  13.244  1.00  0.00     0.028 C 
BRANCH  26  27
HETATM   27  C4  UNL     1      -7.350   2.599  12.703  1.00  0.00    -0.025 C 
HETATM   28  C2  UNL     1      -6.414   2.366  11.761  1.00  0.00    -0.091 C 
HETATM   29  C1  UNL     1      -5.645   3.431  11.026  1.00  0.00     0.042 C 
HETATM   30  C3  UNL     1      -6.059   0.955  11.357  1.00  0.00     0.042 C 
ENDBRANCH  26  27
ENDBRANCH  25  26
ENDBRANCH  23  25
ENDBRANCH   1  23
BRANCH  22  31
HETATM   31  O5  UNL     1      -0.226   4.628  11.034  1.00  0.00    -0.394 OA
HETATM   32  H46 UNL     1       0.573   4.264  11.462  1.00  0.00     0.210 HD
ENDBRANCH  22  31
BRANCH  18  33
HETATM   33  C27 UNL     1       2.876   7.592  13.773  1.00  0.00     0.151 C 
HETATM   34  O2  UNL     1       3.910   8.217  13.962  1.00  0.00    -0.649 OA
BRANCH  33  35
HETATM   35  O3  UNL     1       2.526   6.617  14.625  1.00  0.00    -0.776 OA
HETATM   36  H40 UNL     1       3.268   6.588  15.267  1.00  0.00     0.167 HD
ENDBRANCH  33  35
ENDBRANCH  18  33
BRANCH  20  37
HETATM   37  O4  UNL     1       2.666   5.502  11.922  1.00  0.00    -0.394 OA
HETATM   38  H42 UNL     1       3.168   5.104  11.190  1.00  0.00     0.210 HD
ENDBRANCH  20  37
TORSDOF 8
ENDMDL
MODEL 8
REMARK minimizedAffinity -6.8886013
REMARK CNNscore 0.366909802
REMARK CNNaffinity 6.19092131
REMARK  8 active torsions:
REMARK  status: ('A' for Active; 'I' for Inactive)
REMARK    1  A    between atoms: C4_4  and  C5_5 
REMARK    2  A    between atoms: C5_5  and  C6_6 
REMARK    3  A    between atoms: C6_6  and  C7_7 
REMARK    4  A    between atoms: C7_7  and  C9_9 
REMARK    5  A    between atoms: C25_26  and  C27_28 
REMARK    6  A    between atoms: C27_28  and  O3_30 
REMARK    7  A    between atoms: C28_31  and  O4_32 
REMARK    8  A    between atoms: C30_34  and  O5_35 
ROOT
HETATM    1  C9  UNL     1      -6.923 -10.931   3.140  1.00  0.00    -0.002 C 
HETATM    2  C10 UNL     1      -5.424 -10.527   3.211  1.00  0.00     0.007 C 
HETATM    3  C11 UNL     1      -5.085 -10.296   4.700  1.00  0.00     0.015 C 
HETATM    4  C12 UNL     1      -6.290 -10.861   5.484  1.00  0.00    -0.005 C 
HETATM    5  C13 UNL     1      -6.055 -12.397   5.626  1.00  0.00     0.021 C 
HETATM    6  C14 UNL     1      -6.589 -10.398   6.904  1.00  0.00    -0.000 C 
HETATM    7  C15 UNL     1      -7.857 -10.380   7.394  1.00  0.00    -0.058 C 
HETATM    8  C16 UNL     1      -9.052 -10.720   6.486  1.00  0.00     0.036 C 
HETATM    9  C17 UNL     1      -8.752 -11.090   5.022  1.00  0.00     0.015 C 
HETATM   10  C18 UNL     1      -7.469 -10.433   4.513  1.00  0.00    -0.028 C 
HETATM   11  C19 UNL     1      -7.697  -8.890   4.500  1.00  0.00     0.016 C 
HETATM   12  C20 UNL     1      -8.209  -9.967   8.866  1.00  0.00     0.011 C 
HETATM   13  C21 UNL     1      -8.694  -8.500   8.743  1.00  0.00     0.023 C 
HETATM   14  C22 UNL     1      -6.935 -10.117   9.759  1.00  0.00     0.029 C 
HETATM   15  C23 UNL     1      -5.713  -9.438   9.139  1.00  0.00     0.090 C 
HETATM   16  C24 UNL     1      -5.432 -10.009   7.772  1.00  0.00     0.157 C 
HETATM   17  O1  UNL     1      -4.271 -10.112   7.380  1.00  0.00    -0.293 OA
HETATM   18  C25 UNL     1      -7.116  -9.837  11.298  1.00  0.00     0.072 C 
HETATM   19  C26 UNL     1      -6.154 -10.823  12.035  1.00  0.00     0.030 C 
HETATM   20  C28 UNL     1      -8.554 -10.159  11.795  1.00  0.00     0.139 C 
HETATM   21  C29 UNL     1      -9.205 -11.259  10.966  1.00  0.00     0.065 C 
HETATM   22  C30 UNL     1      -9.312 -10.923   9.466  1.00  0.00     0.133 C 
ENDROOT
BRANCH   1  23
HETATM   23  C7  UNL     1      -7.570 -10.607   1.759  1.00  0.00    -0.014 C 
HETATM   24  C8  UNL     1      -8.386 -11.737   1.116  1.00  0.00     0.010 C 
BRANCH  23  25
HETATM   25  C6  UNL     1      -6.602 -10.032   0.693  1.00  0.00     0.008 C 
BRANCH  25  26
HETATM   26  C5  UNL     1      -7.203  -9.825  -0.708  1.00  0.00     0.028 C 
BRANCH  26  27
HETATM   27  C4  UNL     1      -8.098  -8.621  -0.823  1.00  0.00    -0.025 C 
HETATM   28  C2  UNL     1      -8.317  -7.841  -1.901  1.00  0.00    -0.091 C 
HETATM   29  C1  UNL     1      -7.663  -8.022  -3.245  1.00  0.00     0.042 C 
HETATM   30  C3  UNL     1      -9.273  -6.675  -1.830  1.00  0.00     0.042 C 
ENDBRANCH  26  27
ENDBRANCH  25  26
ENDBRANCH  23  25
ENDBRANCH   1  23
BRANCH  22  31
HETATM   31  O5  UNL     1     -10.630 -10.426   9.214  1.00  0.00    -0.394 OA
HETATM   32  H46 UNL     1     -10.736  -9.615   9.748  1.00  0.00     0.210 HD
ENDBRANCH  22  31
BRANCH  18  33
HETATM   33  C27 UNL     1      -6.710  -8.442  11.785  1.00  0.00     0.151 C 
HETATM   34  O2  UNL     1      -6.827  -7.401  11.154  1.00  0.00    -0.649 OA
BRANCH  33  35
HETATM   35  O3  UNL     1      -6.163  -8.417  13.010  1.00  0.00    -0.776 OA
HETATM   36  H40 UNL     1      -5.917  -7.475  13.138  1.00  0.00     0.167 HD
ENDBRANCH  33  35
ENDBRANCH  18  33
BRANCH  20  37
HETATM   37  O4  UNL     1      -9.445  -9.040  11.781  1.00  0.00    -0.394 OA
HETATM   38  H42 UNL     1     -10.161  -9.257  12.405  1.00  0.00     0.210 HD
ENDBRANCH  20  37
TORSDOF 8
ENDMDL
MODEL 9
REMARK minimizedAffinity -8.3569994
REMARK CNNscore 0.366845906
REMARK CNNaffinity 6.591887
REMARK  8 active torsions:
REMARK  status: ('A' for Active; 'I' for Inactive)
REMARK    1  A    between atoms: C4_4  and  C5_5 
REMARK    2  A    between atoms: C5_5  and  C6_6 
REMARK    3  A    between atoms: C6_6  and  C7_7 
REMARK    4  A    between atoms: C7_7  and  C9_9 
REMARK    5  A    between atoms: C25_26  and  C27_28 
REMARK    6  A    between atoms: C27_28  and  O3_30 
REMARK    7  A    between atoms: C28_31  and  O4_32 
REMARK    8  A    between atoms: C30_34  and  O5_35 
ROOT
HETATM    1  C9  UNL     1      -2.177   5.988  13.658  1.00  0.00    -0.002 C 
HETATM    2  C10 UNL     1      -2.325   5.579  12.166  1.00  0.00     0.007 C 
HETATM    3  C11 UNL     1      -0.939   5.751  11.507  1.00  0.00     0.015 C 
HETATM    4  C12 UNL     1       0.045   5.958  12.679  1.00  0.00    -0.005 C 
HETATM    5  C13 UNL     1       0.426   4.539  13.205  1.00  0.00     0.021 C 
HETATM    6  C14 UNL     1       1.387   6.647  12.464  1.00  0.00    -0.000 C 
HETATM    7  C15 UNL     1       1.990   7.355  13.457  1.00  0.00    -0.058 C 
HETATM    8  C16 UNL     1       1.276   7.583  14.801  1.00  0.00     0.036 C 
HETATM    9  C17 UNL     1      -0.125   6.968  14.977  1.00  0.00     0.015 C 
HETATM   10  C18 UNL     1      -0.863   6.828  13.646  1.00  0.00    -0.028 C 
HETATM   11  C19 UNL     1      -1.119   8.262  13.089  1.00  0.00     0.016 C 
HETATM   12  C20 UNL     1       3.396   8.034  13.303  1.00  0.00     0.011 C 
HETATM   13  C21 UNL     1       3.071   9.522  13.022  1.00  0.00     0.023 C 
HETATM   14  C22 UNL     1       4.171   7.346  12.133  1.00  0.00     0.029 C 
HETATM   15  C23 UNL     1       3.326   7.244  10.862  1.00  0.00     0.090 C 
HETATM   16  C24 UNL     1       2.057   6.477  11.136  1.00  0.00     0.157 C 
HETATM   17  O1  UNL     1       1.576   5.759  10.260  1.00  0.00    -0.293 OA
HETATM   18  C25 UNL     1       5.650   7.830  11.887  1.00  0.00     0.072 C 
HETATM   19  C26 UNL     1       6.447   6.569  11.419  1.00  0.00     0.030 C 
HETATM   20  C28 UNL     1       6.333   8.335  13.188  1.00  0.00     0.139 C 
HETATM   21  C29 UNL     1       5.774   7.643  14.426  1.00  0.00     0.065 C 
HETATM   22  C30 UNL     1       4.257   7.836  14.611  1.00  0.00     0.133 C 
ENDROOT
BRANCH   1  23
HETATM   23  C7  UNL     1      -3.523   6.457  14.290  1.00  0.00    -0.014 C 
HETATM   24  C8  UNL     1      -3.654   6.273  15.808  1.00  0.00     0.010 C 
BRANCH  23  25
HETATM   25  C6  UNL     1      -4.802   5.900  13.615  1.00  0.00     0.008 C 
BRANCH  25  26
HETATM   26  C5  UNL     1      -5.910   6.931  13.336  1.00  0.00     0.028 C 
BRANCH  26  27
HETATM   27  C4  UNL     1      -6.952   7.024  14.418  1.00  0.00    -0.025 C 
HETATM   28  C2  UNL     1      -8.231   6.600  14.386  1.00  0.00    -0.091 C 
HETATM   29  C1  UNL     1      -8.894   5.945  13.204  1.00  0.00     0.042 C 
HETATM   30  C3  UNL     1      -9.130   6.767  15.588  1.00  0.00     0.042 C 
ENDBRANCH  26  27
ENDBRANCH  25  26
ENDBRANCH  23  25
ENDBRANCH   1  23
BRANCH  22  31
HETATM   31  O5  UNL     1       4.055   8.906  15.539  1.00  0.00    -0.394 OA
HETATM   32  H46 UNL     1       4.450   9.706  15.141  1.00  0.00     0.210 HD
ENDBRANCH  22  31
BRANCH  18  33
HETATM   33  C27 UNL     1       5.847   8.864  10.774  1.00  0.00     0.151 C 
HETATM   34  O2  UNL     1       4.965   9.338  10.072  1.00  0.00    -0.649 OA
BRANCH  33  35
HETATM   35  O3  UNL     1       7.121   9.235  10.578  1.00  0.00    -0.776 OA
HETATM   36  H40 UNL     1       7.072   9.846   9.810  1.00  0.00     0.167 HD
ENDBRANCH  33  35
ENDBRANCH  18  33
BRANCH  20  37
HETATM   37  O4  UNL     1       6.216   9.743  13.406  1.00  0.00    -0.394 OA
HETATM   38  H42 UNL     1       6.935   9.983  14.017  1.00  0.00     0.210 HD
ENDBRANCH  20  37
TORSDOF 8
ENDMDL
