MODEL 1
REMARK minimizedAffinity -9.46068764
REMARK CNNscore 0.553758323
REMARK CNNaffinity 7.17671824
REMARK  7 active torsions:
REMARK  status: ('A' for Active; 'I' for Inactive)
REMARK    1  A    between atoms: C2_2  and  C30_33 
REMARK    2  A    between atoms: C3_3  and  C4_4 
REMARK    3  A    between atoms: C4_4  and  O1_5 
REMARK    4  A    between atoms: C4_4  and  C5_6 
REMARK    5  A    between atoms: C5_6  and  C6_7 
REMARK    6  A    between atoms: C6_7  and  C8_9 
REMARK    7  A    between atoms: C30_33  and  O5_35 
ROOT
HETATM    1  C8  UNL     1      -6.081   7.299  14.356  1.00  0.00    -0.002 C 
HETATM    2  C9  UNL     1      -5.798   8.615  15.139  1.00  0.00     0.007 C 
HETATM    3  C10 UNL     1      -4.295   8.921  15.012  1.00  0.00     0.015 C 
HETATM    4  C11 UNL     1      -3.792   7.997  13.888  1.00  0.00    -0.005 C 
HETATM    5  C12 UNL     1      -4.109   8.706  12.536  1.00  0.00     0.021 C 
HETATM    6  C13 UNL     1      -2.318   7.632  13.804  1.00  0.00    -0.000 C 
HETATM    7  C14 UNL     1      -1.907   6.450  13.276  1.00  0.00    -0.060 C 
HETATM    8  C15 UNL     1      -2.939   5.410  12.814  1.00  0.00     0.036 C 
HETATM    9  C16 UNL     1      -4.432   5.741  13.011  1.00  0.00     0.015 C 
HETATM   10  C17 UNL     1      -4.650   6.702  14.187  1.00  0.00    -0.028 C 
HETATM   11  C18 UNL     1      -4.237   5.982  15.511  1.00  0.00     0.016 C 
HETATM   12  C19 UNL     1      -0.420   6.047  13.127  1.00  0.00    -0.014 C 
HETATM   13  C20 UNL     1      -0.118   4.993  14.231  1.00  0.00     0.020 C 
HETATM   14  C21 UNL     1      -0.168   5.380  11.742  1.00  0.00     0.021 C 
HETATM   15  C22 UNL     1       1.271   5.505  11.276  1.00  0.00     0.080 C 
HETATM   16  C23 UNL     1       1.581   6.963  11.026  1.00  0.00     0.135 C 
HETATM   17  O2  UNL     1       2.286   7.288  10.070  1.00  0.00    -0.297 OA
HETATM   18  C24 UNL     1       0.998   7.996  12.010  1.00  0.00     0.018 C 
HETATM   19  C25 UNL     1       2.125   9.015  12.300  1.00  0.00     0.023 C 
HETATM   20  C26 UNL     1      -0.139   8.736  11.292  1.00  0.00     0.023 C 
HETATM   21  C27 UNL     1       0.578   7.250  13.330  1.00  0.00     0.020 C 
HETATM   22  C28 UNL     1       0.103   8.156  14.471  1.00  0.00     0.090 C 
HETATM   23  C29 UNL     1      -1.308   8.629  14.271  1.00  0.00     0.157 C 
HETATM   24  O3  UNL     1      -1.620   9.792  14.508  1.00  0.00    -0.293 OA
ENDROOT
BRANCH   1  25
HETATM   25  C6  UNL     1      -7.222   6.460  15.019  1.00  0.00    -0.011 C 
HETATM   26  C7  UNL     1      -7.196   6.551  16.545  1.00  0.00     0.010 C 
BRANCH  25  27
HETATM   27  C5  UNL     1      -7.135   4.979  14.530  1.00  0.00     0.040 C 
BRANCH  27  28
HETATM   28  C4  UNL     1      -7.691   4.717  13.117  1.00  0.00     0.142 C 
BRANCH  28  29
HETATM   29  C3  UNL     1      -6.686   4.048  12.222  1.00  0.00     0.018 C 
HETATM   30  C2  UNL     1      -6.485   2.718  12.110  1.00  0.00     0.010 C 
HETATM   31  C1  UNL     1      -7.217   1.658  12.880  1.00  0.00     0.055 C 
BRANCH  30  32
HETATM   32  C30 UNL     1      -5.427   2.283  11.165  1.00  0.00     0.171 C 
HETATM   33  O4  UNL     1      -4.297   1.929  11.451  1.00  0.00    -0.646 OA
BRANCH  32  34
HETATM   34  O5  UNL     1      -5.840   2.311   9.887  1.00  0.00    -0.773 OA
HETATM   35  H44 UNL     1      -5.057   2.002   9.387  1.00  0.00     0.167 HD
ENDBRANCH  32  34
ENDBRANCH  30  32
ENDBRANCH  28  29
BRANCH  28  36
HETATM   36  O1  UNL     1      -8.813   3.845  13.196  1.00  0.00    -0.392 OA
HETATM   37  H6  UNL     1      -8.482   2.957  13.417  1.00  0.00     0.210 HD
ENDBRANCH  28  36
ENDBRANCH  27  28
ENDBRANCH  25  27
ENDBRANCH   1  25
TORSDOF 7
ENDMDL
MODEL 2
REMARK minimizedAffinity -8.6902771
REMARK CNNscore 0.55063045
REMARK CNNaffinity 6.98888636
REMARK  7 active torsions:
REMARK  status: ('A' for Active; 'I' for Inactive)
REMARK    1  A    between atoms: C2_2  and  C30_33 
REMARK    2  A    between atoms: C3_3  and  C4_4 
REMARK    3  A    between atoms: C4_4  and  O1_5 
REMARK    4  A    between atoms: C4_4  and  C5_6 
REMARK    5  A    between atoms: C5_6  and  C6_7 
REMARK    6  A    between atoms: C6_7  and  C8_9 
REMARK    7  A    between atoms: C30_33  and  O5_35 
ROOT
HETATM    1  C8  UNL     1       1.825   7.253  10.031  1.00  0.00    -0.002 C 
HETATM    2  C9  UNL     1       2.525   6.205  10.946  1.00  0.00     0.007 C 
HETATM    3  C10 UNL     1       1.616   5.969  12.166  1.00  0.00     0.015 C 
HETATM    4  C11 UNL     1       0.264   6.600  11.785  1.00  0.00    -0.005 C 
HETATM    5  C12 UNL     1      -0.509   5.546  10.934  1.00  0.00     0.021 C 
HETATM    6  C13 UNL     1      -0.714   7.019  12.872  1.00  0.00    -0.000 C 
HETATM    7  C14 UNL     1      -1.583   8.047  12.689  1.00  0.00    -0.060 C 
HETATM    8  C15 UNL     1      -1.547   8.867  11.389  1.00  0.00     0.036 C 
HETATM    9  C16 UNL     1      -0.474   8.507  10.341  1.00  0.00     0.015 C 
HETATM   10  C17 UNL     1       0.763   7.872  10.990  1.00  0.00    -0.028 C 
HETATM   11  C18 UNL     1       1.457   8.935  11.903  1.00  0.00     0.016 C 
HETATM   12  C19 UNL     1      -2.626   8.488  13.744  1.00  0.00    -0.014 C 
HETATM   13  C20 UNL     1      -2.105   9.808  14.380  1.00  0.00     0.020 C 
HETATM   14  C21 UNL     1      -3.998   8.787  13.067  1.00  0.00     0.021 C 
HETATM   15  C22 UNL     1      -5.173   8.634  14.015  1.00  0.00     0.080 C 
HETATM   16  C23 UNL     1      -5.290   7.183  14.421  1.00  0.00     0.135 C 
HETATM   17  O2  UNL     1      -6.400   6.664  14.544  1.00  0.00    -0.297 OA
HETATM   18  C24 UNL     1      -3.984   6.407  14.682  1.00  0.00     0.018 C 
HETATM   19  C25 UNL     1      -4.216   5.569  15.961  1.00  0.00     0.023 C 
HETATM   20  C26 UNL     1      -3.774   5.438  13.510  1.00  0.00     0.023 C 
HETATM   21  C27 UNL     1      -2.821   7.442  14.907  1.00  0.00     0.020 C 
HETATM   22  C28 UNL     1      -1.475   6.836  15.315  1.00  0.00     0.090 C 
HETATM   23  C29 UNL     1      -0.741   6.242  14.147  1.00  0.00     0.157 C 
HETATM   24  O3  UNL     1      -0.165   5.163  14.251  1.00  0.00    -0.293 OA
ENDROOT
BRANCH   1  25
HETATM   25  C6  UNL     1       2.859   8.164   9.292  1.00  0.00    -0.011 C 
HETATM   26  C7  UNL     1       2.753   8.045   7.770  1.00  0.00     0.010 C 
BRANCH  25  27
HETATM   27  C5  UNL     1       4.301   7.833   9.795  1.00  0.00     0.040 C 
BRANCH  27  28
HETATM   28  C4  UNL     1       4.942   8.898  10.704  1.00  0.00     0.142 C 
BRANCH  28  29
HETATM   29  C3  UNL     1       5.964   8.313  11.638  1.00  0.00     0.018 C 
HETATM   30  C2  UNL     1       5.743   7.918  12.910  1.00  0.00     0.010 C 
HETATM   31  C1  UNL     1       4.434   8.014  13.636  1.00  0.00     0.055 C 
BRANCH  30  32
HETATM   32  C30 UNL     1       6.909   7.375  13.649  1.00  0.00     0.171 C 
HETATM   33  O4  UNL     1       8.083   7.635  13.448  1.00  0.00    -0.646 OA
BRANCH  32  34
HETATM   34  O5  UNL     1       6.547   6.521  14.620  1.00  0.00    -0.773 OA
HETATM   35  H44 UNL     1       7.400   6.251  15.017  1.00  0.00     0.167 HD
ENDBRANCH  32  34
ENDBRANCH  30  32
ENDBRANCH  28  29
BRANCH  28  36
HETATM   36  O1  UNL     1       5.621   9.863   9.909  1.00  0.00    -0.392 OA
HETATM   37  H6  UNL     1       6.421   9.441   9.550  1.00  0.00     0.210 HD
ENDBRANCH  28  36
ENDBRANCH  27  28
ENDBRANCH  25  27
ENDBRANCH   1  25
TORSDOF 7
ENDMDL
MODEL 3
REMARK minimizedAffinity -6.92858601
REMARK CNNscore 0.476044476
REMARK CNNaffinity 5.91834116
REMARK  7 active torsions:
REMARK  status: ('A' for Active; 'I' for Inactive)
REMARK    1  A    between atoms: C2_2  and  C30_33 
REMARK    2  A    between atoms: C3_3  and  C4_4 
REMARK    3  A    between atoms: C4_4  and  O1_5 
REMARK    4  A    between atoms: C4_4  and  C5_6 
REMARK    5  A    between atoms: C5_6  and  C6_7 
REMARK    6  A    between atoms: C6_7  and  C8_9 
REMARK    7  A    between atoms: C30_33  and  O5_35 
ROOT
HETATM    1  C8  UNL     1     -16.910   2.446  14.936  1.00  0.00    -0.002 C 
HETATM    2  C9  UNL     1     -17.260   2.070  16.407  1.00  0.00     0.007 C 
HETATM    3  C10 UNL     1     -16.972   0.569  16.587  1.00  0.00     0.015 C 
HETATM    4  C11 UNL     1     -16.144   0.169  15.352  1.00  0.00    -0.005 C 
HETATM    5  C12 UNL     1     -14.661   0.548  15.655  1.00  0.00     0.021 C 
HETATM    6  C13 UNL     1     -16.095  -1.284  14.905  1.00  0.00    -0.000 C 
HETATM    7  C14 UNL     1     -15.915  -1.620  13.602  1.00  0.00    -0.060 C 
HETATM    8  C15 UNL     1     -15.830  -0.527  12.525  1.00  0.00     0.036 C 
HETATM    9  C16 UNL     1     -15.997   0.939  12.975  1.00  0.00     0.015 C 
HETATM   10  C17 UNL     1     -16.851   1.050  14.245  1.00  0.00    -0.028 C 
HETATM   11  C18 UNL     1     -18.305   0.578  13.919  1.00  0.00     0.016 C 
HETATM   12  C19 UNL     1     -15.815  -3.081  13.097  1.00  0.00    -0.014 C 
HETATM   13  C20 UNL     1     -17.161  -3.416  12.395  1.00  0.00     0.020 C 
HETATM   14  C21 UNL     1     -14.674  -3.222  12.046  1.00  0.00     0.021 C 
HETATM   15  C22 UNL     1     -14.119  -4.632  11.958  1.00  0.00     0.080 C 
HETATM   16  C23 UNL     1     -13.439  -4.974  13.263  1.00  0.00     0.135 C 
HETATM   17  O2  UNL     1     -12.395  -5.627  13.262  1.00  0.00    -0.297 OA
HETATM   18  C24 UNL     1     -14.107  -4.490  14.565  1.00  0.00     0.018 C 
HETATM   19  C25 UNL     1     -14.028  -5.666  15.566  1.00  0.00     0.023 C 
HETATM   20  C26 UNL     1     -13.263  -3.334  15.123  1.00  0.00     0.023 C 
HETATM   21  C27 UNL     1     -15.606  -4.129  14.256  1.00  0.00     0.020 C 
HETATM   22  C28 UNL     1     -16.456  -3.758  15.476  1.00  0.00     0.090 C 
HETATM   23  C29 UNL     1     -16.198  -2.354  15.942  1.00  0.00     0.157 C 
HETATM   24  O3  UNL     1     -16.101  -2.097  17.138  1.00  0.00    -0.293 OA
ENDROOT
BRANCH   1  25
HETATM   25  C6  UNL     1     -17.847   3.570  14.384  1.00  0.00    -0.011 C 
HETATM   26  C7  UNL     1     -17.660   3.795  12.883  1.00  0.00     0.010 C 
BRANCH  25  27
HETATM   27  C5  UNL     1     -17.619   4.886  15.195  1.00  0.00     0.040 C 
BRANCH  27  28
HETATM   28  C4  UNL     1     -16.159   5.371  15.270  1.00  0.00     0.142 C 
BRANCH  28  29
HETATM   29  C3  UNL     1     -15.821   6.340  14.172  1.00  0.00     0.018 C 
HETATM   30  C2  UNL     1     -14.583   6.610  13.706  1.00  0.00     0.010 C 
HETATM   31  C1  UNL     1     -13.309   6.007  14.218  1.00  0.00     0.055 C 
BRANCH  30  32
HETATM   32  C30 UNL     1     -14.489   7.614  12.617  1.00  0.00     0.171 C 
HETATM   33  O4  UNL     1     -15.359   7.900  11.815  1.00  0.00    -0.646 OA
BRANCH  32  34
HETATM   34  O5  UNL     1     -13.291   8.222  12.585  1.00  0.00    -0.773 OA
HETATM   35  H44 UNL     1     -13.373   8.847  11.836  1.00  0.00     0.167 HD
ENDBRANCH  32  34
ENDBRANCH  30  32
ENDBRANCH  28  29
BRANCH  28  36
HETATM   36  O1  UNL     1     -15.943   6.054  16.500  1.00  0.00    -0.392 OA
HETATM   37  H6  UNL     1     -16.404   6.909  16.448  1.00  0.00     0.210 HD
ENDBRANCH  28  36
ENDBRANCH  27  28
ENDBRANCH  25  27
ENDBRANCH   1  25
TORSDOF 7
ENDMDL
MODEL 4
REMARK minimizedAffinity -8.96447468
REMARK CNNscore 0.438671619
REMARK CNNaffinity 6.95401955
REMARK  7 active torsions:
REMARK  status: ('A' for Active; 'I' for Inactive)
REMARK    1  A    between atoms: C2_2  and  C30_33 
REMARK    2  A    between atoms: C3_3  and  C4_4 
REMARK    3  A    between atoms: C4_4  and  O1_5 
REMARK    4  A    between atoms: C4_4  and  C5_6 
REMARK    5  A    between atoms: C5_6  and  C6_7 
REMARK    6  A    between atoms: C6_7  and  C8_9 
REMARK    7  A    between atoms: C30_33  and  O5_35 
ROOT
HETATM    1  C8  UNL     1      -6.387   7.123  14.462  1.00  0.00    -0.002 C 
HETATM    2  C9  UNL     1      -6.100   8.455  15.215  1.00  0.00     0.007 C 
HETATM    3  C10 UNL     1      -4.610   8.790  15.022  1.00  0.00     0.015 C 
HETATM    4  C11 UNL     1      -4.135   7.860  13.891  1.00  0.00    -0.005 C 
HETATM    5  C12 UNL     1      -4.521   8.543  12.544  1.00  0.00     0.021 C 
HETATM    6  C13 UNL     1      -2.658   7.523  13.751  1.00  0.00    -0.000 C 
HETATM    7  C14 UNL     1      -2.245   6.343  13.223  1.00  0.00    -0.060 C 
HETATM    8  C15 UNL     1      -3.274   5.275  12.818  1.00  0.00     0.036 C 
HETATM    9  C16 UNL     1      -4.764   5.579  13.072  1.00  0.00     0.015 C 
HETATM   10  C17 UNL     1      -4.953   6.553  14.243  1.00  0.00    -0.028 C 
HETATM   11  C18 UNL     1      -4.472   5.860  15.558  1.00  0.00     0.016 C 
HETATM   12  C19 UNL     1      -0.757   5.966  13.019  1.00  0.00    -0.014 C 
HETATM   13  C20 UNL     1      -0.389   4.935  14.123  1.00  0.00     0.020 C 
HETATM   14  C21 UNL     1      -0.549   5.285  11.633  1.00  0.00     0.021 C 
HETATM   15  C22 UNL     1       0.867   5.432  11.107  1.00  0.00     0.080 C 
HETATM   16  C23 UNL     1       1.137   6.891  10.824  1.00  0.00     0.135 C 
HETATM   17  O2  UNL     1       1.795   7.218   9.836  1.00  0.00    -0.297 OA
HETATM   18  C24 UNL     1       0.574   7.927  11.818  1.00  0.00     0.018 C 
HETATM   19  C25 UNL     1       1.690   8.972  12.047  1.00  0.00     0.023 C 
HETATM   20  C26 UNL     1      -0.607   8.634  11.138  1.00  0.00     0.023 C 
HETATM   21  C27 UNL     1       0.223   7.192  13.164  1.00  0.00     0.020 C 
HETATM   22  C28 UNL     1      -0.223   8.104  14.311  1.00  0.00     0.090 C 
HETATM   23  C29 UNL     1      -1.651   8.546  14.163  1.00  0.00     0.157 C 
HETATM   24  O3  UNL     1      -1.976   9.706  14.397  1.00  0.00    -0.293 OA
ENDROOT
BRANCH   1  25
HETATM   25  C6  UNL     1      -7.483   6.272  15.183  1.00  0.00    -0.011 C 
HETATM   26  C7  UNL     1      -7.416   4.793  14.797  1.00  0.00     0.010 C 
BRANCH  25  27
HETATM   27  C5  UNL     1      -8.893   6.878  14.891  1.00  0.00     0.040 C 
BRANCH  27  28
HETATM   28  C4  UNL     1      -9.593   6.342  13.627  1.00  0.00     0.142 C 
BRANCH  28  29
HETATM   29  C3  UNL     1     -10.546   7.341  13.034  1.00  0.00     0.018 C 
HETATM   30  C2  UNL     1     -11.868   7.429  13.295  1.00  0.00     0.010 C 
HETATM   31  C1  UNL     1     -12.636   6.525  14.214  1.00  0.00     0.055 C 
BRANCH  30  32
HETATM   32  C30 UNL     1     -12.616   8.494  12.583  1.00  0.00     0.171 C 
HETATM   33  O4  UNL     1     -13.825   8.643  12.559  1.00  0.00    -0.646 OA
BRANCH  32  34
HETATM   34  O5  UNL     1     -11.803   9.338  11.925  1.00  0.00    -0.773 OA
HETATM   35  H44 UNL     1     -12.421   9.977  11.515  1.00  0.00     0.167 HD
ENDBRANCH  32  34
ENDBRANCH  30  32
ENDBRANCH  28  29
BRANCH  28  36
HETATM   36  O1  UNL     1      -8.623   6.058  12.626  1.00  0.00    -0.392 OA
HETATM   37  H6  UNL     1      -8.288   6.907  12.289  1.00  0.00     0.210 HD
ENDBRANCH  28  36
ENDBRANCH  27  28
ENDBRANCH  25  27
ENDBRANCH   1  25
TORSDOF 7
ENDMDL
MODEL 5
REMARK minimizedAffinity -9.00646782
REMARK CNNscore 0.401657403
REMARK CNNaffinity 6.65341377
REMARK  7 active torsions:
REMARK  status: ('A' for Active; 'I' for Inactive)
REMARK    1  A    between atoms: C2_2  and  C30_33 
REMARK    2  A    between atoms: C3_3  and  C4_4 
REMARK    3  A    between atoms: C4_4  and  O1_5 
REMARK    4  A    between atoms: C4_4  and  C5_6 
REMARK    5  A    between atoms: C5_6  and  C6_7 
REMARK    6  A    between atoms: C6_7  and  C8_9 
REMARK    7  A    between atoms: C30_33  and  O5_35 
ROOT
HETATM    1  C8  UNL     1      -3.657   6.075  13.624  1.00  0.00    -0.002 C 
HETATM    2  C9  UNL     1      -2.446   6.234  12.658  1.00  0.00     0.007 C 
HETATM    3  C10 UNL     1      -1.708   7.529  13.042  1.00  0.00     0.015 C 
HETATM    4  C11 UNL     1      -2.275   7.918  14.420  1.00  0.00    -0.005 C 
HETATM    5  C12 UNL     1      -1.494   7.090  15.486  1.00  0.00     0.021 C 
HETATM    6  C13 UNL     1      -2.187   9.359  14.901  1.00  0.00    -0.000 C 
HETATM    7  C14 UNL     1      -3.111   9.883  15.746  1.00  0.00    -0.060 C 
HETATM    8  C15 UNL     1      -4.322   9.045  16.183  1.00  0.00     0.036 C 
HETATM    9  C16 UNL     1      -4.464   7.625  15.598  1.00  0.00     0.015 C 
HETATM   10  C17 UNL     1      -3.789   7.508  14.225  1.00  0.00    -0.028 C 
HETATM   11  C18 UNL     1      -4.549   8.421  13.209  1.00  0.00     0.016 C 
HETATM   12  C19 UNL     1      -3.047  11.328  16.299  1.00  0.00    -0.014 C 
HETATM   13  C20 UNL     1      -4.121  12.158  15.541  1.00  0.00     0.020 C 
HETATM   14  C21 UNL     1      -3.402  11.351  17.816  1.00  0.00     0.021 C 
HETATM   15  C22 UNL     1      -2.804  12.539  18.548  1.00  0.00     0.080 C 
HETATM   16  C23 UNL     1      -1.299  12.412  18.542  1.00  0.00     0.135 C 
HETATM   17  O2  UNL     1      -0.648  12.735  19.536  1.00  0.00    -0.297 OA
HETATM   18  C24 UNL     1      -0.632  11.885  17.256  1.00  0.00     0.018 C 
HETATM   19  C25 UNL     1       0.612  12.770  17.008  1.00  0.00     0.023 C 
HETATM   20  C26 UNL     1      -0.149  10.454  17.531  1.00  0.00     0.023 C 
HETATM   21  C27 UNL     1      -1.653  12.026  16.067  1.00  0.00     0.020 C 
HETATM   22  C28 UNL     1      -1.099  11.672  14.683  1.00  0.00     0.090 C 
HETATM   23  C29 UNL     1      -1.024  10.188  14.464  1.00  0.00     0.157 C 
HETATM   24  O3  UNL     1      -0.046   9.683  13.920  1.00  0.00    -0.293 OA
ENDROOT
BRANCH   1  25
HETATM   25  C6  UNL     1      -4.875   5.389  12.923  1.00  0.00    -0.011 C 
HETATM   26  C7  UNL     1      -6.123   5.378  13.807  1.00  0.00     0.010 C 
BRANCH  25  27
HETATM   27  C5  UNL     1      -4.476   3.946  12.474  1.00  0.00     0.040 C 
BRANCH  27  28
HETATM   28  C4  UNL     1      -4.183   3.780  10.971  1.00  0.00     0.142 C 
BRANCH  28  29
HETATM   29  C3  UNL     1      -2.819   3.202  10.715  1.00  0.00     0.018 C 
HETATM   30  C2  UNL     1      -2.407   1.962  11.053  1.00  0.00     0.010 C 
HETATM   31  C1  UNL     1      -3.232   0.935  11.772  1.00  0.00     0.055 C 
BRANCH  30  32
HETATM   32  C30 UNL     1      -1.008   1.610  10.706  1.00  0.00     0.171 C 
HETATM   33  O4  UNL     1       0.002   2.024  11.247  1.00  0.00    -0.646 OA
BRANCH  32  34
HETATM   34  O5  UNL     1      -0.938   0.740   9.684  1.00  0.00    -0.773 OA
HETATM   35  H44 UNL     1       0.024   0.598   9.571  1.00  0.00     0.167 HD
ENDBRANCH  32  34
ENDBRANCH  30  32
ENDBRANCH  28  29
BRANCH  28  36
HETATM   36  O1  UNL     1      -5.123   2.881  10.396  1.00  0.00    -0.392 OA
HETATM   37  H6  UNL     1      -4.908   1.986  10.712  1.00  0.00     0.210 HD
ENDBRANCH  28  36
ENDBRANCH  27  28
ENDBRANCH  25  27
ENDBRANCH   1  25
TORSDOF 7
ENDMDL
MODEL 6
REMARK minimizedAffinity -9.07253551
REMARK CNNscore 0.386932373
REMARK CNNaffinity 6.42094803
REMARK  7 active torsions:
REMARK  status: ('A' for Active; 'I' for Inactive)
REMARK    1  A    between atoms: C2_2  and  C30_33 
REMARK    2  A    between atoms: C3_3  and  C4_4 
REMARK    3  A    between atoms: C4_4  and  O1_5 
REMARK    4  A    between atoms: C4_4  and  C5_6 
REMARK    5  A    between atoms: C5_6  and  C6_7 
REMARK    6  A    between atoms: C6_7  and  C8_9 
REMARK    7  A    between atoms: C30_33  and  O5_35 
ROOT
HETATM    1  C8  UNL     1       6.853   9.692  14.259  1.00  0.00    -0.002 C 
HETATM    2  C9  UNL     1       7.889   8.723  13.618  1.00  0.00     0.007 C 
HETATM    3  C10 UNL     1       7.155   7.895  12.547  1.00  0.00     0.015 C 
HETATM    4  C11 UNL     1       5.813   8.618  12.333  1.00  0.00    -0.005 C 
HETATM    5  C12 UNL     1       6.077   9.785  11.332  1.00  0.00     0.021 C 
HETATM    6  C13 UNL     1       4.625   7.865  11.754  1.00  0.00    -0.000 C 
HETATM    7  C14 UNL     1       3.348   8.204  12.067  1.00  0.00    -0.060 C 
HETATM    8  C15 UNL     1       3.072   9.323  13.083  1.00  0.00     0.036 C 
HETATM    9  C16 UNL     1       4.284  10.002  13.753  1.00  0.00     0.015 C 
HETATM   10  C17 UNL     1       5.496   9.063  13.818  1.00  0.00    -0.028 C 
HETATM   11  C18 UNL     1       5.157   7.864  14.760  1.00  0.00     0.016 C 
HETATM   12  C19 UNL     1       2.103   7.499  11.474  1.00  0.00    -0.014 C 
HETATM   13  C20 UNL     1       1.518   6.587  12.590  1.00  0.00     0.020 C 
HETATM   14  C21 UNL     1       1.014   8.544  11.085  1.00  0.00     0.021 C 
HETATM   15  C22 UNL     1       0.078   8.048   9.999  1.00  0.00     0.080 C 
HETATM   16  C23 UNL     1       0.862   7.866   8.721  1.00  0.00     0.135 C 
HETATM   17  O2  UNL     1       0.356   8.166   7.639  1.00  0.00    -0.297 OA
HETATM   18  C24 UNL     1       2.285   7.286   8.833  1.00  0.00     0.018 C 
HETATM   19  C25 UNL     1       2.432   6.251   7.692  1.00  0.00     0.023 C 
HETATM   20  C26 UNL     1       3.278   8.427   8.570  1.00  0.00     0.023 C 
HETATM   21  C27 UNL     1       2.433   6.585  10.233  1.00  0.00     0.020 C 
HETATM   22  C28 UNL     1       3.750   5.834  10.454  1.00  0.00     0.090 C 
HETATM   23  C29 UNL     1       4.885   6.762  10.781  1.00  0.00     0.157 C 
HETATM   24  O3  UNL     1       5.994   6.598  10.281  1.00  0.00    -0.293 OA
ENDROOT
BRANCH   1  25
HETATM   25  C6  UNL     1       7.157   9.952  15.771  1.00  0.00    -0.011 C 
HETATM   26  C7  UNL     1       6.135  10.891  16.415  1.00  0.00     0.010 C 
BRANCH  25  27
HETATM   27  C5  UNL     1       8.613  10.495  15.926  1.00  0.00     0.040 C 
BRANCH  27  28
HETATM   28  C4  UNL     1       9.387   9.967  17.149  1.00  0.00     0.142 C 
BRANCH  28  29
HETATM   29  C3  UNL     1       9.075  10.740  18.400  1.00  0.00     0.018 C 
HETATM   30  C2  UNL     1       9.973  11.168  19.313  1.00  0.00     0.010 C 
HETATM   31  C1  UNL     1      11.453  10.928  19.258  1.00  0.00     0.055 C 
BRANCH  30  32
HETATM   32  C30 UNL     1       9.432  11.908  20.480  1.00  0.00     0.171 C 
HETATM   33  O4  UNL     1       9.515  11.581  21.651  1.00  0.00    -0.646 OA
BRANCH  32  34
HETATM   34  O5  UNL     1       8.805  13.041  20.121  1.00  0.00    -0.773 OA
HETATM   35  H44 UNL     1       8.511  13.419  20.975  1.00  0.00     0.167 HD
ENDBRANCH  32  34
ENDBRANCH  30  32
ENDBRANCH  28  29
BRANCH  28  36
HETATM   36  O1  UNL     1       9.021   8.616  17.402  1.00  0.00    -0.392 OA
HETATM   37  H6  UNL     1       8.116   8.616  17.759  1.00  0.00     0.210 HD
ENDBRANCH  28  36
ENDBRANCH  27  28
ENDBRANCH  25  27
ENDBRANCH   1  25
TORSDOF 7
ENDMDL
MODEL 7
REMARK minimizedAffinity -7.45702648
REMARK CNNscore 0.298656613
REMARK CNNaffinity 6.00468969
REMARK  7 active torsions:
REMARK  status: ('A' for Active; 'I' for Inactive)
REMARK    1  A    between atoms: C2_2  and  C30_33 
REMARK    2  A    between atoms: C3_3  and  C4_4 
REMARK    3  A    between atoms: C4_4  and  O1_5 
REMARK    4  A    between atoms: C4_4  and  C5_6 
REMARK    5  A    between atoms: C5_6  and  C6_7 
REMARK    6  A    between atoms: C6_7  and  C8_9 
REMARK    7  A    between atoms: C30_33  and  O5_35 
ROOT
HETATM    1  C8  UNL     1      -7.631 -10.291   8.065  1.00  0.00    -0.002 C 
HETATM    2  C9  UNL     1      -8.743  -9.566   7.251  1.00  0.00     0.007 C 
HETATM    3  C10 UNL     1      -8.257  -9.451   5.794  1.00  0.00     0.015 C 
HETATM    4  C11 UNL     1      -7.049 -10.401   5.700  1.00  0.00    -0.005 C 
HETATM    5  C12 UNL     1      -7.613 -11.835   5.458  1.00  0.00     0.021 C 
HETATM    6  C13 UNL     1      -6.006 -10.201   4.612  1.00  0.00    -0.000 C 
HETATM    7  C14 UNL     1      -4.710 -10.564   4.795  1.00  0.00    -0.060 C 
HETATM    8  C15 UNL     1      -4.248 -11.124   6.149  1.00  0.00     0.036 C 
HETATM    9  C16 UNL     1      -5.289 -11.213   7.283  1.00  0.00     0.015 C 
HETATM   10  C17 UNL     1      -6.397 -10.165   7.121  1.00  0.00    -0.028 C 
HETATM   11  C18 UNL     1      -5.773  -8.741   7.283  1.00  0.00     0.016 C 
HETATM   12  C19 UNL     1      -3.617 -10.422   3.707  1.00  0.00    -0.014 C 
HETATM   13  C20 UNL     1      -2.727  -9.211   4.107  1.00  0.00     0.020 C 
HETATM   14  C21 UNL     1      -2.714 -11.692   3.668  1.00  0.00     0.021 C 
HETATM   15  C22 UNL     1      -2.053 -11.907   2.319  1.00  0.00     0.080 C 
HETATM   16  C23 UNL     1      -3.119 -12.203   1.291  1.00  0.00     0.135 C 
HETATM   17  O2  UNL     1      -2.915 -13.042   0.413  1.00  0.00    -0.297 OA
HETATM   18  C24 UNL     1      -4.438 -11.411   1.383  1.00  0.00     0.018 C 
HETATM   19  C25 UNL     1      -4.811 -11.003  -0.061  1.00  0.00     0.023 C 
HETATM   20  C26 UNL     1      -5.523 -12.367   1.901  1.00  0.00     0.023 C 
HETATM   21  C27 UNL     1      -4.197 -10.135   2.270  1.00  0.00     0.020 C 
HETATM   22  C28 UNL     1      -5.378  -9.162   2.352  1.00  0.00     0.090 C 
HETATM   23  C29 UNL     1      -6.442  -9.638   3.299  1.00  0.00     0.157 C 
HETATM   24  O3  UNL     1      -7.630  -9.541   3.007  1.00  0.00    -0.293 OA
ENDROOT
BRANCH   1  25
HETATM   25  C6  UNL     1      -7.563  -9.779   9.541  1.00  0.00    -0.011 C 
HETATM   26  C7  UNL     1      -8.373  -8.498   9.748  1.00  0.00     0.010 C 
BRANCH  25  27
HETATM   27  C5  UNL     1      -6.071  -9.589   9.961  1.00  0.00     0.040 C 
BRANCH  27  28
HETATM   28  C4  UNL     1      -5.763  -9.865  11.445  1.00  0.00     0.142 C 
BRANCH  28  29
HETATM   29  C3  UNL     1      -5.939 -11.314  11.806  1.00  0.00     0.018 C 
HETATM   30  C2  UNL     1      -6.857 -11.812  12.662  1.00  0.00     0.010 C 
HETATM   31  C1  UNL     1      -7.860 -11.004  13.432  1.00  0.00     0.055 C 
BRANCH  30  32
HETATM   32  C30 UNL     1      -6.839 -13.280  12.873  1.00  0.00     0.171 C 
HETATM   33  O4  UNL     1      -7.318 -14.126  12.138  1.00  0.00    -0.646 OA
BRANCH  32  34
HETATM   34  O5  UNL     1      -6.213 -13.627  14.010  1.00  0.00    -0.773 OA
HETATM   35  H44 UNL     1      -6.273 -14.603  14.015  1.00  0.00     0.167 HD
ENDBRANCH  32  34
ENDBRANCH  30  32
ENDBRANCH  28  29
BRANCH  28  36
HETATM   36  O1  UNL     1      -4.407  -9.536  11.723  1.00  0.00    -0.392 OA
HETATM   37  H6  UNL     1      -3.847 -10.213  11.304  1.00  0.00     0.210 HD
ENDBRANCH  28  36
ENDBRANCH  27  28
ENDBRANCH  25  27
ENDBRANCH   1  25
TORSDOF 7
ENDMDL
MODEL 8
REMARK minimizedAffinity -7.73483753
REMARK CNNscore 0.22647354
REMARK CNNaffinity 5.8412137
REMARK  7 active torsions:
REMARK  status: ('A' for Active; 'I' for Inactive)
REMARK    1  A    between atoms: C2_2  and  C30_33 
REMARK    2  A    between atoms: C3_3  and  C4_4 
REMARK    3  A    between atoms: C4_4  and  O1_5 
REMARK    4  A    between atoms: C4_4  and  C5_6 
REMARK    5  A    between atoms: C5_6  and  C6_7 
REMARK    6  A    between atoms: C6_7  and  C8_9 
REMARK    7  A    between atoms: C30_33  and  O5_35 
ROOT
HETATM    1  C8  UNL     1      -3.000 -11.248   4.412  1.00  0.00    -0.002 C 
HETATM    2  C9  UNL     1      -2.329 -12.500   3.774  1.00  0.00     0.007 C 
HETATM    3  C10 UNL     1      -3.005 -12.752   2.414  1.00  0.00     0.015 C 
HETATM    4  C11 UNL     1      -3.801 -11.467   2.120  1.00  0.00    -0.005 C 
HETATM    5  C12 UNL     1      -2.802 -10.443   1.498  1.00  0.00     0.021 C 
HETATM    6  C13 UNL     1      -4.977 -11.503   1.156  1.00  0.00    -0.000 C 
HETATM    7  C14 UNL     1      -6.026 -10.651   1.283  1.00  0.00    -0.060 C 
HETATM    8  C15 UNL     1      -6.085  -9.668   2.463  1.00  0.00     0.036 C 
HETATM    9  C16 UNL     1      -4.944  -9.719   3.500  1.00  0.00     0.015 C 
HETATM   10  C17 UNL     1      -4.308 -11.113   3.575  1.00  0.00    -0.028 C 
HETATM   11  C18 UNL     1      -5.369 -12.124   4.119  1.00  0.00     0.016 C 
HETATM   12  C19 UNL     1      -7.228 -10.616   0.308  1.00  0.00    -0.014 C 
HETATM   13  C20 UNL     1      -8.430 -11.282   1.036  1.00  0.00     0.020 C 
HETATM   14  C21 UNL     1      -7.621  -9.146  -0.027  1.00  0.00     0.021 C 
HETATM   15  C22 UNL     1      -8.329  -9.010  -1.362  1.00  0.00     0.080 C 
HETATM   16  C23 UNL     1      -7.367  -9.376  -2.468  1.00  0.00     0.135 C 
HETATM   17  O2  UNL     1      -7.371  -8.743  -3.524  1.00  0.00    -0.297 OA
HETATM   18  C24 UNL     1      -6.412 -10.560  -2.220  1.00  0.00     0.018 C 
HETATM   19  C25 UNL     1      -6.394 -11.394  -3.522  1.00  0.00     0.023 C 
HETATM   20  C26 UNL     1      -5.003  -9.989  -2.003  1.00  0.00     0.023 C 
HETATM   21  C27 UNL     1      -6.974 -11.417  -1.026  1.00  0.00     0.020 C 
HETATM   22  C28 UNL     1      -6.213 -12.715  -0.737  1.00  0.00     0.090 C 
HETATM   23  C29 UNL     1      -4.938 -12.470   0.019  1.00  0.00     0.157 C 
HETATM   24  O3  UNL     1      -3.908 -13.067  -0.279  1.00  0.00    -0.293 OA
ENDROOT
BRANCH   1  25
HETATM   25  C6  UNL     1      -3.056 -11.348   5.971  1.00  0.00    -0.011 C 
HETATM   26  C7  UNL     1      -2.896 -12.787   6.466  1.00  0.00     0.010 C 
BRANCH  25  27
HETATM   27  C5  UNL     1      -4.383 -10.707   6.490  1.00  0.00     0.040 C 
BRANCH  27  28
HETATM   28  C4  UNL     1      -4.209  -9.478   7.402  1.00  0.00     0.142 C 
BRANCH  28  29
HETATM   29  C3  UNL     1      -4.160  -9.849   8.858  1.00  0.00     0.018 C 
HETATM   30  C2  UNL     1      -5.171  -9.722   9.744  1.00  0.00     0.010 C 
HETATM   31  C1  UNL     1      -6.530  -9.163   9.440  1.00  0.00     0.055 C 
BRANCH  30  32
HETATM   32  C30 UNL     1      -4.890 -10.146  11.137  1.00  0.00     0.171 C 
HETATM   33  O4  UNL     1      -5.438 -11.048  11.747  1.00  0.00    -0.646 OA
BRANCH  32  34
HETATM   34  O5  UNL     1      -3.921  -9.413  11.710  1.00  0.00    -0.773 OA
HETATM   35  H44 UNL     1      -3.841  -9.800  12.606  1.00  0.00     0.167 HD
ENDBRANCH  32  34
ENDBRANCH  30  32
ENDBRANCH  28  29
BRANCH  28  36
HETATM   36  O1  UNL     1      -2.978  -8.829   7.104  1.00  0.00    -0.392 OA
HETATM   37  H6  UNL     1      -2.258  -9.393   7.437  1.00  0.00     0.210 HD
ENDBRANCH  28  36
ENDBRANCH  27  28
ENDBRANCH  25  27
ENDBRANCH   1  25
TORSDOF 7
ENDMDL
MODEL 9
REMARK minimizedAffinity -7.23278093
REMARK CNNscore 0.221065074
REMARK CNNaffinity 5.60876799
REMARK  7 active torsions:
REMARK  status: ('A' for Active; 'I' for Inactive)
REMARK    1  A    between atoms: C2_2  and  C30_33 
REMARK    2  A    between atoms: C3_3  and  C4_4 
REMARK    3  A    between atoms: C4_4  and  O1_5 
REMARK    4  A    between atoms: C4_4  and  C5_6 
REMARK    5  A    between atoms: C5_6  and  C6_7 
REMARK    6  A    between atoms: C6_7  and  C8_9 
REMARK    7  A    between atoms: C30_33  and  O5_35 
ROOT
HETATM    1  C8  UNL     1       0.336  11.727  17.798  1.00  0.00    -0.002 C 
HETATM    2  C9  UNL     1      -0.577  12.915  18.221  1.00  0.00     0.007 C 
HETATM    3  C10 UNL     1       0.078  13.599  19.434  1.00  0.00     0.015 C 
HETATM    4  C11 UNL     1       1.510  13.036  19.486  1.00  0.00    -0.005 C 
HETATM    5  C12 UNL     1       2.365  13.870  18.482  1.00  0.00     0.021 C 
HETATM    6  C13 UNL     1       2.295  13.066  20.789  1.00  0.00    -0.000 C 
HETATM    7  C14 UNL     1       3.239  12.132  21.071  1.00  0.00    -0.060 C 
HETATM    8  C15 UNL     1       3.487  10.966  20.101  1.00  0.00     0.036 C 
HETATM    9  C16 UNL     1       2.605  10.880  18.839  1.00  0.00     0.015 C 
HETATM   10  C17 UNL     1       1.237  11.539  19.057  1.00  0.00    -0.028 C 
HETATM   11  C18 UNL     1       0.449  10.724  20.133  1.00  0.00     0.016 C 
HETATM   12  C19 UNL     1       4.095  12.139  22.361  1.00  0.00    -0.014 C 
HETATM   13  C20 UNL     1       3.541  11.017  23.285  1.00  0.00     0.020 C 
HETATM   14  C21 UNL     1       5.582  11.806  22.035  1.00  0.00     0.021 C 
HETATM   15  C22 UNL     1       6.553  12.360  23.061  1.00  0.00     0.080 C 
HETATM   16  C23 UNL     1       6.512  13.870  23.010  1.00  0.00     0.135 C 
HETATM   17  O2  UNL     1       7.550  14.520  23.138  1.00  0.00    -0.297 OA
HETATM   18  C24 UNL     1       5.139  14.540  22.810  1.00  0.00     0.018 C 
HETATM   19  C25 UNL     1       5.085  15.739  23.785  1.00  0.00     0.023 C 
HETATM   20  C26 UNL     1       5.092  15.091  21.377  1.00  0.00     0.023 C 
HETATM   21  C27 UNL     1       4.015  13.497  23.158  1.00  0.00     0.020 C 
HETATM   22  C28 UNL     1       2.584  14.046  23.142  1.00  0.00     0.090 C 
HETATM   23  C29 UNL     1       2.044  14.184  21.747  1.00  0.00     0.157 C 
HETATM   24  O3  UNL     1       1.399  15.175  21.420  1.00  0.00    -0.293 OA
ENDROOT
BRANCH   1  25
HETATM   25  C6  UNL     1      -0.493  10.531  17.225  1.00  0.00    -0.011 C 
HETATM   26  C7  UNL     1       0.391   9.489  16.538  1.00  0.00     0.010 C 
BRANCH  25  27
HETATM   27  C5  UNL     1      -1.597  11.073  16.262  1.00  0.00     0.040 C 
BRANCH  27  28
HETATM   28  C4  UNL     1      -1.445  10.660  14.786  1.00  0.00     0.142 C 
BRANCH  28  29
HETATM   29  C3  UNL     1      -2.569   9.776  14.320  1.00  0.00     0.018 C 
HETATM   30  C2  UNL     1      -3.846   9.822  14.754  1.00  0.00     0.010 C 
HETATM   31  C1  UNL     1      -4.377  10.755  15.803  1.00  0.00     0.055 C 
BRANCH  30  32
HETATM   32  C30 UNL     1      -4.786   8.842  14.157  1.00  0.00     0.171 C 
HETATM   33  O4  UNL     1      -5.856   8.486  14.618  1.00  0.00    -0.646 OA
BRANCH  32  34
HETATM   34  O5  UNL     1      -4.337   8.347  12.992  1.00  0.00    -0.773 OA
HETATM   35  H44 UNL     1      -5.046   7.730  12.717  1.00  0.00     0.167 HD
ENDBRANCH  32  34
ENDBRANCH  30  32
ENDBRANCH  28  29
BRANCH  28  36
HETATM   36  O1  UNL     1      -1.467  11.818  13.959  1.00  0.00    -0.392 OA
HETATM   37  H6  UNL     1      -2.379  12.157  13.948  1.00  0.00     0.210 HD
ENDBRANCH  28  36
ENDBRANCH  27  28
ENDBRANCH  25  27
ENDBRANCH   1  25
TORSDOF 7
ENDMDL
