MODEL 1
REMARK minimizedAffinity -10.3408003
REMARK  6 active torsions:
REMARK  status: ('A' for Active; 'I' for Inactive)
REMARK    1  A    between atoms: C3_3  and  O1_4 
REMARK    2  A    between atoms: N1_14  and  O2_16 
REMARK    3  A    between atoms: O2_16  and  C13_17 
REMARK    4  A    between atoms: C13_17  and  C14_18 
REMARK       I    between atoms: C14_18  and  N2_20 
REMARK    5  A    between atoms: N2_20  and  C15_21 
REMARK    6  A    between atoms: C15_21  and  C17_23 
ROOT
HETATM    1  C1  UNL     1       2.157  50.944 -26.272  1.00  0.00     0.015 C 
HETATM    2  C2  UNL     1       1.184  51.618 -26.063  1.00  0.00    -0.078 C 
HETATM    3  C3  UNL     1      -0.012  52.453 -25.824  1.00  0.00     0.128 C 
HETATM    4  C4  UNL     1       0.407  53.946 -25.718  1.00  0.00     0.052 C 
HETATM    5  C5  UNL     1       0.483  54.278 -24.212  1.00  0.00     0.010 C 
HETATM    6  C6  UNL     1       0.260  52.944 -23.504  1.00  0.00     0.002 C 
HETATM    7  C7  UNL     1      -0.216  52.959 -22.045  1.00  0.00    -0.004 C 
HETATM    8  C8  UNL     1       0.763  53.728 -21.149  1.00  0.00     0.010 C 
HETATM    9  C9  UNL     1       0.303  53.721 -19.697  1.00  0.00     0.035 C 
HETATM   10  C10 UNL     1       0.074  52.321 -19.177  1.00  0.00    -0.069 C 
HETATM   11  C11 UNL     1       0.622  51.951 -18.006  1.00  0.00     0.030 C 
HETATM   12  C12 UNL     1       0.322  50.641 -17.374  1.00  0.00     0.032 C 
HETATM   13  N1  UNL     1       0.918  50.358 -16.250  1.00  0.00    -0.271 N 
ATOM     14  H1  UNL     1       1.613  50.955 -15.804  1.00  0.00     0.194 HD
HETATM   15  C23 UNL     1      -0.710  49.759 -18.044  1.00  0.00     0.060 C 
HETATM   16  C24 UNL     1      -0.661  49.931 -19.555  1.00  0.00     0.020 C 
HETATM   17  C25 UNL     1      -0.814  51.406 -20.030  1.00  0.00    -0.016 C 
HETATM   18  C26 UNL     1      -2.283  51.844 -19.840  1.00  0.00     0.020 C 
HETATM   19  C27 UNL     1      -0.361  51.490 -21.539  1.00  0.00     0.002 C 
HETATM   20  C28 UNL     1      -1.220  50.624 -22.501  1.00  0.00     0.007 C 
HETATM   21  C29 UNL     1      -0.780  50.726 -23.973  1.00  0.00     0.014 C 
HETATM   22  C30 UNL     1      -0.700  52.188 -24.447  1.00  0.00     0.003 C 
HETATM   23  C31 UNL     1      -2.143  52.776 -24.463  1.00  0.00     0.020 C 
ENDROOT
BRANCH   3  24
HETATM   24  O1  UNL     1      -0.893  52.238 -26.917  1.00  0.00    -0.377 OA
HETATM   25  H2  UNL     1      -1.499  52.992 -26.979  1.00  0.00     0.211 HD
ENDBRANCH   3  24
BRANCH  13  26
HETATM   26  O2  UNL     1       0.484  49.131 -15.732  1.00  0.00    -0.271 OA
BRANCH  26  27
HETATM   27  C13 UNL     1       0.130  49.306 -14.362  1.00  0.00     0.303 C 
BRANCH  27  28
HETATM   28  C14 UNL     1      -1.321  49.760 -14.240  1.00  0.00     0.244 C 
HETATM   29  O3  UNL     1      -2.102  49.724 -15.187  1.00  0.00    -0.271 OA
HETATM   30  N2  UNL     1      -1.687  50.164 -12.976  1.00  0.00    -0.351 N 
HETATM   31  H16 UNL     1      -0.939  50.295 -12.302  1.00  0.00     0.163 HD
BRANCH  30  32
HETATM   32  C15 UNL     1      -3.002  50.694 -12.665  1.00  0.00     0.113 C 
HETATM   33  C16 UNL     1      -3.870  49.657 -11.946  1.00  0.00     0.037 C 
BRANCH  32  34
HETATM   34  C17 UNL     1      -2.853  51.975 -11.861  1.00  0.00    -0.036 A 
HETATM   35  C18 UNL     1      -1.579  52.524 -11.652  1.00  0.00     0.009 A 
HETATM   36  C19 UNL     1      -1.419  53.686 -10.895  1.00  0.00     0.001 A 
HETATM   37  C20 UNL     1      -2.528  54.310 -10.331  1.00  0.00     0.000 A 
HETATM   38  C21 UNL     1      -3.799  53.772 -10.520  1.00  0.00     0.001 A 
HETATM   39  C22 UNL     1      -3.961  52.610 -11.277  1.00  0.00     0.009 A 
ENDBRANCH  32  34
ENDBRANCH  30  32
ENDBRANCH  27  28
ENDBRANCH  26  27
ENDBRANCH  13  26
TORSDOF 6
ENDMDL
MODEL 2
REMARK minimizedAffinity -10.1177816
REMARK  6 active torsions:
REMARK  status: ('A' for Active; 'I' for Inactive)
REMARK    1  A    between atoms: C3_3  and  O1_4 
REMARK    2  A    between atoms: N1_14  and  O2_16 
REMARK    3  A    between atoms: O2_16  and  C13_17 
REMARK    4  A    between atoms: C13_17  and  C14_18 
REMARK       I    between atoms: C14_18  and  N2_20 
REMARK    5  A    between atoms: N2_20  and  C15_21 
REMARK    6  A    between atoms: C15_21  and  C17_23 
ROOT
HETATM    1  C1  UNL     1       1.896  50.682 -26.376  1.00  0.00     0.015 C 
HETATM    2  C2  UNL     1       0.957  51.394 -26.144  1.00  0.00    -0.078 C 
HETATM    3  C3  UNL     1      -0.197  52.280 -25.876  1.00  0.00     0.128 C 
HETATM    4  C4  UNL     1       0.305  53.728 -25.620  1.00  0.00     0.052 C 
HETATM    5  C5  UNL     1       0.335  53.921 -24.089  1.00  0.00     0.010 C 
HETATM    6  C6  UNL     1       0.003  52.546 -23.513  1.00  0.00     0.002 C 
HETATM    7  C7  UNL     1      -0.535  52.463 -22.079  1.00  0.00    -0.004 C 
HETATM    8  C8  UNL     1       0.448  53.087 -21.079  1.00  0.00     0.010 C 
HETATM    9  C9  UNL     1      -0.074  52.981 -19.652  1.00  0.00     0.035 C 
HETATM   10  C10 UNL     1      -0.409  51.558 -19.270  1.00  0.00    -0.069 C 
HETATM   11  C11 UNL     1       0.064  51.053 -18.118  1.00  0.00     0.030 C 
HETATM   12  C12 UNL     1      -0.341  49.714 -17.619  1.00  0.00     0.032 C 
HETATM   13  N1  UNL     1       0.188  49.296 -16.503  1.00  0.00    -0.271 N 
ATOM     14  H1  UNL     1       0.898  49.807 -15.979  1.00  0.00     0.194 HD
HETATM   15  C23 UNL     1      -1.393  48.961 -18.405  1.00  0.00     0.060 C 
HETATM   16  C24 UNL     1      -1.268  49.262 -19.891  1.00  0.00     0.020 C 
HETATM   17  C25 UNL     1      -1.311  50.780 -20.236  1.00  0.00    -0.016 C 
HETATM   18  C26 UNL     1      -2.759  51.291 -20.064  1.00  0.00     0.020 C 
HETATM   19  C27 UNL     1      -0.789  50.967 -21.713  1.00  0.00     0.002 C 
HETATM   20  C28 UNL     1      -1.655  50.245 -22.782  1.00  0.00     0.007 C 
HETATM   21  C29 UNL     1      -1.146  50.448 -24.220  1.00  0.00     0.014 C 
HETATM   22  C30 UNL     1      -0.959  51.938 -24.557  1.00  0.00     0.003 C 
HETATM   23  C31 UNL     1      -2.362  52.616 -24.574  1.00  0.00     0.020 C 
ENDROOT
BRANCH   3  24
HETATM   24  O1  UNL     1      -1.040  52.218 -27.018  1.00  0.00    -0.377 OA
HETATM   25  H2  UNL     1      -1.597  53.011 -27.034  1.00  0.00     0.211 HD
ENDBRANCH   3  24
BRANCH  13  26
HETATM   26  O2  UNL     1      -0.340  48.059 -16.115  1.00  0.00    -0.271 OA
BRANCH  26  27
HETATM   27  C13 UNL     1      -0.774  48.144 -14.760  1.00  0.00     0.303 C 
BRANCH  27  28
HETATM   28  C14 UNL     1      -0.018  49.249 -14.028  1.00  0.00     0.244 C 
HETATM   29  O3  UNL     1      -0.593  50.163 -13.444  1.00  0.00    -0.271 OA
HETATM   30  N2  UNL     1       1.352  49.104 -14.039  1.00  0.00    -0.351 N 
HETATM   31  H16 UNL     1       1.733  48.403 -14.666  1.00  0.00     0.163 HD
BRANCH  30  32
HETATM   32  C15 UNL     1       2.253  50.081 -13.456  1.00  0.00     0.113 C 
HETATM   33  C16 UNL     1       3.438  49.407 -12.757  1.00  0.00     0.037 C 
BRANCH  32  34
HETATM   34  C17 UNL     1       2.701  51.058 -14.531  1.00  0.00    -0.036 A 
HETATM   35  C18 UNL     1       4.062  51.157 -14.861  1.00  0.00     0.009 A 
HETATM   36  C19 UNL     1       4.496  52.066 -15.827  1.00  0.00     0.001 A 
HETATM   37  C20 UNL     1       3.579  52.892 -16.472  1.00  0.00     0.000 A 
HETATM   38  C21 UNL     1       2.226  52.813 -16.149  1.00  0.00     0.001 A 
HETATM   39  C22 UNL     1       1.790  51.905 -15.182  1.00  0.00     0.009 A 
ENDBRANCH  32  34
ENDBRANCH  30  32
ENDBRANCH  27  28
ENDBRANCH  26  27
ENDBRANCH  13  26
TORSDOF 6
ENDMDL
MODEL 3
REMARK minimizedAffinity -9.77731895
REMARK  6 active torsions:
REMARK  status: ('A' for Active; 'I' for Inactive)
REMARK    1  A    between atoms: C3_3  and  O1_4 
REMARK    2  A    between atoms: N1_14  and  O2_16 
REMARK    3  A    between atoms: O2_16  and  C13_17 
REMARK    4  A    between atoms: C13_17  and  C14_18 
REMARK       I    between atoms: C14_18  and  N2_20 
REMARK    5  A    between atoms: N2_20  and  C15_21 
REMARK    6  A    between atoms: C15_21  and  C17_23 
ROOT
HETATM    1  C1  UNL     1      -4.194  52.828 -10.940  1.00  0.00     0.015 C 
HETATM    2  C2  UNL     1      -3.528  51.829 -10.919  1.00  0.00    -0.078 C 
HETATM    3  C3  UNL     1      -2.713  50.595 -10.875  1.00  0.00     0.128 C 
HETATM    4  C4  UNL     1      -1.432  50.846 -10.032  1.00  0.00     0.052 C 
HETATM    5  C5  UNL     1      -0.290  51.121 -11.034  1.00  0.00     0.010 C 
HETATM    6  C6  UNL     1      -0.970  51.174 -12.400  1.00  0.00     0.002 C 
HETATM    7  C7  UNL     1      -0.117  50.937 -13.653  1.00  0.00    -0.004 C 
HETATM    8  C8  UNL     1       1.033  51.949 -13.742  1.00  0.00     0.010 C 
HETATM    9  C9  UNL     1       1.864  51.731 -14.999  1.00  0.00     0.035 C 
HETATM   10  C10 UNL     1       1.021  51.754 -16.253  1.00  0.00    -0.069 C 
HETATM   11  C11 UNL     1       1.398  52.521 -17.290  1.00  0.00     0.030 C 
HETATM   12  C12 UNL     1       0.694  52.482 -18.597  1.00  0.00     0.032 C 
HETATM   13  N1  UNL     1       1.115  53.279 -19.538  1.00  0.00    -0.271 N 
ATOM     14  H1  UNL     1       1.863  53.961 -19.419  1.00  0.00     0.194 HD
HETATM   15  C23 UNL     1      -0.418  51.468 -18.764  1.00  0.00     0.060 C 
HETATM   16  C24 UNL     1      -1.151  51.256 -17.448  1.00  0.00     0.020 C 
HETATM   17  C25 UNL     1      -0.222  50.856 -16.264  1.00  0.00    -0.016 C 
HETATM   18  C26 UNL     1       0.238  49.394 -16.459  1.00  0.00     0.020 C 
HETATM   19  C27 UNL     1      -1.024  51.050 -14.919  1.00  0.00     0.002 C 
HETATM   20  C28 UNL     1      -2.291  50.157 -14.809  1.00  0.00     0.007 C 
HETATM   21  C29 UNL     1      -3.056  50.341 -13.486  1.00  0.00     0.014 C 
HETATM   22  C30 UNL     1      -2.137  50.172 -12.263  1.00  0.00     0.003 C 
HETATM   23  C31 UNL     1      -1.672  48.685 -12.204  1.00  0.00     0.020 C 
ENDROOT
BRANCH   3  24
HETATM   24  O1  UNL     1      -3.524  49.584 -10.296  1.00  0.00    -0.377 OA
HETATM   25  H2  UNL     1      -2.948  48.890  -9.940  1.00  0.00     0.211 HD
ENDBRANCH   3  24
BRANCH  13  26
HETATM   26  O2  UNL     1       0.412  53.081 -20.733  1.00  0.00    -0.271 OA
BRANCH  26  27
HETATM   27  C13 UNL     1       1.336  53.070 -21.819  1.00  0.00     0.303 C 
BRANCH  27  28
HETATM   28  C14 UNL     1       0.593  53.032 -23.150  1.00  0.00     0.244 C 
HETATM   29  O3  UNL     1       0.477  54.022 -23.867  1.00  0.00    -0.271 OA
HETATM   30  N2  UNL     1       0.108  51.790 -23.495  1.00  0.00    -0.351 N 
HETATM   31  H16 UNL     1       0.126  51.074 -22.776  1.00  0.00     0.163 HD
BRANCH  30  32
HETATM   32  C15 UNL     1      -0.683  51.555 -24.689  1.00  0.00     0.113 C 
HETATM   33  C16 UNL     1      -1.851  52.540 -24.793  1.00  0.00     0.037 C 
BRANCH  32  34
HETATM   34  C17 UNL     1       0.220  51.605 -25.911  1.00  0.00    -0.036 A 
HETATM   35  C18 UNL     1       1.611  51.491 -25.756  1.00  0.00     0.009 A 
HETATM   36  C19 UNL     1       2.459  51.560 -26.862  1.00  0.00     0.001 A 
HETATM   37  C20 UNL     1       1.931  51.750 -28.137  1.00  0.00     0.000 A 
HETATM   38  C21 UNL     1       0.554  51.875 -28.307  1.00  0.00     0.001 A 
HETATM   39  C22 UNL     1      -0.297  51.807 -27.201  1.00  0.00     0.009 A 
ENDBRANCH  32  34
ENDBRANCH  30  32
ENDBRANCH  27  28
ENDBRANCH  26  27
ENDBRANCH  13  26
TORSDOF 6
ENDMDL
MODEL 4
REMARK minimizedAffinity -9.72073936
REMARK  6 active torsions:
REMARK  status: ('A' for Active; 'I' for Inactive)
REMARK    1  A    between atoms: C3_3  and  O1_4 
REMARK    2  A    between atoms: N1_14  and  O2_16 
REMARK    3  A    between atoms: O2_16  and  C13_17 
REMARK    4  A    between atoms: C13_17  and  C14_18 
REMARK       I    between atoms: C14_18  and  N2_20 
REMARK    5  A    between atoms: N2_20  and  C15_21 
REMARK    6  A    between atoms: C15_21  and  C17_23 
ROOT
HETATM    1  C1  UNL     1       1.790  50.631 -26.271  1.00  0.00     0.015 C 
HETATM    2  C2  UNL     1       0.875  51.368 -26.017  1.00  0.00    -0.078 C 
HETATM    3  C3  UNL     1      -0.250  52.281 -25.723  1.00  0.00     0.128 C 
HETATM    4  C4  UNL     1       0.287  53.729 -25.548  1.00  0.00     0.052 C 
HETATM    5  C5  UNL     1       0.401  53.978 -24.029  1.00  0.00     0.010 C 
HETATM    6  C6  UNL     1       0.079  52.632 -23.385  1.00  0.00     0.002 C 
HETATM    7  C7  UNL     1      -0.384  52.610 -21.922  1.00  0.00    -0.004 C 
HETATM    8  C8  UNL     1       0.659  53.253 -21.000  1.00  0.00     0.010 C 
HETATM    9  C9  UNL     1       0.212  53.209 -19.545  1.00  0.00     0.035 C 
HETATM   10  C10 UNL     1      -0.123  51.807 -19.092  1.00  0.00    -0.069 C 
HETATM   11  C11 UNL     1       0.403  51.337 -17.948  1.00  0.00     0.030 C 
HETATM   12  C12 UNL     1       0.005  50.024 -17.378  1.00  0.00     0.032 C 
HETATM   13  N1  UNL     1       0.585  49.638 -16.277  1.00  0.00    -0.271 N 
ATOM     14  H1  UNL     1       1.329  50.156 -15.810  1.00  0.00     0.194 HD
HETATM   15  C23 UNL     1      -1.099  49.261 -18.080  1.00  0.00     0.060 C 
HETATM   16  C24 UNL     1      -1.048  49.505 -19.581  1.00  0.00     0.020 C 
HETATM   17  C25 UNL     1      -1.087  51.009 -19.979  1.00  0.00    -0.016 C 
HETATM   18  C26 UNL     1      -2.516  51.551 -19.751  1.00  0.00     0.020 C 
HETATM   19  C27 UNL     1      -0.640  51.133 -21.488  1.00  0.00     0.002 C 
HETATM   20  C28 UNL     1      -1.572  50.387 -22.482  1.00  0.00     0.007 C 
HETATM   21  C29 UNL     1      -1.138  50.528 -23.952  1.00  0.00     0.014 C 
HETATM   22  C30 UNL     1      -0.946  52.002 -24.354  1.00  0.00     0.003 C 
HETATM   23  C31 UNL     1      -2.338  52.702 -24.323  1.00  0.00     0.020 C 
ENDROOT
BRANCH   3  24
HETATM   24  O1  UNL     1      -1.153  52.192 -26.815  1.00  0.00    -0.377 OA
HETATM   25  H2  UNL     1      -1.698  52.993 -26.833  1.00  0.00     0.211 HD
ENDBRANCH   3  24
BRANCH  13  26
HETATM   26  O2  UNL     1       0.060  48.425 -15.816  1.00  0.00    -0.271 OA
BRANCH  26  27
HETATM   27  C13 UNL     1       0.626  48.130 -14.541  1.00  0.00     0.303 C 
BRANCH  27  28
HETATM   28  C14 UNL     1       0.830  49.412 -13.739  1.00  0.00     0.244 C 
HETATM   29  O3  UNL     1       1.944  49.882 -13.525  1.00  0.00    -0.271 OA
HETATM   30  N2  UNL     1      -0.336  50.014 -13.322  1.00  0.00    -0.351 N 
HETATM   31  H16 UNL     1      -1.191  49.475 -13.421  1.00  0.00     0.163 HD
BRANCH  30  32
HETATM   32  C15 UNL     1      -0.357  51.204 -12.492  1.00  0.00     0.113 C 
HETATM   33  C16 UNL     1       0.022  52.454 -13.292  1.00  0.00     0.037 C 
BRANCH  32  34
HETATM   34  C17 UNL     1      -1.720  51.336 -11.834  1.00  0.00    -0.036 A 
HETATM   35  C18 UNL     1      -2.615  52.324 -12.272  1.00  0.00     0.009 A 
HETATM   36  C19 UNL     1      -3.862  52.477 -11.664  1.00  0.00     0.001 A 
HETATM   37  C20 UNL     1      -4.229  51.651 -10.604  1.00  0.00     0.000 A 
HETATM   38  C21 UNL     1      -3.348  50.672 -10.150  1.00  0.00     0.001 A 
HETATM   39  C22 UNL     1      -2.100  50.517 -10.758  1.00  0.00     0.009 A 
ENDBRANCH  32  34
ENDBRANCH  30  32
ENDBRANCH  27  28
ENDBRANCH  26  27
ENDBRANCH  13  26
TORSDOF 6
ENDMDL
MODEL 5
REMARK minimizedAffinity -9.6721487
REMARK  6 active torsions:
REMARK  status: ('A' for Active; 'I' for Inactive)
REMARK    1  A    between atoms: C3_3  and  O1_4 
REMARK    2  A    between atoms: N1_14  and  O2_16 
REMARK    3  A    between atoms: O2_16  and  C13_17 
REMARK    4  A    between atoms: C13_17  and  C14_18 
REMARK       I    between atoms: C14_18  and  N2_20 
REMARK    5  A    between atoms: N2_20  and  C15_21 
REMARK    6  A    between atoms: C15_21  and  C17_23 
ROOT
HETATM    1  C1  UNL     1      -7.262  43.932 -29.494  1.00  0.00     0.015 C 
HETATM    2  C2  UNL     1      -7.520  45.104 -29.558  1.00  0.00    -0.078 C 
HETATM    3  C3  UNL     1      -7.846  46.543 -29.653  1.00  0.00     0.128 C 
HETATM    4  C4  UNL     1      -6.867  47.235 -30.643  1.00  0.00     0.052 C 
HETATM    5  C5  UNL     1      -5.780  47.917 -29.785  1.00  0.00     0.010 C 
HETATM    6  C6  UNL     1      -6.073  47.474 -28.353  1.00  0.00     0.002 C 
HETATM    7  C7  UNL     1      -5.526  48.321 -27.197  1.00  0.00    -0.004 C 
HETATM    8  C8  UNL     1      -3.998  48.443 -27.272  1.00  0.00     0.010 C 
HETATM    9  C9  UNL     1      -3.452  49.262 -26.110  1.00  0.00     0.035 C 
HETATM   10  C10 UNL     1      -3.890  48.716 -24.770  1.00  0.00    -0.069 C 
HETATM   11  C11 UNL     1      -2.974  48.511 -23.808  1.00  0.00     0.030 C 
HETATM   12  C12 UNL     1      -3.355  48.111 -22.430  1.00  0.00     0.032 C 
HETATM   13  N1  UNL     1      -2.398  47.911 -21.568  1.00  0.00    -0.271 N 
ATOM     14  H1  UNL     1      -1.405  47.963 -21.793  1.00  0.00     0.194 HD
HETATM   15  C23 UNL     1      -4.832  48.033 -22.105  1.00  0.00     0.060 C 
HETATM   16  C24 UNL     1      -5.625  47.581 -23.323  1.00  0.00     0.020 C 
HETATM   17  C25 UNL     1      -5.390  48.454 -24.590  1.00  0.00    -0.016 C 
HETATM   18  C26 UNL     1      -6.100  49.813 -24.400  1.00  0.00     0.020 C 
HETATM   19  C27 UNL     1      -5.942  47.668 -25.842  1.00  0.00     0.002 C 
HETATM   20  C28 UNL     1      -7.467  47.379 -25.780  1.00  0.00     0.007 C 
HETATM   21  C29 UNL     1      -7.999  46.627 -27.013  1.00  0.00     0.014 C 
HETATM   22  C30 UNL     1      -7.610  47.331 -28.325  1.00  0.00     0.003 C 
HETATM   23  C31 UNL     1      -8.360  48.696 -28.388  1.00  0.00     0.020 C 
ENDROOT
BRANCH   3  24
HETATM   24  O1  UNL     1      -9.189  46.635 -30.103  1.00  0.00    -0.377 OA
HETATM   25  H2  UNL     1      -9.324  47.510 -30.499  1.00  0.00     0.211 HD
ENDBRANCH   3  24
BRANCH  13  26
HETATM   26  O2  UNL     1      -2.904  47.615 -20.296  1.00  0.00    -0.271 OA
BRANCH  26  27
HETATM   27  C13 UNL     1      -1.875  47.816 -19.330  1.00  0.00     0.303 C 
BRANCH  27  28
HETATM   28  C14 UNL     1      -1.876  49.261 -18.842  1.00  0.00     0.244 C 
HETATM   29  O3  UNL     1      -2.868  49.785 -18.342  1.00  0.00    -0.271 OA
HETATM   30  N2  UNL     1      -0.666  49.906 -18.968  1.00  0.00    -0.351 N 
HETATM   31  H16 UNL     1       0.046  49.440 -19.522  1.00  0.00     0.163 HD
BRANCH  30  32
HETATM   32  C15 UNL     1      -0.475  51.302 -18.623  1.00  0.00     0.113 C 
HETATM   33  C16 UNL     1       0.432  51.462 -17.399  1.00  0.00     0.037 C 
BRANCH  32  34
HETATM   34  C17 UNL     1       0.058  52.052 -19.833  1.00  0.00    -0.036 A 
HETATM   35  C18 UNL     1       0.959  53.113 -19.656  1.00  0.00     0.009 A 
HETATM   36  C19 UNL     1       1.440  53.830 -20.753  1.00  0.00     0.001 A 
HETATM   37  C20 UNL     1       1.022  53.502 -22.040  1.00  0.00     0.000 A 
HETATM   38  C21 UNL     1       0.120  52.458 -22.233  1.00  0.00     0.001 A 
HETATM   39  C22 UNL     1      -0.362  51.739 -21.137  1.00  0.00     0.009 A 
ENDBRANCH  32  34
ENDBRANCH  30  32
ENDBRANCH  27  28
ENDBRANCH  26  27
ENDBRANCH  13  26
TORSDOF 6
ENDMDL
MODEL 6
REMARK minimizedAffinity -9.61270332
REMARK  6 active torsions:
REMARK  status: ('A' for Active; 'I' for Inactive)
REMARK    1  A    between atoms: C3_3  and  O1_4 
REMARK    2  A    between atoms: N1_14  and  O2_16 
REMARK    3  A    between atoms: O2_16  and  C13_17 
REMARK    4  A    between atoms: C13_17  and  C14_18 
REMARK       I    between atoms: C14_18  and  N2_20 
REMARK    5  A    between atoms: N2_20  and  C15_21 
REMARK    6  A    between atoms: C15_21  and  C17_23 
ROOT
HETATM    1  C1  UNL     1      -3.817  47.365 -16.003  1.00  0.00     0.015 C 
HETATM    2  C2  UNL     1      -2.976  48.182 -16.263  1.00  0.00    -0.078 C 
HETATM    3  C3  UNL     1      -1.938  49.191 -16.565  1.00  0.00     0.128 C 
HETATM    4  C4  UNL     1      -2.463  50.606 -16.196  1.00  0.00     0.052 C 
HETATM    5  C5  UNL     1      -2.947  51.254 -17.512  1.00  0.00     0.010 C 
HETATM    6  C6  UNL     1      -2.832  50.149 -18.559  1.00  0.00     0.002 C 
HETATM    7  C7  UNL     1      -2.751  50.548 -20.039  1.00  0.00    -0.004 C 
HETATM    8  C8  UNL     1      -3.975  51.371 -20.461  1.00  0.00     0.010 C 
HETATM    9  C9  UNL     1      -3.908  51.744 -21.935  1.00  0.00     0.035 C 
HETATM   10  C10 UNL     1      -3.734  50.535 -22.824  1.00  0.00    -0.069 C 
HETATM   11  C11 UNL     1      -4.542  50.371 -23.886  1.00  0.00     0.030 C 
HETATM   12  C12 UNL     1      -4.333  49.282 -24.874  1.00  0.00     0.032 C 
HETATM   13  N1  UNL     1      -5.181  49.185 -25.859  1.00  0.00    -0.271 N 
ATOM     14  H1  UNL     1      -6.005  49.777 -25.966  1.00  0.00     0.194 HD
HETATM   15  C23 UNL     1      -3.110  48.406 -24.706  1.00  0.00     0.060 C 
HETATM   16  C24 UNL     1      -2.777  48.230 -23.232  1.00  0.00     0.020 C 
HETATM   17  C25 UNL     1      -2.600  49.569 -22.458  1.00  0.00    -0.016 C 
HETATM   18  C26 UNL     1      -1.260  50.215 -22.875  1.00  0.00     0.020 C 
HETATM   19  C27 UNL     1      -2.650  49.258 -20.912  1.00  0.00     0.002 C 
HETATM   20  C28 UNL     1      -1.519  48.312 -20.424  1.00  0.00     0.007 C 
HETATM   21  C29 UNL     1      -1.568  48.028 -18.912  1.00  0.00     0.014 C 
HETATM   22  C30 UNL     1      -1.614  49.326 -18.086  1.00  0.00     0.003 C 
HETATM   23  C31 UNL     1      -0.257  50.069 -18.268  1.00  0.00     0.020 C 
ENDROOT
BRANCH   3  24
HETATM   24  O1  UNL     1      -0.792  48.848 -15.799  1.00  0.00    -0.377 OA
HETATM   25  H2  UNL     1      -0.239  49.638 -15.697  1.00  0.00     0.211 HD
ENDBRANCH   3  24
BRANCH  13  26
HETATM   26  O2  UNL     1      -4.820  48.168 -26.752  1.00  0.00    -0.271 OA
BRANCH  26  27
HETATM   27  C13 UNL     1      -3.423  48.260 -27.019  1.00  0.00     0.303 C 
BRANCH  27  28
HETATM   28  C14 UNL     1      -3.085  49.619 -27.623  1.00  0.00     0.244 C 
HETATM   29  O3  UNL     1      -3.686  50.075 -28.592  1.00  0.00    -0.271 OA
HETATM   30  N2  UNL     1      -2.087  50.303 -26.964  1.00  0.00    -0.351 N 
HETATM   31  H16 UNL     1      -1.557  49.784 -26.272  1.00  0.00     0.163 HD
BRANCH  30  32
HETATM   32  C15 UNL     1      -1.573  51.582 -27.419  1.00  0.00     0.113 C 
HETATM   33  C16 UNL     1      -2.254  52.750 -26.699  1.00  0.00     0.037 C 
BRANCH  32  34
HETATM   34  C17 UNL     1      -0.063  51.607 -27.251  1.00  0.00    -0.036 A 
HETATM   35  C18 UNL     1       0.754  51.970 -28.333  1.00  0.00     0.009 A 
HETATM   36  C19 UNL     1       2.144  51.975 -28.206  1.00  0.00     0.001 A 
HETATM   37  C20 UNL     1       2.737  51.610 -27.000  1.00  0.00     0.000 A 
HETATM   38  C21 UNL     1       1.941  51.236 -25.920  1.00  0.00     0.001 A 
HETATM   39  C22 UNL     1       0.550  51.231 -26.045  1.00  0.00     0.009 A 
ENDBRANCH  32  34
ENDBRANCH  30  32
ENDBRANCH  27  28
ENDBRANCH  26  27
ENDBRANCH  13  26
TORSDOF 6
ENDMDL
MODEL 7
REMARK minimizedAffinity -9.55921745
REMARK  6 active torsions:
REMARK  status: ('A' for Active; 'I' for Inactive)
REMARK    1  A    between atoms: C3_3  and  O1_4 
REMARK    2  A    between atoms: N1_14  and  O2_16 
REMARK    3  A    between atoms: O2_16  and  C13_17 
REMARK    4  A    between atoms: C13_17  and  C14_18 
REMARK       I    between atoms: C14_18  and  N2_20 
REMARK    5  A    between atoms: N2_20  and  C15_21 
REMARK    6  A    between atoms: C15_21  and  C17_23 
ROOT
HETATM    1  C1  UNL     1       0.289  52.117 -23.914  1.00  0.00     0.015 C 
HETATM    2  C2  UNL     1      -0.082  51.939 -22.785  1.00  0.00    -0.078 C 
HETATM    3  C3  UNL     1      -0.521  51.727 -21.389  1.00  0.00     0.128 C 
HETATM    4  C4  UNL     1       0.181  50.469 -20.807  1.00  0.00     0.052 C 
HETATM    5  C5  UNL     1      -0.832  49.309 -20.911  1.00  0.00     0.010 C 
HETATM    6  C6  UNL     1      -2.016  49.889 -21.681  1.00  0.00     0.002 C 
HETATM    7  C7  UNL     1      -3.383  49.206 -21.548  1.00  0.00    -0.004 C 
HETATM    8  C8  UNL     1      -3.313  47.734 -21.975  1.00  0.00     0.010 C 
HETATM    9  C9  UNL     1      -4.676  47.063 -21.868  1.00  0.00     0.035 C 
HETATM   10  C10 UNL     1      -5.741  47.803 -22.643  1.00  0.00    -0.069 C 
HETATM   11  C11 UNL     1      -6.538  47.126 -23.487  1.00  0.00     0.030 C 
HETATM   12  C12 UNL     1      -7.690  47.767 -24.170  1.00  0.00     0.032 C 
HETATM   13  N1  UNL     1      -8.393  47.039 -24.990  1.00  0.00    -0.271 N 
ATOM     14  H1  UNL     1      -8.173  46.072 -25.230  1.00  0.00     0.194 HD
HETATM   15  C23 UNL     1      -8.008  49.204 -23.810  1.00  0.00     0.060 C 
HETATM   16  C24 UNL     1      -6.732  49.970 -23.490  1.00  0.00     0.020 C 
HETATM   17  C25 UNL     1      -5.858  49.310 -22.383  1.00  0.00    -0.016 C 
HETATM   18  C26 UNL     1      -6.546  49.514 -21.015  1.00  0.00     0.020 C 
HETATM   19  C27 UNL     1      -4.424  49.967 -22.429  1.00  0.00     0.002 C 
HETATM   20  C28 UNL     1      -4.423  51.494 -22.143  1.00  0.00     0.007 C 
HETATM   21  C29 UNL     1      -3.017  52.121 -22.173  1.00  0.00     0.014 C 
HETATM   22  C30 UNL     1      -2.036  51.373 -21.253  1.00  0.00     0.003 C 
HETATM   23  C31 UNL     1      -2.491  51.585 -19.778  1.00  0.00     0.020 C 
ENDROOT
BRANCH   3  24
HETATM   24  O1  UNL     1      -0.174  52.897 -20.664  1.00  0.00    -0.377 OA
HETATM   25  H2  UNL     1      -0.123  52.673 -19.721  1.00  0.00     0.211 HD
ENDBRANCH   3  24
BRANCH  13  26
HETATM   26  O2  UNL     1      -9.488  47.748 -25.500  1.00  0.00    -0.271 OA
BRANCH  26  27
HETATM   27  C13 UNL     1      -9.187  48.173 -26.827  1.00  0.00     0.303 C 
BRANCH  27  28
HETATM   28  C14 UNL     1      -7.962  47.436 -27.358  1.00  0.00     0.244 C 
HETATM   29  O3  UNL     1      -7.975  46.233 -27.607  1.00  0.00    -0.271 OA
HETATM   30  N2  UNL     1      -6.865  48.239 -27.575  1.00  0.00    -0.351 N 
HETATM   31  H16 UNL     1      -6.907  49.183 -27.204  1.00  0.00     0.163 HD
BRANCH  30  32
HETATM   32  C15 UNL     1      -5.582  47.722 -28.015  1.00  0.00     0.113 C 
HETATM   33  C16 UNL     1      -5.457  47.752 -29.542  1.00  0.00     0.037 C 
BRANCH  32  34
HETATM   34  C17 UNL     1      -4.466  48.496 -27.333  1.00  0.00    -0.036 A 
HETATM   35  C18 UNL     1      -4.168  48.249 -25.984  1.00  0.00     0.009 A 
HETATM   36  C19 UNL     1      -3.164  48.966 -25.332  1.00  0.00     0.001 A 
HETATM   37  C20 UNL     1      -2.448  49.944 -26.017  1.00  0.00     0.000 A 
HETATM   38  C21 UNL     1      -2.737  50.209 -27.354  1.00  0.00     0.001 A 
HETATM   39  C22 UNL     1      -3.741  49.492 -28.007  1.00  0.00     0.009 A 
ENDBRANCH  32  34
ENDBRANCH  30  32
ENDBRANCH  27  28
ENDBRANCH  26  27
ENDBRANCH  13  26
TORSDOF 6
ENDMDL
MODEL 8
REMARK minimizedAffinity -9.34120083
REMARK  6 active torsions:
REMARK  status: ('A' for Active; 'I' for Inactive)
REMARK    1  A    between atoms: C3_3  and  O1_4 
REMARK    2  A    between atoms: N1_14  and  O2_16 
REMARK    3  A    between atoms: O2_16  and  C13_17 
REMARK    4  A    between atoms: C13_17  and  C14_18 
REMARK       I    between atoms: C14_18  and  N2_20 
REMARK    5  A    between atoms: N2_20  and  C15_21 
REMARK    6  A    between atoms: C15_21  and  C17_23 
ROOT
HETATM    1  C1  UNL     1      -3.993  46.002 -18.096  1.00  0.00     0.015 C 
HETATM    2  C2  UNL     1      -4.989  46.621 -18.356  1.00  0.00    -0.078 C 
HETATM    3  C3  UNL     1      -6.224  47.374 -18.661  1.00  0.00     0.128 C 
HETATM    4  C4  UNL     1      -7.265  46.425 -19.319  1.00  0.00     0.052 C 
HETATM    5  C5  UNL     1      -7.183  46.667 -20.841  1.00  0.00     0.010 C 
HETATM    6  C6  UNL     1      -6.006  47.622 -21.025  1.00  0.00     0.002 C 
HETATM    7  C7  UNL     1      -5.934  48.457 -22.311  1.00  0.00    -0.004 C 
HETATM    8  C8  UNL     1      -5.918  47.560 -23.556  1.00  0.00     0.010 C 
HETATM    9  C9  UNL     1      -5.819  48.387 -24.830  1.00  0.00     0.035 C 
HETATM   10  C10 UNL     1      -4.630  49.320 -24.816  1.00  0.00    -0.069 C 
HETATM   11  C11 UNL     1      -3.798  49.348 -25.871  1.00  0.00     0.030 C 
HETATM   12  C12 UNL     1      -2.696  50.337 -25.980  1.00  0.00     0.032 C 
HETATM   13  N1  UNL     1      -1.923  50.274 -27.028  1.00  0.00    -0.271 N 
ATOM     14  H1  UNL     1      -1.997  49.559 -27.751  1.00  0.00     0.194 HD
HETATM   15  C23 UNL     1      -2.592  51.394 -24.900  1.00  0.00     0.060 C 
HETATM   16  C24 UNL     1      -3.042  50.833 -23.559  1.00  0.00     0.020 C 
HETATM   17  C25 UNL     1      -4.469  50.211 -23.579  1.00  0.00    -0.016 C 
HETATM   18  C26 UNL     1      -5.510  51.350 -23.663  1.00  0.00     0.020 C 
HETATM   19  C27 UNL     1      -4.648  49.341 -22.275  1.00  0.00     0.002 C 
HETATM   20  C28 UNL     1      -4.538  50.155 -20.956  1.00  0.00     0.007 C 
HETATM   21  C29 UNL     1      -4.730  49.299 -19.691  1.00  0.00     0.014 C 
HETATM   22  C30 UNL     1      -6.034  48.483 -19.744  1.00  0.00     0.003 C 
HETATM   23  C31 UNL     1      -7.234  49.475 -19.692  1.00  0.00     0.020 C 
ENDROOT
BRANCH   3  24
HETATM   24  O1  UNL     1      -6.705  47.898 -17.432  1.00  0.00    -0.377 OA
HETATM   25  H2  UNL     1      -7.651  48.088 -17.525  1.00  0.00     0.211 HD
ENDBRANCH   3  24
BRANCH  13  26
HETATM   26  O2  UNL     1      -0.981  51.310 -27.036  1.00  0.00    -0.271 OA
BRANCH  26  27
HETATM   27  C13 UNL     1       0.272  50.801 -26.587  1.00  0.00     0.303 C 
BRANCH  27  28
HETATM   28  C14 UNL     1       1.082  51.901 -25.908  1.00  0.00     0.244 C 
HETATM   29  O3  UNL     1       2.146  52.310 -26.364  1.00  0.00    -0.271 OA
HETATM   30  N2  UNL     1       0.496  52.422 -24.776  1.00  0.00    -0.351 N 
HETATM   31  H16 UNL     1      -0.304  51.922 -24.402  1.00  0.00     0.163 HD
BRANCH  30  32
HETATM   32  C15 UNL     1       1.134  53.430 -23.949  1.00  0.00     0.113 C 
HETATM   33  C16 UNL     1       0.709  54.844 -24.356  1.00  0.00     0.037 C 
BRANCH  32  34
HETATM   34  C17 UNL     1       0.840  53.141 -22.486  1.00  0.00    -0.036 A 
HETATM   35  C18 UNL     1       0.116  51.992 -22.132  1.00  0.00     0.009 A 
HETATM   36  C19 UNL     1      -0.185  51.723 -20.796  1.00  0.00     0.001 A 
HETATM   37  C20 UNL     1       0.226  52.601 -19.797  1.00  0.00     0.000 A 
HETATM   38  C21 UNL     1       0.936  53.751 -20.131  1.00  0.00     0.001 A 
HETATM   39  C22 UNL     1       1.239  54.022 -21.468  1.00  0.00     0.009 A 
ENDBRANCH  32  34
ENDBRANCH  30  32
ENDBRANCH  27  28
ENDBRANCH  26  27
ENDBRANCH  13  26
TORSDOF 6
ENDMDL
MODEL 9
REMARK minimizedAffinity -9.33646774
REMARK  6 active torsions:
REMARK  status: ('A' for Active; 'I' for Inactive)
REMARK    1  A    between atoms: C3_3  and  O1_4 
REMARK    2  A    between atoms: N1_14  and  O2_16 
REMARK    3  A    between atoms: O2_16  and  C13_17 
REMARK    4  A    between atoms: C13_17  and  C14_18 
REMARK       I    between atoms: C14_18  and  N2_20 
REMARK    5  A    between atoms: N2_20  and  C15_21 
REMARK    6  A    between atoms: C15_21  and  C17_23 
ROOT
HETATM    1  C1  UNL     1       2.558  51.326 -27.034  1.00  0.00     0.015 C 
HETATM    2  C2  UNL     1       1.501  51.892 -27.111  1.00  0.00    -0.078 C 
HETATM    3  C3  UNL     1       0.207  52.600 -27.219  1.00  0.00     0.128 C 
HETATM    4  C4  UNL     1       0.307  53.979 -26.510  1.00  0.00     0.052 C 
HETATM    5  C5  UNL     1      -0.327  53.806 -25.113  1.00  0.00     0.010 C 
HETATM    6  C6  UNL     1      -0.628  52.313 -25.002  1.00  0.00     0.002 C 
HETATM    7  C7  UNL     1      -1.685  51.853 -23.989  1.00  0.00    -0.004 C 
HETATM    8  C8  UNL     1      -1.319  52.293 -22.565  1.00  0.00     0.010 C 
HETATM    9  C9  UNL     1      -2.354  51.814 -21.556  1.00  0.00     0.035 C 
HETATM   10  C10 UNL     1      -2.570  50.320 -21.625  1.00  0.00    -0.069 C 
HETATM   11  C11 UNL     1      -2.534  49.593 -20.495  1.00  0.00     0.030 C 
HETATM   12  C12 UNL     1      -2.875  48.148 -20.476  1.00  0.00     0.032 C 
HETATM   13  N1  UNL     1      -2.788  47.517 -19.339  1.00  0.00    -0.271 N 
ATOM     14  H1  UNL     1      -2.453  47.940 -18.473  1.00  0.00     0.194 HD
HETATM   15  C23 UNL     1      -3.369  47.526 -21.766  1.00  0.00     0.060 C 
HETATM   16  C24 UNL     1      -2.698  48.179 -22.965  1.00  0.00     0.020 C 
HETATM   17  C25 UNL     1      -2.852  49.728 -23.011  1.00  0.00    -0.016 C 
HETATM   18  C26 UNL     1      -4.306  50.075 -23.400  1.00  0.00     0.020 C 
HETATM   19  C27 UNL     1      -1.809  50.298 -24.050  1.00  0.00     0.002 C 
HETATM   20  C28 UNL     1      -2.025  49.788 -25.501  1.00  0.00     0.007 C 
HETATM   21  C29 UNL     1      -1.013  50.363 -26.509  1.00  0.00     0.014 C 
HETATM   22  C30 UNL     1      -0.959  51.900 -26.452  1.00  0.00     0.003 C 
HETATM   23  C31 UNL     1      -2.324  52.456 -26.958  1.00  0.00     0.020 C 
ENDROOT
BRANCH   3  24
HETATM   24  O1  UNL     1      -0.070  52.748 -28.604  1.00  0.00    -0.377 OA
HETATM   25  H2  UNL     1      -0.696  53.479 -28.718  1.00  0.00     0.211 HD
ENDBRANCH   3  24
BRANCH  13  26
HETATM   26  O2  UNL     1      -3.212  46.187 -19.453  1.00  0.00    -0.271 OA
BRANCH  26  27
HETATM   27  C13 UNL     1      -3.203  45.585 -18.160  1.00  0.00     0.303 C 
BRANCH  27  28
HETATM   28  C14 UNL     1      -3.280  46.654 -17.075  1.00  0.00     0.244 C 
HETATM   29  O3  UNL     1      -4.327  47.230 -16.793  1.00  0.00    -0.271 OA
HETATM   30  N2  UNL     1      -2.093  46.879 -16.413  1.00  0.00    -0.351 N 
HETATM   31  H16 UNL     1      -1.259  46.463 -16.814  1.00  0.00     0.163 HD
BRANCH  30  32
HETATM   32  C15 UNL     1      -1.939  47.900 -15.393  1.00  0.00     0.113 C 
HETATM   33  C16 UNL     1      -1.538  47.293 -14.045  1.00  0.00     0.037 C 
BRANCH  32  34
HETATM   34  C17 UNL     1      -0.944  48.944 -15.871  1.00  0.00    -0.036 A 
HETATM   35  C18 UNL     1       0.102  49.351 -15.027  1.00  0.00     0.009 A 
HETATM   36  C19 UNL     1       1.011  50.327 -15.438  1.00  0.00     0.001 A 
HETATM   37  C20 UNL     1       0.885  50.914 -16.694  1.00  0.00     0.000 A 
HETATM   38  C21 UNL     1      -0.152  50.530 -17.540  1.00  0.00     0.001 A 
HETATM   39  C22 UNL     1      -1.064  49.554 -17.131  1.00  0.00     0.009 A 
ENDBRANCH  32  34
ENDBRANCH  30  32
ENDBRANCH  27  28
ENDBRANCH  26  27
ENDBRANCH  13  26
TORSDOF 6
ENDMDL
