MODEL 1
REMARK minimizedAffinity -7.41530561
REMARK CNNscore 0.69488728
REMARK CNNaffinity 6.90141249
REMARK  6 active torsions:
REMARK  status: ('A' for Active; 'I' for Inactive)
REMARK    1  A    between atoms: O1_2  and  C2_3 
REMARK    2  A    between atoms: C17_20  and  C18_21 
REMARK    3  A    between atoms: C22_27  and  O6_28 
REMARK    4  A    between atoms: O6_28  and  C23_29 
REMARK    5  A    between atoms: C26_33  and  O8_34 
REMARK    6  A    between atoms: C31_40  and  O10_41 
ROOT
HETATM    1  C2  UNL     1       3.682  47.636 -10.274  1.00  0.00     0.190 C 
HETATM    2  C3  UNL     1       4.929  47.626  -9.380  1.00  0.00     0.064 C 
HETATM    3  C4  UNL     1       5.712  48.925  -9.452  1.00  0.00     0.174 C 
HETATM    4  O2  UNL     1       5.601  49.469 -10.757  1.00  0.00    -0.356 OA
HETATM    5  C5  UNL     1       4.293  50.011 -10.984  1.00  0.00     0.325 C 
HETATM    6  O3  UNL     1       4.166  50.318 -12.377  1.00  0.00    -0.344 OA
HETATM    7  C6  UNL     1       2.944  51.024 -12.592  1.00  0.00     0.177 C 
HETATM    8  C7  UNL     1       2.900  51.434 -14.035  1.00  0.00     0.011 C 
HETATM    9  C8  UNL     1       1.777  51.491 -14.775  1.00  0.00    -0.072 C 
HETATM   10  C9  UNL     1       1.802  52.164 -16.128  1.00  0.00     0.035 C 
HETATM   11  C10 UNL     1       0.858  51.560 -17.171  1.00  0.00     0.012 C 
HETATM   12  C11 UNL     1      -0.563  51.396 -16.599  1.00  0.00     0.026 C 
HETATM   13  C12 UNL     1      -0.499  50.460 -15.362  1.00  0.00     0.005 C 
HETATM   14  C13 UNL     1      -0.149  49.016 -15.813  1.00  0.00     0.007 C 
HETATM   15  C14 UNL     1      -0.620  48.635 -17.218  1.00  0.00     0.013 C 
HETATM   16  C15 UNL     1      -1.899  49.368 -17.686  1.00  0.00    -0.003 C 
HETATM   17  C16 UNL     1      -3.073  48.801 -16.852  1.00  0.00     0.019 C 
HETATM   18  C17 UNL     1      -2.089  49.099 -19.224  1.00  0.00     0.058 C 
HETATM   19  C22 UNL     1      -1.251  50.225 -19.872  1.00  0.00     0.143 C 
HETATM   20  C25 UNL     1      -1.568  51.451 -19.023  1.00  0.00     0.072 C 
HETATM   21  C26 UNL     1      -1.697  50.931 -17.577  1.00  0.00     0.072 C 
HETATM   22  C27 UNL     1       0.441  51.016 -14.220  1.00  0.00    -0.014 C 
HETATM   23  C28 UNL     1      -0.250  52.218 -13.528  1.00  0.00     0.020 C 
HETATM   24  C29 UNL     1       0.692  49.911 -13.152  1.00  0.00     0.049 C 
HETATM   25  C30 UNL     1       1.713  50.248 -12.060  1.00  0.00     0.159 C 
HETATM   26  O9  UNL     1       2.058  48.988 -11.456  1.00  0.00    -0.341 OA
HETATM   27  C31 UNL     1       3.129  49.068 -10.510  1.00  0.00     0.240 C 
ENDROOT
BRANCH  18  28
HETATM   28  C18 UNL     1      -3.509  49.001 -19.738  1.00  0.00    -0.043 A 
HETATM   29  C19 UNL     1      -4.400  49.996 -19.719  1.00  0.00     0.087 A 
HETATM   30  C20 UNL     1      -5.639  49.487 -20.298  1.00  0.00     0.283 A 
HETATM   31  O4  UNL     1      -6.661  50.133 -20.437  1.00  0.00    -0.260 OA
HETATM   32  O5  UNL     1      -5.466  48.187 -20.643  1.00  0.00    -0.314 OA
HETATM   33  C21 UNL     1      -4.135  47.786 -20.315  1.00  0.00     0.214 A 
ENDBRANCH  18  28
BRANCH  19  34
HETATM   34  O6  UNL     1      -1.578  50.477 -21.242  1.00  0.00    -0.316 OA
BRANCH  34  35
HETATM   35  C23 UNL     1      -0.774  51.376 -21.873  1.00  0.00     0.255 C 
HETATM   36  C24 UNL     1      -1.570  52.175 -22.859  1.00  0.00     0.126 C 
HETATM   37  O7  UNL     1       0.421  51.523 -21.665  1.00  0.00    -0.266 OA
ENDBRANCH  34  35
ENDBRANCH  19  34
BRANCH  21  38
HETATM   38  O8  UNL     1      -2.921  51.499 -17.069  1.00  0.00    -0.389 OA
HETATM   39  H35 UNL     1      -2.826  52.470 -17.041  1.00  0.00     0.210 HD
ENDBRANCH  21  38
BRANCH  27  40
HETATM   40  O10 UNL     1       2.576  49.545  -9.274  1.00  0.00    -0.360 OA
HETATM   41  H42 UNL     1       2.202  48.737  -8.869  1.00  0.00     0.213 HD
ENDBRANCH  27  40
BRANCH   1  42
HETATM   42  O1  UNL     1       2.652  46.857  -9.618  1.00  0.00    -0.385 OA
HETATM   43  C1  UNL     1       3.165  46.084  -8.537  1.00  0.00     0.202 C 
ENDBRANCH   1  42
TORSDOF 6
ENDMDL
MODEL 2
REMARK minimizedAffinity -6.9741292
REMARK CNNscore 0.644510806
REMARK CNNaffinity 6.29718637
REMARK  6 active torsions:
REMARK  status: ('A' for Active; 'I' for Inactive)
REMARK    1  A    between atoms: O1_2  and  C2_3 
REMARK    2  A    between atoms: C17_20  and  C18_21 
REMARK    3  A    between atoms: C22_27  and  O6_28 
REMARK    4  A    between atoms: O6_28  and  C23_29 
REMARK    5  A    between atoms: C26_33  and  O8_34 
REMARK    6  A    between atoms: C31_40  and  O10_41 
ROOT
HETATM    1  C2  UNL     1      -1.919  51.350 -10.636  1.00  0.00     0.190 C 
HETATM    2  C3  UNL     1      -3.387  51.249 -11.070  1.00  0.00     0.064 C 
HETATM    3  C4  UNL     1      -4.062  52.605 -11.172  1.00  0.00     0.174 C 
HETATM    4  O2  UNL     1      -3.519  53.476 -10.194  1.00  0.00    -0.356 OA
HETATM    5  C5  UNL     1      -2.191  53.887 -10.544  1.00  0.00     0.325 C 
HETATM    6  O3  UNL     1      -1.612  54.556  -9.418  1.00  0.00    -0.344 OA
HETATM    7  C6  UNL     1      -0.363  55.130  -9.804  1.00  0.00     0.177 C 
HETATM    8  C7  UNL     1       0.157  55.921  -8.640  1.00  0.00     0.011 C 
HETATM    9  C8  UNL     1       1.459  56.039  -8.322  1.00  0.00    -0.072 C 
HETATM   10  C9  UNL     1       1.893  57.063  -7.300  1.00  0.00     0.035 C 
HETATM   11  C10 UNL     1       3.103  56.661  -6.452  1.00  0.00     0.012 C 
HETATM   12  C11 UNL     1       4.258  56.162  -7.340  1.00  0.00     0.026 C 
HETATM   13  C12 UNL     1       3.768  54.931  -8.151  1.00  0.00     0.005 C 
HETATM   14  C13 UNL     1       3.535  53.730  -7.194  1.00  0.00     0.007 C 
HETATM   15  C14 UNL     1       4.421  53.704  -5.947  1.00  0.00     0.013 C 
HETATM   16  C15 UNL     1       5.806  54.368  -6.131  1.00  0.00    -0.003 C 
HETATM   17  C16 UNL     1       6.630  53.443  -7.058  1.00  0.00     0.019 C 
HETATM   18  C17 UNL     1       6.473  54.522  -4.714  1.00  0.00     0.058 C 
HETATM   19  C22 UNL     1       5.925  55.882  -4.227  1.00  0.00     0.143 C 
HETATM   20  C25 UNL     1       5.992  56.768  -5.466  1.00  0.00     0.072 C 
HETATM   21  C26 UNL     1       5.631  55.849  -6.650  1.00  0.00     0.072 C 
HETATM   22  C27 UNL     1       2.529  55.259  -9.075  1.00  0.00    -0.014 C 
HETATM   23  C28 UNL     1       2.999  56.118 -10.276  1.00  0.00     0.020 C 
HETATM   24  C29 UNL     1       1.912  53.939  -9.625  1.00  0.00     0.049 C 
HETATM   25  C30 UNL     1       0.605  54.084 -10.412  1.00  0.00     0.159 C 
HETATM   26  O9  UNL     1       0.043  52.760 -10.467  1.00  0.00    -0.341 OA
HETATM   27  C31 UNL     1      -1.273  52.707 -11.028  1.00  0.00     0.240 C 
ENDROOT
BRANCH  18  28
HETATM   28  C18 UNL     1       7.979  54.390  -4.642  1.00  0.00    -0.043 A 
HETATM   29  C19 UNL     1       8.847  55.356  -4.956  1.00  0.00     0.087 A 
HETATM   30  C20 UNL     1      10.190  54.822  -4.753  1.00  0.00     0.283 A 
HETATM   31  O4  UNL     1      11.221  55.437  -4.944  1.00  0.00    -0.260 OA
HETATM   32  O5  UNL     1      10.097  53.536  -4.331  1.00  0.00    -0.314 OA
HETATM   33  C21 UNL     1       8.719  53.169  -4.238  1.00  0.00     0.214 A 
ENDBRANCH  18  28
BRANCH  19  34
HETATM   34  O6  UNL     1       6.685  56.466  -3.163  1.00  0.00    -0.316 OA
BRANCH  34  35
HETATM   35  C23 UNL     1       6.152  57.597  -2.624  1.00  0.00     0.255 C 
HETATM   36  C24 UNL     1       4.878  57.275  -1.907  1.00  0.00     0.126 C 
HETATM   37  O7  UNL     1       6.641  58.714  -2.702  1.00  0.00    -0.266 OA
ENDBRANCH  34  35
ENDBRANCH  19  34
BRANCH  21  38
HETATM   38  O8  UNL     1       6.643  56.088  -7.649  1.00  0.00    -0.389 OA
HETATM   39  H35 UNL     1       6.576  57.016  -7.944  1.00  0.00     0.210 HD
ENDBRANCH  21  38
BRANCH  27  40
HETATM   40  O10 UNL     1      -1.132  52.741 -12.457  1.00  0.00    -0.360 OA
HETATM   41  H42 UNL     1      -0.935  51.810 -12.684  1.00  0.00     0.213 HD
ENDBRANCH  27  40
BRANCH   1  42
HETATM   42  O1  UNL     1      -1.181  50.291 -11.295  1.00  0.00    -0.385 OA
HETATM   43  C1  UNL     1      -1.983  49.138 -11.527  1.00  0.00     0.202 C 
ENDBRANCH   1  42
TORSDOF 6
ENDMDL
MODEL 3
REMARK minimizedAffinity -8.15737724
REMARK CNNscore 0.612962782
REMARK CNNaffinity 5.96091795
REMARK  6 active torsions:
REMARK  status: ('A' for Active; 'I' for Inactive)
REMARK    1  A    between atoms: O1_2  and  C2_3 
REMARK    2  A    between atoms: C17_20  and  C18_21 
REMARK    3  A    between atoms: C22_27  and  O6_28 
REMARK    4  A    between atoms: O6_28  and  C23_29 
REMARK    5  A    between atoms: C26_33  and  O8_34 
REMARK    6  A    between atoms: C31_40  and  O10_41 
ROOT
HETATM    1  C2  UNL     1      -7.659  46.238 -30.976  1.00  0.00     0.190 C 
HETATM    2  C3  UNL     1      -6.356  47.016 -31.200  1.00  0.00     0.064 C 
HETATM    3  C4  UNL     1      -5.858  47.700 -29.939  1.00  0.00     0.174 C 
HETATM    4  O2  UNL     1      -6.968  48.102 -29.153  1.00  0.00    -0.356 OA
HETATM    5  C5  UNL     1      -7.599  46.975 -28.532  1.00  0.00     0.325 C 
HETATM    6  O3  UNL     1      -8.838  47.408 -27.960  1.00  0.00    -0.344 OA
HETATM    7  C6  UNL     1      -9.395  46.347 -27.184  1.00  0.00     0.177 C 
HETATM    8  C7  UNL     1     -10.625  46.871 -26.506  1.00  0.00     0.011 C 
HETATM    9  C8  UNL     1     -11.732  46.143 -26.269  1.00  0.00    -0.072 C 
HETATM   10  C9  UNL     1     -12.806  46.683 -25.352  1.00  0.00     0.035 C 
HETATM   11  C10 UNL     1     -14.235  46.271 -25.713  1.00  0.00     0.012 C 
HETATM   12  C11 UNL     1     -14.332  44.749 -25.933  1.00  0.00     0.026 C 
HETATM   13  C12 UNL     1     -13.375  44.350 -27.089  1.00  0.00     0.005 C 
HETATM   14  C13 UNL     1     -13.908  44.919 -28.432  1.00  0.00     0.007 C 
HETATM   15  C14 UNL     1     -15.428  45.075 -28.522  1.00  0.00     0.013 C 
HETATM   16  C15 UNL     1     -16.227  44.063 -27.668  1.00  0.00    -0.003 C 
HETATM   17  C16 UNL     1     -16.065  42.679 -28.342  1.00  0.00     0.019 C 
HETATM   18  C17 UNL     1     -17.730  44.524 -27.632  1.00  0.00     0.058 C 
HETATM   19  C22 UNL     1     -17.758  45.500 -26.434  1.00  0.00     0.143 C 
HETATM   20  C25 UNL     1     -16.897  44.810 -25.382  1.00  0.00     0.072 C 
HETATM   21  C26 UNL     1     -15.754  44.131 -26.163  1.00  0.00     0.072 C 
HETATM   22  C27 UNL     1     -11.868  44.721 -26.795  1.00  0.00    -0.014 C 
HETATM   23  C28 UNL     1     -11.303  43.754 -25.723  1.00  0.00     0.020 C 
HETATM   24  C29 UNL     1     -11.019  44.568 -28.091  1.00  0.00     0.049 C 
HETATM   25  C30 UNL     1      -9.565  45.043 -28.004  1.00  0.00     0.159 C 
HETATM   26  O9  UNL     1      -9.122  45.172 -29.367  1.00  0.00    -0.341 OA
HETATM   27  C31 UNL     1      -7.825  45.763 -29.507  1.00  0.00     0.240 C 
ENDROOT
BRANCH  18  28
HETATM   28  C18 UNL     1     -18.785  43.439 -27.581  1.00  0.00    -0.043 A 
HETATM   29  C19 UNL     1     -19.688  43.205 -28.537  1.00  0.00     0.087 A 
HETATM   30  C20 UNL     1     -20.514  42.085 -28.095  1.00  0.00     0.283 A 
HETATM   31  O4  UNL     1     -21.436  41.607 -28.728  1.00  0.00    -0.260 OA
HETATM   32  O5  UNL     1     -20.093  41.680 -26.871  1.00  0.00    -0.314 OA
HETATM   33  C21 UNL     1     -18.995  42.494 -26.457  1.00  0.00     0.214 A 
ENDBRANCH  18  28
BRANCH  19  34
HETATM   34  O6  UNL     1     -19.069  45.744 -25.914  1.00  0.00    -0.316 OA
BRANCH  34  35
HETATM   35  C23 UNL     1     -19.114  46.534 -24.806  1.00  0.00     0.255 C 
HETATM   36  C24 UNL     1     -19.576  45.738 -23.625  1.00  0.00     0.126 C 
HETATM   37  O7  UNL     1     -18.815  47.718 -24.771  1.00  0.00    -0.266 OA
ENDBRANCH  34  35
ENDBRANCH  19  34
BRANCH  21  38
HETATM   38  O8  UNL     1     -15.689  42.781 -25.660  1.00  0.00    -0.389 OA
HETATM   39  H35 UNL     1     -15.444  42.812 -24.716  1.00  0.00     0.210 HD
ENDBRANCH  21  38
BRANCH  27  40
HETATM   40  O10 UNL     1      -6.855  44.735 -29.255  1.00  0.00    -0.360 OA
HETATM   41  H42 UNL     1      -6.797  44.267 -30.112  1.00  0.00     0.213 HD
ENDBRANCH  27  40
BRANCH   1  42
HETATM   42  O1  UNL     1      -7.637  45.068 -31.830  1.00  0.00    -0.385 OA
HETATM   43  C1  UNL     1      -8.244  45.311 -33.095  1.00  0.00     0.202 C 
ENDBRANCH   1  42
TORSDOF 6
ENDMDL
MODEL 4
REMARK minimizedAffinity -6.96478367
REMARK CNNscore 0.604536355
REMARK CNNaffinity 5.85921144
REMARK  6 active torsions:
REMARK  status: ('A' for Active; 'I' for Inactive)
REMARK    1  A    between atoms: O1_2  and  C2_3 
REMARK    2  A    between atoms: C17_20  and  C18_21 
REMARK    3  A    between atoms: C22_27  and  O6_28 
REMARK    4  A    between atoms: O6_28  and  C23_29 
REMARK    5  A    between atoms: C26_33  and  O8_34 
REMARK    6  A    between atoms: C31_40  and  O10_41 
ROOT
HETATM    1  C2  UNL     1     -10.068  45.101 -17.170  1.00  0.00     0.190 C 
HETATM    2  C3  UNL     1      -8.654  45.611 -16.865  1.00  0.00     0.064 C 
HETATM    3  C4  UNL     1      -8.425  47.031 -17.352  1.00  0.00     0.174 C 
HETATM    4  O2  UNL     1      -9.174  47.248 -18.536  1.00  0.00    -0.356 OA
HETATM    5  C5  UNL     1     -10.575  47.358 -18.251  1.00  0.00     0.325 C 
HETATM    6  O3  UNL     1     -11.292  47.330 -19.490  1.00  0.00    -0.344 OA
HETATM    7  C6  UNL     1     -12.669  47.619 -19.243  1.00  0.00     0.177 C 
HETATM    8  C7  UNL     1     -13.365  47.701 -20.569  1.00  0.00     0.011 C 
HETATM    9  C8  UNL     1     -14.631  47.300 -20.789  1.00  0.00    -0.072 C 
HETATM   10  C9  UNL     1     -15.322  47.665 -22.082  1.00  0.00     0.035 C 
HETATM   11  C10 UNL     1     -16.323  46.630 -22.598  1.00  0.00     0.012 C 
HETATM   12  C11 UNL     1     -17.302  46.206 -21.486  1.00  0.00     0.026 C 
HETATM   13  C12 UNL     1     -16.489  45.593 -20.313  1.00  0.00     0.005 C 
HETATM   14  C13 UNL     1     -15.871  44.238 -20.753  1.00  0.00     0.007 C 
HETATM   15  C14 UNL     1     -16.666  43.467 -21.810  1.00  0.00     0.013 C 
HETATM   16  C15 UNL     1     -18.192  43.716 -21.771  1.00  0.00    -0.003 C 
HETATM   17  C16 UNL     1     -18.727  43.032 -20.489  1.00  0.00     0.019 C 
HETATM   18  C17 UNL     1     -18.827  43.099 -23.071  1.00  0.00     0.058 C 
HETATM   19  C22 UNL     1     -18.702  44.254 -24.090  1.00  0.00     0.143 C 
HETATM   20  C25 UNL     1     -19.075  45.494 -23.285  1.00  0.00     0.072 C 
HETATM   21  C26 UNL     1     -18.491  45.262 -21.876  1.00  0.00     0.072 C 
HETATM   22  C27 UNL     1     -15.438  46.603 -19.702  1.00  0.00    -0.014 C 
HETATM   23  C28 UNL     1     -16.185  47.686 -18.884  1.00  0.00     0.020 C 
HETATM   24  C29 UNL     1     -14.468  45.847 -18.746  1.00  0.00     0.049 C 
HETATM   25  C30 UNL     1     -13.293  46.662 -18.196  1.00  0.00     0.159 C 
HETATM   26  O9  UNL     1     -12.358  45.693 -17.689  1.00  0.00    -0.341 OA
HETATM   27  C31 UNL     1     -11.107  46.250 -17.271  1.00  0.00     0.240 C 
ENDROOT
BRANCH  18  28
HETATM   28  C18 UNL     1     -20.219  42.517 -22.951  1.00  0.00    -0.043 A 
HETATM   29  C19 UNL     1     -20.586  41.313 -23.397  1.00  0.00     0.087 A 
HETATM   30  C20 UNL     1     -22.002  41.143 -23.090  1.00  0.00     0.283 A 
HETATM   31  O4  UNL     1     -22.660  40.155 -23.356  1.00  0.00    -0.260 OA
HETATM   32  O5  UNL     1     -22.459  42.262 -22.473  1.00  0.00    -0.314 OA
HETATM   33  C21 UNL     1     -21.390  43.201 -22.348  1.00  0.00     0.214 A 
ENDBRANCH  18  28
BRANCH  19  34
HETATM   34  O6  UNL     1     -19.567  44.125 -25.223  1.00  0.00    -0.316 OA
BRANCH  34  35
HETATM   35  C23 UNL     1     -18.983  44.367 -26.429  1.00  0.00     0.255 C 
HETATM   36  C24 UNL     1     -18.404  43.102 -26.983  1.00  0.00     0.126 C 
HETATM   37  O7  UNL     1     -18.941  45.453 -26.988  1.00  0.00    -0.266 OA
ENDBRANCH  34  35
ENDBRANCH  19  34
BRANCH  21  38
HETATM   38  O8  UNL     1     -19.561  45.568 -20.959  1.00  0.00    -0.389 OA
HETATM   39  H35 UNL     1     -19.788  46.513 -21.049  1.00  0.00     0.210 HD
ENDBRANCH  21  38
BRANCH  27  40
HETATM   40  O10 UNL     1     -11.299  46.800 -15.959  1.00  0.00    -0.360 OA
HETATM   41  H42 UNL     1     -11.212  46.020 -15.375  1.00  0.00     0.213 HD
ENDBRANCH  27  40
BRANCH   1  42
HETATM   42  O1  UNL     1     -10.471  44.221 -16.092  1.00  0.00    -0.385 OA
HETATM   43  C1  UNL     1      -9.380  43.863 -15.250  1.00  0.00     0.202 C 
ENDBRANCH   1  42
TORSDOF 6
ENDMDL
MODEL 5
REMARK minimizedAffinity -9.46200275
REMARK CNNscore 0.579272687
REMARK CNNaffinity 6.51272058
REMARK  6 active torsions:
REMARK  status: ('A' for Active; 'I' for Inactive)
REMARK    1  A    between atoms: O1_2  and  C2_3 
REMARK    2  A    between atoms: C17_20  and  C18_21 
REMARK    3  A    between atoms: C22_27  and  O6_28 
REMARK    4  A    between atoms: O6_28  and  C23_29 
REMARK    5  A    between atoms: C26_33  and  O8_34 
REMARK    6  A    between atoms: C31_40  and  O10_41 
ROOT
HETATM    1  C2  UNL     1      -7.596  44.976 -28.573  1.00  0.00     0.190 C 
HETATM    2  C3  UNL     1      -8.502  43.826 -29.033  1.00  0.00     0.064 C 
HETATM    3  C4  UNL     1      -9.490  43.396 -27.963  1.00  0.00     0.174 C 
HETATM    4  O2  UNL     1      -8.900  43.559 -26.685  1.00  0.00    -0.356 OA
HETATM    5  C5  UNL     1      -8.809  44.945 -26.327  1.00  0.00     0.325 C 
HETATM    6  O3  UNL     1      -7.995  45.057 -25.155  1.00  0.00    -0.344 OA
HETATM    7  C6  UNL     1      -8.040  46.403 -24.679  1.00  0.00     0.177 C 
HETATM    8  C7  UNL     1      -7.277  46.459 -23.389  1.00  0.00     0.011 C 
HETATM    9  C8  UNL     1      -6.539  47.510 -22.987  1.00  0.00    -0.072 C 
HETATM   10  C9  UNL     1      -6.030  47.571 -21.565  1.00  0.00     0.035 C 
HETATM   11  C10 UNL     1      -4.676  48.263 -21.390  1.00  0.00     0.012 C 
HETATM   12  C11 UNL     1      -4.658  49.629 -22.102  1.00  0.00     0.026 C 
HETATM   13  C12 UNL     1      -4.929  49.407 -23.615  1.00  0.00     0.005 C 
HETATM   14  C13 UNL     1      -3.723  48.674 -24.262  1.00  0.00     0.007 C 
HETATM   15  C14 UNL     1      -2.365  48.943 -23.612  1.00  0.00     0.013 C 
HETATM   16  C15 UNL     1      -2.236  50.334 -22.948  1.00  0.00    -0.003 C 
HETATM   17  C16 UNL     1      -2.191  51.376 -24.091  1.00  0.00     0.019 C 
HETATM   18  C17 UNL     1      -0.920  50.352 -22.087  1.00  0.00     0.058 C 
HETATM   19  C22 UNL     1      -1.395  49.789 -20.728  1.00  0.00     0.143 C 
HETATM   20  C25 UNL     1      -2.746  50.460 -20.507  1.00  0.00     0.072 C 
HETATM   21  C26 UNL     1      -3.400  50.543 -21.901  1.00  0.00     0.072 C 
HETATM   22  C27 UNL     1      -6.320  48.713 -23.894  1.00  0.00    -0.014 C 
HETATM   23  C28 UNL     1      -7.461  49.729 -23.631  1.00  0.00     0.020 C 
HETATM   24  C29 UNL     1      -6.399  48.258 -25.380  1.00  0.00     0.049 C 
HETATM   25  C30 UNL     1      -7.628  47.427 -25.766  1.00  0.00     0.159 C 
HETATM   26  O9  UNL     1      -7.295  46.812 -27.024  1.00  0.00    -0.341 OA
HETATM   27  C31 UNL     1      -8.259  45.858 -27.482  1.00  0.00     0.240 C 
ENDROOT
BRANCH  18  28
HETATM   28  C18 UNL     1      -0.173  51.665 -21.993  1.00  0.00    -0.043 A 
HETATM   29  C19 UNL     1      -0.090  52.421 -20.895  1.00  0.00     0.087 A 
HETATM   30  C20 UNL     1       0.710  53.595 -21.229  1.00  0.00     0.283 A 
HETATM   31  O4  UNL     1       0.986  54.494 -20.457  1.00  0.00    -0.260 OA
HETATM   32  O5  UNL     1       1.081  53.522 -22.532  1.00  0.00    -0.314 OA
HETATM   33  C21 UNL     1       0.555  52.324 -23.105  1.00  0.00     0.214 A 
ENDBRANCH  18  28
BRANCH  19  34
HETATM   34  O6  UNL     1      -0.516  50.082 -19.638  1.00  0.00    -0.316 OA
BRANCH  34  35
HETATM   35  C23 UNL     1      -0.803  49.439 -18.473  1.00  0.00     0.255 C 
HETATM   36  C24 UNL     1      -0.113  50.114 -17.329  1.00  0.00     0.126 C 
HETATM   37  O7  UNL     1      -1.527  48.460 -18.366  1.00  0.00    -0.266 OA
ENDBRANCH  34  35
ENDBRANCH  19  34
BRANCH  21  38
HETATM   38  O8  UNL     1      -3.868  51.901 -22.029  1.00  0.00    -0.389 OA
HETATM   39  H35 UNL     1      -4.556  52.058 -21.354  1.00  0.00     0.210 HD
ENDBRANCH  21  38
BRANCH  27  40
HETATM   40  O10 UNL     1      -9.334  46.592 -28.089  1.00  0.00    -0.360 OA
HETATM   41  H42 UNL     1      -9.000  46.773 -28.990  1.00  0.00     0.213 HD
ENDBRANCH  27  40
BRANCH   1  42
HETATM   42  O1  UNL     1      -7.314  45.813 -29.722  1.00  0.00    -0.385 OA
HETATM   43  C1  UNL     1      -7.681  45.189 -30.948  1.00  0.00     0.202 C 
ENDBRANCH   1  42
TORSDOF 6
ENDMDL
MODEL 6
REMARK minimizedAffinity -6.93653297
REMARK CNNscore 0.572049737
REMARK CNNaffinity 6.77813387
REMARK  6 active torsions:
REMARK  status: ('A' for Active; 'I' for Inactive)
REMARK    1  A    between atoms: O1_2  and  C2_3 
REMARK    2  A    between atoms: C17_20  and  C18_21 
REMARK    3  A    between atoms: C22_27  and  O6_28 
REMARK    4  A    between atoms: O6_28  and  C23_29 
REMARK    5  A    between atoms: C26_33  and  O8_34 
REMARK    6  A    between atoms: C31_40  and  O10_41 
ROOT
HETATM    1  C2  UNL     1      -5.085  46.805  -9.432  1.00  0.00     0.190 C 
HETATM    2  C3  UNL     1      -6.490  46.204  -9.300  1.00  0.00     0.064 C 
HETATM    3  C4  UNL     1      -7.579  47.155  -9.766  1.00  0.00     0.174 C 
HETATM    4  O2  UNL     1      -7.191  48.489  -9.485  1.00  0.00    -0.356 OA
HETATM    5  C5  UNL     1      -6.152  48.925 -10.372  1.00  0.00     0.325 C 
HETATM    6  O3  UNL     1      -5.639  50.172  -9.889  1.00  0.00    -0.344 OA
HETATM    7  C6  UNL     1      -4.733  50.711 -10.852  1.00  0.00     0.177 C 
HETATM    8  C7  UNL     1      -4.308  52.067 -10.372  1.00  0.00     0.011 C 
HETATM    9  C8  UNL     1      -3.081  52.590 -10.558  1.00  0.00    -0.072 C 
HETATM   10  C9  UNL     1      -2.837  54.053 -10.272  1.00  0.00     0.035 C 
HETATM   11  C10 UNL     1      -1.436  54.388  -9.755  1.00  0.00     0.012 C 
HETATM   12  C11 UNL     1      -0.352  53.754 -10.648  1.00  0.00     0.026 C 
HETATM   13  C12 UNL     1      -0.544  52.213 -10.647  1.00  0.00     0.005 C 
HETATM   14  C13 UNL     1      -0.203  51.641  -9.244  1.00  0.00     0.007 C 
HETATM   15  C14 UNL     1       0.844  52.427  -8.452  1.00  0.00     0.013 C 
HETATM   16  C15 UNL     1       1.881  53.172  -9.325  1.00  0.00    -0.003 C 
HETATM   17  C16 UNL     1       2.790  52.093  -9.963  1.00  0.00     0.019 C 
HETATM   18  C17 UNL     1       2.695  54.150  -8.400  1.00  0.00     0.058 C 
HETATM   19  C22 UNL     1       1.825  55.428  -8.409  1.00  0.00     0.143 C 
HETATM   20  C25 UNL     1       1.384  55.559  -9.863  1.00  0.00     0.072 C 
HETATM   21  C26 UNL     1       1.145  54.117 -10.353  1.00  0.00     0.072 C 
HETATM   22  C27 UNL     1      -1.962  51.771 -11.187  1.00  0.00    -0.014 C 
HETATM   23  C28 UNL     1      -2.013  51.980 -12.721  1.00  0.00     0.020 C 
HETATM   24  C29 UNL     1      -2.198  50.262 -10.887  1.00  0.00     0.049 C 
HETATM   25  C30 UNL     1      -3.596  49.721 -11.211  1.00  0.00     0.159 C 
HETATM   26  O9  UNL     1      -3.694  48.469 -10.508  1.00  0.00    -0.341 OA
HETATM   27  C31 UNL     1      -4.996  47.875 -10.552  1.00  0.00     0.240 C 
ENDROOT
BRANCH  18  28
HETATM   28  C18 UNL     1       4.150  54.381  -8.748  1.00  0.00    -0.043 A 
HETATM   29  C19 UNL     1       5.186  53.984  -8.005  1.00  0.00     0.087 A 
HETATM   30  C20 UNL     1       6.404  54.406  -8.689  1.00  0.00     0.283 A 
HETATM   31  O4  UNL     1       7.535  54.205  -8.288  1.00  0.00    -0.260 OA
HETATM   32  O5  UNL     1       6.069  55.060  -9.829  1.00  0.00    -0.314 OA
HETATM   33  C21 UNL     1       4.645  55.101  -9.947  1.00  0.00     0.214 A 
ENDBRANCH  18  28
BRANCH  19  34
HETATM   34  O6  UNL     1       2.523  56.608  -7.998  1.00  0.00    -0.316 OA
BRANCH  34  35
HETATM   35  C23 UNL     1       1.864  57.386  -7.095  1.00  0.00     0.255 C 
HETATM   36  C24 UNL     1       2.810  58.365  -6.473  1.00  0.00     0.126 C 
HETATM   37  O7  UNL     1       0.673  57.308  -6.833  1.00  0.00    -0.266 OA
ENDBRANCH  34  35
ENDBRANCH  19  34
BRANCH  21  38
HETATM   38  O8  UNL     1       1.835  54.018 -11.615  1.00  0.00    -0.389 OA
HETATM   39  H35 UNL     1       1.419  54.634 -12.248  1.00  0.00     0.210 HD
ENDBRANCH  21  38
BRANCH  27  40
HETATM   40  O10 UNL     1      -5.123  47.211 -11.819  1.00  0.00    -0.360 OA
HETATM   41  H42 UNL     1      -4.674  46.355 -11.668  1.00  0.00     0.213 HD
ENDBRANCH  27  40
BRANCH   1  42
HETATM   42  O1  UNL     1      -4.166  45.732  -9.757  1.00  0.00    -0.385 OA
HETATM   43  C1  UNL     1      -4.691  44.451  -9.424  1.00  0.00     0.202 C 
ENDBRANCH   1  42
TORSDOF 6
ENDMDL
MODEL 7
REMARK minimizedAffinity -7.44429922
REMARK CNNscore 0.527880371
REMARK CNNaffinity 6.52632952
REMARK  6 active torsions:
REMARK  status: ('A' for Active; 'I' for Inactive)
REMARK    1  A    between atoms: O1_2  and  C2_3 
REMARK    2  A    between atoms: C17_20  and  C18_21 
REMARK    3  A    between atoms: C22_27  and  O6_28 
REMARK    4  A    between atoms: O6_28  and  C23_29 
REMARK    5  A    between atoms: C26_33  and  O8_34 
REMARK    6  A    between atoms: C31_40  and  O10_41 
ROOT
HETATM    1  C2  UNL     1       7.229  55.200  -3.398  1.00  0.00     0.190 C 
HETATM    2  C3  UNL     1       8.660  55.400  -2.883  1.00  0.00     0.064 C 
HETATM    3  C4  UNL     1       9.599  55.932  -3.952  1.00  0.00     0.174 C 
HETATM    4  O2  UNL     1       9.210  55.420  -5.216  1.00  0.00    -0.356 OA
HETATM    5  C5  UNL     1       8.005  56.042  -5.680  1.00  0.00     0.325 C 
HETATM    6  O3  UNL     1       7.536  55.322  -6.825  1.00  0.00    -0.344 OA
HETATM    7  C6  UNL     1       6.442  56.030  -7.410  1.00  0.00     0.177 C 
HETATM    8  C7  UNL     1       6.054  55.314  -8.670  1.00  0.00     0.011 C 
HETATM    9  C8  UNL     1       4.793  55.208  -9.126  1.00  0.00    -0.072 C 
HETATM   10  C9  UNL     1       4.540  54.701 -10.527  1.00  0.00     0.035 C 
HETATM   11  C10 UNL     1       3.247  53.901 -10.705  1.00  0.00     0.012 C 
HETATM   12  C11 UNL     1       2.045  54.656 -10.106  1.00  0.00     0.026 C 
HETATM   13  C12 UNL     1       2.303  54.884  -8.592  1.00  0.00     0.005 C 
HETATM   14  C13 UNL     1       2.257  53.526  -7.841  1.00  0.00     0.007 C 
HETATM   15  C14 UNL     1       1.343  52.466  -8.458  1.00  0.00     0.013 C 
HETATM   16  C15 UNL     1       0.128  53.036  -9.226  1.00  0.00    -0.003 C 
HETATM   17  C16 UNL     1      -0.835  53.630  -8.170  1.00  0.00     0.019 C 
HETATM   18  C17 UNL     1      -0.541  51.864 -10.034  1.00  0.00     0.058 C 
HETATM   19  C22 UNL     1       0.253  51.869 -11.360  1.00  0.00     0.143 C 
HETATM   20  C25 UNL     1       0.408  53.350 -11.688  1.00  0.00     0.072 C 
HETATM   21  C26 UNL     1       0.615  54.053 -10.331  1.00  0.00     0.072 C 
HETATM   22  C27 UNL     1       3.613  55.722  -8.312  1.00  0.00    -0.014 C 
HETATM   23  C28 UNL     1       3.367  57.202  -8.700  1.00  0.00     0.020 C 
HETATM   24  C29 UNL     1       3.969  55.663  -6.798  1.00  0.00     0.049 C 
HETATM   25  C30 UNL     1       5.304  56.299  -6.394  1.00  0.00     0.159 C 
HETATM   26  O9  UNL     1       5.588  55.789  -5.079  1.00  0.00    -0.341 OA
HETATM   27  C31 UNL     1       6.884  56.142  -4.583  1.00  0.00     0.240 C 
ENDROOT
BRANCH  18  28
HETATM   28  C18 UNL     1      -2.045  51.912 -10.205  1.00  0.00    -0.043 A 
HETATM   29  C19 UNL     1      -2.871  50.884  -9.995  1.00  0.00     0.087 A 
HETATM   30  C20 UNL     1      -4.227  51.347 -10.275  1.00  0.00     0.283 A 
HETATM   31  O4  UNL     1      -5.230  50.664 -10.182  1.00  0.00    -0.260 OA
HETATM   32  O5  UNL     1      -4.181  52.646 -10.661  1.00  0.00    -0.314 OA
HETATM   33  C21 UNL     1      -2.824  53.092 -10.654  1.00  0.00     0.214 A 
ENDBRANCH  18  28
BRANCH  19  34
HETATM   34  O6  UNL     1      -0.408  51.193 -12.435  1.00  0.00    -0.316 OA
BRANCH  34  35
HETATM   35  C23 UNL     1      -0.612  51.944 -13.552  1.00  0.00     0.255 C 
HETATM   36  C24 UNL     1      -2.055  51.894 -13.949  1.00  0.00     0.126 C 
HETATM   37  O7  UNL     1       0.249  52.577 -14.145  1.00  0.00    -0.266 OA
ENDBRANCH  34  35
ENDBRANCH  19  34
BRANCH  21  38
HETATM   38  O8  UNL     1      -0.294  55.172 -10.332  1.00  0.00    -0.389 OA
HETATM   39  H35 UNL     1      -0.032  55.787 -11.044  1.00  0.00     0.210 HD
ENDBRANCH  21  38
BRANCH  27  40
HETATM   40  O10 UNL     1       6.801  57.485  -4.080  1.00  0.00    -0.360 OA
HETATM   41  H42 UNL     1       6.427  57.364  -3.183  1.00  0.00     0.213 HD
ENDBRANCH  27  40
BRANCH   1  42
HETATM   42  O1  UNL     1       6.315  55.487  -2.311  1.00  0.00    -0.385 OA
HETATM   43  C1  UNL     1       5.677  54.313  -1.818  1.00  0.00     0.202 C 
ENDBRANCH   1  42
TORSDOF 6
ENDMDL
MODEL 8
REMARK minimizedAffinity -8.21988487
REMARK CNNscore 0.497586697
REMARK CNNaffinity 7.0106945
REMARK  6 active torsions:
REMARK  status: ('A' for Active; 'I' for Inactive)
REMARK    1  A    between atoms: O1_2  and  C2_3 
REMARK    2  A    between atoms: C17_20  and  C18_21 
REMARK    3  A    between atoms: C22_27  and  O6_28 
REMARK    4  A    between atoms: O6_28  and  C23_29 
REMARK    5  A    between atoms: C26_33  and  O8_34 
REMARK    6  A    between atoms: C31_40  and  O10_41 
ROOT
HETATM    1  C2  UNL     1       0.497  52.540 -24.947  1.00  0.00     0.190 C 
HETATM    2  C3  UNL     1       0.656  52.515 -26.473  1.00  0.00     0.064 C 
HETATM    3  C4  UNL     1      -0.377  51.637 -27.156  1.00  0.00     0.174 C 
HETATM    4  O2  UNL     1      -0.695  50.542 -26.312  1.00  0.00    -0.356 OA
HETATM    5  C5  UNL     1      -1.493  50.961 -25.197  1.00  0.00     0.325 C 
HETATM    6  O3  UNL     1      -1.574  49.876 -24.266  1.00  0.00    -0.344 OA
HETATM    7  C6  UNL     1      -2.509  50.207 -23.240  1.00  0.00     0.177 C 
HETATM    8  C7  UNL     1      -2.659  49.007 -22.352  1.00  0.00     0.011 C 
HETATM    9  C8  UNL     1      -2.859  49.065 -21.022  1.00  0.00    -0.072 C 
HETATM   10  C9  UNL     1      -3.257  47.818 -20.267  1.00  0.00     0.035 C 
HETATM   11  C10 UNL     1      -2.731  47.732 -18.832  1.00  0.00     0.012 C 
HETATM   12  C11 UNL     1      -3.024  49.032 -18.058  1.00  0.00     0.026 C 
HETATM   13  C12 UNL     1      -2.332  50.214 -18.789  1.00  0.00     0.005 C 
HETATM   14  C13 UNL     1      -0.790  50.084 -18.657  1.00  0.00     0.007 C 
HETATM   15  C14 UNL     1      -0.297  49.385 -17.389  1.00  0.00     0.013 C 
HETATM   16  C15 UNL     1      -1.228  49.547 -16.164  1.00  0.00    -0.003 C 
HETATM   17  C16 UNL     1      -1.122  51.022 -15.709  1.00  0.00     0.019 C 
HETATM   18  C17 UNL     1      -0.749  48.553 -15.043  1.00  0.00     0.058 C 
HETATM   19  C22 UNL     1      -1.503  47.251 -15.399  1.00  0.00     0.143 C 
HETATM   20  C25 UNL     1      -2.899  47.731 -15.782  1.00  0.00     0.072 C 
HETATM   21  C26 UNL     1      -2.687  49.064 -16.527  1.00  0.00     0.072 C 
HETATM   22  C27 UNL     1      -2.831  50.393 -20.277  1.00  0.00    -0.014 C 
HETATM   23  C28 UNL     1      -4.268  50.973 -20.270  1.00  0.00     0.020 C 
HETATM   24  C29 UNL     1      -1.902  51.387 -21.034  1.00  0.00     0.049 C 
HETATM   25  C30 UNL     1      -2.164  51.543 -22.536  1.00  0.00     0.159 C 
HETATM   26  O9  UNL     1      -0.984  52.173 -23.067  1.00  0.00    -0.341 OA
HETATM   27  C31 UNL     1      -0.962  52.263 -24.496  1.00  0.00     0.240 C 
ENDROOT
BRANCH  18  28
HETATM   28  C18 UNL     1      -0.914  48.999 -13.607  1.00  0.00    -0.043 A 
HETATM   29  C19 UNL     1      -2.078  49.321 -13.035  1.00  0.00     0.087 A 
HETATM   30  C20 UNL     1      -1.798  49.698 -11.653  1.00  0.00     0.283 A 
HETATM   31  O4  UNL     1      -2.635  50.047 -10.842  1.00  0.00    -0.260 OA
HETATM   32  O5  UNL     1      -0.463  49.606 -11.430  1.00  0.00    -0.314 OA
HETATM   33  C21 UNL     1       0.186  49.173 -12.626  1.00  0.00     0.214 A 
ENDBRANCH  18  28
BRANCH  19  34
HETATM   34  O6  UNL     1      -1.584  46.314 -14.320  1.00  0.00    -0.316 OA
BRANCH  34  35
HETATM   35  C23 UNL     1      -0.944  45.131 -14.532  1.00  0.00     0.255 C 
HETATM   36  C24 UNL     1       0.440  45.185 -13.964  1.00  0.00     0.126 C 
HETATM   37  O7  UNL     1      -1.426  44.158 -15.094  1.00  0.00    -0.266 OA
ENDBRANCH  34  35
ENDBRANCH  19  34
BRANCH  21  38
HETATM   38  O8  UNL     1      -3.618  49.992 -15.933  1.00  0.00    -0.389 OA
HETATM   39  H35 UNL     1      -4.526  49.678 -16.110  1.00  0.00     0.210 HD
ENDBRANCH  21  38
BRANCH  27  40
HETATM   40  O10 UNL     1      -1.770  53.391 -24.867  1.00  0.00    -0.360 OA
HETATM   41  H42 UNL     1      -1.161  54.149 -24.753  1.00  0.00     0.213 HD
ENDBRANCH  27  40
BRANCH   1  42
HETATM   42  O1  UNL     1       0.873  53.858 -24.478  1.00  0.00    -0.385 OA
HETATM   43  C1  UNL     1       0.505  54.884 -25.394  1.00  0.00     0.202 C 
ENDBRANCH   1  42
TORSDOF 6
ENDMDL
MODEL 9
REMARK minimizedAffinity -7.19800186
REMARK CNNscore 0.494859666
REMARK CNNaffinity 6.07165194
REMARK  6 active torsions:
REMARK  status: ('A' for Active; 'I' for Inactive)
REMARK    1  A    between atoms: O1_2  and  C2_3 
REMARK    2  A    between atoms: C17_20  and  C18_21 
REMARK    3  A    between atoms: C22_27  and  O6_28 
REMARK    4  A    between atoms: O6_28  and  C23_29 
REMARK    5  A    between atoms: C26_33  and  O8_34 
REMARK    6  A    between atoms: C31_40  and  O10_41 
ROOT
HETATM    1  C2  UNL     1      -2.830  51.319  -9.524  1.00  0.00     0.190 C 
HETATM    2  C3  UNL     1      -4.235  51.401 -10.135  1.00  0.00     0.064 C 
HETATM    3  C4  UNL     1      -4.311  52.372 -11.300  1.00  0.00     0.174 C 
HETATM    4  O2  UNL     1      -3.413  53.446 -11.076  1.00  0.00    -0.356 OA
HETATM    5  C5  UNL     1      -2.052  53.030 -11.251  1.00  0.00     0.325 C 
HETATM    6  O3  UNL     1      -1.195  54.076 -10.779  1.00  0.00    -0.344 OA
HETATM    7  C6  UNL     1       0.158  53.760 -11.110  1.00  0.00     0.177 C 
HETATM    8  C7  UNL     1       1.012  54.926 -10.710  1.00  0.00     0.011 C 
HETATM    9  C8  UNL     1       2.266  54.822 -10.233  1.00  0.00    -0.072 C 
HETATM   10  C9  UNL     1       3.129  56.057 -10.111  1.00  0.00     0.035 C 
HETATM   11  C10 UNL     1       4.116  56.046  -8.941  1.00  0.00     0.012 C 
HETATM   12  C11 UNL     1       4.924  54.734  -8.914  1.00  0.00     0.026 C 
HETATM   13  C12 UNL     1       3.938  53.544  -8.764  1.00  0.00     0.005 C 
HETATM   14  C13 UNL     1       3.291  53.571  -7.353  1.00  0.00     0.007 C 
HETATM   15  C14 UNL     1       4.155  54.181  -6.247  1.00  0.00     0.013 C 
HETATM   16  C15 UNL     1       5.678  54.024  -6.464  1.00  0.00    -0.003 C 
HETATM   17  C16 UNL     1       6.010  52.526  -6.260  1.00  0.00     0.019 C 
HETATM   18  C17 UNL     1       6.423  54.936  -5.420  1.00  0.00     0.058 C 
HETATM   19  C22 UNL     1       6.496  56.296  -6.149  1.00  0.00     0.143 C 
HETATM   20  C25 UNL     1       6.850  55.923  -7.585  1.00  0.00     0.072 C 
HETATM   21  C26 UNL     1       6.088  54.613  -7.870  1.00  0.00     0.072 C 
HETATM   22  C27 UNL     1       2.890  53.464  -9.944  1.00  0.00    -0.014 C 
HETATM   23  C28 UNL     1       3.603  52.975 -11.230  1.00  0.00     0.020 C 
HETATM   24  C29 UNL     1       1.766  52.447  -9.588  1.00  0.00     0.049 C 
HETATM   25  C30 UNL     1       0.589  52.374 -10.566  1.00  0.00     0.159 C 
HETATM   26  O9  UNL     1      -0.461  51.696  -9.853  1.00  0.00    -0.341 OA
HETATM   27  C31 UNL     1      -1.714  51.668 -10.545  1.00  0.00     0.240 C 
ENDROOT
BRANCH  18  28
HETATM   28  C18 UNL     1       7.750  54.437  -4.890  1.00  0.00    -0.043 A 
HETATM   29  C19 UNL     1       8.644  55.187  -4.239  1.00  0.00     0.087 A 
HETATM   30  C20 UNL     1       9.778  54.329  -3.908  1.00  0.00     0.283 A 
HETATM   31  O4  UNL     1      10.774  54.690  -3.311  1.00  0.00    -0.260 OA
HETATM   32  O5  UNL     1       9.542  53.080  -4.382  1.00  0.00    -0.314 OA
HETATM   33  C21 UNL     1       8.271  53.055  -5.033  1.00  0.00     0.214 A 
ENDBRANCH  18  28
BRANCH  19  34
HETATM   34  O6  UNL     1       7.481  57.188  -5.616  1.00  0.00    -0.316 OA
BRANCH  34  35
HETATM   35  C23 UNL     1       6.990  58.341  -5.083  1.00  0.00     0.255 C 
HETATM   36  C24 UNL     1       8.100  59.321  -4.864  1.00  0.00     0.126 C 
HETATM   37  O7  UNL     1       5.814  58.555  -4.826  1.00  0.00    -0.266 OA
ENDBRANCH  34  35
ENDBRANCH  19  34
BRANCH  21  38
HETATM   38  O8  UNL     1       7.058  53.721  -8.456  1.00  0.00    -0.389 OA
HETATM   39  H35 UNL     1       7.355  54.098  -9.306  1.00  0.00     0.210 HD
ENDBRANCH  21  38
BRANCH  27  40
HETATM   40  O10 UNL     1      -1.646  50.610 -11.515  1.00  0.00    -0.360 OA
HETATM   41  H42 UNL     1      -1.853  49.811 -10.989  1.00  0.00     0.213 HD
ENDBRANCH  27  40
BRANCH   1  42
HETATM   42  O1  UNL     1      -2.617  49.960  -9.068  1.00  0.00    -0.385 OA
HETATM   43  C1  UNL     1      -3.811  49.185  -9.103  1.00  0.00     0.202 C 
ENDBRANCH   1  42
TORSDOF 6
ENDMDL
