MODEL 1
REMARK minimizedAffinity -9.83261204
REMARK CNNscore 0.811920822
REMARK CNNaffinity 7.75886488
REMARK  12 active torsions:
REMARK  status: ('A' for Active; 'I' for Inactive)
REMARK    1  A    between atoms: C19_21  and  O3_22 
REMARK    2  A    between atoms: C19_21  and  C20_23 
REMARK    3  A    between atoms: C20_23  and  C21_25 
REMARK    4  A    between atoms: C21_25  and  O5_26 
REMARK    5  A    between atoms: O5_26  and  C22_27 
REMARK    6  A    between atoms: C22_27  and  C23_29 
REMARK    7  A    between atoms: C23_29  and  C24_30 
REMARK    8  A    between atoms: C24_30  and  C25_31 
REMARK       I    between atoms: C25_31  and  N1_33 
REMARK    9  A    between atoms: N1_33  and  C26_34 
REMARK   10  A    between atoms: C26_34  and  C27_35 
REMARK   11  A    between atoms: C27_35  and  C28_36 
REMARK   12  A    between atoms: C31_39  and  O8_40 
ROOT
HETATM    1  C1  UNL     1      -0.577  49.948 -21.142  1.00  0.00     0.021 C 
HETATM    2  C2  UNL     1      -1.266  51.337 -21.081  1.00  0.00    -0.009 C 
HETATM    3  C3  UNL     1      -0.469  52.335 -21.981  1.00  0.00     0.022 C 
HETATM    4  C4  UNL     1       0.899  52.705 -21.425  1.00  0.00     0.084 C 
HETATM    5  C5  UNL     1       0.760  53.260 -20.032  1.00  0.00     0.149 C 
HETATM    6  O1  UNL     1       1.538  54.090 -19.572  1.00  0.00    -0.293 OA
HETATM    7  C6  UNL     1      -0.301  52.696 -19.164  1.00  0.00     0.053 C 
HETATM    8  C7  UNL     1      -1.186  51.789 -19.617  1.00  0.00    -0.067 C 
HETATM    9  C8  UNL     1      -2.109  51.129 -18.620  1.00  0.00     0.035 C 
HETATM   10  C9  UNL     1      -3.279  50.368 -19.246  1.00  0.00     0.010 C 
HETATM   11  C10 UNL     1      -3.831  51.120 -20.455  1.00  0.00     0.003 C 
HETATM   12  C11 UNL     1      -2.770  51.328 -21.588  1.00  0.00     0.072 C 
HETATM   13  C12 UNL     1      -2.981  50.464 -22.855  1.00  0.00     0.133 C 
HETATM   14  O2  UNL     1      -2.058  50.197 -23.627  1.00  0.00    -0.297 OA
HETATM   15  C13 UNL     1      -4.392  50.073 -23.253  1.00  0.00     0.091 C 
HETATM   16  C14 UNL     1      -5.169  49.535 -22.054  1.00  0.00     0.005 C 
HETATM   17  C15 UNL     1      -4.525  48.219 -21.565  1.00  0.00     0.019 C 
HETATM   18  C16 UNL     1      -5.191  50.654 -20.994  1.00  0.00     0.002 C 
HETATM   19  C17 UNL     1      -6.284  50.220 -20.014  1.00  0.00     0.009 C 
HETATM   20  C18 UNL     1      -7.295  49.424 -20.866  1.00  0.00     0.047 C 
HETATM   21  C19 UNL     1      -6.703  49.355 -22.286  1.00  0.00     0.128 C 
ENDROOT
BRANCH  21  22
HETATM   22  O3  UNL     1      -7.212  50.504 -22.993  1.00  0.00    -0.381 OA
HETATM   23  H25 UNL     1      -7.157  50.293 -23.949  1.00  0.00     0.211 HD
ENDBRANCH  21  22
BRANCH  21  24
HETATM   24  C20 UNL     1      -7.088  48.140 -23.150  1.00  0.00     0.185 C 
HETATM   25  O4  UNL     1      -7.727  47.217 -22.625  1.00  0.00    -0.292 OA
BRANCH  24  26
HETATM   26  C21 UNL     1      -6.686  48.106 -24.622  1.00  0.00     0.260 C 
BRANCH  26  27
HETATM   27  O5  UNL     1      -7.266  46.998 -25.317  1.00  0.00    -0.314 OA
BRANCH  27  28
HETATM   28  C22 UNL     1      -7.311  47.157 -26.671  1.00  0.00     0.259 C 
HETATM   29  O6  UNL     1      -8.063  46.545 -27.417  1.00  0.00    -0.265 OA
BRANCH  28  30
HETATM   30  C23 UNL     1      -6.286  48.168 -27.110  1.00  0.00     0.120 C 
BRANCH  30  31
HETATM   31  C24 UNL     1      -4.953  47.911 -26.419  1.00  0.00     0.112 C 
BRANCH  31  32
HETATM   32  C25 UNL     1      -3.812  48.641 -27.086  1.00  0.00     0.218 C 
HETATM   33  O7  UNL     1      -2.868  48.078 -27.629  1.00  0.00    -0.274 OA
HETATM   34  N1  UNL     1      -3.950  50.010 -27.021  1.00  0.00    -0.361 N 
HETATM   35  H32 UNL     1      -4.791  50.403 -26.617  1.00  0.00     0.162 HD
BRANCH  34  36
HETATM   36  C26 UNL     1      -2.995  50.916 -27.634  1.00  0.00     0.127 C 
BRANCH  36  37
HETATM   37  C27 UNL     1      -2.307  51.815 -26.604  1.00  0.00     0.058 C 
BRANCH  37  38
HETATM   38  C28 UNL     1      -0.807  51.797 -26.758  1.00  0.00    -0.057 A 
HETATM   39  C29 UNL     1      -0.225  51.707 -28.032  1.00  0.00     0.010 A 
HETATM   40  C30 UNL     1       1.163  51.715 -28.179  1.00  0.00     0.037 A 
HETATM   41  C31 UNL     1       1.970  51.815 -27.050  1.00  0.00     0.065 A 
HETATM   42  C32 UNL     1       1.412  51.909 -25.781  1.00  0.00     0.037 A 
HETATM   43  C33 UNL     1       0.024  51.901 -25.633  1.00  0.00     0.010 A 
BRANCH  41  44
HETATM   44  O8  UNL     1       3.330  51.827 -27.148  1.00  0.00    -0.361 OA
HETATM   45  H39 UNL     1       3.574  51.718 -28.083  1.00  0.00     0.217 HD
ENDBRANCH  41  44
ENDBRANCH  37  38
ENDBRANCH  36  37
ENDBRANCH  34  36
ENDBRANCH  31  32
ENDBRANCH  30  31
ENDBRANCH  28  30
ENDBRANCH  27  28
ENDBRANCH  26  27
ENDBRANCH  24  26
ENDBRANCH  21  24
TORSDOF 12
ENDMDL
MODEL 2
REMARK minimizedAffinity -8.85729885
REMARK CNNscore 0.80209887
REMARK CNNaffinity 7.05696249
REMARK  12 active torsions:
REMARK  status: ('A' for Active; 'I' for Inactive)
REMARK    1  A    between atoms: C19_21  and  O3_22 
REMARK    2  A    between atoms: C19_21  and  C20_23 
REMARK    3  A    between atoms: C20_23  and  C21_25 
REMARK    4  A    between atoms: C21_25  and  O5_26 
REMARK    5  A    between atoms: O5_26  and  C22_27 
REMARK    6  A    between atoms: C22_27  and  C23_29 
REMARK    7  A    between atoms: C23_29  and  C24_30 
REMARK    8  A    between atoms: C24_30  and  C25_31 
REMARK       I    between atoms: C25_31  and  N1_33 
REMARK    9  A    between atoms: N1_33  and  C26_34 
REMARK   10  A    between atoms: C26_34  and  C27_35 
REMARK   11  A    between atoms: C27_35  and  C28_36 
REMARK   12  A    between atoms: C31_39  and  O8_40 
ROOT
HETATM    1  C1  UNL     1      -1.714  52.894 -24.178  1.00  0.00     0.021 C 
HETATM    2  C2  UNL     1      -0.750  51.680 -24.240  1.00  0.00    -0.009 C 
HETATM    3  C3  UNL     1       0.671  52.185 -24.647  1.00  0.00     0.022 C 
HETATM    4  C4  UNL     1       0.764  52.658 -26.091  1.00  0.00     0.084 C 
HETATM    5  C5  UNL     1       0.314  51.565 -27.024  1.00  0.00     0.149 C 
HETATM    6  O1  UNL     1       0.759  51.444 -28.162  1.00  0.00    -0.293 OA
HETATM    7  C6  UNL     1      -0.778  50.672 -26.571  1.00  0.00     0.053 C 
HETATM    8  C7  UNL     1      -1.299  50.754 -25.333  1.00  0.00    -0.067 C 
HETATM    9  C8  UNL     1      -2.531  49.939 -25.018  1.00  0.00     0.035 C 
HETATM   10  C9  UNL     1      -2.863  49.839 -23.529  1.00  0.00     0.010 C 
HETATM   11  C10 UNL     1      -1.589  49.695 -22.698  1.00  0.00     0.003 C 
HETATM   12  C11 UNL     1      -0.608  50.904 -22.862  1.00  0.00     0.072 C 
HETATM   13  C12 UNL     1      -0.515  51.849 -21.638  1.00  0.00     0.133 C 
HETATM   14  O2  UNL     1      -0.142  53.019 -21.740  1.00  0.00    -0.297 OA
HETATM   15  C13 UNL     1      -0.727  51.277 -20.249  1.00  0.00     0.091 C 
HETATM   16  C14 UNL     1      -1.974  50.396 -20.204  1.00  0.00     0.005 C 
HETATM   17  C15 UNL     1      -3.228  51.260 -20.463  1.00  0.00     0.019 C 
HETATM   18  C16 UNL     1      -1.766  49.268 -21.234  1.00  0.00     0.002 C 
HETATM   19  C17 UNL     1      -2.831  48.231 -20.872  1.00  0.00     0.009 C 
HETATM   20  C18 UNL     1      -3.031  48.374 -19.349  1.00  0.00     0.047 C 
HETATM   21  C19 UNL     1      -2.139  49.547 -18.904  1.00  0.00     0.128 C 
ENDROOT
BRANCH  21  22
HETATM   22  O3  UNL     1      -0.864  48.974 -18.550  1.00  0.00    -0.381 OA
HETATM   23  H25 UNL     1      -0.428  49.610 -17.944  1.00  0.00     0.211 HD
ENDBRANCH  21  22
BRANCH  21  24
HETATM   24  C20 UNL     1      -2.588  50.342 -17.665  1.00  0.00     0.185 C 
HETATM   25  O4  UNL     1      -2.761  51.565 -17.775  1.00  0.00    -0.292 OA
BRANCH  24  26
HETATM   26  C21 UNL     1      -2.817  49.612 -16.344  1.00  0.00     0.260 C 
BRANCH  26  27
HETATM   27  O5  UNL     1      -1.590  49.253 -15.702  1.00  0.00    -0.314 OA
BRANCH  27  28
HETATM   28  C22 UNL     1      -0.735  50.300 -15.520  1.00  0.00     0.259 C 
HETATM   29  O6  UNL     1       0.294  50.474 -16.158  1.00  0.00    -0.265 OA
BRANCH  28  30
HETATM   30  C23 UNL     1      -1.226  51.185 -14.405  1.00  0.00     0.120 C 
BRANCH  30  31
HETATM   31  C24 UNL     1      -1.875  50.350 -13.309  1.00  0.00     0.112 C 
BRANCH  31  32
HETATM   32  C25 UNL     1      -3.034  51.066 -12.654  1.00  0.00     0.218 C 
HETATM   33  O7  UNL     1      -3.921  50.496 -12.030  1.00  0.00    -0.274 OA
HETATM   34  N1  UNL     1      -2.981  52.430 -12.833  1.00  0.00    -0.361 N 
HETATM   35  H32 UNL     1      -2.181  52.837 -13.302  1.00  0.00     0.162 HD
BRANCH  34  36
HETATM   36  C26 UNL     1      -3.965  53.327 -12.256  1.00  0.00     0.127 C 
BRANCH  36  37
HETATM   37  C27 UNL     1      -3.948  53.297 -10.725  1.00  0.00     0.058 C 
BRANCH  37  38
HETATM   38  C28 UNL     1      -2.586  53.639 -10.174  1.00  0.00    -0.057 A 
HETATM   39  C29 UNL     1      -2.030  54.909 -10.393  1.00  0.00     0.010 A 
HETATM   40  C30 UNL     1      -0.780  55.235  -9.863  1.00  0.00     0.037 A 
HETATM   41  C31 UNL     1      -0.089  54.292  -9.110  1.00  0.00     0.065 A 
HETATM   42  C32 UNL     1      -0.626  53.031  -8.879  1.00  0.00     0.037 A 
HETATM   43  C33 UNL     1      -1.875  52.703  -9.409  1.00  0.00     0.010 A 
BRANCH  41  44
HETATM   44  O8  UNL     1       1.133  54.569  -8.574  1.00  0.00    -0.361 OA
HETATM   45  H39 UNL     1       1.395  55.465  -8.845  1.00  0.00     0.217 HD
ENDBRANCH  41  44
ENDBRANCH  37  38
ENDBRANCH  36  37
ENDBRANCH  34  36
ENDBRANCH  31  32
ENDBRANCH  30  31
ENDBRANCH  28  30
ENDBRANCH  27  28
ENDBRANCH  26  27
ENDBRANCH  24  26
ENDBRANCH  21  24
TORSDOF 12
ENDMDL
MODEL 3
REMARK minimizedAffinity -10.1143646
REMARK CNNscore 0.583424568
REMARK CNNaffinity 7.91544199
REMARK  12 active torsions:
REMARK  status: ('A' for Active; 'I' for Inactive)
REMARK    1  A    between atoms: C19_21  and  O3_22 
REMARK    2  A    between atoms: C19_21  and  C20_23 
REMARK    3  A    between atoms: C20_23  and  C21_25 
REMARK    4  A    between atoms: C21_25  and  O5_26 
REMARK    5  A    between atoms: O5_26  and  C22_27 
REMARK    6  A    between atoms: C22_27  and  C23_29 
REMARK    7  A    between atoms: C23_29  and  C24_30 
REMARK    8  A    between atoms: C24_30  and  C25_31 
REMARK       I    between atoms: C25_31  and  N1_33 
REMARK    9  A    between atoms: N1_33  and  C26_34 
REMARK   10  A    between atoms: C26_34  and  C27_35 
REMARK   11  A    between atoms: C27_35  and  C28_36 
REMARK   12  A    between atoms: C31_39  and  O8_40 
ROOT
HETATM    1  C1  UNL     1      -4.080  50.855 -24.676  1.00  0.00     0.021 C 
HETATM    2  C2  UNL     1      -3.586  49.402 -24.901  1.00  0.00    -0.009 C 
HETATM    3  C3  UNL     1      -2.470  49.413 -25.994  1.00  0.00     0.022 C 
HETATM    4  C4  UNL     1      -2.983  49.726 -27.393  1.00  0.00     0.084 C 
HETATM    5  C5  UNL     1      -4.074  48.760 -27.774  1.00  0.00     0.149 C 
HETATM    6  O1  UNL     1      -4.282  48.425 -28.936  1.00  0.00    -0.293 OA
HETATM    7  C6  UNL     1      -4.982  48.284 -26.705  1.00  0.00     0.053 C 
HETATM    8  C7  UNL     1      -4.799  48.613 -25.413  1.00  0.00    -0.067 C 
HETATM    9  C8  UNL     1      -5.874  48.244 -24.419  1.00  0.00     0.035 C 
HETATM   10  C9  UNL     1      -5.452  48.361 -22.953  1.00  0.00     0.010 C 
HETATM   11  C10 UNL     1      -4.010  47.892 -22.766  1.00  0.00     0.003 C 
HETATM   12  C11 UNL     1      -2.979  48.724 -23.600  1.00  0.00     0.072 C 
HETATM   13  C12 UNL     1      -2.082  49.680 -22.777  1.00  0.00     0.133 C 
HETATM   14  O2  UNL     1      -1.542  50.668 -23.280  1.00  0.00    -0.297 OA
HETATM   15  C13 UNL     1      -1.719  49.305 -21.352  1.00  0.00     0.091 C 
HETATM   16  C14 UNL     1      -2.954  48.859 -20.573  1.00  0.00     0.005 C 
HETATM   17  C15 UNL     1      -3.931  50.046 -20.424  1.00  0.00     0.019 C 
HETATM   18  C16 UNL     1      -3.547  47.650 -21.323  1.00  0.00     0.002 C 
HETATM   19  C17 UNL     1      -4.512  47.021 -20.314  1.00  0.00     0.009 C 
HETATM   20  C18 UNL     1      -3.905  47.330 -18.930  1.00  0.00     0.047 C 
HETATM   21  C19 UNL     1      -2.661  48.200 -19.188  1.00  0.00     0.128 C 
ENDROOT
BRANCH  21  22
HETATM   22  O3  UNL     1      -1.551  47.289 -19.324  1.00  0.00    -0.381 OA
HETATM   23  H25 UNL     1      -0.739  47.802 -19.125  1.00  0.00     0.211 HD
ENDBRANCH  21  22
BRANCH  21  24
HETATM   24  C20 UNL     1      -2.247  49.184 -18.078  1.00  0.00     0.185 C 
HETATM   25  O4  UNL     1      -3.131  49.836 -17.504  1.00  0.00    -0.292 OA
BRANCH  24  26
HETATM   26  C21 UNL     1      -0.774  49.324 -17.707  1.00  0.00     0.260 C 
BRANCH  26  27
HETATM   27  O5  UNL     1      -0.184  50.503 -18.262  1.00  0.00    -0.314 OA
BRANCH  27  28
HETATM   28  C22 UNL     1       0.151  51.444 -17.333  1.00  0.00     0.259 C 
HETATM   29  O6  UNL     1      -0.137  51.379 -16.145  1.00  0.00    -0.265 OA
BRANCH  28  30
HETATM   30  C23 UNL     1       0.897  52.577 -17.985  1.00  0.00     0.120 C 
BRANCH  30  31
HETATM   31  C24 UNL     1       0.036  53.235 -19.056  1.00  0.00     0.112 C 
BRANCH  31  32
HETATM   32  C25 UNL     1       0.776  53.403 -20.362  1.00  0.00     0.218 C 
HETATM   33  O7  UNL     1       1.538  54.333 -20.598  1.00  0.00    -0.274 OA
HETATM   34  N1  UNL     1       0.504  52.392 -21.258  1.00  0.00    -0.361 N 
HETATM   35  H32 UNL     1      -0.084  51.620 -20.968  1.00  0.00     0.162 HD
BRANCH  34  36
HETATM   36  C26 UNL     1       1.135  52.321 -22.562  1.00  0.00     0.127 C 
BRANCH  36  37
HETATM   37  C27 UNL     1       0.736  53.492 -23.464  1.00  0.00     0.058 C 
BRANCH  37  38
HETATM   38  C28 UNL     1       0.527  53.053 -24.892  1.00  0.00    -0.057 A 
HETATM   39  C29 UNL     1       0.889  51.759 -25.297  1.00  0.00     0.010 A 
HETATM   40  C30 UNL     1       0.674  51.344 -26.613  1.00  0.00     0.037 A 
HETATM   41  C31 UNL     1       0.094  52.221 -27.522  1.00  0.00     0.065 A 
HETATM   42  C32 UNL     1      -0.275  53.505 -27.137  1.00  0.00     0.037 A 
HETATM   43  C33 UNL     1      -0.060  53.922 -25.823  1.00  0.00     0.010 A 
BRANCH  41  44
HETATM   44  O8  UNL     1      -0.134  51.856 -28.815  1.00  0.00    -0.361 OA
HETATM   45  H39 UNL     1       0.204  50.955 -28.947  1.00  0.00     0.217 HD
ENDBRANCH  41  44
ENDBRANCH  37  38
ENDBRANCH  36  37
ENDBRANCH  34  36
ENDBRANCH  31  32
ENDBRANCH  30  31
ENDBRANCH  28  30
ENDBRANCH  27  28
ENDBRANCH  26  27
ENDBRANCH  24  26
ENDBRANCH  21  24
TORSDOF 12
ENDMDL
MODEL 4
REMARK minimizedAffinity -8.74245548
REMARK CNNscore 0.54223609
REMARK CNNaffinity 6.63969183
REMARK  12 active torsions:
REMARK  status: ('A' for Active; 'I' for Inactive)
REMARK    1  A    between atoms: C19_21  and  O3_22 
REMARK    2  A    between atoms: C19_21  and  C20_23 
REMARK    3  A    between atoms: C20_23  and  C21_25 
REMARK    4  A    between atoms: C21_25  and  O5_26 
REMARK    5  A    between atoms: O5_26  and  C22_27 
REMARK    6  A    between atoms: C22_27  and  C23_29 
REMARK    7  A    between atoms: C23_29  and  C24_30 
REMARK    8  A    between atoms: C24_30  and  C25_31 
REMARK       I    between atoms: C25_31  and  N1_33 
REMARK    9  A    between atoms: N1_33  and  C26_34 
REMARK   10  A    between atoms: C26_34  and  C27_35 
REMARK   11  A    between atoms: C27_35  and  C28_36 
REMARK   12  A    between atoms: C31_39  and  O8_40 
ROOT
HETATM    1  C1  UNL     1      -2.330  52.404 -23.819  1.00  0.00     0.021 C 
HETATM    2  C2  UNL     1      -1.245  51.303 -23.945  1.00  0.00    -0.009 C 
HETATM    3  C3  UNL     1       0.149  51.986 -24.112  1.00  0.00     0.022 C 
HETATM    4  C4  UNL     1       0.337  52.681 -25.454  1.00  0.00     0.084 C 
HETATM    5  C5  UNL     1       0.096  51.709 -26.579  1.00  0.00     0.149 C 
HETATM    6  O1  UNL     1       0.661  51.803 -27.664  1.00  0.00    -0.293 OA
HETATM    7  C6  UNL     1      -0.938  50.666 -26.385  1.00  0.00     0.053 C 
HETATM    8  C7  UNL     1      -1.585  50.511 -25.215  1.00  0.00    -0.067 C 
HETATM    9  C8  UNL     1      -2.752  49.554 -25.161  1.00  0.00     0.035 C 
HETATM   10  C9  UNL     1      -3.218  49.198 -23.749  1.00  0.00     0.010 C 
HETATM   11  C10 UNL     1      -2.025  49.040 -22.809  1.00  0.00     0.003 C 
HETATM   12  C11 UNL     1      -1.162  50.341 -22.685  1.00  0.00     0.072 C 
HETATM   13  C12 UNL     1      -1.288  51.091 -21.336  1.00  0.00     0.133 C 
HETATM   14  O2  UNL     1      -1.029  52.291 -21.227  1.00  0.00    -0.297 OA
HETATM   15  C13 UNL     1      -1.576  50.296 -20.076  1.00  0.00     0.091 C 
HETATM   16  C14 UNL     1      -2.725  49.315 -20.300  1.00  0.00     0.005 C 
HETATM   17  C15 UNL     1      -4.029  50.095 -20.572  1.00  0.00     0.019 C 
HETATM   18  C16 UNL     1      -2.301  48.380 -21.450  1.00  0.00     0.002 C 
HETATM   19  C17 UNL     1      -3.284  47.211 -21.363  1.00  0.00     0.009 C 
HETATM   20  C18 UNL     1      -3.648  47.101 -19.868  1.00  0.00     0.047 C 
HETATM   21  C19 UNL     1      -2.929  48.265 -19.162  1.00  0.00     0.128 C 
ENDROOT
BRANCH  21  22
HETATM   22  O3  UNL     1      -1.644  47.757 -18.751  1.00  0.00    -0.381 OA
HETATM   23  H25 UNL     1      -1.337  48.329 -18.015  1.00  0.00     0.211 HD
ENDBRANCH  21  22
BRANCH  21  24
HETATM   24  C20 UNL     1      -3.578  48.819 -17.880  1.00  0.00     0.185 C 
HETATM   25  O4  UNL     1      -4.815  48.866 -17.814  1.00  0.00    -0.292 OA
BRANCH  24  26
HETATM   26  C21 UNL     1      -2.692  49.283 -16.727  1.00  0.00     0.260 C 
BRANCH  26  27
HETATM   27  O5  UNL     1      -2.845  50.679 -16.454  1.00  0.00    -0.314 OA
BRANCH  27  28
HETATM   28  C22 UNL     1      -3.104  50.960 -15.144  1.00  0.00     0.259 C 
HETATM   29  O6  UNL     1      -3.548  52.026 -14.738  1.00  0.00    -0.265 OA
BRANCH  28  30
HETATM   30  C23 UNL     1      -2.740  49.785 -14.277  1.00  0.00     0.120 C 
BRANCH  30  31
HETATM   31  C24 UNL     1      -2.289  50.257 -12.901  1.00  0.00     0.112 C 
BRANCH  31  32
HETATM   32  C25 UNL     1      -0.811  50.043 -12.677  1.00  0.00     0.218 C 
HETATM   33  O7  UNL     1      -0.327  48.986 -12.288  1.00  0.00    -0.274 OA
HETATM   34  N1  UNL     1      -0.065  51.165 -12.963  1.00  0.00    -0.361 N 
HETATM   35  H32 UNL     1      -0.527  51.981 -13.346  1.00  0.00     0.162 HD
BRANCH  34  36
HETATM   36  C26 UNL     1       1.383  51.180 -12.864  1.00  0.00     0.127 C 
BRANCH  36  37
HETATM   37  C27 UNL     1       2.051  50.450 -14.031  1.00  0.00     0.058 C 
BRANCH  37  38
HETATM   38  C28 UNL     1       1.789  51.139 -15.347  1.00  0.00    -0.057 A 
HETATM   39  C29 UNL     1       0.698  50.759 -16.143  1.00  0.00     0.010 A 
HETATM   40  C30 UNL     1       0.439  51.412 -17.350  1.00  0.00     0.037 A 
HETATM   41  C31 UNL     1       1.272  52.448 -17.758  1.00  0.00     0.065 A 
HETATM   42  C32 UNL     1       2.355  52.842 -16.981  1.00  0.00     0.037 A 
HETATM   43  C33 UNL     1       2.614  52.189 -15.775  1.00  0.00     0.010 A 
BRANCH  41  44
HETATM   44  O8  UNL     1       1.056  53.113 -18.929  1.00  0.00    -0.361 OA
HETATM   45  H39 UNL     1       0.294  52.710 -19.379  1.00  0.00     0.217 HD
ENDBRANCH  41  44
ENDBRANCH  37  38
ENDBRANCH  36  37
ENDBRANCH  34  36
ENDBRANCH  31  32
ENDBRANCH  30  31
ENDBRANCH  28  30
ENDBRANCH  27  28
ENDBRANCH  26  27
ENDBRANCH  24  26
ENDBRANCH  21  24
TORSDOF 12
ENDMDL
MODEL 5
REMARK minimizedAffinity -8.62133312
REMARK CNNscore 0.525028467
REMARK CNNaffinity 7.26349783
REMARK  12 active torsions:
REMARK  status: ('A' for Active; 'I' for Inactive)
REMARK    1  A    between atoms: C19_21  and  O3_22 
REMARK    2  A    between atoms: C19_21  and  C20_23 
REMARK    3  A    between atoms: C20_23  and  C21_25 
REMARK    4  A    between atoms: C21_25  and  O5_26 
REMARK    5  A    between atoms: O5_26  and  C22_27 
REMARK    6  A    between atoms: C22_27  and  C23_29 
REMARK    7  A    between atoms: C23_29  and  C24_30 
REMARK    8  A    between atoms: C24_30  and  C25_31 
REMARK       I    between atoms: C25_31  and  N1_33 
REMARK    9  A    between atoms: N1_33  and  C26_34 
REMARK   10  A    between atoms: C26_34  and  C27_35 
REMARK   11  A    between atoms: C27_35  and  C28_36 
REMARK   12  A    between atoms: C31_39  and  O8_40 
ROOT
HETATM    1  C1  UNL     1       2.455  53.542  -8.804  1.00  0.00     0.021 C 
HETATM    2  C2  UNL     1       1.851  54.824  -9.436  1.00  0.00    -0.009 C 
HETATM    3  C3  UNL     1       2.973  55.576 -10.220  1.00  0.00     0.022 C 
HETATM    4  C4  UNL     1       4.030  56.208  -9.326  1.00  0.00     0.084 C 
HETATM    5  C5  UNL     1       3.381  57.134  -8.331  1.00  0.00     0.149 C 
HETATM    6  O1  UNL     1       3.950  58.126  -7.884  1.00  0.00    -0.293 OA
HETATM    7  C6  UNL     1       2.046  56.764  -7.808  1.00  0.00     0.053 C 
HETATM    8  C7  UNL     1       1.372  55.692  -8.265  1.00  0.00    -0.067 C 
HETATM    9  C8  UNL     1       0.109  55.280  -7.548  1.00  0.00     0.035 C 
HETATM   10  C9  UNL     1      -0.754  54.271  -8.308  1.00  0.00     0.010 C 
HETATM   11  C10 UNL     1      -0.762  54.585  -9.803  1.00  0.00     0.003 C 
HETATM   12  C11 UNL     1       0.663  54.539 -10.450  1.00  0.00     0.072 C 
HETATM   13  C12 UNL     1       0.929  53.326 -11.374  1.00  0.00     0.133 C 
HETATM   14  O2  UNL     1       2.069  52.922 -11.614  1.00  0.00    -0.297 OA
HETATM   15  C13 UNL     1      -0.229  52.717 -12.142  1.00  0.00     0.091 C 
HETATM   16  C14 UNL     1      -1.433  52.493 -11.229  1.00  0.00     0.005 C 
HETATM   17  C15 UNL     1      -1.081  51.438 -10.156  1.00  0.00     0.019 C 
HETATM   18  C16 UNL     1      -1.822  53.868 -10.651  1.00  0.00     0.002 C 
HETATM   19  C17 UNL     1      -3.226  53.650 -10.082  1.00  0.00     0.009 C 
HETATM   20  C18 UNL     1      -3.855  52.557 -10.970  1.00  0.00     0.047 C 
HETATM   21  C19 UNL     1      -2.761  52.123 -11.962  1.00  0.00     0.128 C 
ENDROOT
BRANCH  21  22
HETATM   22  O3  UNL     1      -2.909  52.965 -13.123  1.00  0.00    -0.381 OA
HETATM   23  H25 UNL     1      -2.495  52.488 -13.873  1.00  0.00     0.211 HD
ENDBRANCH  21  22
BRANCH  21  24
HETATM   24  C20 UNL     1      -2.825  50.679 -12.494  1.00  0.00     0.185 C 
HETATM   25  O4  UNL     1      -3.931  50.123 -12.567  1.00  0.00    -0.292 OA
BRANCH  24  26
HETATM   26  C21 UNL     1      -1.541  49.978 -12.925  1.00  0.00     0.260 C 
BRANCH  26  27
HETATM   27  O5  UNL     1      -1.793  48.867 -13.792  1.00  0.00    -0.314 OA
BRANCH  27  28
HETATM   28  C22 UNL     1      -1.544  49.125 -15.108  1.00  0.00     0.259 C 
HETATM   29  O6  UNL     1      -2.330  48.904 -16.019  1.00  0.00    -0.265 OA
BRANCH  28  30
HETATM   30  C23 UNL     1      -0.158  49.690 -15.274  1.00  0.00     0.120 C 
BRANCH  30  31
HETATM   31  C24 UNL     1       0.278  49.609 -16.731  1.00  0.00     0.112 C 
BRANCH  31  32
HETATM   32  C25 UNL     1       0.019  50.896 -17.478  1.00  0.00     0.218 C 
HETATM   33  O7  UNL     1       0.595  51.951 -17.238  1.00  0.00    -0.274 OA
HETATM   34  N1  UNL     1      -0.934  50.753 -18.463  1.00  0.00    -0.361 N 
HETATM   35  H32 UNL     1      -1.318  49.834 -18.649  1.00  0.00     0.162 HD
BRANCH  34  36
HETATM   36  C26 UNL     1      -1.315  51.845 -19.339  1.00  0.00     0.127 C 
BRANCH  36  37
HETATM   37  C27 UNL     1      -1.928  51.349 -20.651  1.00  0.00     0.058 C 
BRANCH  37  38
HETATM   38  C28 UNL     1      -1.106  51.764 -21.845  1.00  0.00    -0.057 A 
HETATM   39  C29 UNL     1      -1.491  51.382 -23.139  1.00  0.00     0.010 A 
HETATM   40  C30 UNL     1      -0.745  51.785 -24.248  1.00  0.00     0.037 A 
HETATM   41  C31 UNL     1       0.385  52.574 -24.062  1.00  0.00     0.065 A 
HETATM   42  C32 UNL     1       0.780  52.966 -22.788  1.00  0.00     0.037 A 
HETATM   43  C33 UNL     1       0.035  52.563 -21.679  1.00  0.00     0.010 A 
BRANCH  41  44
HETATM   44  O8  UNL     1       1.142  52.990 -25.117  1.00  0.00    -0.361 OA
HETATM   45  H39 UNL     1       0.771  52.614 -25.933  1.00  0.00     0.217 HD
ENDBRANCH  41  44
ENDBRANCH  37  38
ENDBRANCH  36  37
ENDBRANCH  34  36
ENDBRANCH  31  32
ENDBRANCH  30  31
ENDBRANCH  28  30
ENDBRANCH  27  28
ENDBRANCH  26  27
ENDBRANCH  24  26
ENDBRANCH  21  24
TORSDOF 12
ENDMDL
MODEL 6
REMARK minimizedAffinity -8.79113007
REMARK CNNscore 0.521269679
REMARK CNNaffinity 6.91082764
REMARK  12 active torsions:
REMARK  status: ('A' for Active; 'I' for Inactive)
REMARK    1  A    between atoms: C19_21  and  O3_22 
REMARK    2  A    between atoms: C19_21  and  C20_23 
REMARK    3  A    between atoms: C20_23  and  C21_25 
REMARK    4  A    between atoms: C21_25  and  O5_26 
REMARK    5  A    between atoms: O5_26  and  C22_27 
REMARK    6  A    between atoms: C22_27  and  C23_29 
REMARK    7  A    between atoms: C23_29  and  C24_30 
REMARK    8  A    between atoms: C24_30  and  C25_31 
REMARK       I    between atoms: C25_31  and  N1_33 
REMARK    9  A    between atoms: N1_33  and  C26_34 
REMARK   10  A    between atoms: C26_34  and  C27_35 
REMARK   11  A    between atoms: C27_35  and  C28_36 
REMARK   12  A    between atoms: C31_39  and  O8_40 
ROOT
HETATM    1  C1  UNL     1      -1.595  52.995 -24.126  1.00  0.00     0.021 C 
HETATM    2  C2  UNL     1      -1.096  51.632 -24.673  1.00  0.00    -0.009 C 
HETATM    3  C3  UNL     1       0.410  51.767 -25.067  1.00  0.00     0.022 C 
HETATM    4  C4  UNL     1       0.648  52.635 -26.294  1.00  0.00     0.084 C 
HETATM    5  C5  UNL     1      -0.149  52.114 -27.461  1.00  0.00     0.149 C 
HETATM    6  O1  UNL     1       0.222  52.243 -28.623  1.00  0.00    -0.293 OA
HETATM    7  C6  UNL     1      -1.475  51.516 -27.182  1.00  0.00     0.053 C 
HETATM    8  C7  UNL     1      -1.931  51.343 -25.927  1.00  0.00    -0.067 C 
HETATM    9  C8  UNL     1      -3.364  50.904 -25.739  1.00  0.00     0.035 C 
HETATM   10  C9  UNL     1      -3.701  50.427 -24.326  1.00  0.00     0.010 C 
HETATM   11  C10 UNL     1      -2.545  49.622 -23.735  1.00  0.00     0.003 C 
HETATM   12  C11 UNL     1      -1.215  50.441 -23.629  1.00  0.00     0.072 C 
HETATM   13  C12 UNL     1      -0.803  50.847 -22.193  1.00  0.00     0.133 C 
HETATM   14  O2  UNL     1      -0.058  51.803 -21.971  1.00  0.00    -0.297 OA
HETATM   15  C13 UNL     1      -1.186  49.945 -21.035  1.00  0.00     0.091 C 
HETATM   16  C14 UNL     1      -2.657  49.542 -21.119  1.00  0.00     0.005 C 
HETATM   17  C15 UNL     1      -3.548  50.792 -20.950  1.00  0.00     0.019 C 
HETATM   18  C16 UNL     1      -2.846  48.814 -22.465  1.00  0.00     0.002 C 
HETATM   19  C17 UNL     1      -4.197  48.108 -22.320  1.00  0.00     0.009 C 
HETATM   20  C18 UNL     1      -4.328  47.794 -20.815  1.00  0.00     0.047 C 
HETATM   21  C19 UNL     1      -3.090  48.408 -20.136  1.00  0.00     0.128 C 
ENDROOT
BRANCH  21  22
HETATM   22  O3  UNL     1      -2.080  47.379 -20.128  1.00  0.00    -0.381 OA
HETATM   23  H25 UNL     1      -1.452  47.606 -19.410  1.00  0.00     0.211 HD
ENDBRANCH  21  22
BRANCH  21  24
HETATM   24  C20 UNL     1      -3.237  48.847 -18.668  1.00  0.00     0.185 C 
HETATM   25  O4  UNL     1      -4.357  49.193 -18.261  1.00  0.00    -0.292 OA
BRANCH  24  26
HETATM   26  C21 UNL     1      -2.016  48.838 -17.753  1.00  0.00     0.260 C 
BRANCH  26  27
HETATM   27  O5  UNL     1      -1.366  50.111 -17.702  1.00  0.00    -0.314 OA
BRANCH  27  28
HETATM   28  C22 UNL     1      -1.091  50.541 -16.437  1.00  0.00     0.259 C 
HETATM   29  O6  UNL     1      -1.939  50.825 -15.602  1.00  0.00    -0.265 OA
BRANCH  28  30
HETATM   30  C23 UNL     1       0.396  50.642 -16.233  1.00  0.00     0.120 C 
BRANCH  30  31
HETATM   31  C24 UNL     1       0.729  51.794 -15.293  1.00  0.00     0.112 C 
BRANCH  31  32
HETATM   32  C25 UNL     1       1.696  51.385 -14.207  1.00  0.00     0.218 C 
HETATM   33  O7  UNL     1       2.363  50.358 -14.240  1.00  0.00    -0.274 OA
HETATM   34  N1  UNL     1       1.750  52.298 -13.177  1.00  0.00    -0.361 N 
HETATM   35  H32 UNL     1       1.221  53.158 -13.250  1.00  0.00     0.162 HD
BRANCH  34  36
HETATM   36  C26 UNL     1       2.643  52.138 -12.044  1.00  0.00     0.127 C 
BRANCH  36  37
HETATM   37  C27 UNL     1       2.483  53.260 -11.016  1.00  0.00     0.058 C 
BRANCH  37  38
HETATM   38  C28 UNL     1       3.812  53.695 -10.450  1.00  0.00    -0.057 A 
HETATM   39  C29 UNL     1       4.623  52.782  -9.761  1.00  0.00     0.010 A 
HETATM   40  C30 UNL     1       5.864  53.176  -9.257  1.00  0.00     0.037 A 
HETATM   41  C31 UNL     1       6.294  54.485  -9.446  1.00  0.00     0.065 A 
HETATM   42  C32 UNL     1       5.506  55.403 -10.131  1.00  0.00     0.037 A 
HETATM   43  C33 UNL     1       4.265  55.010 -10.634  1.00  0.00     0.010 A 
BRANCH  41  44
HETATM   44  O8  UNL     1       7.499  54.912  -8.972  1.00  0.00    -0.361 OA
HETATM   45  H39 UNL     1       7.919  54.181  -8.489  1.00  0.00     0.217 HD
ENDBRANCH  41  44
ENDBRANCH  37  38
ENDBRANCH  36  37
ENDBRANCH  34  36
ENDBRANCH  31  32
ENDBRANCH  30  31
ENDBRANCH  28  30
ENDBRANCH  27  28
ENDBRANCH  26  27
ENDBRANCH  24  26
ENDBRANCH  21  24
TORSDOF 12
ENDMDL
MODEL 7
REMARK minimizedAffinity -9.03530407
REMARK CNNscore 0.443482906
REMARK CNNaffinity 6.80490685
REMARK  12 active torsions:
REMARK  status: ('A' for Active; 'I' for Inactive)
REMARK    1  A    between atoms: C19_21  and  O3_22 
REMARK    2  A    between atoms: C19_21  and  C20_23 
REMARK    3  A    between atoms: C20_23  and  C21_25 
REMARK    4  A    between atoms: C21_25  and  O5_26 
REMARK    5  A    between atoms: O5_26  and  C22_27 
REMARK    6  A    between atoms: C22_27  and  C23_29 
REMARK    7  A    between atoms: C23_29  and  C24_30 
REMARK    8  A    between atoms: C24_30  and  C25_31 
REMARK       I    between atoms: C25_31  and  N1_33 
REMARK    9  A    between atoms: N1_33  and  C26_34 
REMARK   10  A    between atoms: C26_34  and  C27_35 
REMARK   11  A    between atoms: C27_35  and  C28_36 
REMARK   12  A    between atoms: C31_39  and  O8_40 
ROOT
HETATM    1  C1  UNL     1      -4.025  51.165 -24.834  1.00  0.00     0.021 C 
HETATM    2  C2  UNL     1      -3.408  49.742 -24.873  1.00  0.00    -0.009 C 
HETATM    3  C3  UNL     1      -2.340  49.687 -26.011  1.00  0.00     0.022 C 
HETATM    4  C4  UNL     1      -2.931  49.747 -27.413  1.00  0.00     0.084 C 
HETATM    5  C5  UNL     1      -3.942  48.646 -27.596  1.00  0.00     0.149 C 
HETATM    6  O1  UNL     1      -4.162  48.127 -28.686  1.00  0.00    -0.293 OA
HETATM    7  C6  UNL     1      -4.763  48.256 -26.426  1.00  0.00     0.053 C 
HETATM    8  C7  UNL     1      -4.562  48.786 -25.205  1.00  0.00    -0.067 C 
HETATM    9  C8  UNL     1      -5.561  48.476 -24.116  1.00  0.00     0.035 C 
HETATM   10  C9  UNL     1      -5.097  48.843 -22.705  1.00  0.00     0.010 C 
HETATM   11  C10 UNL     1      -3.612  48.532 -22.526  1.00  0.00     0.003 C 
HETATM   12  C11 UNL     1      -2.693  49.317 -23.521  1.00  0.00     0.072 C 
HETATM   13  C12 UNL     1      -1.858  50.457 -22.889  1.00  0.00     0.133 C 
HETATM   14  O2  UNL     1      -1.430  51.402 -23.554  1.00  0.00    -0.297 OA
HETATM   15  C13 UNL     1      -1.409  50.327 -21.446  1.00  0.00     0.091 C 
HETATM   16  C14 UNL     1      -2.568  49.897 -20.549  1.00  0.00     0.005 C 
HETATM   17  C15 UNL     1      -3.644  51.005 -20.522  1.00  0.00     0.019 C 
HETATM   18  C16 UNL     1      -3.075  48.544 -21.088  1.00  0.00     0.002 C 
HETATM   19  C17 UNL     1      -3.939  47.990 -19.952  1.00  0.00     0.009 C 
HETATM   20  C18 UNL     1      -3.312  48.550 -18.658  1.00  0.00     0.047 C 
HETATM   21  C19 UNL     1      -2.164  49.475 -19.101  1.00  0.00     0.128 C 
ENDROOT
BRANCH  21  22
HETATM   22  O3  UNL     1      -0.981  48.652 -19.161  1.00  0.00    -0.381 OA
HETATM   23  H25 UNL     1      -0.213  49.257 -19.079  1.00  0.00     0.211 HD
ENDBRANCH  21  22
BRANCH  21  24
HETATM   24  C20 UNL     1      -1.801  50.643 -18.165  1.00  0.00     0.185 C 
HETATM   25  O4  UNL     1      -2.716  51.238 -17.577  1.00  0.00    -0.292 OA
BRANCH  24  26
HETATM   26  C21 UNL     1      -0.337  51.031 -17.977  1.00  0.00     0.260 C 
BRANCH  26  27
HETATM   27  O5  UNL     1       0.409  50.019 -17.293  1.00  0.00    -0.314 OA
BRANCH  27  28
HETATM   28  C22 UNL     1       0.271  50.054 -15.936  1.00  0.00     0.259 C 
HETATM   29  O6  UNL     1      -0.556  49.407 -15.306  1.00  0.00    -0.265 OA
BRANCH  28  30
HETATM   30  C23 UNL     1       1.257  51.020 -15.337  1.00  0.00     0.120 C 
BRANCH  30  31
HETATM   31  C24 UNL     1       0.530  52.130 -14.590  1.00  0.00     0.112 C 
BRANCH  31  32
HETATM   32  C25 UNL     1       0.661  51.994 -13.091  1.00  0.00     0.218 C 
HETATM   33  O7  UNL     1       0.729  50.917 -12.509  1.00  0.00    -0.274 OA
HETATM   34  N1  UNL     1       0.699  53.213 -12.451  1.00  0.00    -0.361 N 
HETATM   35  H32 UNL     1       0.707  54.061 -13.004  1.00  0.00     0.162 HD
BRANCH  34  36
HETATM   36  C26 UNL     1       0.866  53.329 -11.014  1.00  0.00     0.127 C 
BRANCH  36  37
HETATM   37  C27 UNL     1       0.374  54.677 -10.481  1.00  0.00     0.058 C 
BRANCH  37  38
HETATM   38  C28 UNL     1       1.468  55.429  -9.765  1.00  0.00    -0.057 A 
HETATM   39  C29 UNL     1       1.307  55.809  -8.424  1.00  0.00     0.010 A 
HETATM   40  C30 UNL     1       2.328  56.484  -7.752  1.00  0.00     0.037 A 
HETATM   41  C31 UNL     1       3.512  56.776  -8.421  1.00  0.00     0.065 A 
HETATM   42  C32 UNL     1       3.690  56.403  -9.749  1.00  0.00     0.037 A 
HETATM   43  C33 UNL     1       2.670  55.729 -10.421  1.00  0.00     0.010 A 
BRANCH  41  44
HETATM   44  O8  UNL     1       4.534  57.432  -7.803  1.00  0.00    -0.361 OA
HETATM   45  H39 UNL     1       4.256  57.659  -6.900  1.00  0.00     0.217 HD
ENDBRANCH  41  44
ENDBRANCH  37  38
ENDBRANCH  36  37
ENDBRANCH  34  36
ENDBRANCH  31  32
ENDBRANCH  30  31
ENDBRANCH  28  30
ENDBRANCH  27  28
ENDBRANCH  26  27
ENDBRANCH  24  26
ENDBRANCH  21  24
TORSDOF 12
ENDMDL
MODEL 8
REMARK minimizedAffinity -8.62773228
REMARK CNNscore 0.433875591
REMARK CNNaffinity 6.40227938
REMARK  12 active torsions:
REMARK  status: ('A' for Active; 'I' for Inactive)
REMARK    1  A    between atoms: C19_21  and  O3_22 
REMARK    2  A    between atoms: C19_21  and  C20_23 
REMARK    3  A    between atoms: C20_23  and  C21_25 
REMARK    4  A    between atoms: C21_25  and  O5_26 
REMARK    5  A    between atoms: O5_26  and  C22_27 
REMARK    6  A    between atoms: C22_27  and  C23_29 
REMARK    7  A    between atoms: C23_29  and  C24_30 
REMARK    8  A    between atoms: C24_30  and  C25_31 
REMARK       I    between atoms: C25_31  and  N1_33 
REMARK    9  A    between atoms: N1_33  and  C26_34 
REMARK   10  A    between atoms: C26_34  and  C27_35 
REMARK   11  A    between atoms: C27_35  and  C28_36 
REMARK   12  A    between atoms: C31_39  and  O8_40 
ROOT
HETATM    1  C1  UNL     1      -2.162  52.554 -23.285  1.00  0.00     0.021 C 
HETATM    2  C2  UNL     1      -1.027  51.500 -23.361  1.00  0.00    -0.009 C 
HETATM    3  C3  UNL     1       0.249  52.175 -23.958  1.00  0.00     0.022 C 
HETATM    4  C4  UNL     1       0.126  52.523 -25.435  1.00  0.00     0.084 C 
HETATM    5  C5  UNL     1      -0.231  51.294 -26.229  1.00  0.00     0.149 C 
HETATM    6  O1  UNL     1       0.116  51.139 -27.396  1.00  0.00    -0.293 OA
HETATM    7  C6  UNL     1      -1.117  50.292 -25.594  1.00  0.00     0.053 C 
HETATM    8  C7  UNL     1      -1.523  50.406 -24.316  1.00  0.00    -0.067 C 
HETATM    9  C8  UNL     1      -2.573  49.446 -23.808  1.00  0.00     0.035 C 
HETATM   10  C9  UNL     1      -2.740  49.432 -22.288  1.00  0.00     0.010 C 
HETATM   11  C10 UNL     1      -1.386  49.559 -21.594  1.00  0.00     0.003 C 
HETATM   12  C11 UNL     1      -0.631  50.883 -21.953  1.00  0.00     0.072 C 
HETATM   13  C12 UNL     1      -0.573  51.938 -20.821  1.00  0.00     0.133 C 
HETATM   14  O2  UNL     1      -0.404  53.137 -21.050  1.00  0.00    -0.297 OA
HETATM   15  C13 UNL     1      -0.556  51.469 -19.378  1.00  0.00     0.091 C 
HETATM   16  C14 UNL     1      -1.637  50.418 -19.132  1.00  0.00     0.005 C 
HETATM   17  C15 UNL     1      -3.032  51.054 -19.316  1.00  0.00     0.019 C 
HETATM   18  C16 UNL     1      -1.350  49.245 -20.091  1.00  0.00     0.002 C 
HETATM   19  C17 UNL     1      -2.196  48.096 -19.538  1.00  0.00     0.009 C 
HETATM   20  C18 UNL     1      -2.270  48.345 -18.017  1.00  0.00     0.047 C 
HETATM   21  C19 UNL     1      -1.537  49.675 -17.762  1.00  0.00     0.128 C 
ENDROOT
BRANCH  21  22
HETATM   22  O3  UNL     1      -0.159  49.336 -17.507  1.00  0.00    -0.381 OA
HETATM   23  H25 UNL     1       0.226  50.083 -17.001  1.00  0.00     0.211 HD
ENDBRANCH  21  22
BRANCH  21  24
HETATM   24  C20 UNL     1      -1.987  50.502 -16.544  1.00  0.00     0.185 C 
HETATM   25  O4  UNL     1      -2.975  51.242 -16.660  1.00  0.00    -0.292 OA
BRANCH  24  26
HETATM   26  C21 UNL     1      -1.219  50.386 -15.230  1.00  0.00     0.260 C 
BRANCH  26  27
HETATM   27  O5  UNL     1      -1.834  51.131 -14.174  1.00  0.00    -0.314 OA
BRANCH  27  28
HETATM   28  C22 UNL     1      -2.264  50.361 -13.133  1.00  0.00     0.259 C 
HETATM   29  O6  UNL     1      -2.891  49.317 -13.255  1.00  0.00    -0.265 OA
BRANCH  28  30
HETATM   30  C23 UNL     1      -1.882  50.997 -11.823  1.00  0.00     0.120 C 
BRANCH  30  31
HETATM   31  C24 UNL     1      -2.757  52.213 -11.546  1.00  0.00     0.112 C 
BRANCH  31  32
HETATM   32  C25 UNL     1      -1.953  53.398 -11.066  1.00  0.00     0.218 C 
HETATM   33  O7  UNL     1      -2.415  54.298 -10.373  1.00  0.00    -0.274 OA
HETATM   34  N1  UNL     1      -0.643  53.355 -11.489  1.00  0.00    -0.361 N 
HETATM   35  H32 UNL     1      -0.316  52.545 -12.002  1.00  0.00     0.162 HD
BRANCH  34  36
HETATM   36  C26 UNL     1       0.327  54.366 -11.112  1.00  0.00     0.127 C 
BRANCH  36  37
HETATM   37  C27 UNL     1       1.024  54.036  -9.790  1.00  0.00     0.058 C 
BRANCH  37  38
HETATM   38  C28 UNL     1       2.498  54.356  -9.838  1.00  0.00    -0.057 A 
HETATM   39  C29 UNL     1       2.951  55.520 -10.476  1.00  0.00     0.010 A 
HETATM   40  C30 UNL     1       4.312  55.830 -10.501  1.00  0.00     0.037 A 
HETATM   41  C31 UNL     1       5.219  54.976  -9.884  1.00  0.00     0.065 A 
HETATM   42  C32 UNL     1       4.788  53.820  -9.243  1.00  0.00     0.037 A 
HETATM   43  C33 UNL     1       3.428  53.509  -9.218  1.00  0.00     0.010 A 
BRANCH  41  44
HETATM   44  O8  UNL     1       6.557  55.241  -9.883  1.00  0.00    -0.361 OA
HETATM   45  H39 UNL     1       6.712  56.053 -10.394  1.00  0.00     0.217 HD
ENDBRANCH  41  44
ENDBRANCH  37  38
ENDBRANCH  36  37
ENDBRANCH  34  36
ENDBRANCH  31  32
ENDBRANCH  30  31
ENDBRANCH  28  30
ENDBRANCH  27  28
ENDBRANCH  26  27
ENDBRANCH  24  26
ENDBRANCH  21  24
TORSDOF 12
ENDMDL
MODEL 9
REMARK minimizedAffinity -9.01891232
REMARK CNNscore 0.35064885
REMARK CNNaffinity 6.60729408
REMARK  12 active torsions:
REMARK  status: ('A' for Active; 'I' for Inactive)
REMARK    1  A    between atoms: C19_21  and  O3_22 
REMARK    2  A    between atoms: C19_21  and  C20_23 
REMARK    3  A    between atoms: C20_23  and  C21_25 
REMARK    4  A    between atoms: C21_25  and  O5_26 
REMARK    5  A    between atoms: O5_26  and  C22_27 
REMARK    6  A    between atoms: C22_27  and  C23_29 
REMARK    7  A    between atoms: C23_29  and  C24_30 
REMARK    8  A    between atoms: C24_30  and  C25_31 
REMARK       I    between atoms: C25_31  and  N1_33 
REMARK    9  A    between atoms: N1_33  and  C26_34 
REMARK   10  A    between atoms: C26_34  and  C27_35 
REMARK   11  A    between atoms: C27_35  and  C28_36 
REMARK   12  A    between atoms: C31_39  and  O8_40 
ROOT
HETATM    1  C1  UNL     1      -0.085  51.031 -23.812  1.00  0.00     0.021 C 
HETATM    2  C2  UNL     1      -0.809  52.188 -23.074  1.00  0.00    -0.009 C 
HETATM    3  C3  UNL     1      -0.458  53.535 -23.783  1.00  0.00     0.022 C 
HETATM    4  C4  UNL     1       0.986  53.974 -23.588  1.00  0.00     0.084 C 
HETATM    5  C5  UNL     1       1.308  54.060 -22.119  1.00  0.00     0.149 C 
HETATM    6  O1  UNL     1       2.135  54.848 -21.670  1.00  0.00    -0.293 OA
HETATM    7  C6  UNL     1       0.668  53.081 -21.210  1.00  0.00     0.053 C 
HETATM    8  C7  UNL     1      -0.250  52.198 -21.645  1.00  0.00    -0.067 C 
HETATM    9  C8  UNL     1      -0.710  51.116 -20.697  1.00  0.00     0.035 C 
HETATM   10  C9  UNL     1      -1.965  50.368 -21.148  1.00  0.00     0.010 C 
HETATM   11  C10 UNL     1      -2.963  51.325 -21.796  1.00  0.00     0.003 C 
HETATM   12  C11 UNL     1      -2.390  52.048 -23.061  1.00  0.00     0.072 C 
HETATM   13  C12 UNL     1      -2.971  51.570 -24.414  1.00  0.00     0.133 C 
HETATM   14  O2  UNL     1      -2.363  51.717 -25.476  1.00  0.00    -0.297 OA
HETATM   15  C13 UNL     1      -4.398  51.058 -24.463  1.00  0.00     0.091 C 
HETATM   16  C14 UNL     1      -4.659  50.058 -23.338  1.00  0.00     0.005 C 
HETATM   17  C15 UNL     1      -3.788  48.800 -23.550  1.00  0.00     0.019 C 
HETATM   18  C16 UNL     1      -4.387  50.793 -22.011  1.00  0.00     0.002 C 
HETATM   19  C17 UNL     1      -5.028  49.896 -20.949  1.00  0.00     0.009 C 
HETATM   20  C18 UNL     1      -6.213  49.211 -21.662  1.00  0.00     0.047 C 
HETATM   21  C19 UNL     1      -6.158  49.672 -23.130  1.00  0.00     0.128 C 
ENDROOT
BRANCH  21  22
HETATM   22  O3  UNL     1      -6.968  50.862 -23.212  1.00  0.00    -0.381 OA
HETATM   23  H25 UNL     1      -7.239  50.955 -24.150  1.00  0.00     0.211 HD
ENDBRANCH  21  22
BRANCH  21  24
HETATM   24  C20 UNL     1      -6.732  48.714 -24.190  1.00  0.00     0.185 C 
HETATM   25  O4  UNL     1      -5.965  48.246 -25.045  1.00  0.00    -0.292 OA
BRANCH  24  26
HETATM   26  C21 UNL     1      -8.216  48.358 -24.158  1.00  0.00     0.260 C 
BRANCH  26  27
HETATM   27  O5  UNL     1      -9.005  49.248 -24.952  1.00  0.00    -0.314 OA
BRANCH  27  28
HETATM   28  C22 UNL     1      -9.684  48.633 -25.963  1.00  0.00     0.259 C 
HETATM   29  O6  UNL     1     -10.877  48.784 -26.190  1.00  0.00    -0.265 OA
BRANCH  28  30
HETATM   30  C23 UNL     1      -8.762  47.726 -26.733  1.00  0.00     0.120 C 
BRANCH  30  31
HETATM   31  C24 UNL     1      -8.742  48.112 -28.206  1.00  0.00     0.112 C 
BRANCH  31  32
HETATM   32  C25 UNL     1      -9.087  46.950 -29.107  1.00  0.00     0.218 C 
HETATM   33  O7  UNL     1     -10.199  46.438 -29.162  1.00  0.00    -0.274 OA
HETATM   34  N1  UNL     1      -8.015  46.532 -29.865  1.00  0.00    -0.361 N 
HETATM   35  H32 UNL     1      -7.145  47.047 -29.816  1.00  0.00     0.162 HD
BRANCH  34  36
HETATM   36  C26 UNL     1      -8.123  45.458 -30.835  1.00  0.00     0.127 C 
BRANCH  36  37
HETATM   37  C27 UNL     1      -8.041  45.969 -32.275  1.00  0.00     0.058 C 
BRANCH  37  38
HETATM   38  C28 UNL     1      -6.656  46.460 -32.618  1.00  0.00    -0.057 A 
HETATM   39  C29 UNL     1      -6.485  47.587 -33.434  1.00  0.00     0.010 A 
HETATM   40  C30 UNL     1      -5.204  48.057 -33.733  1.00  0.00     0.037 A 
HETATM   41  C31 UNL     1      -4.096  47.400 -33.210  1.00  0.00     0.065 A 
HETATM   42  C32 UNL     1      -4.247  46.284 -32.395  1.00  0.00     0.037 A 
HETATM   43  C33 UNL     1      -5.526  45.813 -32.097  1.00  0.00     0.010 A 
BRANCH  41  44
HETATM   44  O8  UNL     1      -2.828  47.826 -33.475  1.00  0.00    -0.361 OA
HETATM   45  H39 UNL     1      -2.876  48.585 -34.080  1.00  0.00     0.217 HD
ENDBRANCH  41  44
ENDBRANCH  37  38
ENDBRANCH  36  37
ENDBRANCH  34  36
ENDBRANCH  31  32
ENDBRANCH  30  31
ENDBRANCH  28  30
ENDBRANCH  27  28
ENDBRANCH  26  27
ENDBRANCH  24  26
ENDBRANCH  21  24
TORSDOF 12
ENDMDL
