MODEL 1
REMARK minimizedAffinity -7.89378452
REMARK CNNscore 0.699447751
REMARK CNNaffinity 6.82845163
REMARK  20 active torsions:
REMARK  status: ('A' for Active; 'I' for Inactive)
REMARK    1  A    between atoms: C2_2  and  C18_24 
REMARK    2  A    between atoms: C3_3  and  C4_4 
REMARK    3  A    between atoms: C4_4  and  O2_6 
REMARK    4  A    between atoms: O2_6  and  C5_7 
REMARK    5  A    between atoms: C5_7  and  C6_8 
REMARK    6  A    between atoms: C6_8  and  C7_9 
REMARK    7  A    between atoms: C7_9  and  C8_10 
REMARK    8  A    between atoms: C8_10  and  C9_11 
REMARK    9  A    between atoms: C9_11  and  C10_12 
REMARK   10  A    between atoms: C10_12  and  C11_13 
REMARK   11  A    between atoms: C11_13  and  C12_14 
REMARK       I    between atoms: C12_14  and  N1_16 
REMARK   12  A    between atoms: N1_16  and  C13_17 
REMARK   13  A    between atoms: C18_24  and  C19_25 
REMARK   14  A    between atoms: C21_28  and  C22_29 
REMARK   15  A    between atoms: C22_29  and  C23_30 
REMARK   16  A    between atoms: C24_31  and  C25_32 
REMARK   17  A    between atoms: C25_32  and  C27_34 
REMARK   18  A    between atoms: C27_34  and  O6_36 
REMARK   19  A    between atoms: C29_37  and  O7_38 
REMARK   20  A    between atoms: C30_39  and  O8_40 
ROOT
HETATM    1  C1  UNL     1      -4.890  48.461 -25.379  1.00  0.00     0.043 C 
HETATM    2  C2  UNL     1      -3.888  48.537 -26.503  1.00  0.00    -0.075 C 
HETATM    3  C3  UNL     1      -4.179  48.346 -27.806  1.00  0.00     0.084 C 
ENDROOT
BRANCH   3   4
HETATM    4  C4  UNL     1      -5.462  47.901 -28.397  1.00  0.00     0.283 C 
HETATM    5  O1  UNL     1      -6.307  47.296 -27.753  1.00  0.00    -0.260 OA
BRANCH   4   6
HETATM    6  O2  UNL     1      -5.597  48.361 -29.662  1.00  0.00    -0.318 OA
BRANCH   6   7
HETATM    7  C5  UNL     1      -6.884  48.136 -30.251  1.00  0.00     0.179 C 
BRANCH   7   8
HETATM    8  C6  UNL     1      -6.734  46.988 -31.243  1.00  0.00     0.027 C 
BRANCH   8   9
HETATM    9  C7  UNL     1      -8.025  46.207 -31.482  1.00  0.00     0.002 C 
BRANCH   9  10
HETATM   10  C8  UNL     1      -8.913  46.851 -32.551  1.00  0.00     0.000 C 
BRANCH  10  11
HETATM   11  C9  UNL     1      -8.169  47.854 -33.435  1.00  0.00     0.000 C 
BRANCH  11  12
HETATM   12  C10 UNL     1      -8.073  47.502 -34.923  1.00  0.00     0.009 C 
BRANCH  12  13
HETATM   13  C11 UNL     1      -8.843  46.259 -35.366  1.00  0.00     0.103 C 
BRANCH  13  14
HETATM   14  C12 UNL     1      -9.680  46.457 -36.618  1.00  0.00     0.218 C 
HETATM   15  O3  UNL     1     -10.883  46.683 -36.612  1.00  0.00    -0.274 OA
HETATM   16  N1  UNL     1      -8.945  46.323 -37.779  1.00  0.00    -0.348 N 
HETATM   17  H19 UNL     1      -7.939  46.419 -37.701  1.00  0.00     0.163 HD
BRANCH  16  18
HETATM   18  C13 UNL     1      -9.539  46.650 -39.072  1.00  0.00     0.176 C 
HETATM   19  C14 UNL     1      -8.947  45.850 -40.236  1.00  0.00     0.036 C 
HETATM   20  C15 UNL     1      -7.497  46.221 -40.563  1.00  0.00     0.022 C 
HETATM   21  C16 UNL     1      -7.091  47.605 -40.070  1.00  0.00     0.122 C 
HETATM   22  N2  UNL     1      -8.208  48.513 -39.990  1.00  0.00    -0.359 N 
HETATM   23  C17 UNL     1      -9.362  48.153 -39.335  1.00  0.00     0.240 C 
HETATM   24  H27 UNL     1      -8.047  49.514 -40.020  1.00  0.00     0.162 HD
HETATM   25  O4  UNL     1     -10.125  49.009 -38.894  1.00  0.00    -0.271 OA
ENDBRANCH  16  18
ENDBRANCH  13  14
ENDBRANCH  12  13
ENDBRANCH  11  12
ENDBRANCH  10  11
ENDBRANCH   9  10
ENDBRANCH   8   9
ENDBRANCH   7   8
ENDBRANCH   6   7
ENDBRANCH   4   6
ENDBRANCH   3   4
BRANCH   2  26
HETATM   26  C18 UNL     1      -2.463  48.878 -26.087  1.00  0.00     0.068 C 
BRANCH  26  27
HETATM   27  C19 UNL     1      -1.935  50.148 -26.784  1.00  0.00     0.156 C 
HETATM   28  O5  UNL     1      -0.500  50.186 -26.611  1.00  0.00    -0.382 OA
HETATM   29  C20 UNL     1       0.046  51.449 -26.995  1.00  0.00     0.175 C 
HETATM   30  C21 UNL     1      -0.314  52.508 -25.942  1.00  0.00     0.044 C 
HETATM   31  C29 UNL     1      -1.633  52.130 -25.236  1.00  0.00     0.155 C 
HETATM   32  C30 UNL     1      -2.592  51.418 -26.200  1.00  0.00     0.176 C 
BRANCH  30  33
HETATM   33  C22 UNL     1       0.812  52.677 -24.899  1.00  0.00     0.036 C 
BRANCH  33  34
HETATM   34  C23 UNL     1       0.432  52.132 -23.546  1.00  0.00    -0.030 C 
HETATM   35  C24 UNL     1       0.508  52.834 -22.405  1.00  0.00    -0.024 C 
BRANCH  35  36
HETATM   36  C25 UNL     1       0.141  52.363 -21.007  1.00  0.00     0.032 C 
HETATM   37  C26 UNL     1      -0.066  50.849 -20.859  1.00  0.00     0.017 C 
BRANCH  36  38
HETATM   38  C27 UNL     1       1.129  52.925 -19.951  1.00  0.00     0.121 C 
HETATM   39  C28 UNL     1       0.653  52.797 -18.509  1.00  0.00     0.040 C 
BRANCH  38  40
HETATM   40  O6  UNL     1       1.393  54.310 -20.200  1.00  0.00    -0.395 OA
HETATM   41  H46 UNL     1       1.740  54.381 -21.105  1.00  0.00     0.210 HD
ENDBRANCH  38  40
ENDBRANCH  36  38
ENDBRANCH  35  36
ENDBRANCH  33  34
ENDBRANCH  30  33
BRANCH  31  42
HETATM   42  O7  UNL     1      -2.285  53.323 -24.770  1.00  0.00    -0.392 OA
HETATM   43  H48 UNL     1      -1.747  53.686 -24.044  1.00  0.00     0.210 HD
ENDBRANCH  31  42
BRANCH  32  44
HETATM   44  O8  UNL     1      -2.903  52.328 -27.273  1.00  0.00    -0.390 OA
HETATM   45  H50 UNL     1      -3.156  53.163 -26.828  1.00  0.00     0.210 HD
ENDBRANCH  32  44
ENDBRANCH  26  27
ENDBRANCH   2  26
TORSDOF 20
ENDMDL
MODEL 2
REMARK minimizedAffinity -7.20841026
REMARK CNNscore 0.559921086
REMARK CNNaffinity 6.73773766
REMARK  20 active torsions:
REMARK  status: ('A' for Active; 'I' for Inactive)
REMARK    1  A    between atoms: C2_2  and  C18_24 
REMARK    2  A    between atoms: C3_3  and  C4_4 
REMARK    3  A    between atoms: C4_4  and  O2_6 
REMARK    4  A    between atoms: O2_6  and  C5_7 
REMARK    5  A    between atoms: C5_7  and  C6_8 
REMARK    6  A    between atoms: C6_8  and  C7_9 
REMARK    7  A    between atoms: C7_9  and  C8_10 
REMARK    8  A    between atoms: C8_10  and  C9_11 
REMARK    9  A    between atoms: C9_11  and  C10_12 
REMARK   10  A    between atoms: C10_12  and  C11_13 
REMARK   11  A    between atoms: C11_13  and  C12_14 
REMARK       I    between atoms: C12_14  and  N1_16 
REMARK   12  A    between atoms: N1_16  and  C13_17 
REMARK   13  A    between atoms: C18_24  and  C19_25 
REMARK   14  A    between atoms: C21_28  and  C22_29 
REMARK   15  A    between atoms: C22_29  and  C23_30 
REMARK   16  A    between atoms: C24_31  and  C25_32 
REMARK   17  A    between atoms: C25_32  and  C27_34 
REMARK   18  A    between atoms: C27_34  and  O6_36 
REMARK   19  A    between atoms: C29_37  and  O7_38 
REMARK   20  A    between atoms: C30_39  and  O8_40 
ROOT
HETATM    1  C1  UNL     1       0.984  54.260 -23.614  1.00  0.00     0.043 C 
HETATM    2  C2  UNL     1       0.379  52.997 -23.054  1.00  0.00    -0.075 C 
HETATM    3  C3  UNL     1       0.276  52.713 -21.740  1.00  0.00     0.084 C 
ENDROOT
BRANCH   3   4
HETATM    4  C4  UNL     1       0.832  53.473 -20.597  1.00  0.00     0.283 C 
HETATM    5  O1  UNL     1       1.787  54.228 -20.713  1.00  0.00    -0.260 OA
BRANCH   4   6
HETATM    6  O2  UNL     1       0.072  53.306 -19.490  1.00  0.00    -0.318 OA
BRANCH   6   7
HETATM    7  C5  UNL     1      -0.779  52.153 -19.512  1.00  0.00     0.179 C 
BRANCH   7   8
HETATM    8  C6  UNL     1      -0.728  51.526 -18.123  1.00  0.00     0.027 C 
BRANCH   8   9
HETATM    9  C7  UNL     1       0.689  51.255 -17.621  1.00  0.00     0.002 C 
BRANCH   9  10
HETATM   10  C8  UNL     1       1.095  52.189 -16.475  1.00  0.00     0.000 C 
BRANCH  10  11
HETATM   11  C9  UNL     1       2.582  52.550 -16.484  1.00  0.00     0.000 C 
BRANCH  11  12
HETATM   12  C10 UNL     1       3.316  52.418 -15.145  1.00  0.00     0.009 C 
BRANCH  12  13
HETATM   13  C11 UNL     1       4.431  51.374 -15.095  1.00  0.00     0.103 C 
BRANCH  13  14
HETATM   14  C12 UNL     1       4.163  50.221 -14.143  1.00  0.00     0.218 C 
HETATM   15  O3  UNL     1       5.032  49.638 -13.509  1.00  0.00    -0.274 OA
HETATM   16  N1  UNL     1       2.829  49.871 -14.089  1.00  0.00    -0.348 N 
HETATM   17  H19 UNL     1       2.159  50.562 -14.409  1.00  0.00     0.163 HD
BRANCH  16  18
HETATM   18  C13 UNL     1       2.357  48.904 -13.103  1.00  0.00     0.176 C 
HETATM   19  C14 UNL     1       2.409  47.454 -13.594  1.00  0.00     0.036 C 
HETATM   20  C15 UNL     1       1.400  47.144 -14.704  1.00  0.00     0.022 C 
HETATM   21  C16 UNL     1       0.223  48.110 -14.750  1.00  0.00     0.122 C 
HETATM   22  N2  UNL     1      -0.074  48.684 -13.461  1.00  0.00    -0.359 N 
HETATM   23  C17 UNL     1       0.917  49.262 -12.704  1.00  0.00     0.240 C 
HETATM   24  H27 UNL     1      -1.002  49.049 -13.273  1.00  0.00     0.162 HD
HETATM   25  O4  UNL     1       0.644  50.099 -11.848  1.00  0.00    -0.271 OA
ENDBRANCH  16  18
ENDBRANCH  13  14
ENDBRANCH  12  13
ENDBRANCH  11  12
ENDBRANCH  10  11
ENDBRANCH   9  10
ENDBRANCH   8   9
ENDBRANCH   7   8
ENDBRANCH   6   7
ENDBRANCH   4   6
ENDBRANCH   3   4
BRANCH   2  26
HETATM   26  C18 UNL     1      -0.161  52.016 -24.086  1.00  0.00     0.068 C 
BRANCH  26  27
HETATM   27  C19 UNL     1      -1.663  52.223 -24.367  1.00  0.00     0.156 C 
HETATM   28  O5  UNL     1      -2.406  51.436 -23.409  1.00  0.00    -0.382 OA
HETATM   29  C20 UNL     1      -3.791  51.358 -23.749  1.00  0.00     0.175 C 
HETATM   30  C21 UNL     1      -3.973  50.431 -24.960  1.00  0.00     0.044 C 
HETATM   31  C29 UNL     1      -2.699  50.435 -25.831  1.00  0.00     0.155 C 
HETATM   32  C30 UNL     1      -2.020  51.812 -25.811  1.00  0.00     0.176 C 
BRANCH  30  33
HETATM   33  C22 UNL     1      -4.308  48.988 -24.525  1.00  0.00     0.036 C 
BRANCH  33  34
HETATM   34  C23 UNL     1      -3.748  48.651 -23.166  1.00  0.00    -0.030 C 
HETATM   35  C24 UNL     1      -2.554  48.071 -22.969  1.00  0.00    -0.024 C 
BRANCH  35  36
HETATM   36  C25 UNL     1      -1.916  47.705 -21.639  1.00  0.00     0.032 C 
HETATM   37  C26 UNL     1      -0.966  48.760 -21.055  1.00  0.00     0.017 C 
BRANCH  36  38
HETATM   38  C27 UNL     1      -2.989  47.252 -20.613  1.00  0.00     0.121 C 
HETATM   39  C28 UNL     1      -2.523  47.274 -19.161  1.00  0.00     0.040 C 
BRANCH  38  40
HETATM   40  O6  UNL     1      -3.431  45.922 -20.906  1.00  0.00    -0.395 OA
HETATM   41  H46 UNL     1      -3.769  45.923 -21.817  1.00  0.00     0.210 HD
ENDBRANCH  38  40
ENDBRANCH  36  38
ENDBRANCH  35  36
ENDBRANCH  33  34
ENDBRANCH  30  33
BRANCH  31  42
HETATM   42  O7  UNL     1      -3.049  50.137 -27.192  1.00  0.00    -0.392 OA
HETATM   43  H48 UNL     1      -3.331  49.206 -27.225  1.00  0.00     0.210 HD
ENDBRANCH  31  42
BRANCH  32  44
HETATM   44  O8  UNL     1      -2.944  52.771 -26.363  1.00  0.00    -0.390 OA
HETATM   45  H50 UNL     1      -3.254  52.369 -27.200  1.00  0.00     0.210 HD
ENDBRANCH  32  44
ENDBRANCH  26  27
ENDBRANCH   2  26
TORSDOF 20
ENDMDL
MODEL 3
REMARK minimizedAffinity -7.10309505
REMARK CNNscore 0.520936489
REMARK CNNaffinity 6.71832514
REMARK  20 active torsions:
REMARK  status: ('A' for Active; 'I' for Inactive)
REMARK    1  A    between atoms: C2_2  and  C18_24 
REMARK    2  A    between atoms: C3_3  and  C4_4 
REMARK    3  A    between atoms: C4_4  and  O2_6 
REMARK    4  A    between atoms: O2_6  and  C5_7 
REMARK    5  A    between atoms: C5_7  and  C6_8 
REMARK    6  A    between atoms: C6_8  and  C7_9 
REMARK    7  A    between atoms: C7_9  and  C8_10 
REMARK    8  A    between atoms: C8_10  and  C9_11 
REMARK    9  A    between atoms: C9_11  and  C10_12 
REMARK   10  A    between atoms: C10_12  and  C11_13 
REMARK   11  A    between atoms: C11_13  and  C12_14 
REMARK       I    between atoms: C12_14  and  N1_16 
REMARK   12  A    between atoms: N1_16  and  C13_17 
REMARK   13  A    between atoms: C18_24  and  C19_25 
REMARK   14  A    between atoms: C21_28  and  C22_29 
REMARK   15  A    between atoms: C22_29  and  C23_30 
REMARK   16  A    between atoms: C24_31  and  C25_32 
REMARK   17  A    between atoms: C25_32  and  C27_34 
REMARK   18  A    between atoms: C27_34  and  O6_36 
REMARK   19  A    between atoms: C29_37  and  O7_38 
REMARK   20  A    between atoms: C30_39  and  O8_40 
ROOT
HETATM    1  C1  UNL     1      -5.036  50.139 -24.346  1.00  0.00     0.043 C 
HETATM    2  C2  UNL     1      -4.174  49.211 -25.164  1.00  0.00    -0.075 C 
HETATM    3  C3  UNL     1      -4.644  48.296 -26.036  1.00  0.00     0.084 C 
ENDROOT
BRANCH   3   4
HETATM    4  C4  UNL     1      -6.053  47.910 -26.280  1.00  0.00     0.283 C 
HETATM    5  O1  UNL     1      -6.946  48.140 -25.477  1.00  0.00    -0.260 OA
BRANCH   4   6
HETATM    6  O2  UNL     1      -6.207  47.405 -27.526  1.00  0.00    -0.318 OA
BRANCH   6   7
HETATM    7  C5  UNL     1      -5.492  48.105 -28.552  1.00  0.00     0.179 C 
BRANCH   7   8
HETATM    8  C6  UNL     1      -5.826  47.431 -29.879  1.00  0.00     0.027 C 
BRANCH   8   9
HETATM    9  C7  UNL     1      -6.043  48.411 -31.030  1.00  0.00     0.002 C 
BRANCH   9  10
HETATM   10  C8  UNL     1      -7.454  49.010 -31.035  1.00  0.00     0.000 C 
BRANCH  10  11
HETATM   11  C9  UNL     1      -8.561  47.954 -31.069  1.00  0.00     0.000 C 
BRANCH  11  12
HETATM   12  C10 UNL     1      -9.796  48.242 -30.208  1.00  0.00     0.009 C 
BRANCH  12  13
HETATM   13  C11 UNL     1      -9.809  47.598 -28.822  1.00  0.00     0.103 C 
BRANCH  13  14
HETATM   14  C12 UNL     1      -9.781  46.079 -28.841  1.00  0.00     0.218 C 
HETATM   15  O3  UNL     1     -10.498  45.370 -28.147  1.00  0.00    -0.274 OA
HETATM   16  N1  UNL     1      -8.832  45.573 -29.706  1.00  0.00    -0.348 N 
HETATM   17  H19 UNL     1      -8.491  46.194 -30.431  1.00  0.00     0.163 HD
BRANCH  16  18
HETATM   18  C13 UNL     1      -8.777  44.141 -29.987  1.00  0.00     0.176 C 
HETATM   19  C14 UNL     1      -7.353  43.606 -30.161  1.00  0.00     0.036 C 
HETATM   20  C15 UNL     1      -6.659  44.104 -31.433  1.00  0.00     0.022 C 
HETATM   21  C16 UNL     1      -7.624  44.577 -32.513  1.00  0.00     0.122 C 
HETATM   22  N2  UNL     1      -8.903  43.915 -32.441  1.00  0.00    -0.359 N 
HETATM   23  C17 UNL     1      -9.595  43.851 -31.255  1.00  0.00     0.240 C 
HETATM   24  H27 UNL     1      -9.492  43.866 -33.265  1.00  0.00     0.162 HD
HETATM   25  O4  UNL     1     -10.813  43.689 -31.249  1.00  0.00    -0.271 OA
ENDBRANCH  16  18
ENDBRANCH  13  14
ENDBRANCH  12  13
ENDBRANCH  11  12
ENDBRANCH  10  11
ENDBRANCH   9  10
ENDBRANCH   8   9
ENDBRANCH   7   8
ENDBRANCH   6   7
ENDBRANCH   4   6
ENDBRANCH   3   4
BRANCH   2  26
HETATM   26  C18 UNL     1      -2.672  49.374 -24.973  1.00  0.00     0.068 C 
BRANCH  26  27
HETATM   27  C19 UNL     1      -1.957  49.808 -26.269  1.00  0.00     0.156 C 
HETATM   28  O5  UNL     1      -0.597  50.161 -25.929  1.00  0.00    -0.382 OA
HETATM   29  C20 UNL     1       0.065  50.818 -27.010  1.00  0.00     0.175 C 
HETATM   30  C21 UNL     1      -0.484  52.244 -27.160  1.00  0.00     0.044 C 
HETATM   31  C29 UNL     1      -1.940  52.311 -26.653  1.00  0.00     0.155 C 
HETATM   32  C30 UNL     1      -2.684  50.998 -26.933  1.00  0.00     0.176 C 
BRANCH  30  33
HETATM   33  C22 UNL     1       0.386  53.269 -26.401  1.00  0.00     0.036 C 
BRANCH  33  34
HETATM   34  C23 UNL     1      -0.029  53.422 -24.959  1.00  0.00    -0.030 C 
HETATM   35  C24 UNL     1       0.630  52.872 -23.926  1.00  0.00    -0.024 C 
BRANCH  35  36
HETATM   36  C25 UNL     1       0.284  52.983 -22.451  1.00  0.00     0.032 C 
HETATM   37  C26 UNL     1      -0.192  51.682 -21.790  1.00  0.00     0.017 C 
BRANCH  36  38
HETATM   38  C27 UNL     1       1.435  53.656 -21.656  1.00  0.00     0.121 C 
HETATM   39  C28 UNL     1       1.165  53.813 -20.164  1.00  0.00     0.040 C 
BRANCH  38  40
HETATM   40  O6  UNL     1       1.715  54.956 -22.186  1.00  0.00    -0.395 OA
HETATM   41  H46 UNL     1       1.930  54.846 -23.127  1.00  0.00     0.210 HD
ENDBRANCH  38  40
ENDBRANCH  36  38
ENDBRANCH  35  36
ENDBRANCH  33  34
ENDBRANCH  30  33
BRANCH  31  42
HETATM   42  O7  UNL     1      -2.637  53.365 -27.337  1.00  0.00    -0.392 OA
HETATM   43  H48 UNL     1      -2.263  54.210 -27.033  1.00  0.00     0.210 HD
ENDBRANCH  31  42
BRANCH  32  44
HETATM   44  O8  UNL     1      -2.714  50.799 -28.359  1.00  0.00    -0.390 OA
HETATM   45  H50 UNL     1      -3.031  51.650 -28.725  1.00  0.00     0.210 HD
ENDBRANCH  32  44
ENDBRANCH  26  27
ENDBRANCH   2  26
TORSDOF 20
ENDMDL
MODEL 4
REMARK minimizedAffinity -7.09636259
REMARK CNNscore 0.499524683
REMARK CNNaffinity 6.54638624
REMARK  20 active torsions:
REMARK  status: ('A' for Active; 'I' for Inactive)
REMARK    1  A    between atoms: C2_2  and  C18_24 
REMARK    2  A    between atoms: C3_3  and  C4_4 
REMARK    3  A    between atoms: C4_4  and  O2_6 
REMARK    4  A    between atoms: O2_6  and  C5_7 
REMARK    5  A    between atoms: C5_7  and  C6_8 
REMARK    6  A    between atoms: C6_8  and  C7_9 
REMARK    7  A    between atoms: C7_9  and  C8_10 
REMARK    8  A    between atoms: C8_10  and  C9_11 
REMARK    9  A    between atoms: C9_11  and  C10_12 
REMARK   10  A    between atoms: C10_12  and  C11_13 
REMARK   11  A    between atoms: C11_13  and  C12_14 
REMARK       I    between atoms: C12_14  and  N1_16 
REMARK   12  A    between atoms: N1_16  and  C13_17 
REMARK   13  A    between atoms: C18_24  and  C19_25 
REMARK   14  A    between atoms: C21_28  and  C22_29 
REMARK   15  A    between atoms: C22_29  and  C23_30 
REMARK   16  A    between atoms: C24_31  and  C25_32 
REMARK   17  A    between atoms: C25_32  and  C27_34 
REMARK   18  A    between atoms: C27_34  and  O6_36 
REMARK   19  A    between atoms: C29_37  and  O7_38 
REMARK   20  A    between atoms: C30_39  and  O8_40 
ROOT
HETATM    1  C1  UNL     1      -5.149  50.241 -24.392  1.00  0.00     0.043 C 
HETATM    2  C2  UNL     1      -4.158  49.381 -25.136  1.00  0.00    -0.075 C 
HETATM    3  C3  UNL     1      -4.490  48.412 -26.013  1.00  0.00     0.084 C 
ENDROOT
BRANCH   3   4
HETATM    4  C4  UNL     1      -5.840  47.894 -26.332  1.00  0.00     0.283 C 
HETATM    5  O1  UNL     1      -6.213  47.692 -27.479  1.00  0.00    -0.260 OA
BRANCH   4   6
HETATM    6  O2  UNL     1      -6.514  47.574 -25.203  1.00  0.00    -0.318 OA
BRANCH   6   7
HETATM    7  C5  UNL     1      -7.743  46.869 -25.415  1.00  0.00     0.179 C 
BRANCH   7   8
HETATM    8  C6  UNL     1      -8.867  47.899 -25.394  1.00  0.00     0.027 C 
BRANCH   8   9
HETATM    9  C7  UNL     1      -9.703  47.926 -26.673  1.00  0.00     0.002 C 
BRANCH   9  10
HETATM   10  C8  UNL     1     -11.208  47.869 -26.392  1.00  0.00     0.000 C 
BRANCH  10  11
HETATM   11  C9  UNL     1     -12.063  47.878 -27.661  1.00  0.00     0.000 C 
BRANCH  11  12
HETATM   12  C10 UNL     1     -13.465  47.273 -27.535  1.00  0.00     0.009 C 
BRANCH  12  13
HETATM   13  C11 UNL     1     -13.879  46.308 -28.645  1.00  0.00     0.103 C 
BRANCH  13  14
HETATM   14  C12 UNL     1     -14.605  45.067 -28.155  1.00  0.00     0.218 C 
HETATM   15  O3  UNL     1     -14.261  43.922 -28.416  1.00  0.00    -0.274 OA
HETATM   16  N1  UNL     1     -15.723  45.365 -27.403  1.00  0.00    -0.348 N 
HETATM   17  H19 UNL     1     -15.776  46.295 -27.004  1.00  0.00     0.163 HD
BRANCH  16  18
HETATM   18  C13 UNL     1     -16.447  44.307 -26.703  1.00  0.00     0.176 C 
HETATM   19  C14 UNL     1     -17.962  44.528 -26.658  1.00  0.00     0.036 C 
HETATM   20  C15 UNL     1     -18.385  45.705 -25.772  1.00  0.00     0.022 C 
HETATM   21  C16 UNL     1     -17.347  46.090 -24.726  1.00  0.00     0.122 C 
HETATM   22  N2  UNL     1     -16.521  44.976 -24.329  1.00  0.00    -0.359 N 
HETATM   23  C17 UNL     1     -15.899  44.192 -25.272  1.00  0.00     0.240 C 
HETATM   24  H27 UNL     1     -16.050  44.992 -23.432  1.00  0.00     0.162 HD
HETATM   25  O4  UNL     1     -14.897  43.543 -24.985  1.00  0.00    -0.271 OA
ENDBRANCH  16  18
ENDBRANCH  13  14
ENDBRANCH  12  13
ENDBRANCH  11  12
ENDBRANCH  10  11
ENDBRANCH   9  10
ENDBRANCH   8   9
ENDBRANCH   7   8
ENDBRANCH   6   7
ENDBRANCH   4   6
ENDBRANCH   3   4
BRANCH   2  26
HETATM   26  C18 UNL     1      -2.692  49.683 -24.859  1.00  0.00     0.068 C 
BRANCH  26  27
HETATM   27  C19 UNL     1      -1.900  49.989 -26.147  1.00  0.00     0.156 C 
HETATM   28  O5  UNL     1      -0.544  50.318 -25.768  1.00  0.00    -0.382 OA
HETATM   29  C20 UNL     1       0.193  50.865 -26.862  1.00  0.00     0.175 C 
HETATM   30  C21 UNL     1      -0.291  52.294 -27.147  1.00  0.00     0.044 C 
HETATM   31  C29 UNL     1      -1.766  52.453 -26.720  1.00  0.00     0.155 C 
HETATM   32  C30 UNL     1      -2.547  51.149 -26.935  1.00  0.00     0.176 C 
BRANCH  30  33
HETATM   33  C22 UNL     1       0.582  53.343 -26.426  1.00  0.00     0.036 C 
BRANCH  33  34
HETATM   34  C23 UNL     1       0.157  53.562 -24.996  1.00  0.00    -0.030 C 
HETATM   35  C24 UNL     1       0.679  52.904 -23.948  1.00  0.00    -0.024 C 
BRANCH  35  36
HETATM   36  C25 UNL     1       0.313  53.070 -22.482  1.00  0.00     0.032 C 
HETATM   37  C26 UNL     1      -0.268  51.820 -21.806  1.00  0.00     0.017 C 
BRANCH  36  38
HETATM   38  C27 UNL     1       1.495  53.674 -21.677  1.00  0.00     0.121 C 
HETATM   39  C28 UNL     1       1.270  53.728 -20.170  1.00  0.00     0.040 C 
BRANCH  38  40
HETATM   40  O6  UNL     1       1.774  55.006 -22.122  1.00  0.00    -0.395 OA
HETATM   41  H46 UNL     1       1.961  54.960 -23.075  1.00  0.00     0.210 HD
ENDBRANCH  38  40
ENDBRANCH  36  38
ENDBRANCH  35  36
ENDBRANCH  33  34
ENDBRANCH  30  33
BRANCH  31  42
HETATM   42  O7  UNL     1      -2.387  53.474 -27.515  1.00  0.00    -0.392 OA
HETATM   43  H48 UNL     1      -1.994  54.327 -27.258  1.00  0.00     0.210 HD
ENDBRANCH  31  42
BRANCH  32  44
HETATM   44  O8  UNL     1      -2.519  50.841 -28.342  1.00  0.00    -0.390 OA
HETATM   45  H50 UNL     1      -2.784  51.672 -28.787  1.00  0.00     0.210 HD
ENDBRANCH  32  44
ENDBRANCH  26  27
ENDBRANCH   2  26
TORSDOF 20
ENDMDL
MODEL 5
REMARK minimizedAffinity -7.10011625
REMARK CNNscore 0.453985721
REMARK CNNaffinity 6.70271444
REMARK  20 active torsions:
REMARK  status: ('A' for Active; 'I' for Inactive)
REMARK    1  A    between atoms: C2_2  and  C18_24 
REMARK    2  A    between atoms: C3_3  and  C4_4 
REMARK    3  A    between atoms: C4_4  and  O2_6 
REMARK    4  A    between atoms: O2_6  and  C5_7 
REMARK    5  A    between atoms: C5_7  and  C6_8 
REMARK    6  A    between atoms: C6_8  and  C7_9 
REMARK    7  A    between atoms: C7_9  and  C8_10 
REMARK    8  A    between atoms: C8_10  and  C9_11 
REMARK    9  A    between atoms: C9_11  and  C10_12 
REMARK   10  A    between atoms: C10_12  and  C11_13 
REMARK   11  A    between atoms: C11_13  and  C12_14 
REMARK       I    between atoms: C12_14  and  N1_16 
REMARK   12  A    between atoms: N1_16  and  C13_17 
REMARK   13  A    between atoms: C18_24  and  C19_25 
REMARK   14  A    between atoms: C21_28  and  C22_29 
REMARK   15  A    between atoms: C22_29  and  C23_30 
REMARK   16  A    between atoms: C24_31  and  C25_32 
REMARK   17  A    between atoms: C25_32  and  C27_34 
REMARK   18  A    between atoms: C27_34  and  O6_36 
REMARK   19  A    between atoms: C29_37  and  O7_38 
REMARK   20  A    between atoms: C30_39  and  O8_40 
ROOT
HETATM    1  C1  UNL     1      -5.092  48.463 -25.099  1.00  0.00     0.043 C 
HETATM    2  C2  UNL     1      -4.175  48.387 -26.294  1.00  0.00    -0.075 C 
HETATM    3  C3  UNL     1      -4.580  48.148 -27.558  1.00  0.00     0.084 C 
ENDROOT
BRANCH   3   4
HETATM    4  C4  UNL     1      -5.936  47.783 -28.027  1.00  0.00     0.283 C 
HETATM    5  O1  UNL     1      -6.778  47.294 -27.286  1.00  0.00    -0.260 OA
BRANCH   4   6
HETATM    6  O2  UNL     1      -6.128  48.176 -29.307  1.00  0.00    -0.318 OA
BRANCH   6   7
HETATM    7  C5  UNL     1      -6.942  47.297 -30.092  1.00  0.00     0.179 C 
BRANCH   7   8
HETATM    8  C6  UNL     1      -6.025  46.227 -30.674  1.00  0.00     0.027 C 
BRANCH   8   9
HETATM    9  C7  UNL     1      -6.753  44.948 -31.084  1.00  0.00     0.002 C 
BRANCH   9  10
HETATM   10  C8  UNL     1      -6.732  44.719 -32.599  1.00  0.00     0.000 C 
BRANCH  10  11
HETATM   11  C9  UNL     1      -8.125  44.546 -33.207  1.00  0.00     0.000 C 
BRANCH  11  12
HETATM   12  C10 UNL     1      -9.262  44.265 -32.220  1.00  0.00     0.009 C 
BRANCH  12  13
HETATM   13  C11 UNL     1     -10.409  45.276 -32.215  1.00  0.00     0.103 C 
BRANCH  13  14
HETATM   14  C12 UNL     1     -11.300  45.202 -30.988  1.00  0.00     0.218 C 
HETATM   15  O3  UNL     1     -11.588  44.163 -30.409  1.00  0.00    -0.274 OA
HETATM   16  N1  UNL     1     -11.786  46.437 -30.606  1.00  0.00    -0.348 N 
HETATM   17  H19 UNL     1     -11.291  47.253 -30.947  1.00  0.00     0.163 HD
BRANCH  16  18
HETATM   18  C13 UNL     1     -12.516  46.588 -29.351  1.00  0.00     0.176 C 
HETATM   19  C14 UNL     1     -12.085  47.811 -28.536  1.00  0.00     0.036 C 
HETATM   20  C15 UNL     1     -10.673  47.697 -27.954  1.00  0.00     0.022 C 
HETATM   21  C16 UNL     1     -10.174  46.262 -27.831  1.00  0.00     0.122 C 
HETATM   22  N2  UNL     1     -11.248  45.316 -27.658  1.00  0.00    -0.359 N 
HETATM   23  C17 UNL     1     -12.328  45.316 -28.509  1.00  0.00     0.240 C 
HETATM   24  H27 UNL     1     -11.063  44.416 -27.228  1.00  0.00     0.162 HD
HETATM   25  O4  UNL     1     -13.011  44.305 -28.655  1.00  0.00    -0.271 OA
ENDBRANCH  16  18
ENDBRANCH  13  14
ENDBRANCH  12  13
ENDBRANCH  11  12
ENDBRANCH  10  11
ENDBRANCH   9  10
ENDBRANCH   8   9
ENDBRANCH   7   8
ENDBRANCH   6   7
ENDBRANCH   4   6
ENDBRANCH   3   4
BRANCH   2  26
HETATM   26  C18 UNL     1      -2.700  48.627 -26.003  1.00  0.00     0.068 C 
BRANCH  26  27
HETATM   27  C19 UNL     1      -2.088  49.707 -26.917  1.00  0.00     0.156 C 
HETATM   28  O5  UNL     1      -0.711  49.899 -26.519  1.00  0.00    -0.382 OA
HETATM   29  C20 UNL     1      -0.139  51.055 -27.131  1.00  0.00     0.175 C 
HETATM   30  C21 UNL     1      -0.717  52.322 -26.482  1.00  0.00     0.044 C 
HETATM   31  C29 UNL     1      -2.133  52.042 -25.935  1.00  0.00     0.155 C 
HETATM   32  C30 UNL     1      -2.877  51.031 -26.819  1.00  0.00     0.176 C 
BRANCH  30  33
HETATM   33  C22 UNL     1       0.192  52.843 -25.348  1.00  0.00     0.036 C 
BRANCH  33  34
HETATM   34  C23 UNL     1      -0.263  52.382 -23.987  1.00  0.00    -0.030 C 
HETATM   35  C24 UNL     1       0.304  52.773 -22.834  1.00  0.00    -0.024 C 
BRANCH  35  36
HETATM   36  C25 UNL     1      -0.096  52.362 -21.426  1.00  0.00     0.032 C 
HETATM   37  C26 UNL     1      -0.167  50.849 -21.180  1.00  0.00     0.017 C 
BRANCH  36  38
HETATM   38  C27 UNL     1       0.774  53.087 -20.365  1.00  0.00     0.121 C 
HETATM   39  C28 UNL     1       0.071  53.338 -19.036  1.00  0.00     0.040 C 
BRANCH  38  40
HETATM   40  O6  UNL     1       1.222  54.351 -20.865  1.00  0.00    -0.395 OA
HETATM   41  H46 UNL     1       1.709  54.182 -21.688  1.00  0.00     0.210 HD
ENDBRANCH  38  40
ENDBRANCH  36  38
ENDBRANCH  35  36
ENDBRANCH  33  34
ENDBRANCH  30  33
BRANCH  31  42
HETATM   42  O7  UNL     1      -2.892  53.261 -25.928  1.00  0.00    -0.392 OA
HETATM   43  H48 UNL     1      -2.508  53.842 -25.247  1.00  0.00     0.210 HD
ENDBRANCH  31  42
BRANCH  32  44
HETATM   44  O8  UNL     1      -3.010  51.604 -28.135  1.00  0.00    -0.390 OA
HETATM   45  H50 UNL     1      -3.364  52.504 -27.983  1.00  0.00     0.210 HD
ENDBRANCH  32  44
ENDBRANCH  26  27
ENDBRANCH   2  26
TORSDOF 20
ENDMDL
MODEL 6
REMARK minimizedAffinity -8.12170887
REMARK CNNscore 0.420207888
REMARK CNNaffinity 6.57227325
REMARK  20 active torsions:
REMARK  status: ('A' for Active; 'I' for Inactive)
REMARK    1  A    between atoms: C2_2  and  C18_24 
REMARK    2  A    between atoms: C3_3  and  C4_4 
REMARK    3  A    between atoms: C4_4  and  O2_6 
REMARK    4  A    between atoms: O2_6  and  C5_7 
REMARK    5  A    between atoms: C5_7  and  C6_8 
REMARK    6  A    between atoms: C6_8  and  C7_9 
REMARK    7  A    between atoms: C7_9  and  C8_10 
REMARK    8  A    between atoms: C8_10  and  C9_11 
REMARK    9  A    between atoms: C9_11  and  C10_12 
REMARK   10  A    between atoms: C10_12  and  C11_13 
REMARK   11  A    between atoms: C11_13  and  C12_14 
REMARK       I    between atoms: C12_14  and  N1_16 
REMARK   12  A    between atoms: N1_16  and  C13_17 
REMARK   13  A    between atoms: C18_24  and  C19_25 
REMARK   14  A    between atoms: C21_28  and  C22_29 
REMARK   15  A    between atoms: C22_29  and  C23_30 
REMARK   16  A    between atoms: C24_31  and  C25_32 
REMARK   17  A    between atoms: C25_32  and  C27_34 
REMARK   18  A    between atoms: C27_34  and  O6_36 
REMARK   19  A    between atoms: C29_37  and  O7_38 
REMARK   20  A    between atoms: C30_39  and  O8_40 
ROOT
HETATM    1  C1  UNL     1       0.689  53.376 -24.543  1.00  0.00     0.043 C 
HETATM    2  C2  UNL     1       0.268  52.420 -23.456  1.00  0.00    -0.075 C 
HETATM    3  C3  UNL     1       0.445  52.632 -22.136  1.00  0.00     0.084 C 
ENDROOT
BRANCH   3   4
HETATM    4  C4  UNL     1       1.182  53.737 -21.481  1.00  0.00     0.283 C 
HETATM    5  O1  UNL     1       1.462  54.775 -22.063  1.00  0.00    -0.260 OA
BRANCH   4   6
HETATM    6  O2  UNL     1       1.372  53.479 -20.167  1.00  0.00    -0.318 OA
BRANCH   6   7
HETATM    7  C5  UNL     1       0.215  52.990 -19.476  1.00  0.00     0.179 C 
BRANCH   7   8
HETATM    8  C6  UNL     1       0.658  52.596 -18.071  1.00  0.00     0.027 C 
BRANCH   8   9
HETATM    9  C7  UNL     1       0.487  51.109 -17.766  1.00  0.00     0.002 C 
BRANCH   9  10
HETATM   10  C8  UNL     1       0.482  50.814 -16.262  1.00  0.00     0.000 C 
BRANCH  10  11
HETATM   11  C9  UNL     1       1.404  51.735 -15.460  1.00  0.00     0.000 C 
BRANCH  11  12
HETATM   12  C10 UNL     1       1.079  51.885 -13.970  1.00  0.00     0.009 C 
BRANCH  12  13
HETATM   13  C11 UNL     1      -0.403  51.826 -13.601  1.00  0.00     0.103 C 
BRANCH  13  14
HETATM   14  C12 UNL     1      -0.739  52.466 -12.265  1.00  0.00     0.218 C 
HETATM   15  O3  UNL     1      -0.171  53.451 -11.812  1.00  0.00    -0.274 OA
HETATM   16  N1  UNL     1      -1.740  51.797 -11.589  1.00  0.00    -0.348 N 
HETATM   17  H19 UNL     1      -2.336  51.187 -12.136  1.00  0.00     0.163 HD
BRANCH  16  18
HETATM   18  C13 UNL     1      -2.315  52.362 -10.372  1.00  0.00     0.176 C 
HETATM   19  C14 UNL     1      -2.496  51.339  -9.248  1.00  0.00     0.036 C 
HETATM   20  C15 UNL     1      -3.578  50.293  -9.535  1.00  0.00     0.022 C 
HETATM   21  C16 UNL     1      -4.599  50.737 -10.575  1.00  0.00     0.122 C 
HETATM   22  N2  UNL     1      -4.764  52.169 -10.613  1.00  0.00    -0.359 N 
HETATM   23  C17 UNL     1      -3.672  52.999 -10.712  1.00  0.00     0.240 C 
HETATM   24  H27 UNL     1      -5.620  52.568 -10.982  1.00  0.00     0.162 HD
HETATM   25  O4  UNL     1      -3.789  54.136 -11.162  1.00  0.00    -0.271 OA
ENDBRANCH  16  18
ENDBRANCH  13  14
ENDBRANCH  12  13
ENDBRANCH  11  12
ENDBRANCH  10  11
ENDBRANCH   9  10
ENDBRANCH   8   9
ENDBRANCH   7   8
ENDBRANCH   6   7
ENDBRANCH   4   6
ENDBRANCH   3   4
BRANCH   2  26
HETATM   26  C18 UNL     1      -0.420  51.148 -23.933  1.00  0.00     0.068 C 
BRANCH  26  27
HETATM   27  C19 UNL     1      -1.839  51.415 -24.475  1.00  0.00     0.156 C 
HETATM   28  O5  UNL     1      -2.650  50.253 -24.187  1.00  0.00    -0.382 OA
HETATM   29  C20 UNL     1      -3.901  50.298 -24.874  1.00  0.00     0.175 C 
HETATM   30  C21 UNL     1      -3.678  50.024 -26.369  1.00  0.00     0.044 C 
HETATM   31  C29 UNL     1      -2.260  50.466 -26.786  1.00  0.00     0.155 C 
HETATM   32  C30 UNL     1      -1.809  51.701 -25.993  1.00  0.00     0.176 C 
BRANCH  30  33
HETATM   33  C22 UNL     1      -3.887  48.532 -26.709  1.00  0.00     0.036 C 
BRANCH  33  34
HETATM   34  C23 UNL     1      -4.648  48.335 -27.996  1.00  0.00    -0.030 C 
HETATM   35  C24 UNL     1      -5.882  47.811 -28.065  1.00  0.00    -0.024 C 
BRANCH  35  36
HETATM   36  C25 UNL     1      -6.717  47.585 -29.315  1.00  0.00     0.032 C 
HETATM   37  C26 UNL     1      -6.679  46.158 -29.879  1.00  0.00     0.017 C 
BRANCH  36  38
HETATM   38  C27 UNL     1      -8.168  48.097 -29.116  1.00  0.00     0.121 C 
HETATM   39  C28 UNL     1      -8.647  49.068 -30.189  1.00  0.00     0.040 C 
BRANCH  38  40
HETATM   40  O6  UNL     1      -8.299  48.752 -27.850  1.00  0.00    -0.395 OA
HETATM   41  H46 UNL     1      -8.035  48.114 -27.166  1.00  0.00     0.210 HD
ENDBRANCH  38  40
ENDBRANCH  36  38
ENDBRANCH  35  36
ENDBRANCH  33  34
ENDBRANCH  30  33
BRANCH  31  42
HETATM   42  O7  UNL     1      -2.257  50.814 -28.179  1.00  0.00    -0.392 OA
HETATM   43  H48 UNL     1      -2.387  49.993 -28.687  1.00  0.00     0.210 HD
ENDBRANCH  31  42
BRANCH  32  44
HETATM   44  O8  UNL     1      -2.720  52.777 -26.291  1.00  0.00    -0.390 OA
HETATM   45  H50 UNL     1      -2.778  52.794 -27.268  1.00  0.00     0.210 HD
ENDBRANCH  32  44
ENDBRANCH  26  27
ENDBRANCH   2  26
TORSDOF 20
ENDMDL
MODEL 7
REMARK minimizedAffinity -7.17149544
REMARK CNNscore 0.407594323
REMARK CNNaffinity 6.76033401
REMARK  20 active torsions:
REMARK  status: ('A' for Active; 'I' for Inactive)
REMARK    1  A    between atoms: C2_2  and  C18_24 
REMARK    2  A    between atoms: C3_3  and  C4_4 
REMARK    3  A    between atoms: C4_4  and  O2_6 
REMARK    4  A    between atoms: O2_6  and  C5_7 
REMARK    5  A    between atoms: C5_7  and  C6_8 
REMARK    6  A    between atoms: C6_8  and  C7_9 
REMARK    7  A    between atoms: C7_9  and  C8_10 
REMARK    8  A    between atoms: C8_10  and  C9_11 
REMARK    9  A    between atoms: C9_11  and  C10_12 
REMARK   10  A    between atoms: C10_12  and  C11_13 
REMARK   11  A    between atoms: C11_13  and  C12_14 
REMARK       I    between atoms: C12_14  and  N1_16 
REMARK   12  A    between atoms: N1_16  and  C13_17 
REMARK   13  A    between atoms: C18_24  and  C19_25 
REMARK   14  A    between atoms: C21_28  and  C22_29 
REMARK   15  A    between atoms: C22_29  and  C23_30 
REMARK   16  A    between atoms: C24_31  and  C25_32 
REMARK   17  A    between atoms: C25_32  and  C27_34 
REMARK   18  A    between atoms: C27_34  and  O6_36 
REMARK   19  A    between atoms: C29_37  and  O7_38 
REMARK   20  A    between atoms: C30_39  and  O8_40 
ROOT
HETATM    1  C1  UNL     1       1.371  54.563 -23.072  1.00  0.00     0.043 C 
HETATM    2  C2  UNL     1       0.733  53.225 -22.798  1.00  0.00    -0.075 C 
HETATM    3  C3  UNL     1       0.392  52.774 -21.573  1.00  0.00     0.084 C 
ENDROOT
BRANCH   3   4
HETATM    4  C4  UNL     1       0.677  53.397 -20.261  1.00  0.00     0.283 C 
HETATM    5  O1  UNL     1       1.589  54.195 -20.096  1.00  0.00    -0.260 OA
BRANCH   4   6
HETATM    6  O2  UNL     1      -0.266  53.061 -19.351  1.00  0.00    -0.318 OA
BRANCH   6   7
HETATM    7  C5  UNL     1      -0.850  51.765 -19.539  1.00  0.00     0.179 C 
BRANCH   7   8
HETATM    8  C6  UNL     1      -0.896  51.085 -18.176  1.00  0.00     0.027 C 
BRANCH   8   9
HETATM    9  C7  UNL     1       0.479  50.875 -17.545  1.00  0.00     0.002 C 
BRANCH   9  10
HETATM   10  C8  UNL     1       0.655  51.665 -16.243  1.00  0.00     0.000 C 
BRANCH  10  11
HETATM   11  C9  UNL     1       2.071  52.214 -16.053  1.00  0.00     0.000 C 
BRANCH  11  12
HETATM   12  C10 UNL     1       2.851  51.668 -14.853  1.00  0.00     0.009 C 
BRANCH  12  13
HETATM   13  C11 UNL     1       2.331  50.361 -14.257  1.00  0.00     0.103 C 
BRANCH  13  14
HETATM   14  C12 UNL     1       1.868  50.474 -12.814  1.00  0.00     0.218 C 
HETATM   15  O3  UNL     1       2.195  49.700 -11.925  1.00  0.00    -0.274 OA
HETATM   16  N1  UNL     1       1.005  51.532 -12.611  1.00  0.00    -0.348 N 
HETATM   17  H19 UNL     1       1.011  52.271 -13.306  1.00  0.00     0.163 HD
BRANCH  16  18
HETATM   18  C13 UNL     1       0.595  51.903 -11.260  1.00  0.00     0.176 C 
HETATM   19  C14 UNL     1      -0.469  50.974 -10.667  1.00  0.00     0.036 C 
HETATM   20  C15 UNL     1      -1.836  51.090 -11.350  1.00  0.00     0.022 C 
HETATM   21  C16 UNL     1      -2.043  52.406 -12.089  1.00  0.00     0.122 C 
HETATM   22  N2  UNL     1      -1.279  53.487 -11.519  1.00  0.00    -0.359 N 
HETATM   23  C17 UNL     1       0.067  53.346 -11.279  1.00  0.00     0.240 C 
HETATM   24  H27 UNL     1      -1.571  54.446 -11.671  1.00  0.00     0.162 HD
HETATM   25  O4  UNL     1       0.798  54.331 -11.207  1.00  0.00    -0.271 OA
ENDBRANCH  16  18
ENDBRANCH  13  14
ENDBRANCH  12  13
ENDBRANCH  11  12
ENDBRANCH  10  11
ENDBRANCH   9  10
ENDBRANCH   8   9
ENDBRANCH   7   8
ENDBRANCH   6   7
ENDBRANCH   4   6
ENDBRANCH   3   4
BRANCH   2  26
HETATM   26  C18 UNL     1       0.455  52.368 -24.025  1.00  0.00     0.068 C 
BRANCH  26  27
HETATM   27  C19 UNL     1      -0.791  52.840 -24.802  1.00  0.00     0.156 C 
HETATM   28  O5  UNL     1      -1.928  52.090 -24.315  1.00  0.00    -0.382 OA
HETATM   29  C20 UNL     1      -3.075  52.269 -25.147  1.00  0.00     0.175 C 
HETATM   30  C21 UNL     1      -2.879  51.507 -26.466  1.00  0.00     0.044 C 
HETATM   31  C29 UNL     1      -1.376  51.394 -26.798  1.00  0.00     0.155 C 
HETATM   32  C30 UNL     1      -0.609  52.636 -26.321  1.00  0.00     0.176 C 
BRANCH  30  33
HETATM   33  C22 UNL     1      -3.513  50.101 -26.409  1.00  0.00     0.036 C 
BRANCH  33  34
HETATM   34  C23 UNL     1      -3.764  49.638 -24.996  1.00  0.00    -0.030 C 
HETATM   35  C24 UNL     1      -3.002  48.737 -24.355  1.00  0.00    -0.024 C 
BRANCH  35  36
HETATM   36  C25 UNL     1      -3.182  48.224 -22.935  1.00  0.00     0.032 C 
HETATM   37  C26 UNL     1      -2.127  48.701 -21.927  1.00  0.00     0.017 C 
BRANCH  36  38
HETATM   38  C27 UNL     1      -4.628  48.475 -22.430  1.00  0.00     0.121 C 
HETATM   39  C28 UNL     1      -4.747  48.664 -20.922  1.00  0.00     0.040 C 
BRANCH  38  40
HETATM   40  O6  UNL     1      -5.482  47.388 -22.800  1.00  0.00    -0.395 OA
HETATM   41  H46 UNL     1      -5.438  47.300 -23.766  1.00  0.00     0.210 HD
ENDBRANCH  38  40
ENDBRANCH  36  38
ENDBRANCH  35  36
ENDBRANCH  33  34
ENDBRANCH  30  33
BRANCH  31  42
HETATM   42  O7  UNL     1      -1.206  51.292 -28.220  1.00  0.00    -0.392 OA
HETATM   43  H48 UNL     1      -1.555  50.425 -28.496  1.00  0.00     0.210 HD
ENDBRANCH  31  42
BRANCH  32  44
HETATM   44  O8  UNL     1      -1.138  53.780 -27.020  1.00  0.00    -0.390 OA
HETATM   45  H50 UNL     1      -1.144  53.517 -27.964  1.00  0.00     0.210 HD
ENDBRANCH  32  44
ENDBRANCH  26  27
ENDBRANCH   2  26
TORSDOF 20
ENDMDL
MODEL 8
REMARK minimizedAffinity -8.18790436
REMARK CNNscore 0.40656051
REMARK CNNaffinity 6.56524324
REMARK  20 active torsions:
REMARK  status: ('A' for Active; 'I' for Inactive)
REMARK    1  A    between atoms: C2_2  and  C18_24 
REMARK    2  A    between atoms: C3_3  and  C4_4 
REMARK    3  A    between atoms: C4_4  and  O2_6 
REMARK    4  A    between atoms: O2_6  and  C5_7 
REMARK    5  A    between atoms: C5_7  and  C6_8 
REMARK    6  A    between atoms: C6_8  and  C7_9 
REMARK    7  A    between atoms: C7_9  and  C8_10 
REMARK    8  A    between atoms: C8_10  and  C9_11 
REMARK    9  A    between atoms: C9_11  and  C10_12 
REMARK   10  A    between atoms: C10_12  and  C11_13 
REMARK   11  A    between atoms: C11_13  and  C12_14 
REMARK       I    between atoms: C12_14  and  N1_16 
REMARK   12  A    between atoms: N1_16  and  C13_17 
REMARK   13  A    between atoms: C18_24  and  C19_25 
REMARK   14  A    between atoms: C21_28  and  C22_29 
REMARK   15  A    between atoms: C22_29  and  C23_30 
REMARK   16  A    between atoms: C24_31  and  C25_32 
REMARK   17  A    between atoms: C25_32  and  C27_34 
REMARK   18  A    between atoms: C27_34  and  O6_36 
REMARK   19  A    between atoms: C29_37  and  O7_38 
REMARK   20  A    between atoms: C30_39  and  O8_40 
ROOT
HETATM    1  C1  UNL     1       0.832  54.249 -24.117  1.00  0.00     0.043 C 
HETATM    2  C2  UNL     1       0.506  52.947 -23.431  1.00  0.00    -0.075 C 
HETATM    3  C3  UNL     1       0.603  52.733 -22.103  1.00  0.00     0.084 C 
ENDROOT
BRANCH   3   4
HETATM    4  C4  UNL     1       1.157  53.640 -21.072  1.00  0.00     0.283 C 
HETATM    5  O1  UNL     1       1.855  54.605 -21.352  1.00  0.00    -0.260 OA
BRANCH   4   6
HETATM    6  O2  UNL     1       0.684  53.324 -19.845  1.00  0.00    -0.318 OA
BRANCH   6   7
HETATM    7  C5  UNL     1      -0.320  52.301 -19.831  1.00  0.00     0.179 C 
BRANCH   7   8
HETATM    8  C6  UNL     1       0.063  51.303 -18.744  1.00  0.00     0.027 C 
BRANCH   8   9
HETATM    9  C7  UNL     1       0.587  51.955 -17.466  1.00  0.00     0.002 C 
BRANCH   9  10
HETATM   10  C8  UNL     1       0.529  51.013 -16.259  1.00  0.00     0.000 C 
BRANCH  10  11
HETATM   11  C9  UNL     1      -0.583  49.967 -16.358  1.00  0.00     0.000 C 
BRANCH  11  12
HETATM   12  C10 UNL     1      -1.152  49.458 -15.030  1.00  0.00     0.009 C 
BRANCH  12  13
HETATM   13  C11 UNL     1      -1.036  50.415 -13.844  1.00  0.00     0.103 C 
BRANCH  13  14
HETATM   14  C12 UNL     1      -2.240  50.410 -12.918  1.00  0.00     0.218 C 
HETATM   15  O3  UNL     1      -3.192  49.649 -13.033  1.00  0.00    -0.274 OA
HETATM   16  N1  UNL     1      -2.168  51.383 -11.942  1.00  0.00    -0.348 N 
HETATM   17  H19 UNL     1      -1.252  51.767 -11.742  1.00  0.00     0.163 HD
BRANCH  16  18
HETATM   18  C13 UNL     1      -3.146  51.418 -10.859  1.00  0.00     0.176 C 
HETATM   19  C14 UNL     1      -4.219  52.496 -11.038  1.00  0.00     0.036 C 
HETATM   20  C15 UNL     1      -3.685  53.925 -10.895  1.00  0.00     0.022 C 
HETATM   21  C16 UNL     1      -2.381  54.017 -10.113  1.00  0.00     0.122 C 
HETATM   22  N2  UNL     1      -2.234  52.950  -9.154  1.00  0.00    -0.359 N 
HETATM   23  C17 UNL     1      -2.410  51.639  -9.529  1.00  0.00     0.240 C 
HETATM   24  H27 UNL     1      -1.621  53.071  -8.355  1.00  0.00     0.162 HD
HETATM   25  O4  UNL     1      -1.895  50.729  -8.884  1.00  0.00    -0.271 OA
ENDBRANCH  16  18
ENDBRANCH  13  14
ENDBRANCH  12  13
ENDBRANCH  11  12
ENDBRANCH  10  11
ENDBRANCH   9  10
ENDBRANCH   8   9
ENDBRANCH   7   8
ENDBRANCH   6   7
ENDBRANCH   4   6
ENDBRANCH   3   4
BRANCH   2  26
HETATM   26  C18 UNL     1       0.017  51.831 -24.344  1.00  0.00     0.068 C 
BRANCH  26  27
HETATM   27  C19 UNL     1      -1.514  51.848 -24.526  1.00  0.00     0.156 C 
HETATM   28  O5  UNL     1      -2.030  50.576 -24.072  1.00  0.00    -0.382 OA
HETATM   29  C20 UNL     1      -3.399  50.398 -24.439  1.00  0.00     0.175 C 
HETATM   30  C21 UNL     1      -3.497  50.131 -25.949  1.00  0.00     0.044 C 
HETATM   31  C29 UNL     1      -2.312  50.791 -26.685  1.00  0.00     0.155 C 
HETATM   32  C30 UNL     1      -1.896  52.101 -26.001  1.00  0.00     0.176 C 
BRANCH  30  33
HETATM   33  C22 UNL     1      -3.531  48.618 -26.256  1.00  0.00     0.036 C 
BRANCH  33  34
HETATM   34  C23 UNL     1      -4.682  48.238 -27.153  1.00  0.00    -0.030 C 
HETATM   35  C24 UNL     1      -4.591  48.141 -28.490  1.00  0.00    -0.024 C 
BRANCH  35  36
HETATM   36  C25 UNL     1      -5.696  47.759 -29.461  1.00  0.00     0.032 C 
HETATM   37  C26 UNL     1      -7.107  47.703 -28.860  1.00  0.00     0.017 C 
BRANCH  36  38
HETATM   38  C27 UNL     1      -5.640  48.635 -30.742  1.00  0.00     0.121 C 
HETATM   39  C28 UNL     1      -5.414  47.854 -32.032  1.00  0.00     0.040 C 
BRANCH  38  40
HETATM   40  O6  UNL     1      -4.596  49.609 -30.636  1.00  0.00    -0.395 OA
HETATM   41  H46 UNL     1      -4.769  50.134 -29.837  1.00  0.00     0.210 HD
ENDBRANCH  38  40
ENDBRANCH  36  38
ENDBRANCH  35  36
ENDBRANCH  33  34
ENDBRANCH  30  33
BRANCH  31  42
HETATM   42  O7  UNL     1      -2.701  51.103 -28.032  1.00  0.00    -0.392 OA
HETATM   43  H48 UNL     1      -2.810  50.262 -28.509  1.00  0.00     0.210 HD
ENDBRANCH  31  42
BRANCH  32  44
HETATM   44  O8  UNL     1      -3.016  53.005 -26.053  1.00  0.00    -0.390 OA
HETATM   45  H50 UNL     1      -3.308  52.990 -26.987  1.00  0.00     0.210 HD
ENDBRANCH  32  44
ENDBRANCH  26  27
ENDBRANCH   2  26
TORSDOF 20
ENDMDL
MODEL 9
REMARK minimizedAffinity -7.13607693
REMARK CNNscore 0.382647723
REMARK CNNaffinity 6.68552399
REMARK  20 active torsions:
REMARK  status: ('A' for Active; 'I' for Inactive)
REMARK    1  A    between atoms: C2_2  and  C18_24 
REMARK    2  A    between atoms: C3_3  and  C4_4 
REMARK    3  A    between atoms: C4_4  and  O2_6 
REMARK    4  A    between atoms: O2_6  and  C5_7 
REMARK    5  A    between atoms: C5_7  and  C6_8 
REMARK    6  A    between atoms: C6_8  and  C7_9 
REMARK    7  A    between atoms: C7_9  and  C8_10 
REMARK    8  A    between atoms: C8_10  and  C9_11 
REMARK    9  A    between atoms: C9_11  and  C10_12 
REMARK   10  A    between atoms: C10_12  and  C11_13 
REMARK   11  A    between atoms: C11_13  and  C12_14 
REMARK       I    between atoms: C12_14  and  N1_16 
REMARK   12  A    between atoms: N1_16  and  C13_17 
REMARK   13  A    between atoms: C18_24  and  C19_25 
REMARK   14  A    between atoms: C21_28  and  C22_29 
REMARK   15  A    between atoms: C22_29  and  C23_30 
REMARK   16  A    between atoms: C24_31  and  C25_32 
REMARK   17  A    between atoms: C25_32  and  C27_34 
REMARK   18  A    between atoms: C27_34  and  O6_36 
REMARK   19  A    between atoms: C29_37  and  O7_38 
REMARK   20  A    between atoms: C30_39  and  O8_40 
ROOT
HETATM    1  C1  UNL     1       1.195  52.407 -16.962  1.00  0.00     0.043 C 
HETATM    2  C2  UNL     1       0.830  51.189 -16.153  1.00  0.00    -0.075 C 
HETATM    3  C3  UNL     1      -0.019  50.223 -16.560  1.00  0.00     0.084 C 
ENDROOT
BRANCH   3   4
HETATM    4  C4  UNL     1      -0.858  50.202 -17.779  1.00  0.00     0.283 C 
HETATM    5  O1  UNL     1      -2.072  50.345 -17.744  1.00  0.00    -0.260 OA
BRANCH   4   6
HETATM    6  O2  UNL     1      -0.092  50.134 -18.892  1.00  0.00    -0.318 OA
BRANCH   6   7
HETATM    7  C5  UNL     1      -0.815  49.903 -20.108  1.00  0.00     0.179 C 
BRANCH   7   8
HETATM    8  C6  UNL     1      -1.156  51.266 -20.700  1.00  0.00     0.027 C 
BRANCH   8   9
HETATM    9  C7  UNL     1      -0.191  51.721 -21.794  1.00  0.00     0.002 C 
BRANCH   9  10
HETATM   10  C8  UNL     1      -0.848  51.760 -23.178  1.00  0.00     0.000 C 
BRANCH  10  11
HETATM   11  C9  UNL     1      -1.235  50.377 -23.706  1.00  0.00     0.000 C 
BRANCH  11  12
HETATM   12  C10 UNL     1      -2.638  50.252 -24.308  1.00  0.00     0.009 C 
BRANCH  12  13
HETATM   13  C11 UNL     1      -2.736  49.472 -25.619  1.00  0.00     0.103 C 
BRANCH  13  14
HETATM   14  C12 UNL     1      -2.328  50.264 -26.849  1.00  0.00     0.218 C 
HETATM   15  O3  UNL     1      -3.061  50.471 -27.807  1.00  0.00    -0.274 OA
HETATM   16  N1  UNL     1      -1.022  50.706 -26.791  1.00  0.00    -0.348 N 
HETATM   17  H19 UNL     1      -0.587  50.742 -25.876  1.00  0.00     0.163 HD
BRANCH  16  18
HETATM   18  C13 UNL     1      -0.508  51.628 -27.799  1.00  0.00     0.176 C 
HETATM   19  C14 UNL     1       0.975  51.419 -28.121  1.00  0.00     0.036 C 
HETATM   20  C15 UNL     1       1.915  51.804 -26.974  1.00  0.00     0.022 C 
HETATM   21  C16 UNL     1       1.298  52.776 -25.977  1.00  0.00     0.122 C 
HETATM   22  N2  UNL     1       0.289  53.616 -26.573  1.00  0.00    -0.359 N 
HETATM   23  C17 UNL     1      -0.731  53.070 -27.315  1.00  0.00     0.240 C 
HETATM   24  H27 UNL     1       0.056  54.506 -26.145  1.00  0.00     0.162 HD
HETATM   25  O4  UNL     1      -1.791  53.674 -27.464  1.00  0.00    -0.271 OA
ENDBRANCH  16  18
ENDBRANCH  13  14
ENDBRANCH  12  13
ENDBRANCH  11  12
ENDBRANCH  10  11
ENDBRANCH   9  10
ENDBRANCH   8   9
ENDBRANCH   7   8
ENDBRANCH   6   7
ENDBRANCH   4   6
ENDBRANCH   3   4
BRANCH   2  26
HETATM   26  C18 UNL     1       1.511  51.076 -14.796  1.00  0.00     0.068 C 
BRANCH  26  27
HETATM   27  C19 UNL     1       0.500  50.945 -13.639  1.00  0.00     0.156 C 
HETATM   28  O5  UNL     1      -0.333  52.127 -13.640  1.00  0.00    -0.382 OA
HETATM   29  C20 UNL     1      -1.124  52.217 -12.454  1.00  0.00     0.175 C 
HETATM   30  C21 UNL     1      -0.229  52.600 -11.266  1.00  0.00     0.044 C 
HETATM   31  C29 UNL     1       1.214  52.107 -11.504  1.00  0.00     0.155 C 
HETATM   32  C30 UNL     1       1.224  50.785 -12.284  1.00  0.00     0.176 C 
BRANCH  30  33
HETATM   33  C22 UNL     1      -0.231  54.125 -11.022  1.00  0.00     0.036 C 
BRANCH  33  34
HETATM   34  C23 UNL     1       1.143  54.661 -10.710  1.00  0.00    -0.030 C 
HETATM   35  C24 UNL     1       1.500  55.164  -9.517  1.00  0.00    -0.024 C 
BRANCH  35  36
HETATM   36  C25 UNL     1       2.859  55.716  -9.120  1.00  0.00     0.032 C 
HETATM   37  C26 UNL     1       3.718  56.239 -10.280  1.00  0.00     0.017 C 
BRANCH  36  38
HETATM   38  C27 UNL     1       2.726  56.755  -7.975  1.00  0.00     0.121 C 
HETATM   39  C28 UNL     1       3.883  57.743  -7.881  1.00  0.00     0.040 C 
BRANCH  38  40
HETATM   40  O6  UNL     1       2.617  56.094  -6.710  1.00  0.00    -0.395 OA
HETATM   41  H46 UNL     1       1.850  55.498  -6.759  1.00  0.00     0.210 HD
ENDBRANCH  38  40
ENDBRANCH  36  38
ENDBRANCH  35  36
ENDBRANCH  33  34
ENDBRANCH  30  33
BRANCH  31  42
HETATM   42  O7  UNL     1       1.855  51.876 -10.240  1.00  0.00    -0.392 OA
HETATM   43  H48 UNL     1       1.990  52.742  -9.816  1.00  0.00     0.210 HD
ENDBRANCH  31  42
BRANCH  32  44
HETATM   44  O8  UNL     1       0.537  49.796 -11.493  1.00  0.00    -0.390 OA
HETATM   45  H50 UNL     1       0.938  49.864 -10.602  1.00  0.00     0.210 HD
ENDBRANCH  32  44
ENDBRANCH  26  27
ENDBRANCH   2  26
TORSDOF 20
ENDMDL
