MODEL 1
REMARK minimizedAffinity -9.72588158
REMARK  6 active torsions:
REMARK  status: ('A' for Active; 'I' for Inactive)
REMARK    1  A    between atoms: C2_2  and  C30_31 
REMARK    2  A    between atoms: C3_3  and  C4_4 
REMARK    3  A    between atoms: C4_4  and  C5_5 
REMARK    4  A    between atoms: C5_5  and  C6_6 
REMARK    5  A    between atoms: C6_6  and  C8_8 
REMARK    6  A    between atoms: C30_31  and  O3_33 
ROOT
HETATM    1  C8  UNL     1      -0.602  51.727 -21.085  1.00  0.00    -0.002 C 
HETATM    2  C9  UNL     1      -0.122  50.698 -20.027  1.00  0.00     0.007 C 
HETATM    3  C10 UNL     1      -1.303  49.729 -19.775  1.00  0.00     0.015 C 
HETATM    4  C11 UNL     1      -2.511  50.366 -20.496  1.00  0.00    -0.013 C 
HETATM    5  C12 UNL     1      -3.123  51.397 -19.496  1.00  0.00     0.021 C 
HETATM    6  C13 UNL     1      -3.667  49.468 -20.923  1.00  0.00    -0.070 C 
HETATM    7  C14 UNL     1      -4.032  48.379 -20.222  1.00  0.00    -0.022 C 
HETATM    8  C15 UNL     1      -5.215  47.514 -20.547  1.00  0.00     0.034 C 
HETATM    9  C16 UNL     1      -5.881  47.839 -21.904  1.00  0.00     0.013 C 
HETATM   10  C17 UNL     1      -7.177  47.003 -22.189  1.00  0.00     0.018 C 
HETATM   11  C18 UNL     1      -6.789  45.510 -22.357  1.00  0.00     0.023 C 
HETATM   12  C19 UNL     1      -8.265  47.060 -21.104  1.00  0.00     0.023 C 
HETATM   13  C20 UNL     1      -7.806  47.484 -23.506  1.00  0.00     0.135 C 
HETATM   14  O1  UNL     1      -8.248  46.707 -24.354  1.00  0.00    -0.297 OA
HETATM   15  C21 UNL     1      -7.954  48.975 -23.696  1.00  0.00     0.080 C 
HETATM   16  C22 UNL     1      -6.606  49.657 -23.527  1.00  0.00     0.017 C 
HETATM   17  C23 UNL     1      -5.948  49.395 -22.147  1.00  0.00    -0.031 C 
HETATM   18  C24 UNL     1      -6.735  50.157 -21.054  1.00  0.00     0.016 C 
HETATM   19  C25 UNL     1      -4.442  49.895 -22.178  1.00  0.00     0.024 C 
HETATM   20  C26 UNL     1      -4.248  51.388 -22.544  1.00  0.00     0.010 C 
HETATM   21  C27 UNL     1      -2.793  51.912 -22.495  1.00  0.00     0.011 C 
HETATM   22  C28 UNL     1      -1.810  50.989 -21.750  1.00  0.00    -0.029 C 
HETATM   23  C29 UNL     1      -1.264  49.926 -22.753  1.00  0.00     0.016 C 
ENDROOT
BRANCH   1  24
HETATM   24  C6  UNL     1       0.462  52.353 -22.037  1.00  0.00    -0.014 C 
HETATM   25  C7  UNL     1       1.200  53.588 -21.512  1.00  0.00     0.010 C 
BRANCH  24  26
HETATM   26  C5  UNL     1      -0.133  52.641 -23.442  1.00  0.00     0.008 C 
BRANCH  26  27
HETATM   27  C4  UNL     1       0.884  53.044 -24.512  1.00  0.00     0.028 C 
BRANCH  27  28
HETATM   28  C3  UNL     1       0.397  52.700 -25.894  1.00  0.00    -0.013 C 
HETATM   29  C2  UNL     1       1.041  51.981 -26.838  1.00  0.00     0.008 C 
HETATM   30  C1  UNL     1       0.411  51.650 -28.158  1.00  0.00     0.055 C 
BRANCH  29  31
HETATM   31  C30 UNL     1       2.431  51.508 -26.642  1.00  0.00     0.171 C 
HETATM   32  O2  UNL     1       2.809  50.620 -25.901  1.00  0.00    -0.646 OA
BRANCH  31  33
HETATM   33  O3  UNL     1       3.295  52.207 -27.398  1.00  0.00    -0.773 OA
HETATM   34  H46 UNL     1       4.160  51.791 -27.199  1.00  0.00     0.167 HD
ENDBRANCH  31  33
ENDBRANCH  29  31
ENDBRANCH  27  28
ENDBRANCH  26  27
ENDBRANCH  24  26
ENDBRANCH   1  24
TORSDOF 6
ENDMDL
MODEL 2
REMARK minimizedAffinity -9.4699297
REMARK  6 active torsions:
REMARK  status: ('A' for Active; 'I' for Inactive)
REMARK    1  A    between atoms: C2_2  and  C30_31 
REMARK    2  A    between atoms: C3_3  and  C4_4 
REMARK    3  A    between atoms: C4_4  and  C5_5 
REMARK    4  A    between atoms: C5_5  and  C6_6 
REMARK    5  A    between atoms: C6_6  and  C8_8 
REMARK    6  A    between atoms: C30_31  and  O3_33 
ROOT
HETATM    1  C8  UNL     1      -1.721  51.295 -21.645  1.00  0.00    -0.002 C 
HETATM    2  C9  UNL     1      -1.762  50.836 -20.163  1.00  0.00     0.007 C 
HETATM    3  C10 UNL     1      -3.036  49.971 -19.995  1.00  0.00     0.015 C 
HETATM    4  C11 UNL     1      -3.829  50.159 -21.308  1.00  0.00    -0.013 C 
HETATM    5  C12 UNL     1      -4.670  51.462 -21.129  1.00  0.00     0.021 C 
HETATM    6  C13 UNL     1      -4.821  49.079 -21.726  1.00  0.00    -0.070 C 
HETATM    7  C14 UNL     1      -5.517  48.355 -20.831  1.00  0.00    -0.022 C 
HETATM    8  C15 UNL     1      -6.570  47.344 -21.187  1.00  0.00     0.034 C 
HETATM    9  C16 UNL     1      -6.654  47.027 -22.698  1.00  0.00     0.013 C 
HETATM   10  C17 UNL     1      -7.823  46.052 -23.075  1.00  0.00     0.018 C 
HETATM   11  C18 UNL     1      -7.538  44.658 -22.457  1.00  0.00     0.023 C 
HETATM   12  C19 UNL     1      -9.225  46.470 -22.602  1.00  0.00     0.023 C 
HETATM   13  C20 UNL     1      -7.874  45.895 -24.603  1.00  0.00     0.135 C 
HETATM   14  O1  UNL     1      -8.039  44.806 -25.153  1.00  0.00    -0.297 OA
HETATM   15  C21 UNL     1      -7.804  47.158 -25.429  1.00  0.00     0.080 C 
HETATM   16  C22 UNL     1      -6.558  47.949 -25.066  1.00  0.00     0.017 C 
HETATM   17  C23 UNL     1      -6.484  48.333 -23.565  1.00  0.00    -0.031 C 
HETATM   18  C24 UNL     1      -7.547  49.416 -23.263  1.00  0.00     0.016 C 
HETATM   19  C25 UNL     1      -5.035  48.888 -23.234  1.00  0.00     0.024 C 
HETATM   20  C26 UNL     1      -4.584  50.105 -24.080  1.00  0.00     0.010 C 
HETATM   21  C27 UNL     1      -3.209  50.712 -23.711  1.00  0.00     0.011 C 
HETATM   22  C28 UNL     1      -2.660  50.259 -22.345  1.00  0.00    -0.029 C 
HETATM   23  C29 UNL     1      -1.881  48.920 -22.539  1.00  0.00     0.016 C 
ENDROOT
BRANCH   1  24
HETATM   24  C6  UNL     1      -0.328  51.549 -22.297  1.00  0.00    -0.014 C 
HETATM   25  C7  UNL     1       0.775  52.058 -21.364  1.00  0.00     0.010 C 
BRANCH  24  26
HETATM   26  C5  UNL     1      -0.444  52.469 -23.542  1.00  0.00     0.008 C 
BRANCH  26  27
HETATM   27  C4  UNL     1       0.783  52.487 -24.457  1.00  0.00     0.028 C 
BRANCH  27  28
HETATM   28  C3  UNL     1       0.390  52.400 -25.908  1.00  0.00    -0.013 C 
HETATM   29  C2  UNL     1       1.126  51.916 -26.931  1.00  0.00     0.008 C 
HETATM   30  C1  UNL     1       0.586  51.822 -28.328  1.00  0.00     0.055 C 
BRANCH  29  31
HETATM   31  C30 UNL     1       2.530  51.485 -26.745  1.00  0.00     0.171 C 
HETATM   32  O2  UNL     1       2.941  50.616 -25.998  1.00  0.00    -0.646 OA
BRANCH  31  33
HETATM   33  O3  UNL     1       3.367  52.200 -27.516  1.00  0.00    -0.773 OA
HETATM   34  H46 UNL     1       4.245  51.812 -27.321  1.00  0.00     0.167 HD
ENDBRANCH  31  33
ENDBRANCH  29  31
ENDBRANCH  27  28
ENDBRANCH  26  27
ENDBRANCH  24  26
ENDBRANCH   1  24
TORSDOF 6
ENDMDL
MODEL 3
REMARK minimizedAffinity -9.35895061
REMARK  6 active torsions:
REMARK  status: ('A' for Active; 'I' for Inactive)
REMARK    1  A    between atoms: C2_2  and  C30_31 
REMARK    2  A    between atoms: C3_3  and  C4_4 
REMARK    3  A    between atoms: C4_4  and  C5_5 
REMARK    4  A    between atoms: C5_5  and  C6_6 
REMARK    5  A    between atoms: C6_6  and  C8_8 
REMARK    6  A    between atoms: C30_31  and  O3_33 
ROOT
HETATM    1  C8  UNL     1      -3.003  48.250 -19.143  1.00  0.00    -0.002 C 
HETATM    2  C9  UNL     1      -3.693  47.160 -20.007  1.00  0.00     0.007 C 
HETATM    3  C10 UNL     1      -3.636  47.647 -21.476  1.00  0.00     0.015 C 
HETATM    4  C11 UNL     1      -3.147  49.110 -21.399  1.00  0.00    -0.013 C 
HETATM    5  C12 UNL     1      -4.416  49.983 -21.142  1.00  0.00     0.021 C 
HETATM    6  C13 UNL     1      -2.465  49.720 -22.618  1.00  0.00    -0.070 C 
HETATM    7  C14 UNL     1      -2.798  49.380 -23.876  1.00  0.00    -0.022 C 
HETATM    8  C15 UNL     1      -2.223  50.013 -25.111  1.00  0.00     0.034 C 
HETATM    9  C16 UNL     1      -1.032  50.961 -24.838  1.00  0.00     0.013 C 
HETATM   10  C17 UNL     1      -0.505  51.699 -26.117  1.00  0.00     0.018 C 
HETATM   11  C18 UNL     1       0.115  50.654 -27.083  1.00  0.00     0.023 C 
HETATM   12  C19 UNL     1      -1.556  52.481 -26.922  1.00  0.00     0.023 C 
HETATM   13  C20 UNL     1       0.599  52.686 -25.709  1.00  0.00     0.135 C 
HETATM   14  O1  UNL     1       1.645  52.814 -26.348  1.00  0.00    -0.297 OA
HETATM   15  C21 UNL     1       0.321  53.582 -24.525  1.00  0.00     0.080 C 
HETATM   16  C22 UNL     1      -0.048  52.742 -23.313  1.00  0.00     0.017 C 
HETATM   17  C23 UNL     1      -1.280  51.828 -23.545  1.00  0.00    -0.031 C 
HETATM   18  C24 UNL     1      -2.555  52.702 -23.623  1.00  0.00     0.016 C 
HETATM   19  C25 UNL     1      -1.404  50.795 -22.346  1.00  0.00     0.024 C 
HETATM   20  C26 UNL     1      -1.514  51.429 -20.937  1.00  0.00     0.010 C 
HETATM   21  C27 UNL     1      -1.721  50.439 -19.765  1.00  0.00     0.011 C 
HETATM   22  C28 UNL     1      -2.145  49.022 -20.198  1.00  0.00    -0.029 C 
HETATM   23  C29 UNL     1      -0.863  48.191 -20.515  1.00  0.00     0.016 C 
ENDROOT
BRANCH   1  24
HETATM   24  C6  UNL     1      -2.289  47.805 -17.831  1.00  0.00    -0.014 C 
HETATM   25  C7  UNL     1      -3.021  46.763 -16.980  1.00  0.00     0.010 C 
BRANCH  24  26
HETATM   26  C5  UNL     1      -1.892  49.027 -16.959  1.00  0.00     0.008 C 
BRANCH  26  27
HETATM   27  C4  UNL     1      -0.439  49.043 -16.481  1.00  0.00     0.028 C 
BRANCH  27  28
HETATM   28  C3  UNL     1       0.313  50.222 -17.039  1.00  0.00    -0.013 C 
HETATM   29  C2  UNL     1       0.815  51.274 -16.357  1.00  0.00     0.008 C 
HETATM   30  C1  UNL     1       1.609  52.355 -17.030  1.00  0.00     0.055 C 
BRANCH  29  31
HETATM   31  C30 UNL     1       0.578  51.446 -14.906  1.00  0.00     0.171 C 
HETATM   32  O2  UNL     1       0.270  50.585 -14.103  1.00  0.00    -0.646 OA
BRANCH  31  33
HETATM   33  O3  UNL     1       0.728  52.730 -14.536  1.00  0.00    -0.773 OA
HETATM   34  H46 UNL     1       0.570  52.708 -13.570  1.00  0.00     0.167 HD
ENDBRANCH  31  33
ENDBRANCH  29  31
ENDBRANCH  27  28
ENDBRANCH  26  27
ENDBRANCH  24  26
ENDBRANCH   1  24
TORSDOF 6
ENDMDL
MODEL 4
REMARK minimizedAffinity -9.18926048
REMARK  6 active torsions:
REMARK  status: ('A' for Active; 'I' for Inactive)
REMARK    1  A    between atoms: C2_2  and  C30_31 
REMARK    2  A    between atoms: C3_3  and  C4_4 
REMARK    3  A    between atoms: C4_4  and  C5_5 
REMARK    4  A    between atoms: C5_5  and  C6_6 
REMARK    5  A    between atoms: C6_6  and  C8_8 
REMARK    6  A    between atoms: C30_31  and  O3_33 
ROOT
HETATM    1  C8  UNL     1      -1.406  51.351 -26.251  1.00  0.00    -0.002 C 
HETATM    2  C9  UNL     1      -2.363  51.067 -27.441  1.00  0.00     0.007 C 
HETATM    3  C10 UNL     1      -3.474  50.129 -26.909  1.00  0.00     0.015 C 
HETATM    4  C11 UNL     1      -2.999  49.691 -25.506  1.00  0.00    -0.013 C 
HETATM    5  C12 UNL     1      -2.051  48.470 -25.726  1.00  0.00     0.021 C 
HETATM    6  C13 UNL     1      -4.038  49.231 -24.490  1.00  0.00    -0.070 C 
HETATM    7  C14 UNL     1      -5.163  48.586 -24.851  1.00  0.00    -0.022 C 
HETATM    8  C15 UNL     1      -6.174  48.033 -23.888  1.00  0.00     0.034 C 
HETATM    9  C16 UNL     1      -5.940  48.452 -22.418  1.00  0.00     0.013 C 
HETATM   10  C17 UNL     1      -6.935  47.786 -21.405  1.00  0.00     0.018 C 
HETATM   11  C18 UNL     1      -8.366  48.319 -21.680  1.00  0.00     0.023 C 
HETATM   12  C19 UNL     1      -7.015  46.252 -21.451  1.00  0.00     0.023 C 
HETATM   13  C20 UNL     1      -6.542  48.190 -19.975  1.00  0.00     0.135 C 
HETATM   14  O1  UNL     1      -7.372  48.523 -19.128  1.00  0.00    -0.297 OA
HETATM   15  C21 UNL     1      -5.083  48.077 -19.603  1.00  0.00     0.080 C 
HETATM   16  C22 UNL     1      -4.234  48.873 -20.580  1.00  0.00     0.017 C 
HETATM   17  C23 UNL     1      -4.406  48.427 -22.056  1.00  0.00    -0.031 C 
HETATM   18  C24 UNL     1      -3.748  47.040 -22.249  1.00  0.00     0.016 C 
HETATM   19  C25 UNL     1      -3.717  49.491 -23.012  1.00  0.00     0.024 C 
HETATM   20  C26 UNL     1      -2.213  49.746 -22.743  1.00  0.00     0.010 C 
HETATM   21  C27 UNL     1      -1.507  50.716 -23.720  1.00  0.00     0.011 C 
HETATM   22  C28 UNL     1      -2.294  51.000 -25.013  1.00  0.00    -0.029 C 
HETATM   23  C29 UNL     1      -3.282  52.179 -24.748  1.00  0.00     0.016 C 
ENDROOT
BRANCH   1  24
HETATM   24  C6  UNL     1      -0.652  52.715 -26.224  1.00  0.00    -0.014 C 
HETATM   25  C7  UNL     1      -0.394  53.374 -27.583  1.00  0.00     0.010 C 
BRANCH  24  26
HETATM   26  C5  UNL     1       0.670  52.617 -25.416  1.00  0.00     0.008 C 
BRANCH  26  27
HETATM   27  C4  UNL     1       0.713  53.448 -24.131  1.00  0.00     0.028 C 
BRANCH  27  28
HETATM   28  C3  UNL     1       0.428  52.603 -22.918  1.00  0.00    -0.013 C 
HETATM   29  C2  UNL     1       0.685  52.905 -21.627  1.00  0.00     0.008 C 
HETATM   30  C1  UNL     1       0.285  51.999 -20.501  1.00  0.00     0.055 C 
BRANCH  29  31
HETATM   31  C30 UNL     1       1.415  54.136 -21.246  1.00  0.00     0.171 C 
HETATM   32  O2  UNL     1       1.941  54.940 -21.992  1.00  0.00    -0.646 OA
BRANCH  31  33
HETATM   33  O3  UNL     1       1.458  54.284 -19.911  1.00  0.00    -0.773 OA
HETATM   34  H46 UNL     1       1.938  55.129 -19.791  1.00  0.00     0.167 HD
ENDBRANCH  31  33
ENDBRANCH  29  31
ENDBRANCH  27  28
ENDBRANCH  26  27
ENDBRANCH  24  26
ENDBRANCH   1  24
TORSDOF 6
ENDMDL
MODEL 5
REMARK minimizedAffinity -9.1701889
REMARK  6 active torsions:
REMARK  status: ('A' for Active; 'I' for Inactive)
REMARK    1  A    between atoms: C2_2  and  C30_31 
REMARK    2  A    between atoms: C3_3  and  C4_4 
REMARK    3  A    between atoms: C4_4  and  C5_5 
REMARK    4  A    between atoms: C5_5  and  C6_6 
REMARK    5  A    between atoms: C6_6  and  C8_8 
REMARK    6  A    between atoms: C30_31  and  O3_33 
ROOT
HETATM    1  C8  UNL     1      -2.647  50.788 -24.042  1.00  0.00    -0.002 C 
HETATM    2  C9  UNL     1      -2.682  49.642 -25.089  1.00  0.00     0.007 C 
HETATM    3  C10 UNL     1      -3.660  48.569 -24.549  1.00  0.00     0.015 C 
HETATM    4  C11 UNL     1      -3.969  48.997 -23.097  1.00  0.00    -0.013 C 
HETATM    5  C12 UNL     1      -2.819  48.416 -22.215  1.00  0.00     0.021 C 
HETATM    6  C13 UNL     1      -5.266  48.520 -22.453  1.00  0.00    -0.070 C 
HETATM    7  C14 UNL     1      -5.819  47.328 -22.741  1.00  0.00    -0.022 C 
HETATM    8  C15 UNL     1      -7.043  46.772 -22.072  1.00  0.00     0.034 C 
HETATM    9  C16 UNL     1      -7.772  47.779 -21.153  1.00  0.00     0.013 C 
HETATM   10  C17 UNL     1      -8.987  47.162 -20.377  1.00  0.00     0.018 C 
HETATM   11  C18 UNL     1     -10.093  46.777 -21.394  1.00  0.00     0.023 C 
HETATM   12  C19 UNL     1      -8.685  45.902 -19.549  1.00  0.00     0.023 C 
HETATM   13  C20 UNL     1      -9.563  48.220 -19.422  1.00  0.00     0.135 C 
HETATM   14  O1  UNL     1     -10.774  48.403 -19.287  1.00  0.00    -0.297 OA
HETATM   15  C21 UNL     1      -8.581  48.985 -18.567  1.00  0.00     0.080 C 
HETATM   16  C22 UNL     1      -7.533  49.648 -19.445  1.00  0.00     0.017 C 
HETATM   17  C23 UNL     1      -6.745  48.647 -20.330  1.00  0.00    -0.031 C 
HETATM   18  C24 UNL     1      -5.804  47.805 -19.435  1.00  0.00     0.016 C 
HETATM   19  C25 UNL     1      -5.895  49.449 -21.405  1.00  0.00     0.024 C 
HETATM   20  C26 UNL     1      -4.902  50.485 -20.823  1.00  0.00     0.010 C 
HETATM   21  C27 UNL     1      -4.005  51.214 -21.852  1.00  0.00     0.011 C 
HETATM   22  C28 UNL     1      -3.972  50.556 -23.245  1.00  0.00    -0.029 C 
HETATM   23  C29 UNL     1      -5.170  51.101 -24.084  1.00  0.00     0.016 C 
ENDROOT
BRANCH   1  24
HETATM   24  C6  UNL     1      -2.362  52.235 -24.546  1.00  0.00    -0.014 C 
HETATM   25  C7  UNL     1      -2.601  52.493 -26.037  1.00  0.00     0.010 C 
BRANCH  24  26
HETATM   26  C5  UNL     1      -0.940  52.707 -24.141  1.00  0.00     0.008 C 
BRANCH  26  27
HETATM   27  C4  UNL     1       0.213  51.945 -24.797  1.00  0.00     0.028 C 
BRANCH  27  28
HETATM   28  C3  UNL     1       0.161  52.049 -26.298  1.00  0.00    -0.013 C 
HETATM   29  C2  UNL     1       1.157  51.800 -27.175  1.00  0.00     0.008 C 
HETATM   30  C1  UNL     1       0.950  51.874 -28.659  1.00  0.00     0.055 C 
BRANCH  29  31
HETATM   31  C30 UNL     1       2.529  51.476 -26.722  1.00  0.00     0.171 C 
HETATM   32  O2  UNL     1       2.859  50.607 -25.937  1.00  0.00    -0.646 OA
BRANCH  31  33
HETATM   33  O3  UNL     1       3.434  52.294 -27.285  1.00  0.00    -0.773 OA
HETATM   34  H46 UNL     1       4.287  51.969 -26.930  1.00  0.00     0.167 HD
ENDBRANCH  31  33
ENDBRANCH  29  31
ENDBRANCH  27  28
ENDBRANCH  26  27
ENDBRANCH  24  26
ENDBRANCH   1  24
TORSDOF 6
ENDMDL
MODEL 6
REMARK minimizedAffinity -8.97356987
REMARK  6 active torsions:
REMARK  status: ('A' for Active; 'I' for Inactive)
REMARK    1  A    between atoms: C2_2  and  C30_31 
REMARK    2  A    between atoms: C3_3  and  C4_4 
REMARK    3  A    between atoms: C4_4  and  C5_5 
REMARK    4  A    between atoms: C5_5  and  C6_6 
REMARK    5  A    between atoms: C6_6  and  C8_8 
REMARK    6  A    between atoms: C30_31  and  O3_33 
ROOT
HETATM    1  C8  UNL     1      -2.181  50.713 -23.862  1.00  0.00    -0.002 C 
HETATM    2  C9  UNL     1      -3.196  51.688 -24.517  1.00  0.00     0.007 C 
HETATM    3  C10 UNL     1      -4.611  51.161 -24.175  1.00  0.00     0.015 C 
HETATM    4  C11 UNL     1      -4.384  49.766 -23.552  1.00  0.00    -0.013 C 
HETATM    5  C12 UNL     1      -4.281  48.764 -24.746  1.00  0.00     0.021 C 
HETATM    6  C13 UNL     1      -5.450  49.195 -22.624  1.00  0.00    -0.070 C 
HETATM    7  C14 UNL     1      -6.760  49.452 -22.786  1.00  0.00    -0.022 C 
HETATM    8  C15 UNL     1      -7.857  48.846 -21.958  1.00  0.00     0.034 C 
HETATM    9  C16 UNL     1      -7.355  48.049 -20.732  1.00  0.00     0.013 C 
HETATM   10  C17 UNL     1      -8.497  47.332 -19.933  1.00  0.00     0.018 C 
HETATM   11  C18 UNL     1      -9.408  48.406 -19.282  1.00  0.00     0.023 C 
HETATM   12  C19 UNL     1      -9.413  46.409 -20.753  1.00  0.00     0.023 C 
HETATM   13  C20 UNL     1      -7.873  46.490 -18.809  1.00  0.00     0.135 C 
HETATM   14  O1  UNL     1      -8.335  46.459 -17.668  1.00  0.00    -0.297 OA
HETATM   15  C21 UNL     1      -6.701  45.610 -19.176  1.00  0.00     0.080 C 
HETATM   16  C22 UNL     1      -5.606  46.443 -19.820  1.00  0.00     0.017 C 
HETATM   17  C23 UNL     1      -6.073  47.204 -21.089  1.00  0.00    -0.031 C 
HETATM   18  C24 UNL     1      -6.301  46.190 -22.236  1.00  0.00     0.016 C 
HETATM   19  C25 UNL     1      -4.962  48.257 -21.511  1.00  0.00     0.024 C 
HETATM   20  C26 UNL     1      -3.556  47.663 -21.777  1.00  0.00     0.010 C 
HETATM   21  C27 UNL     1      -2.483  48.663 -22.272  1.00  0.00     0.011 C 
HETATM   22  C28 UNL     1      -3.049  50.007 -22.770  1.00  0.00    -0.029 C 
HETATM   23  C29 UNL     1      -3.206  50.967 -21.549  1.00  0.00     0.016 C 
ENDROOT
BRANCH   1  24
HETATM   24  C6  UNL     1      -0.799  51.280 -23.417  1.00  0.00    -0.014 C 
HETATM   25  C7  UNL     1      -0.440  51.110 -21.937  1.00  0.00     0.010 C 
BRANCH  24  26
HETATM   26  C5  UNL     1      -0.630  52.764 -23.842  1.00  0.00     0.008 C 
BRANCH  26  27
HETATM   27  C4  UNL     1       0.696  53.101 -24.527  1.00  0.00     0.028 C 
BRANCH  27  28
HETATM   28  C3  UNL     1       0.885  52.301 -25.788  1.00  0.00    -0.013 C 
HETATM   29  C2  UNL     1       0.514  52.641 -27.041  1.00  0.00     0.008 C 
HETATM   30  C1  UNL     1       0.826  51.778 -28.228  1.00  0.00     0.055 C 
BRANCH  29  31
HETATM   31  C30 UNL     1      -0.262  53.872 -27.316  1.00  0.00     0.171 C 
HETATM   32  O2  UNL     1       0.049  55.016 -27.039  1.00  0.00    -0.646 OA
BRANCH  31  33
HETATM   33  O3  UNL     1      -1.426  53.589 -27.927  1.00  0.00    -0.773 OA
HETATM   34  H46 UNL     1      -1.827  54.471 -28.071  1.00  0.00     0.167 HD
ENDBRANCH  31  33
ENDBRANCH  29  31
ENDBRANCH  27  28
ENDBRANCH  26  27
ENDBRANCH  24  26
ENDBRANCH   1  24
TORSDOF 6
ENDMDL
MODEL 7
REMARK minimizedAffinity -8.94601154
REMARK  6 active torsions:
REMARK  status: ('A' for Active; 'I' for Inactive)
REMARK    1  A    between atoms: C2_2  and  C30_31 
REMARK    2  A    between atoms: C3_3  and  C4_4 
REMARK    3  A    between atoms: C4_4  and  C5_5 
REMARK    4  A    between atoms: C5_5  and  C6_6 
REMARK    5  A    between atoms: C6_6  and  C8_8 
REMARK    6  A    between atoms: C30_31  and  O3_33 
ROOT
HETATM    1  C8  UNL     1      -2.877  51.602 -22.414  1.00  0.00    -0.002 C 
HETATM    2  C9  UNL     1      -2.116  51.053 -21.177  1.00  0.00     0.007 C 
HETATM    3  C10 UNL     1      -2.894  49.808 -20.686  1.00  0.00     0.015 C 
HETATM    4  C11 UNL     1      -4.215  49.814 -21.487  1.00  0.00    -0.013 C 
HETATM    5  C12 UNL     1      -5.194  50.751 -20.711  1.00  0.00     0.021 C 
HETATM    6  C13 UNL     1      -4.964  48.500 -21.676  1.00  0.00    -0.070 C 
HETATM    7  C14 UNL     1      -4.958  47.526 -20.747  1.00  0.00    -0.022 C 
HETATM    8  C15 UNL     1      -5.748  46.253 -20.842  1.00  0.00     0.034 C 
HETATM    9  C16 UNL     1      -6.423  46.030 -22.215  1.00  0.00     0.013 C 
HETATM   10  C17 UNL     1      -7.332  44.753 -22.273  1.00  0.00     0.018 C 
HETATM   11  C18 UNL     1      -6.440  43.492 -22.132  1.00  0.00     0.023 C 
HETATM   12  C19 UNL     1      -8.419  44.653 -21.191  1.00  0.00     0.023 C 
HETATM   13  C20 UNL     1      -8.029  44.694 -23.642  1.00  0.00     0.135 C 
HETATM   14  O1  UNL     1      -8.132  43.652 -24.289  1.00  0.00    -0.297 OA
HETATM   15  C21 UNL     1      -8.679  45.963 -24.140  1.00  0.00     0.080 C 
HETATM   16  C22 UNL     1      -7.664  47.093 -24.164  1.00  0.00     0.017 C 
HETATM   17  C23 UNL     1      -7.019  47.375 -22.782  1.00  0.00    -0.031 C 
HETATM   18  C24 UNL     1      -8.071  48.025 -21.851  1.00  0.00     0.016 C 
HETATM   19  C25 UNL     1      -5.782  48.353 -22.967  1.00  0.00     0.024 C 
HETATM   20  C26 UNL     1      -6.105  49.706 -23.649  1.00  0.00     0.010 C 
HETATM   21  C27 UNL     1      -4.928  50.705 -23.760  1.00  0.00     0.011 C 
HETATM   22  C28 UNL     1      -3.720  50.365 -22.867  1.00  0.00    -0.029 C 
HETATM   23  C29 UNL     1      -2.792  49.374 -23.637  1.00  0.00     0.016 C 
ENDROOT
BRANCH   1  24
HETATM   24  C6  UNL     1      -2.056  52.345 -23.512  1.00  0.00    -0.014 C 
HETATM   25  C7  UNL     1      -2.723  52.478 -24.884  1.00  0.00     0.010 C 
BRANCH  24  26
HETATM   26  C5  UNL     1      -0.633  51.742 -23.663  1.00  0.00     0.008 C 
BRANCH  26  27
HETATM   27  C4  UNL     1       0.389  52.646 -24.354  1.00  0.00     0.028 C 
BRANCH  27  28
HETATM   28  C3  UNL     1       0.850  52.058 -25.661  1.00  0.00    -0.013 C 
HETATM   29  C2  UNL     1       0.640  52.546 -26.903  1.00  0.00     0.008 C 
HETATM   30  C1  UNL     1       1.218  51.895 -28.125  1.00  0.00     0.055 C 
BRANCH  29  31
HETATM   31  C30 UNL     1      -0.211  53.735 -27.137  1.00  0.00     0.171 C 
HETATM   32  O2  UNL     1      -1.237  53.789 -27.790  1.00  0.00    -0.646 OA
BRANCH  31  33
HETATM   33  O3  UNL     1       0.296  54.825 -26.536  1.00  0.00    -0.773 OA
HETATM   34  H46 UNL     1      -0.357  55.524 -26.744  1.00  0.00     0.167 HD
ENDBRANCH  31  33
ENDBRANCH  29  31
ENDBRANCH  27  28
ENDBRANCH  26  27
ENDBRANCH  24  26
ENDBRANCH   1  24
TORSDOF 6
ENDMDL
MODEL 8
REMARK minimizedAffinity -8.8505888
REMARK  6 active torsions:
REMARK  status: ('A' for Active; 'I' for Inactive)
REMARK    1  A    between atoms: C2_2  and  C30_31 
REMARK    2  A    between atoms: C3_3  and  C4_4 
REMARK    3  A    between atoms: C4_4  and  C5_5 
REMARK    4  A    between atoms: C5_5  and  C6_6 
REMARK    5  A    between atoms: C6_6  and  C8_8 
REMARK    6  A    between atoms: C30_31  and  O3_33 
ROOT
HETATM    1  C8  UNL     1      -4.249  50.220 -24.934  1.00  0.00    -0.002 C 
HETATM    2  C9  UNL     1      -4.235  51.769 -24.833  1.00  0.00     0.007 C 
HETATM    3  C10 UNL     1      -4.062  52.120 -23.335  1.00  0.00     0.015 C 
HETATM    4  C11 UNL     1      -4.234  50.782 -22.582  1.00  0.00    -0.013 C 
HETATM    5  C12 UNL     1      -5.770  50.591 -22.376  1.00  0.00     0.021 C 
HETATM    6  C13 UNL     1      -3.609  50.633 -21.200  1.00  0.00    -0.070 C 
HETATM    7  C14 UNL     1      -3.494  51.665 -20.345  1.00  0.00    -0.022 C 
HETATM    8  C15 UNL     1      -2.970  51.556 -18.942  1.00  0.00     0.034 C 
HETATM    9  C16 UNL     1      -2.354  50.179 -18.604  1.00  0.00     0.013 C 
HETATM   10  C17 UNL     1      -1.905  50.036 -17.108  1.00  0.00     0.018 C 
HETATM   11  C18 UNL     1      -0.723  51.005 -16.841  1.00  0.00     0.023 C 
HETATM   12  C19 UNL     1      -2.980  50.343 -16.053  1.00  0.00     0.023 C 
HETATM   13  C20 UNL     1      -1.410  48.601 -16.866  1.00  0.00     0.135 C 
HETATM   14  O1  UNL     1      -0.394  48.350 -16.217  1.00  0.00    -0.297 OA
HETATM   15  C21 UNL     1      -2.276  47.477 -17.383  1.00  0.00     0.080 C 
HETATM   16  C22 UNL     1      -2.528  47.656 -18.870  1.00  0.00     0.017 C 
HETATM   17  C23 UNL     1      -3.205  49.006 -19.226  1.00  0.00    -0.031 C 
HETATM   18  C24 UNL     1      -4.674  48.984 -18.739  1.00  0.00     0.016 C 
HETATM   19  C25 UNL     1      -3.158  49.222 -20.797  1.00  0.00     0.024 C 
HETATM   20  C26 UNL     1      -3.818  48.100 -21.638  1.00  0.00     0.010 C 
HETATM   21  C27 UNL     1      -3.857  48.336 -23.168  1.00  0.00     0.011 C 
HETATM   22  C28 UNL     1      -3.569  49.789 -23.593  1.00  0.00    -0.029 C 
HETATM   23  C29 UNL     1      -2.025  49.974 -23.727  1.00  0.00     0.016 C 
ENDROOT
BRANCH   1  24
HETATM   24  C6  UNL     1      -3.720  49.564 -26.245  1.00  0.00    -0.014 C 
HETATM   25  C7  UNL     1      -2.649  48.482 -26.078  1.00  0.00     0.010 C 
BRANCH  24  26
HETATM   26  C5  UNL     1      -3.246  50.635 -27.264  1.00  0.00     0.008 C 
BRANCH  26  27
HETATM   27  C4  UNL     1      -2.172  51.596 -26.750  1.00  0.00     0.028 C 
BRANCH  27  28
HETATM   28  C3  UNL     1      -0.860  51.386 -27.457  1.00  0.00    -0.013 C 
HETATM   29  C2  UNL     1       0.188  52.235 -27.515  1.00  0.00     0.008 C 
HETATM   30  C1  UNL     1       1.473  51.871 -28.199  1.00  0.00     0.055 C 
BRANCH  29  31
HETATM   31  C30 UNL     1       0.119  53.598 -26.940  1.00  0.00     0.171 C 
HETATM   32  O2  UNL     1       0.556  53.967 -25.866  1.00  0.00    -0.646 OA
BRANCH  31  33
HETATM   33  O3  UNL     1      -0.530  54.441 -27.762  1.00  0.00    -0.773 OA
HETATM   34  H46 UNL     1      -0.489  55.297 -27.287  1.00  0.00     0.167 HD
ENDBRANCH  31  33
ENDBRANCH  29  31
ENDBRANCH  27  28
ENDBRANCH  26  27
ENDBRANCH  24  26
ENDBRANCH   1  24
TORSDOF 6
ENDMDL
MODEL 9
REMARK minimizedAffinity -8.82313728
REMARK  6 active torsions:
REMARK  status: ('A' for Active; 'I' for Inactive)
REMARK    1  A    between atoms: C2_2  and  C30_31 
REMARK    2  A    between atoms: C3_3  and  C4_4 
REMARK    3  A    between atoms: C4_4  and  C5_5 
REMARK    4  A    between atoms: C5_5  and  C6_6 
REMARK    5  A    between atoms: C6_6  and  C8_8 
REMARK    6  A    between atoms: C30_31  and  O3_33 
ROOT
HETATM    1  C8  UNL     1      -2.189  50.017 -22.402  1.00  0.00    -0.002 C 
HETATM    2  C9  UNL     1      -3.454  49.134 -22.235  1.00  0.00     0.007 C 
HETATM    3  C10 UNL     1      -3.547  48.761 -20.735  1.00  0.00     0.015 C 
HETATM    4  C11 UNL     1      -2.206  49.221 -20.120  1.00  0.00    -0.013 C 
HETATM    5  C12 UNL     1      -1.192  48.059 -20.362  1.00  0.00     0.021 C 
HETATM    6  C13 UNL     1      -2.148  49.515 -18.625  1.00  0.00    -0.070 C 
HETATM    7  C14 UNL     1      -2.896  48.846 -17.728  1.00  0.00    -0.022 C 
HETATM    8  C15 UNL     1      -2.813  49.033 -16.241  1.00  0.00     0.034 C 
HETATM    9  C16 UNL     1      -1.940  50.232 -15.803  1.00  0.00     0.013 C 
HETATM   10  C17 UNL     1      -1.772  50.358 -14.249  1.00  0.00     0.018 C 
HETATM   11  C18 UNL     1      -3.148  50.700 -13.619  1.00  0.00     0.023 C 
HETATM   12  C19 UNL     1      -1.250  49.105 -13.526  1.00  0.00     0.023 C 
HETATM   13  C20 UNL     1      -0.806  51.512 -13.940  1.00  0.00     0.135 C 
HETATM   14  O1  UNL     1      -1.014  52.330 -13.042  1.00  0.00    -0.297 OA
HETATM   15  C21 UNL     1       0.482  51.563 -14.727  1.00  0.00     0.080 C 
HETATM   16  C22 UNL     1       0.182  51.571 -16.216  1.00  0.00     0.017 C 
HETATM   17  C23 UNL     1      -0.641  50.343 -16.689  1.00  0.00    -0.031 C 
HETATM   18  C24 UNL     1       0.252  49.081 -16.636  1.00  0.00     0.016 C 
HETATM   19  C25 UNL     1      -1.147  50.587 -18.173  1.00  0.00     0.024 C 
HETATM   20  C26 UNL     1      -0.034  50.869 -19.213  1.00  0.00     0.010 C 
HETATM   21  C27 UNL     1      -0.503  51.024 -20.680  1.00  0.00     0.011 C 
HETATM   22  C28 UNL     1      -1.936  50.524 -20.945  1.00  0.00    -0.029 C 
HETATM   23  C29 UNL     1      -2.935  51.680 -20.630  1.00  0.00     0.016 C 
ENDROOT
BRANCH   1  24
HETATM   24  C6  UNL     1      -2.183  51.084 -23.539  1.00  0.00    -0.014 C 
HETATM   25  C7  UNL     1      -3.363  51.043 -24.514  1.00  0.00     0.010 C 
BRANCH  24  26
HETATM   26  C5  UNL     1      -0.841  51.074 -24.320  1.00  0.00     0.008 C 
BRANCH  26  27
HETATM   27  C4  UNL     1      -0.959  50.778 -25.817  1.00  0.00     0.028 C 
BRANCH  27  28
HETATM   28  C3  UNL     1       0.388  50.794 -26.490  1.00  0.00    -0.013 C 
HETATM   29  C2  UNL     1       0.979  51.830 -27.123  1.00  0.00     0.008 C 
HETATM   30  C1  UNL     1       2.362  51.732 -27.695  1.00  0.00     0.055 C 
BRANCH  29  31
HETATM   31  C30 UNL     1       0.279  53.119 -27.326  1.00  0.00     0.171 C 
HETATM   32  O2  UNL     1       0.264  54.075 -26.573  1.00  0.00    -0.646 OA
BRANCH  31  33
HETATM   33  O3  UNL     1      -0.394  53.131 -28.489  1.00  0.00    -0.773 OA
HETATM   34  H46 UNL     1      -0.788  54.027 -28.516  1.00  0.00     0.167 HD
ENDBRANCH  31  33
ENDBRANCH  29  31
ENDBRANCH  27  28
ENDBRANCH  26  27
ENDBRANCH  24  26
ENDBRANCH   1  24
TORSDOF 6
ENDMDL
