MODEL 1
REMARK minimizedAffinity -8.55269146
REMARK  12 active torsions:
REMARK  status: ('A' for Active; 'I' for Inactive)
REMARK    1  A    between atoms: C2_2  and  C23_27 
REMARK    2  A    between atoms: C3_3  and  C4_4 
REMARK    3  A    between atoms: C4_4  and  C5_5 
REMARK    4  A    between atoms: C13_13  and  C14_14 
REMARK    5  A    between atoms: C14_14  and  C16_16 
REMARK    6  A    between atoms: C17_17  and  C18_18 
REMARK    7  A    between atoms: C18_18  and  O1_19 
REMARK    8  A    between atoms: C18_18  and  C19_20 
REMARK    9  A    between atoms: C20_21  and  C21_23 
REMARK   10  A    between atoms: C21_23  and  C22_24 
REMARK   11  A    between atoms: C22_24  and  O2_25 
REMARK   12  A    between atoms: C23_27  and  O4_29 
ROOT
HETATM    1  C5  UNL     1      -0.221   7.112  11.681  1.00  0.00     0.225 C 
HETATM    2  C6  UNL     1       0.903   7.064  12.725  1.00  0.00     0.036 C 
HETATM    3  C7  UNL     1       0.336   7.146  14.135  1.00  0.00     0.005 C 
HETATM    4  C8  UNL     1      -0.738   6.080  14.339  1.00  0.00     0.042 C 
HETATM    5  C9  UNL     1      -1.850   6.099  13.243  1.00  0.00     0.162 C 
HETATM    6  C10 UNL     1      -2.778   7.316  13.418  1.00  0.00     0.042 C 
HETATM    7  C11 UNL     1      -3.749   6.932  14.531  1.00  0.00     0.003 C 
HETATM    8  C12 UNL     1      -3.735   5.406  14.627  1.00  0.00     0.008 C 
HETATM    9  C13 UNL     1      -2.818   4.892  13.496  1.00  0.00     0.031 C 
HETATM   10  N1  UNL     1      -1.206   6.046  11.925  1.00  0.00     0.098 N 
HETATM   11  H35 UNL     1      -1.908   6.069  11.189  1.00  0.00     0.317 HD
ENDROOT
BRANCH   9  12
HETATM   12  C14 UNL     1      -3.617   4.307  12.284  1.00  0.00     0.010 C 
HETATM   13  C15 UNL     1      -3.020   2.949  11.866  1.00  0.00     0.015 C 
BRANCH  12  14
HETATM   14  C16 UNL     1      -5.124   4.271  12.456  1.00  0.00    -0.023 C 
HETATM   15  C17 UNL     1      -5.937   3.212  12.282  1.00  0.00     0.005 C 
BRANCH  15  16
HETATM   16  C18 UNL     1      -7.429   3.246  12.441  1.00  0.00     0.165 C 
BRANCH  16  17
HETATM   17  O1  UNL     1      -7.813   1.957  12.877  1.00  0.00    -0.388 OA
HETATM   18  H28 UNL     1      -8.452   2.057  13.600  1.00  0.00     0.210 HD
ENDBRANCH  16  17
BRANCH  16  19
HETATM   19  C19 UNL     1      -7.838   4.381  13.348  1.00  0.00     0.028 C 
HETATM   20  C20 UNL     1      -8.479   5.543  13.130  1.00  0.00     0.013 C 
HETATM   21 CL1  UNL     1      -9.062   6.016  11.571  1.00  0.00    -0.089 Cl
BRANCH  20  22
HETATM   22  C21 UNL     1      -8.795   6.522  14.241  1.00  0.00     0.077 C 
BRANCH  22  23
HETATM   23  C22 UNL     1     -10.191   7.139  14.115  1.00  0.00     0.169 C 
BRANCH  23  24
HETATM   24  O2  UNL     1     -11.185   6.310  14.709  1.00  0.00    -0.401 OA
HETATM   25  H34 UNL     1     -11.131   5.434  14.284  1.00  0.00     0.209 HD
ENDBRANCH  23  24
ENDBRANCH  22  23
ENDBRANCH  20  22
ENDBRANCH  16  19
ENDBRANCH  15  16
ENDBRANCH  12  14
ENDBRANCH   9  12
BRANCH   1  26
HETATM   26  C4  UNL     1       0.339   7.032  10.239  1.00  0.00     0.063 C 
BRANCH  26  27
HETATM   27  C3  UNL     1       1.549   6.148  10.068  1.00  0.00    -0.011 C 
HETATM   28  C2  UNL     1       2.463   6.173   9.077  1.00  0.00     0.008 C 
HETATM   29  C1  UNL     1       2.496   7.135   7.928  1.00  0.00     0.055 C 
BRANCH  28  30
HETATM   30  C23 UNL     1       3.540   5.150   9.150  1.00  0.00     0.171 C 
HETATM   31  O3  UNL     1       3.676   4.176   8.431  1.00  0.00    -0.646 OA
BRANCH  30  32
HETATM   32  O4  UNL     1       4.420   5.403  10.134  1.00  0.00    -0.773 OA
HETATM   33  H36 UNL     1       5.053   4.659  10.058  1.00  0.00     0.167 HD
ENDBRANCH  30  32
ENDBRANCH  28  30
ENDBRANCH  26  27
ENDBRANCH   1  26
TORSDOF 12
ENDMDL
MODEL 2
REMARK minimizedAffinity -8.52013302
REMARK  12 active torsions:
REMARK  status: ('A' for Active; 'I' for Inactive)
REMARK    1  A    between atoms: C2_2  and  C23_27 
REMARK    2  A    between atoms: C3_3  and  C4_4 
REMARK    3  A    between atoms: C4_4  and  C5_5 
REMARK    4  A    between atoms: C13_13  and  C14_14 
REMARK    5  A    between atoms: C14_14  and  C16_16 
REMARK    6  A    between atoms: C17_17  and  C18_18 
REMARK    7  A    between atoms: C18_18  and  O1_19 
REMARK    8  A    between atoms: C18_18  and  C19_20 
REMARK    9  A    between atoms: C20_21  and  C21_23 
REMARK   10  A    between atoms: C21_23  and  C22_24 
REMARK   11  A    between atoms: C22_24  and  O2_25 
REMARK   12  A    between atoms: C23_27  and  O4_29 
ROOT
HETATM    1  C5  UNL     1      -4.934   6.312  13.948  1.00  0.00     0.225 C 
HETATM    2  C6  UNL     1      -5.529   7.676  13.576  1.00  0.00     0.036 C 
HETATM    3  C7  UNL     1      -4.509   8.787  13.782  1.00  0.00     0.005 C 
HETATM    4  C8  UNL     1      -3.212   8.460  13.045  1.00  0.00     0.042 C 
HETATM    5  C9  UNL     1      -2.640   7.049  13.388  1.00  0.00     0.162 C 
HETATM    6  C10 UNL     1      -2.044   7.023  14.808  1.00  0.00     0.042 C 
HETATM    7  C11 UNL     1      -0.661   7.657  14.681  1.00  0.00     0.003 C 
HETATM    8  C12 UNL     1      -0.264   7.567  13.208  1.00  0.00     0.008 C 
HETATM    9  C13 UNL     1      -1.384   6.789  12.485  1.00  0.00     0.031 C 
HETATM   10  N1  UNL     1      -3.701   6.055  13.187  1.00  0.00     0.098 N 
HETATM   11  H35 UNL     1      -3.360   5.123  13.415  1.00  0.00     0.317 HD
ENDROOT
BRANCH   9  12
HETATM   12  C14 UNL     1      -0.987   5.309  12.164  1.00  0.00     0.010 C 
HETATM   13  C15 UNL     1      -2.223   4.525  11.681  1.00  0.00     0.015 C 
BRANCH  12  14
HETATM   14  C16 UNL     1       0.219   5.141  11.259  1.00  0.00    -0.023 C 
HETATM   15  C17 UNL     1       1.465   5.601  11.472  1.00  0.00     0.005 C 
BRANCH  15  16
HETATM   16  C18 UNL     1       2.614   5.426  10.522  1.00  0.00     0.165 C 
BRANCH  16  17
HETATM   17  O1  UNL     1       2.712   4.039  10.265  1.00  0.00    -0.388 OA
HETATM   18  H28 UNL     1       2.837   3.913   9.311  1.00  0.00     0.210 HD
ENDBRANCH  16  17
BRANCH  16  19
HETATM   19  C19 UNL     1       2.427   6.295   9.302  1.00  0.00     0.028 C 
HETATM   20  C20 UNL     1       2.966   7.466   8.918  1.00  0.00     0.013 C 
HETATM   21 CL1  UNL     1       4.155   8.303   9.856  1.00  0.00    -0.089 Cl
BRANCH  20  22
HETATM   22  C21 UNL     1       2.619   8.134   7.605  1.00  0.00     0.077 C 
BRANCH  22  23
HETATM   23  C22 UNL     1       1.325   7.599   6.986  1.00  0.00     0.169 C 
BRANCH  23  24
HETATM   24  O2  UNL     1       0.175   8.157   7.615  1.00  0.00    -0.401 OA
HETATM   25  H34 UNL     1       0.234   7.961   8.567  1.00  0.00     0.209 HD
ENDBRANCH  23  24
ENDBRANCH  22  23
ENDBRANCH  20  22
ENDBRANCH  16  19
ENDBRANCH  15  16
ENDBRANCH  12  14
ENDBRANCH   9  12
BRANCH   1  26
HETATM   26  C4  UNL     1      -5.960   5.170  13.748  1.00  0.00     0.063 C 
BRANCH  26  27
HETATM   27  C3  UNL     1      -5.599   4.162  12.686  1.00  0.00    -0.011 C 
HETATM   28  C2  UNL     1      -6.278   3.052  12.328  1.00  0.00     0.008 C 
HETATM   29  C1  UNL     1      -7.589   2.596  12.894  1.00  0.00     0.055 C 
BRANCH  28  30
HETATM   30  C23 UNL     1      -5.660   2.219  11.263  1.00  0.00     0.171 C 
HETATM   31  O3  UNL     1      -5.562   1.005  11.245  1.00  0.00    -0.646 OA
BRANCH  30  32
HETATM   32  O4  UNL     1      -5.192   2.958  10.241  1.00  0.00    -0.773 OA
HETATM   33  H36 UNL     1      -4.823   2.284   9.634  1.00  0.00     0.167 HD
ENDBRANCH  30  32
ENDBRANCH  28  30
ENDBRANCH  26  27
ENDBRANCH   1  26
TORSDOF 12
ENDMDL
MODEL 3
REMARK minimizedAffinity -8.45365906
REMARK  12 active torsions:
REMARK  status: ('A' for Active; 'I' for Inactive)
REMARK    1  A    between atoms: C2_2  and  C23_27 
REMARK    2  A    between atoms: C3_3  and  C4_4 
REMARK    3  A    between atoms: C4_4  and  C5_5 
REMARK    4  A    between atoms: C13_13  and  C14_14 
REMARK    5  A    between atoms: C14_14  and  C16_16 
REMARK    6  A    between atoms: C17_17  and  C18_18 
REMARK    7  A    between atoms: C18_18  and  O1_19 
REMARK    8  A    between atoms: C18_18  and  C19_20 
REMARK    9  A    between atoms: C20_21  and  C21_23 
REMARK   10  A    between atoms: C21_23  and  C22_24 
REMARK   11  A    between atoms: C22_24  and  O2_25 
REMARK   12  A    between atoms: C23_27  and  O4_29 
ROOT
HETATM    1  C5  UNL     1      -6.675   3.634  11.909  1.00  0.00     0.225 C 
HETATM    2  C6  UNL     1      -6.993   2.151  12.139  1.00  0.00     0.036 C 
HETATM    3  C7  UNL     1      -6.005   1.264  11.394  1.00  0.00     0.005 C 
HETATM    4  C8  UNL     1      -4.572   1.648  11.753  1.00  0.00     0.042 C 
HETATM    5  C9  UNL     1      -4.270   3.168  11.568  1.00  0.00     0.162 C 
HETATM    6  C10 UNL     1      -4.180   3.537  10.076  1.00  0.00     0.042 C 
HETATM    7  C11 UNL     1      -2.784   3.110   9.633  1.00  0.00     0.003 C 
HETATM    8  C12 UNL     1      -1.932   2.996  10.897  1.00  0.00     0.008 C 
HETATM    9  C13 UNL     1      -2.815   3.452  12.078  1.00  0.00     0.031 C 
HETATM   10  N1  UNL     1      -5.288   3.937  12.295  1.00  0.00     0.098 N 
HETATM   11  H35 UNL     1      -5.123   4.935  12.182  1.00  0.00     0.317 HD
ENDROOT
BRANCH   9  12
HETATM   12  C14 UNL     1      -2.465   4.894  12.577  1.00  0.00     0.010 C 
HETATM   13  C15 UNL     1      -2.875   5.054  14.054  1.00  0.00     0.015 C 
BRANCH  12  14
HETATM   14  C16 UNL     1      -1.046   5.352  12.297  1.00  0.00    -0.023 C 
HETATM   15  C17 UNL     1      -0.133   4.742  11.520  1.00  0.00     0.005 C 
BRANCH  15  16
HETATM   16  C18 UNL     1       1.270   5.232  11.304  1.00  0.00     0.165 C 
BRANCH  16  17
HETATM   17  O1  UNL     1       2.004   4.131  10.804  1.00  0.00    -0.388 OA
HETATM   18  H28 UNL     1       2.546   4.439  10.061  1.00  0.00     0.210 HD
ENDBRANCH  16  17
BRANCH  16  19
HETATM   19  C19 UNL     1       1.271   6.459  10.425  1.00  0.00     0.028 C 
HETATM   20  C20 UNL     1       1.950   6.789   9.312  1.00  0.00     0.013 C 
HETATM   21 CL1  UNL     1       3.082   5.723   8.552  1.00  0.00    -0.089 Cl
BRANCH  20  22
HETATM   22  C21 UNL     1       1.748   8.105   8.592  1.00  0.00     0.077 C 
BRANCH  22  23
HETATM   23  C22 UNL     1       0.340   8.259   8.012  1.00  0.00     0.169 C 
BRANCH  23  24
HETATM   24  O2  UNL     1      -0.423   9.217   8.738  1.00  0.00    -0.401 OA
HETATM   25  H34 UNL     1      -0.440   8.936   9.671  1.00  0.00     0.209 HD
ENDBRANCH  23  24
ENDBRANCH  22  23
ENDBRANCH  20  22
ENDBRANCH  16  19
ENDBRANCH  15  16
ENDBRANCH  12  14
ENDBRANCH   9  12
BRANCH   1  26
HETATM   26  C4  UNL     1      -7.674   4.552  12.658  1.00  0.00     0.063 C 
BRANCH  26  27
HETATM   27  C3  UNL     1      -7.238   4.986  14.035  1.00  0.00    -0.011 C 
HETATM   28  C2  UNL     1      -6.512   6.071  14.373  1.00  0.00     0.008 C 
HETATM   29  C1  UNL     1      -6.008   7.126  13.435  1.00  0.00     0.055 C 
BRANCH  28  30
HETATM   30  C23 UNL     1      -6.201   6.228  15.819  1.00  0.00     0.171 C 
HETATM   31  O3  UNL     1      -6.794   5.725  16.756  1.00  0.00    -0.646 OA
BRANCH  30  32
HETATM   32  O4  UNL     1      -5.132   7.018  16.029  1.00  0.00    -0.773 OA
HETATM   33  H36 UNL     1      -5.055   7.025  17.006  1.00  0.00     0.167 HD
ENDBRANCH  30  32
ENDBRANCH  28  30
ENDBRANCH  26  27
ENDBRANCH   1  26
TORSDOF 12
ENDMDL
MODEL 4
REMARK minimizedAffinity -8.37827682
REMARK  12 active torsions:
REMARK  status: ('A' for Active; 'I' for Inactive)
REMARK    1  A    between atoms: C2_2  and  C23_27 
REMARK    2  A    between atoms: C3_3  and  C4_4 
REMARK    3  A    between atoms: C4_4  and  C5_5 
REMARK    4  A    between atoms: C13_13  and  C14_14 
REMARK    5  A    between atoms: C14_14  and  C16_16 
REMARK    6  A    between atoms: C17_17  and  C18_18 
REMARK    7  A    between atoms: C18_18  and  O1_19 
REMARK    8  A    between atoms: C18_18  and  C19_20 
REMARK    9  A    between atoms: C20_21  and  C21_23 
REMARK   10  A    between atoms: C21_23  and  C22_24 
REMARK   11  A    between atoms: C22_24  and  O2_25 
REMARK   12  A    between atoms: C23_27  and  O4_29 
ROOT
HETATM    1  C5  UNL     1      -6.630   3.563  12.031  1.00  0.00     0.225 C 
HETATM    2  C6  UNL     1      -6.894   2.053  12.107  1.00  0.00     0.036 C 
HETATM    3  C7  UNL     1      -5.831   1.278  11.339  1.00  0.00     0.005 C 
HETATM    4  C8  UNL     1      -4.436   1.684  11.809  1.00  0.00     0.042 C 
HETATM    5  C9  UNL     1      -4.192   3.225  11.781  1.00  0.00     0.162 C 
HETATM    6  C10 UNL     1      -4.044   3.735  10.335  1.00  0.00     0.042 C 
HETATM    7  C11 UNL     1      -2.609   3.406   9.932  1.00  0.00     0.003 C 
HETATM    8  C12 UNL     1      -1.818   3.208  11.225  1.00  0.00     0.008 C 
HETATM    9  C13 UNL     1      -2.779   3.517  12.393  1.00  0.00     0.031 C 
HETATM   10  N1  UNL     1      -5.279   3.882  12.517  1.00  0.00     0.098 N 
HETATM   11  H35 UNL     1      -5.153   4.892  12.505  1.00  0.00     0.317 HD
ENDROOT
BRANCH   9  12
HETATM   12  C14 UNL     1      -2.519   4.919  13.039  1.00  0.00     0.010 C 
HETATM   13  C15 UNL     1      -3.361   5.072  14.321  1.00  0.00     0.015 C 
BRANCH  12  14
HETATM   14  C16 UNL     1      -1.059   5.284  13.236  1.00  0.00    -0.023 C 
HETATM   15  C17 UNL     1      -0.363   6.233  12.584  1.00  0.00     0.005 C 
BRANCH  15  16
HETATM   16  C18 UNL     1       1.091   6.528  12.804  1.00  0.00     0.165 C 
BRANCH  16  17
HETATM   17  O1  UNL     1       1.455   5.873  14.003  1.00  0.00    -0.388 OA
HETATM   18  H28 UNL     1       2.304   5.425  13.861  1.00  0.00     0.210 HD
ENDBRANCH  16  17
BRANCH  16  19
HETATM   19  C19 UNL     1       1.899   6.141  11.588  1.00  0.00     0.028 C 
HETATM   20  C20 UNL     1       1.757   6.393  10.275  1.00  0.00     0.013 C 
HETATM   21 CL1  UNL     1       0.471   7.360   9.638  1.00  0.00    -0.089 Cl
BRANCH  20  22
HETATM   22  C21 UNL     1       2.740   5.895   9.237  1.00  0.00     0.077 C 
BRANCH  22  23
HETATM   23  C22 UNL     1       3.648   4.779   9.760  1.00  0.00     0.169 C 
BRANCH  23  24
HETATM   24  O2  UNL     1       2.967   3.529   9.809  1.00  0.00    -0.401 OA
HETATM   25  H34 UNL     1       2.173   3.647  10.362  1.00  0.00     0.209 HD
ENDBRANCH  23  24
ENDBRANCH  22  23
ENDBRANCH  20  22
ENDBRANCH  16  19
ENDBRANCH  15  16
ENDBRANCH  12  14
ENDBRANCH   9  12
BRANCH   1  26
HETATM   26  C4  UNL     1      -7.705   4.366  12.803  1.00  0.00     0.063 C 
BRANCH  26  27
HETATM   27  C3  UNL     1      -7.214   5.062  14.048  1.00  0.00    -0.011 C 
HETATM   28  C2  UNL     1      -7.761   6.122  14.679  1.00  0.00     0.008 C 
HETATM   29  C1  UNL     1      -9.028   6.824  14.292  1.00  0.00     0.055 C 
BRANCH  28  30
HETATM   30  C23 UNL     1      -7.033   6.622  15.875  1.00  0.00     0.171 C 
HETATM   31  O3  UNL     1      -6.832   7.784  16.178  1.00  0.00    -0.646 OA
BRANCH  30  32
HETATM   32  O4  UNL     1      -6.590   5.624  16.659  1.00  0.00    -0.773 OA
HETATM   33  H36 UNL     1      -6.141   6.100  17.388  1.00  0.00     0.167 HD
ENDBRANCH  30  32
ENDBRANCH  28  30
ENDBRANCH  26  27
ENDBRANCH   1  26
TORSDOF 12
ENDMDL
MODEL 5
REMARK minimizedAffinity -8.30201721
REMARK  12 active torsions:
REMARK  status: ('A' for Active; 'I' for Inactive)
REMARK    1  A    between atoms: C2_2  and  C23_27 
REMARK    2  A    between atoms: C3_3  and  C4_4 
REMARK    3  A    between atoms: C4_4  and  C5_5 
REMARK    4  A    between atoms: C13_13  and  C14_14 
REMARK    5  A    between atoms: C14_14  and  C16_16 
REMARK    6  A    between atoms: C17_17  and  C18_18 
REMARK    7  A    between atoms: C18_18  and  O1_19 
REMARK    8  A    between atoms: C18_18  and  C19_20 
REMARK    9  A    between atoms: C20_21  and  C21_23 
REMARK   10  A    between atoms: C21_23  and  C22_24 
REMARK   11  A    between atoms: C22_24  and  O2_25 
REMARK   12  A    between atoms: C23_27  and  O4_29 
ROOT
HETATM    1  C5  UNL     1       1.232   8.004  10.929  1.00  0.00     0.225 C 
HETATM    2  C6  UNL     1       2.161   8.438  12.069  1.00  0.00     0.036 C 
HETATM    3  C7  UNL     1       1.387   8.591  13.371  1.00  0.00     0.005 C 
HETATM    4  C8  UNL     1       0.598   7.319  13.672  1.00  0.00     0.042 C 
HETATM    5  C9  UNL     1      -0.305   6.852  12.488  1.00  0.00     0.162 C 
HETATM    6  C10 UNL     1      -1.525   7.777  12.323  1.00  0.00     0.042 C 
HETATM    7  C11 UNL     1      -2.524   7.329  13.386  1.00  0.00     0.003 C 
HETATM    8  C12 UNL     1      -2.140   5.902  13.783  1.00  0.00     0.008 C 
HETATM    9  C13 UNL     1      -0.964   5.483  12.875  1.00  0.00     0.031 C 
HETATM   10  N1  UNL     1       0.522   6.764  11.278  1.00  0.00     0.098 N 
HETATM   11  H35 UNL     1      -0.044   6.472  10.484  1.00  0.00     0.317 HD
ENDROOT
BRANCH   9  12
HETATM   12  C14 UNL     1      -1.399   4.511  11.727  1.00  0.00     0.010 C 
HETATM   13  C15 UNL     1      -0.485   3.270  11.714  1.00  0.00     0.015 C 
BRANCH  12  14
HETATM   14  C16 UNL     1      -2.876   4.166  11.692  1.00  0.00    -0.023 C 
HETATM   15  C17 UNL     1      -3.453   3.121  11.071  1.00  0.00     0.005 C 
BRANCH  15  16
HETATM   16  C18 UNL     1      -4.928   2.848  11.049  1.00  0.00     0.165 C 
BRANCH  16  17
HETATM   17  O1  UNL     1      -5.077   1.448  11.189  1.00  0.00    -0.388 OA
HETATM   18  H28 UNL     1      -5.781   1.279  11.834  1.00  0.00     0.210 HD
ENDBRANCH  16  17
BRANCH  16  19
HETATM   19  C19 UNL     1      -5.634   3.677  12.095  1.00  0.00     0.028 C 
HETATM   20  C20 UNL     1      -6.709   3.453  12.871  1.00  0.00     0.013 C 
HETATM   21 CL1  UNL     1      -7.593   1.965  12.843  1.00  0.00    -0.089 Cl
BRANCH  20  22
HETATM   22  C21 UNL     1      -7.214   4.463  13.879  1.00  0.00     0.077 C 
BRANCH  22  23
HETATM   23  C22 UNL     1      -7.996   5.611  13.235  1.00  0.00     0.169 C 
BRANCH  23  24
HETATM   24  O2  UNL     1      -9.256   5.806  13.869  1.00  0.00    -0.401 OA
HETATM   25  H34 UNL     1      -9.742   4.963  13.828  1.00  0.00     0.209 HD
ENDBRANCH  23  24
ENDBRANCH  22  23
ENDBRANCH  20  22
ENDBRANCH  16  19
ENDBRANCH  15  16
ENDBRANCH  12  14
ENDBRANCH   9  12
BRANCH   1  26
HETATM   26  C4  UNL     1       2.004   7.848   9.595  1.00  0.00     0.063 C 
BRANCH  26  27
HETATM   27  C3  UNL     1       2.380   6.433   9.234  1.00  0.00    -0.011 C 
HETATM   28  C2  UNL     1       3.461   5.732   9.636  1.00  0.00     0.008 C 
HETATM   29  C1  UNL     1       4.521   6.206  10.583  1.00  0.00     0.055 C 
BRANCH  28  30
HETATM   30  C23 UNL     1       3.592   4.356   9.087  1.00  0.00     0.171 C 
HETATM   31  O3  UNL     1       4.144   4.029   8.051  1.00  0.00    -0.646 OA
BRANCH  30  32
HETATM   32  O4  UNL     1       3.024   3.431   9.881  1.00  0.00    -0.773 OA
HETATM   33  H36 UNL     1       3.189   2.596   9.397  1.00  0.00     0.167 HD
ENDBRANCH  30  32
ENDBRANCH  28  30
ENDBRANCH  26  27
ENDBRANCH   1  26
TORSDOF 12
ENDMDL
MODEL 6
REMARK minimizedAffinity -8.27623653
REMARK  12 active torsions:
REMARK  status: ('A' for Active; 'I' for Inactive)
REMARK    1  A    between atoms: C2_2  and  C23_27 
REMARK    2  A    between atoms: C3_3  and  C4_4 
REMARK    3  A    between atoms: C4_4  and  C5_5 
REMARK    4  A    between atoms: C13_13  and  C14_14 
REMARK    5  A    between atoms: C14_14  and  C16_16 
REMARK    6  A    between atoms: C17_17  and  C18_18 
REMARK    7  A    between atoms: C18_18  and  O1_19 
REMARK    8  A    between atoms: C18_18  and  C19_20 
REMARK    9  A    between atoms: C20_21  and  C21_23 
REMARK   10  A    between atoms: C21_23  and  C22_24 
REMARK   11  A    between atoms: C22_24  and  O2_25 
REMARK   12  A    between atoms: C23_27  and  O4_29 
ROOT
HETATM    1  C5  UNL     1       0.039   6.832  11.871  1.00  0.00     0.225 C 
HETATM    2  C6  UNL     1       0.892   7.217  13.086  1.00  0.00     0.036 C 
HETATM    3  C7  UNL     1       0.069   7.998  14.101  1.00  0.00     0.005 C 
HETATM    4  C8  UNL     1      -1.199   7.228  14.461  1.00  0.00     0.042 C 
HETATM    5  C9  UNL     1      -2.036   6.792  13.218  1.00  0.00     0.162 C 
HETATM    6  C10 UNL     1      -2.743   8.000  12.575  1.00  0.00     0.042 C 
HETATM    7  C11 UNL     1      -3.977   8.256  13.435  1.00  0.00     0.003 C 
HETATM    8  C12 UNL     1      -4.262   6.963  14.200  1.00  0.00     0.008 C 
HETATM    9  C13 UNL     1      -3.239   5.915  13.710  1.00  0.00     0.031 C 
HETATM   10  N1  UNL     1      -1.153   6.077  12.289  1.00  0.00     0.098 N 
HETATM   11  H35 UNL     1      -1.670   5.789  11.461  1.00  0.00     0.317 HD
ENDROOT
BRANCH   9  12
HETATM   12  C14 UNL     1      -3.862   4.875  12.720  1.00  0.00     0.010 C 
HETATM   13  C15 UNL     1      -2.946   3.640  12.611  1.00  0.00     0.015 C 
BRANCH  12  14
HETATM   14  C16 UNL     1      -5.315   4.522  12.977  1.00  0.00    -0.023 C 
HETATM   15  C17 UNL     1      -6.150   3.866  12.151  1.00  0.00     0.005 C 
BRANCH  15  16
HETATM   16  C18 UNL     1      -7.591   3.570  12.452  1.00  0.00     0.165 C 
BRANCH  16  17
HETATM   17  O1  UNL     1      -7.612   2.324  13.119  1.00  0.00    -0.388 OA
HETATM   18  H28 UNL     1      -8.211   2.394  13.879  1.00  0.00     0.210 HD
ENDBRANCH  16  17
BRANCH  16  19
HETATM   19  C19 UNL     1      -8.218   4.716  13.208  1.00  0.00     0.028 C 
HETATM   20  C20 UNL     1      -8.905   5.805  12.819  1.00  0.00     0.013 C 
HETATM   21 CL1  UNL     1      -9.279   6.137  11.162  1.00  0.00    -0.089 Cl
BRANCH  20  22
HETATM   22  C21 UNL     1      -9.460   6.814  13.801  1.00  0.00     0.077 C 
BRANCH  22  23
HETATM   23  C22 UNL     1     -10.974   7.005  13.671  1.00  0.00     0.169 C 
BRANCH  23  24
HETATM   24  O2  UNL     1     -11.677   6.326  14.707  1.00  0.00    -0.401 OA
HETATM   25  H34 UNL     1     -11.421   5.386  14.671  1.00  0.00     0.209 HD
ENDBRANCH  23  24
ENDBRANCH  22  23
ENDBRANCH  20  22
ENDBRANCH  16  19
ENDBRANCH  15  16
ENDBRANCH  12  14
ENDBRANCH   9  12
BRANCH   1  26
HETATM   26  C4  UNL     1       0.862   6.040  10.826  1.00  0.00     0.063 C 
BRANCH  26  27
HETATM   27  C3  UNL     1       1.193   6.795   9.563  1.00  0.00    -0.011 C 
HETATM   28  C2  UNL     1       2.410   7.143   9.098  1.00  0.00     0.008 C 
HETATM   29  C1  UNL     1       3.728   6.808   9.730  1.00  0.00     0.055 C 
BRANCH  28  30
HETATM   30  C23 UNL     1       2.431   7.922   7.831  1.00  0.00     0.171 C 
HETATM   31  O3  UNL     1       3.005   8.977   7.629  1.00  0.00    -0.646 OA
BRANCH  30  32
HETATM   32  O4  UNL     1       1.726   7.328   6.853  1.00  0.00    -0.773 OA
HETATM   33  H36 UNL     1       1.831   7.946   6.100  1.00  0.00     0.167 HD
ENDBRANCH  30  32
ENDBRANCH  28  30
ENDBRANCH  26  27
ENDBRANCH   1  26
TORSDOF 12
ENDMDL
MODEL 7
REMARK minimizedAffinity -8.05902195
REMARK  12 active torsions:
REMARK  status: ('A' for Active; 'I' for Inactive)
REMARK    1  A    between atoms: C2_2  and  C23_27 
REMARK    2  A    between atoms: C3_3  and  C4_4 
REMARK    3  A    between atoms: C4_4  and  C5_5 
REMARK    4  A    between atoms: C13_13  and  C14_14 
REMARK    5  A    between atoms: C14_14  and  C16_16 
REMARK    6  A    between atoms: C17_17  and  C18_18 
REMARK    7  A    between atoms: C18_18  and  O1_19 
REMARK    8  A    between atoms: C18_18  and  C19_20 
REMARK    9  A    between atoms: C20_21  and  C21_23 
REMARK   10  A    between atoms: C21_23  and  C22_24 
REMARK   11  A    between atoms: C22_24  and  O2_25 
REMARK   12  A    between atoms: C23_27  and  O4_29 
ROOT
HETATM    1  C5  UNL     1      -2.866   5.019  13.162  1.00  0.00     0.225 C 
HETATM    2  C6  UNL     1      -3.729   5.769  14.185  1.00  0.00     0.036 C 
HETATM    3  C7  UNL     1      -2.864   6.620  15.104  1.00  0.00     0.005 C 
HETATM    4  C8  UNL     1      -1.953   7.530  14.283  1.00  0.00     0.042 C 
HETATM    5  C9  UNL     1      -1.118   6.769  13.207  1.00  0.00     0.162 C 
HETATM    6  C10 UNL     1       0.007   5.944  13.862  1.00  0.00     0.042 C 
HETATM    7  C11 UNL     1       1.123   6.940  14.160  1.00  0.00     0.003 C 
HETATM    8  C12 UNL     1       0.889   8.153  13.259  1.00  0.00     0.008 C 
HETATM    9  C13 UNL     1      -0.321   7.820  12.360  1.00  0.00     0.031 C 
HETATM   10  N1  UNL     1      -2.033   5.958  12.395  1.00  0.00     0.098 N 
HETATM   11  H35 UNL     1      -1.513   5.439  11.690  1.00  0.00     0.317 HD
ENDROOT
BRANCH   9  12
HETATM   12  C14 UNL     1       0.093   7.443  10.898  1.00  0.00     0.010 C 
HETATM   13  C15 UNL     1      -0.375   8.538   9.920  1.00  0.00     0.015 C 
BRANCH  12  14
HETATM   14  C16 UNL     1       1.550   7.060  10.713  1.00  0.00    -0.023 C 
HETATM   15  C17 UNL     1       2.040   5.838  10.436  1.00  0.00     0.005 C 
BRANCH  15  16
HETATM   16  C18 UNL     1       3.498   5.515  10.292  1.00  0.00     0.165 C 
BRANCH  16  17
HETATM   17  O1  UNL     1       3.750   5.410   8.905  1.00  0.00    -0.388 OA
HETATM   18  H28 UNL     1       4.570   5.888   8.706  1.00  0.00     0.210 HD
ENDBRANCH  16  17
BRANCH  16  19
HETATM   19  C19 UNL     1       4.340   6.534  11.023  1.00  0.00     0.028 C 
HETATM   20  C20 UNL     1       5.646   6.589  11.335  1.00  0.00     0.013 C 
HETATM   21 CL1  UNL     1       6.774   5.360  10.877  1.00  0.00    -0.089 Cl
BRANCH  20  22
HETATM   22  C21 UNL     1       6.261   7.760  12.073  1.00  0.00     0.077 C 
BRANCH  22  23
HETATM   23  C22 UNL     1       7.067   7.335  13.303  1.00  0.00     0.169 C 
BRANCH  23  24
HETATM   24  O2  UNL     1       6.313   6.473  14.150  1.00  0.00    -0.401 OA
HETATM   25  H34 UNL     1       5.493   6.940  14.393  1.00  0.00     0.209 HD
ENDBRANCH  23  24
ENDBRANCH  22  23
ENDBRANCH  20  22
ENDBRANCH  16  19
ENDBRANCH  15  16
ENDBRANCH  12  14
ENDBRANCH   9  12
BRANCH   1  26
HETATM   26  C4  UNL     1      -3.731   4.145  12.221  1.00  0.00     0.063 C 
BRANCH  26  27
HETATM   27  C3  UNL     1      -5.143   3.898  12.692  1.00  0.00    -0.011 C 
HETATM   28  C2  UNL     1      -6.035   3.007  12.212  1.00  0.00     0.008 C 
HETATM   29  C1  UNL     1      -5.794   2.020  11.110  1.00  0.00     0.055 C 
BRANCH  28  30
HETATM   30  C23 UNL     1      -7.376   3.010  12.855  1.00  0.00     0.171 C 
HETATM   31  O3  UNL     1      -7.864   3.898  13.529  1.00  0.00    -0.646 OA
BRANCH  30  32
HETATM   32  O4  UNL     1      -8.063   1.879  12.610  1.00  0.00    -0.773 OA
HETATM   33  H36 UNL     1      -8.905   2.027  13.088  1.00  0.00     0.167 HD
ENDBRANCH  30  32
ENDBRANCH  28  30
ENDBRANCH  26  27
ENDBRANCH   1  26
TORSDOF 12
ENDMDL
MODEL 8
REMARK minimizedAffinity -7.96518803
REMARK  12 active torsions:
REMARK  status: ('A' for Active; 'I' for Inactive)
REMARK    1  A    between atoms: C2_2  and  C23_27 
REMARK    2  A    between atoms: C3_3  and  C4_4 
REMARK    3  A    between atoms: C4_4  and  C5_5 
REMARK    4  A    between atoms: C13_13  and  C14_14 
REMARK    5  A    between atoms: C14_14  and  C16_16 
REMARK    6  A    between atoms: C17_17  and  C18_18 
REMARK    7  A    between atoms: C18_18  and  O1_19 
REMARK    8  A    between atoms: C18_18  and  C19_20 
REMARK    9  A    between atoms: C20_21  and  C21_23 
REMARK   10  A    between atoms: C21_23  and  C22_24 
REMARK   11  A    between atoms: C22_24  and  O2_25 
REMARK   12  A    between atoms: C23_27  and  O4_29 
ROOT
HETATM    1  C5  UNL     1      -6.490   4.300  12.679  1.00  0.00     0.225 C 
HETATM    2  C6  UNL     1      -7.049   2.880  12.839  1.00  0.00     0.036 C 
HETATM    3  C7  UNL     1      -6.405   1.928  11.839  1.00  0.00     0.005 C 
HETATM    4  C8  UNL     1      -4.884   2.005  11.938  1.00  0.00     0.042 C 
HETATM    5  C9  UNL     1      -4.325   3.458  11.829  1.00  0.00     0.162 C 
HETATM    6  C10 UNL     1      -4.432   3.985  10.385  1.00  0.00     0.042 C 
HETATM    7  C11 UNL     1      -3.249   3.373   9.639  1.00  0.00     0.003 C 
HETATM    8  C12 UNL     1      -2.225   2.956  10.695  1.00  0.00     0.008 C 
HETATM    9  C13 UNL     1      -2.775   3.414  12.063  1.00  0.00     0.031 C 
HETATM   10  N1  UNL     1      -5.024   4.301  12.806  1.00  0.00     0.098 N 
HETATM   11  H35 UNL     1      -4.688   5.260  12.750  1.00  0.00     0.317 HD
ENDROOT
BRANCH   9  12
HETATM   12  C14 UNL     1      -2.063   4.699  12.604  1.00  0.00     0.010 C 
HETATM   13  C15 UNL     1      -2.478   4.953  14.066  1.00  0.00     0.015 C 
BRANCH  12  14
HETATM   14  C16 UNL     1      -0.562   4.750  12.391  1.00  0.00    -0.023 C 
HETATM   15  C17 UNL     1       0.091   5.226  11.315  1.00  0.00     0.005 C 
BRANCH  15  16
HETATM   16  C18 UNL     1       1.582   5.222  11.150  1.00  0.00     0.165 C 
BRANCH  16  17
HETATM   17  O1  UNL     1       1.935   3.919  10.729  1.00  0.00    -0.388 OA
HETATM   18  H28 UNL     1       2.573   3.995  10.002  1.00  0.00     0.210 HD
ENDBRANCH  16  17
BRANCH  16  19
HETATM   19  C19 UNL     1       2.014   6.336  10.226  1.00  0.00     0.028 C 
HETATM   20  C20 UNL     1       3.211   6.878   9.941  1.00  0.00     0.013 C 
HETATM   21 CL1  UNL     1       4.688   6.316  10.646  1.00  0.00    -0.089 Cl
BRANCH  20  22
HETATM   22  C21 UNL     1       3.382   7.998   8.937  1.00  0.00     0.077 C 
BRANCH  22  23
HETATM   23  C22 UNL     1       2.253   8.052   7.904  1.00  0.00     0.169 C 
BRANCH  23  24
HETATM   24  O2  UNL     1       1.165   8.849   8.361  1.00  0.00    -0.401 OA
HETATM   25  H34 UNL     1       0.865   8.481   9.213  1.00  0.00     0.209 HD
ENDBRANCH  23  24
ENDBRANCH  22  23
ENDBRANCH  20  22
ENDBRANCH  16  19
ENDBRANCH  15  16
ENDBRANCH  12  14
ENDBRANCH   9  12
BRANCH   1  26
HETATM   26  C4  UNL     1      -7.138   5.282  13.686  1.00  0.00     0.063 C 
BRANCH  26  27
HETATM   27  C3  UNL     1      -8.548   5.702  13.357  1.00  0.00    -0.011 C 
HETATM   28  C2  UNL     1      -9.304   6.632  13.976  1.00  0.00     0.008 C 
HETATM   29  C1  UNL     1      -8.879   7.497  15.124  1.00  0.00     0.055 C 
BRANCH  28  30
HETATM   30  C23 UNL     1     -10.684   6.812  13.451  1.00  0.00     0.171 C 
HETATM   31  O3  UNL     1     -11.004   7.300  12.383  1.00  0.00    -0.646 OA
BRANCH  30  32
HETATM   32  O4  UNL     1     -11.619   6.353  14.302  1.00  0.00    -0.773 OA
HETATM   33  H36 UNL     1     -12.456   6.538  13.829  1.00  0.00     0.167 HD
ENDBRANCH  30  32
ENDBRANCH  28  30
ENDBRANCH  26  27
ENDBRANCH   1  26
TORSDOF 12
ENDMDL
MODEL 9
REMARK minimizedAffinity -7.95441008
REMARK  12 active torsions:
REMARK  status: ('A' for Active; 'I' for Inactive)
REMARK    1  A    between atoms: C2_2  and  C23_27 
REMARK    2  A    between atoms: C3_3  and  C4_4 
REMARK    3  A    between atoms: C4_4  and  C5_5 
REMARK    4  A    between atoms: C13_13  and  C14_14 
REMARK    5  A    between atoms: C14_14  and  C16_16 
REMARK    6  A    between atoms: C17_17  and  C18_18 
REMARK    7  A    between atoms: C18_18  and  O1_19 
REMARK    8  A    between atoms: C18_18  and  C19_20 
REMARK    9  A    between atoms: C20_21  and  C21_23 
REMARK   10  A    between atoms: C21_23  and  C22_24 
REMARK   11  A    between atoms: C22_24  and  O2_25 
REMARK   12  A    between atoms: C23_27  and  O4_29 
ROOT
HETATM    1  C5  UNL     1      -3.880   6.310  13.724  1.00  0.00     0.225 C 
HETATM    2  C6  UNL     1      -4.842   7.435  13.322  1.00  0.00     0.036 C 
HETATM    3  C7  UNL     1      -4.150   8.789  13.385  1.00  0.00     0.005 C 
HETATM    4  C8  UNL     1      -2.859   8.764  12.570  1.00  0.00     0.042 C 
HETATM    5  C9  UNL     1      -1.908   7.585  12.946  1.00  0.00     0.162 C 
HETATM    6  C10 UNL     1      -1.243   7.826  14.315  1.00  0.00     0.042 C 
HETATM    7  C11 UNL     1      -0.094   8.793  14.046  1.00  0.00     0.003 C 
HETATM    8  C12 UNL     1       0.225   8.701  12.553  1.00  0.00     0.008 C 
HETATM    9  C13 UNL     1      -0.685   7.601  11.965  1.00  0.00     0.031 C 
HETATM   10  N1  UNL     1      -2.671   6.333  12.885  1.00  0.00     0.098 N 
HETATM   11  H35 UNL     1      -2.078   5.546  13.138  1.00  0.00     0.317 HD
ENDROOT
BRANCH   9  12
HETATM   12  C14 UNL     1       0.077   6.259  11.699  1.00  0.00     0.010 C 
HETATM   13  C15 UNL     1      -0.916   5.170  11.249  1.00  0.00     0.015 C 
BRANCH  12  14
HETATM   14  C16 UNL     1       1.293   6.370  10.798  1.00  0.00    -0.023 C 
HETATM   15  C17 UNL     1       2.552   5.990  11.080  1.00  0.00     0.005 C 
BRANCH  15  16
HETATM   16  C18 UNL     1       3.722   6.152  10.154  1.00  0.00     0.165 C 
BRANCH  16  17
HETATM   17  O1  UNL     1       4.838   5.594  10.819  1.00  0.00    -0.388 OA
HETATM   18  H28 UNL     1       5.329   5.047  10.186  1.00  0.00     0.210 HD
ENDBRANCH  16  17
BRANCH  16  19
HETATM   19  C19 UNL     1       3.413   5.554   8.803  1.00  0.00     0.028 C 
HETATM   20  C20 UNL     1       2.836   6.046   7.692  1.00  0.00     0.013 C 
HETATM   21 CL1  UNL     1       2.288   7.682   7.565  1.00  0.00    -0.089 Cl
BRANCH  20  22
HETATM   22  C21 UNL     1       2.659   5.226   6.432  1.00  0.00     0.077 C 
BRANCH  22  23
HETATM   23  C22 UNL     1       3.738   4.153   6.260  1.00  0.00     0.169 C 
BRANCH  23  24
HETATM   24  O2  UNL     1       3.169   2.851   6.163  1.00  0.00    -0.401 OA
HETATM   25  H34 UNL     1       2.630   2.704   6.961  1.00  0.00     0.209 HD
ENDBRANCH  23  24
ENDBRANCH  22  23
ENDBRANCH  20  22
ENDBRANCH  16  19
ENDBRANCH  15  16
ENDBRANCH  12  14
ENDBRANCH   9  12
BRANCH   1  26
HETATM   26  C4  UNL     1      -4.570   4.925  13.669  1.00  0.00     0.063 C 
BRANCH  26  27
HETATM   27  C3  UNL     1      -6.053   4.957  13.402  1.00  0.00    -0.011 C 
HETATM   28  C2  UNL     1      -6.794   4.065  12.711  1.00  0.00     0.008 C 
HETATM   29  C1  UNL     1      -6.294   2.800  12.082  1.00  0.00     0.055 C 
BRANCH  28  30
HETATM   30  C23 UNL     1      -8.242   4.376  12.579  1.00  0.00     0.171 C 
HETATM   31  O3  UNL     1      -8.736   5.419  12.192  1.00  0.00    -0.646 OA
BRANCH  30  32
HETATM   32  O4  UNL     1      -9.022   3.340  12.935  1.00  0.00    -0.773 OA
HETATM   33  H36 UNL     1      -9.926   3.689  12.798  1.00  0.00     0.167 HD
ENDBRANCH  30  32
ENDBRANCH  28  30
ENDBRANCH  26  27
ENDBRANCH   1  26
TORSDOF 12
ENDMDL
