MODEL 1
REMARK minimizedAffinity -9.57656097
REMARK CNNscore 0.466060221
REMARK CNNaffinity 7.19584227
REMARK  11 active torsions:
REMARK  status: ('A' for Active; 'I' for Inactive)
REMARK    1  A    between atoms: C2_2  and  C4_4 
REMARK    2  A    between atoms: C4_4  and  C6_6 
REMARK    3  A    between atoms: C7_7  and  C8_8 
REMARK    4  A    between atoms: C8_8  and  C10_10 
REMARK    5  A    between atoms: C24_24  and  O1_25 
REMARK    6  A    between atoms: O1_25  and  C25_26 
REMARK    7  A    between atoms: C26_28  and  C27_29 
REMARK    8  A    between atoms: C27_29  and  O3_30 
REMARK    9  A    between atoms: C28_31  and  O4_32 
REMARK   10  A    between atoms: C29_33  and  O5_34 
REMARK   11  A    between atoms: C30_35  and  O6_36 
ROOT
HETATM    1  C10 UNL     1      -6.061   4.419  13.787  1.00  0.00     0.001 C 
HETATM    2  C11 UNL     1      -5.625   3.688  12.479  1.00  0.00     0.006 C 
HETATM    3  C12 UNL     1      -4.188   4.124  12.172  1.00  0.00     0.009 C 
HETATM    4  C13 UNL     1      -3.770   4.905  13.410  1.00  0.00     0.036 C 
HETATM    5  C14 UNL     1      -5.069   5.629  13.848  1.00  0.00    -0.033 C 
HETATM    6  C15 UNL     1      -5.537   6.753  12.896  1.00  0.00     0.016 C 
HETATM    7  C16 UNL     1      -4.783   6.202  15.249  1.00  0.00     0.010 C 
HETATM    8  C17 UNL     1      -3.597   7.183  15.233  1.00  0.00     0.010 C 
HETATM    9  C18 UNL     1      -2.296   6.589  14.640  1.00  0.00     0.039 C 
HETATM   10  C19 UNL     1      -2.513   5.778  13.318  1.00  0.00     0.123 C 
HETATM   11  C20 UNL     1      -1.277   4.924  13.114  1.00  0.00     0.014 C 
HETATM   12  C21 UNL     1      -0.144   5.629  13.044  1.00  0.00     0.014 C 
HETATM   13  C22 UNL     1      -0.367   7.129  13.096  1.00  0.00     0.124 C 
HETATM   14  C23 UNL     1       0.952   7.875  12.904  1.00  0.00     0.078 C 
HETATM   15  C24 UNL     1       1.915   7.697  14.091  1.00  0.00     0.128 C 
HETATM   16  C31 UNL     1       1.246   7.160  15.367  1.00  0.00     0.033 C 
HETATM   17  C32 UNL     1      -0.156   7.718  15.612  1.00  0.00     0.015 C 
HETATM   18  C33 UNL     1      -1.116   7.626  14.389  1.00  0.00     0.001 C 
HETATM   19  C34 UNL     1      -1.663   9.067  14.160  1.00  0.00     0.019 C 
HETATM   20  O7  UNL     1      -1.248   7.370  11.972  1.00  0.00    -0.223 OA
HETATM   21  O8  UNL     1      -2.586   6.717  12.222  1.00  0.00    -0.224 OA
ENDROOT
BRANCH  15  22
HETATM   22  O1  UNL     1       2.517   8.978  14.318  1.00  0.00    -0.353 OA
BRANCH  22  23
HETATM   23  C25 UNL     1       3.931   9.005  14.084  1.00  0.00     0.292 C 
HETATM   24  O2  UNL     1       4.301   8.069  13.078  1.00  0.00    -0.348 OA
HETATM   25  C26 UNL     1       5.709   8.063  12.816  1.00  0.00     0.179 C 
HETATM   26  C28 UNL     1       6.498   7.688  14.084  1.00  0.00     0.180 C 
HETATM   27  C29 UNL     1       6.123   8.639  15.223  1.00  0.00     0.183 C 
HETATM   28  C30 UNL     1       4.609   8.651  15.419  1.00  0.00     0.204 C 
BRANCH  25  29
HETATM   29  C27 UNL     1       6.003   7.069  11.681  1.00  0.00     0.198 C 
BRANCH  29  30
HETATM   30  O3  UNL     1       6.138   5.730  12.152  1.00  0.00    -0.398 OA
HETATM   31  H41 UNL     1       5.467   5.602  12.859  1.00  0.00     0.209 HD
ENDBRANCH  29  30
ENDBRANCH  25  29
BRANCH  26  32
HETATM   32  O4  UNL     1       7.910   7.752  13.851  1.00  0.00    -0.390 OA
HETATM   33  H43 UNL     1       8.312   7.768  14.750  1.00  0.00     0.210 HD
ENDBRANCH  26  32
BRANCH  27  34
HETATM   34  O5  UNL     1       6.790   8.216  16.423  1.00  0.00    -0.390 OA
HETATM   35  H45 UNL     1       6.330   8.688  17.149  1.00  0.00     0.210 HD
ENDBRANCH  27  34
BRANCH  28  36
HETATM   36  O6  UNL     1       4.289   9.604  16.444  1.00  0.00    -0.388 OA
HETATM   37  H47 UNL     1       3.308   9.624  16.479  1.00  0.00     0.210 HD
ENDBRANCH  28  36
ENDBRANCH  22  23
ENDBRANCH  15  22
BRANCH   1  38
HETATM   38  C8  UNL     1      -7.596   4.674  13.835  1.00  0.00     0.008 C 
HETATM   39  C9  UNL     1      -8.226   4.780  12.443  1.00  0.00     0.014 C 
BRANCH  38  40
HETATM   40  C7  UNL     1      -7.902   5.885  14.712  1.00  0.00    -0.026 C 
HETATM   41  C6  UNL     1      -8.791   6.870  14.490  1.00  0.00    -0.026 C 
BRANCH  41  42
HETATM   42  C4  UNL     1      -9.069   8.064  15.393  1.00  0.00     0.007 C 
HETATM   43  C5  UNL     1      -8.988   7.753  16.895  1.00  0.00     0.014 C 
BRANCH  42  44
HETATM   44  C2  UNL     1     -10.388   8.778  14.975  1.00  0.00    -0.015 C 
HETATM   45  C1  UNL     1     -10.213  10.276  14.694  1.00  0.00     0.010 C 
HETATM   46  C3  UNL     1     -11.051   8.106  13.767  1.00  0.00     0.010 C 
ENDBRANCH  42  44
ENDBRANCH  41  42
ENDBRANCH  38  40
ENDBRANCH   1  38
TORSDOF 11
ENDMDL
MODEL 2
REMARK minimizedAffinity -8.4660778
REMARK CNNscore 0.324152291
REMARK CNNaffinity 7.12043524
REMARK  11 active torsions:
REMARK  status: ('A' for Active; 'I' for Inactive)
REMARK    1  A    between atoms: C2_2  and  C4_4 
REMARK    2  A    between atoms: C4_4  and  C6_6 
REMARK    3  A    between atoms: C7_7  and  C8_8 
REMARK    4  A    between atoms: C8_8  and  C10_10 
REMARK    5  A    between atoms: C24_24  and  O1_25 
REMARK    6  A    between atoms: O1_25  and  C25_26 
REMARK    7  A    between atoms: C26_28  and  C27_29 
REMARK    8  A    between atoms: C27_29  and  O3_30 
REMARK    9  A    between atoms: C28_31  and  O4_32 
REMARK   10  A    between atoms: C29_33  and  O5_34 
REMARK   11  A    between atoms: C30_35  and  O6_36 
ROOT
HETATM    1  C10 UNL     1      -2.697   6.505  13.335  1.00  0.00     0.001 C 
HETATM    2  C11 UNL     1      -3.050   5.125  12.695  1.00  0.00     0.006 C 
HETATM    3  C12 UNL     1      -4.568   4.946  12.810  1.00  0.00     0.009 C 
HETATM    4  C13 UNL     1      -5.060   6.300  13.302  1.00  0.00     0.036 C 
HETATM    5  C14 UNL     1      -3.935   6.781  14.253  1.00  0.00    -0.033 C 
HETATM    6  C15 UNL     1      -3.812   5.979  15.570  1.00  0.00     0.016 C 
HETATM    7  C16 UNL     1      -4.238   8.261  14.555  1.00  0.00     0.010 C 
HETATM    8  C17 UNL     1      -5.617   8.436  15.218  1.00  0.00     0.010 C 
HETATM    9  C18 UNL     1      -6.786   7.821  14.411  1.00  0.00     0.039 C 
HETATM   10  C19 UNL     1      -6.488   6.388  13.853  1.00  0.00     0.123 C 
HETATM   11  C20 UNL     1      -7.505   6.118  12.760  1.00  0.00     0.014 C 
HETATM   12  C21 UNL     1      -8.773   6.198  13.177  1.00  0.00     0.014 C 
HETATM   13  C22 UNL     1      -8.899   6.456  14.667  1.00  0.00     0.124 C 
HETATM   14  C23 UNL     1     -10.365   6.429  15.093  1.00  0.00     0.078 C 
HETATM   15  C24 UNL     1     -11.168   7.618  14.538  1.00  0.00     0.128 C 
HETATM   16  C31 UNL     1     -10.299   8.775  14.018  1.00  0.00     0.033 C 
HETATM   17  C32 UNL     1      -9.049   9.037  14.859  1.00  0.00     0.015 C 
HETATM   18  C33 UNL     1      -8.190   7.773  15.157  1.00  0.00     0.001 C 
HETATM   19  C34 UNL     1      -8.009   7.729  16.705  1.00  0.00     0.019 C 
HETATM   20  O7  UNL     1      -8.185   5.340  15.254  1.00  0.00    -0.223 OA
HETATM   21  O8  UNL     1      -6.718   5.436  14.915  1.00  0.00    -0.224 OA
ENDROOT
BRANCH  15  22
HETATM   22  O1  UNL     1     -12.032   8.053  15.598  1.00  0.00    -0.353 OA
BRANCH  22  23
HETATM   23  C25 UNL     1     -13.378   8.312  15.180  1.00  0.00     0.292 C 
HETATM   24  O2  UNL     1     -13.671   7.645  13.957  1.00  0.00    -0.348 OA
HETATM   25  C26 UNL     1     -15.010   7.881  13.505  1.00  0.00     0.179 C 
HETATM   26  C28 UNL     1     -15.247   9.382  13.260  1.00  0.00     0.180 C 
HETATM   27  C29 UNL     1     -14.917  10.168  14.531  1.00  0.00     0.183 C 
HETATM   28  C30 UNL     1     -13.503   9.835  15.002  1.00  0.00     0.204 C 
BRANCH  25  29
HETATM   29  C27 UNL     1     -15.250   7.077  12.217  1.00  0.00     0.198 C 
BRANCH  29  30
HETATM   30  O3  UNL     1     -15.653   7.904  11.127  1.00  0.00    -0.398 OA
HETATM   31  H41 UNL     1     -15.134   8.737  11.188  1.00  0.00     0.209 HD
ENDBRANCH  29  30
ENDBRANCH  25  29
BRANCH  26  32
HETATM   32  O4  UNL     1     -16.604   9.636  12.878  1.00  0.00    -0.390 OA
HETATM   33  H43 UNL     1     -16.724  10.604  13.009  1.00  0.00     0.210 HD
ENDBRANCH  26  32
BRANCH  27  34
HETATM   34  O5  UNL     1     -15.046  11.573  14.259  1.00  0.00    -0.390 OA
HETATM   35  H45 UNL     1     -14.591  12.019  15.004  1.00  0.00     0.210 HD
ENDBRANCH  27  34
BRANCH  28  36
HETATM   36  O6  UNL     1     -13.255  10.533  16.233  1.00  0.00    -0.388 OA
HETATM   37  H47 UNL     1     -12.369  10.230  16.525  1.00  0.00     0.210 HD
ENDBRANCH  28  36
ENDBRANCH  22  23
ENDBRANCH  15  22
BRANCH   1  38
HETATM   38  C8  UNL     1      -1.264   6.522  13.942  1.00  0.00     0.008 C 
HETATM   39  C9  UNL     1      -1.199   7.235  15.296  1.00  0.00     0.014 C 
BRANCH  38  40
HETATM   40  C7  UNL     1      -0.270   7.087  12.931  1.00  0.00    -0.026 C 
HETATM   41  C6  UNL     1      -0.375   7.120  11.590  1.00  0.00    -0.026 C 
BRANCH  41  42
HETATM   42  C4  UNL     1       0.641   7.695  10.613  1.00  0.00     0.007 C 
HETATM   43  C5  UNL     1       0.036   8.189   9.291  1.00  0.00     0.014 C 
BRANCH  42  44
HETATM   44  C2  UNL     1       1.839   6.719  10.424  1.00  0.00    -0.015 C 
HETATM   45  C1  UNL     1       1.544   5.287  10.890  1.00  0.00     0.010 C 
HETATM   46  C3  UNL     1       2.340   6.692   8.977  1.00  0.00     0.010 C 
ENDBRANCH  42  44
ENDBRANCH  41  42
ENDBRANCH  38  40
ENDBRANCH   1  38
TORSDOF 11
ENDMDL
MODEL 3
REMARK minimizedAffinity -8.68284416
REMARK CNNscore 0.285885304
REMARK CNNaffinity 7.03183556
REMARK  11 active torsions:
REMARK  status: ('A' for Active; 'I' for Inactive)
REMARK    1  A    between atoms: C2_2  and  C4_4 
REMARK    2  A    between atoms: C4_4  and  C6_6 
REMARK    3  A    between atoms: C7_7  and  C8_8 
REMARK    4  A    between atoms: C8_8  and  C10_10 
REMARK    5  A    between atoms: C24_24  and  O1_25 
REMARK    6  A    between atoms: O1_25  and  C25_26 
REMARK    7  A    between atoms: C26_28  and  C27_29 
REMARK    8  A    between atoms: C27_29  and  O3_30 
REMARK    9  A    between atoms: C28_31  and  O4_32 
REMARK   10  A    between atoms: C29_33  and  O5_34 
REMARK   11  A    between atoms: C30_35  and  O6_36 
ROOT
HETATM    1  C10 UNL     1      -1.457   6.335  11.966  1.00  0.00     0.001 C 
HETATM    2  C11 UNL     1      -1.564   4.802  12.244  1.00  0.00     0.006 C 
HETATM    3  C12 UNL     1      -2.870   4.569  13.010  1.00  0.00     0.009 C 
HETATM    4  C13 UNL     1      -3.572   5.919  12.956  1.00  0.00     0.036 C 
HETATM    5  C14 UNL     1      -2.413   6.944  13.046  1.00  0.00    -0.033 C 
HETATM    6  C15 UNL     1      -1.702   7.000  14.418  1.00  0.00     0.016 C 
HETATM    7  C16 UNL     1      -3.031   8.314  12.709  1.00  0.00     0.010 C 
HETATM    8  C17 UNL     1      -4.159   8.687  13.688  1.00  0.00     0.010 C 
HETATM    9  C18 UNL     1      -5.279   7.624  13.793  1.00  0.00     0.039 C 
HETATM   10  C19 UNL     1      -4.751   6.154  13.907  1.00  0.00     0.123 C 
HETATM   11  C20 UNL     1      -5.911   5.239  13.564  1.00  0.00     0.014 C 
HETATM   12  C21 UNL     1      -6.979   5.410  14.350  1.00  0.00     0.014 C 
HETATM   13  C22 UNL     1      -6.751   6.420  15.460  1.00  0.00     0.124 C 
HETATM   14  C23 UNL     1      -7.967   6.487  16.381  1.00  0.00     0.078 C 
HETATM   15  C24 UNL     1      -9.200   7.103  15.695  1.00  0.00     0.128 C 
HETATM   16  C31 UNL     1      -8.881   7.870  14.401  1.00  0.00     0.033 C 
HETATM   17  C32 UNL     1      -7.576   8.665  14.458  1.00  0.00     0.015 C 
HETATM   18  C33 UNL     1      -6.342   7.853  14.954  1.00  0.00     0.001 C 
HETATM   19  C34 UNL     1      -5.731   8.672  16.130  1.00  0.00     0.019 C 
HETATM   20  O7  UNL     1      -5.613   5.875  16.171  1.00  0.00    -0.223 OA
HETATM   21  O8  UNL     1      -4.391   5.912  15.286  1.00  0.00    -0.224 OA
ENDROOT
BRANCH  15  22
HETATM   22  O1  UNL     1      -9.819   7.957  16.667  1.00  0.00    -0.353 OA
BRANCH  22  23
HETATM   23  C25 UNL     1     -11.025   8.580  16.208  1.00  0.00     0.292 C 
HETATM   24  O2  UNL     1     -11.273   8.269  14.841  1.00  0.00    -0.348 OA
HETATM   25  C26 UNL     1     -12.471   8.877  14.343  1.00  0.00     0.179 C 
HETATM   26  C28 UNL     1     -12.386  10.411  14.441  1.00  0.00     0.180 C 
HETATM   27  C29 UNL     1     -12.086  10.818  15.886  1.00  0.00     0.183 C 
HETATM   28  C30 UNL     1     -10.836  10.097  16.385  1.00  0.00     0.204 C 
BRANCH  25  29
HETATM   29  C27 UNL     1     -12.685   8.438  12.885  1.00  0.00     0.198 C 
BRANCH  29  30
HETATM   30  O3  UNL     1     -14.027   8.637  12.449  1.00  0.00    -0.398 OA
HETATM   31  H41 UNL     1     -14.336   9.485  12.837  1.00  0.00     0.209 HD
ENDBRANCH  29  30
ENDBRANCH  25  29
BRANCH  26  32
HETATM   32  O4  UNL     1     -13.608  11.024  14.014  1.00  0.00    -0.390 OA
HETATM   33  H43 UNL     1     -13.560  11.945  14.359  1.00  0.00     0.210 HD
ENDBRANCH  26  32
BRANCH  27  34
HETATM   34  O5  UNL     1     -11.911  12.243  15.943  1.00  0.00    -0.390 OA
HETATM   35  H45 UNL     1     -11.484  12.411  16.810  1.00  0.00     0.210 HD
ENDBRANCH  27  34
BRANCH  28  36
HETATM   36  O6  UNL     1     -10.627  10.446  17.762  1.00  0.00    -0.388 OA
HETATM   37  H47 UNL     1      -9.861   9.905  18.050  1.00  0.00     0.210 HD
ENDBRANCH  28  36
ENDBRANCH  22  23
ENDBRANCH  15  22
BRANCH   1  38
HETATM   38  C8  UNL     1       0.021   6.816  11.881  1.00  0.00     0.008 C 
HETATM   39  C9  UNL     1       0.157   8.339  11.963  1.00  0.00     0.014 C 
BRANCH  38  40
HETATM   40  C7  UNL     1       0.696   6.231  10.644  1.00  0.00    -0.026 C 
HETATM   41  C6  UNL     1       1.941   6.459  10.188  1.00  0.00    -0.026 C 
BRANCH  41  42
HETATM   42  C4  UNL     1       2.579   5.853   8.946  1.00  0.00     0.007 C 
HETATM   43  C5  UNL     1       3.764   4.921   9.236  1.00  0.00     0.014 C 
BRANCH  42  44
HETATM   44  C2  UNL     1       2.898   6.957   7.895  1.00  0.00    -0.015 C 
HETATM   45  C1  UNL     1       1.824   7.097   6.807  1.00  0.00     0.010 C 
HETATM   46  C3  UNL     1       3.146   8.321   8.546  1.00  0.00     0.010 C 
ENDBRANCH  42  44
ENDBRANCH  41  42
ENDBRANCH  38  40
ENDBRANCH   1  38
TORSDOF 11
ENDMDL
MODEL 4
REMARK minimizedAffinity -8.71133041
REMARK CNNscore 0.279236674
REMARK CNNaffinity 6.43911982
REMARK  11 active torsions:
REMARK  status: ('A' for Active; 'I' for Inactive)
REMARK    1  A    between atoms: C2_2  and  C4_4 
REMARK    2  A    between atoms: C4_4  and  C6_6 
REMARK    3  A    between atoms: C7_7  and  C8_8 
REMARK    4  A    between atoms: C8_8  and  C10_10 
REMARK    5  A    between atoms: C24_24  and  O1_25 
REMARK    6  A    between atoms: O1_25  and  C25_26 
REMARK    7  A    between atoms: C26_28  and  C27_29 
REMARK    8  A    between atoms: C27_29  and  O3_30 
REMARK    9  A    between atoms: C28_31  and  O4_32 
REMARK   10  A    between atoms: C29_33  and  O5_34 
REMARK   11  A    between atoms: C30_35  and  O6_36 
ROOT
HETATM    1  C10 UNL     1      -2.863  12.192  17.866  1.00  0.00     0.001 C 
HETATM    2  C11 UNL     1      -4.180  12.295  17.033  1.00  0.00     0.006 C 
HETATM    3  C12 UNL     1      -4.045  11.331  15.850  1.00  0.00     0.009 C 
HETATM    4  C13 UNL     1      -2.773  10.552  16.155  1.00  0.00     0.036 C 
HETATM    5  C14 UNL     1      -1.850  11.599  16.830  1.00  0.00    -0.033 C 
HETATM    6  C15 UNL     1      -1.335  12.712  15.889  1.00  0.00     0.016 C 
HETATM    7  C16 UNL     1      -0.667  10.806  17.417  1.00  0.00     0.010 C 
HETATM    8  C17 UNL     1       0.099  10.034  16.326  1.00  0.00     0.010 C 
HETATM    9  C18 UNL     1      -0.790   9.091  15.480  1.00  0.00     0.039 C 
HETATM   10  C19 UNL     1      -2.143   9.734  15.022  1.00  0.00     0.123 C 
HETATM   11  C20 UNL     1      -3.055   8.596  14.606  1.00  0.00     0.014 C 
HETATM   12  C21 UNL     1      -2.551   7.834  13.631  1.00  0.00     0.014 C 
HETATM   13  C22 UNL     1      -1.219   8.336  13.104  1.00  0.00     0.124 C 
HETATM   14  C23 UNL     1      -0.754   7.485  11.925  1.00  0.00     0.078 C 
HETATM   15  C24 UNL     1      -0.366   6.055  12.339  1.00  0.00     0.128 C 
HETATM   16  C31 UNL     1      -0.144   5.877  13.850  1.00  0.00     0.033 C 
HETATM   17  C32 UNL     1       0.545   7.067  14.519  1.00  0.00     0.015 C 
HETATM   18  C33 UNL     1      -0.095   8.451  14.200  1.00  0.00     0.001 C 
HETATM   19  C34 UNL     1       1.064   9.350  13.673  1.00  0.00     0.019 C 
HETATM   20  O7  UNL     1      -1.527   9.681  12.663  1.00  0.00    -0.223 OA
HETATM   21  O8  UNL     1      -1.882  10.541  13.851  1.00  0.00    -0.224 OA
ENDROOT
BRANCH  15  22
HETATM   22  O1  UNL     1       0.817   5.726  11.597  1.00  0.00    -0.353 OA
BRANCH  22  23
HETATM   23  C25 UNL     1       1.359   6.823  10.853  1.00  0.00     0.292 C 
HETATM   24  O2  UNL     1       0.997   6.738   9.479  1.00  0.00    -0.348 OA
HETATM   25  C26 UNL     1       1.523   7.818   8.699  1.00  0.00     0.179 C 
HETATM   26  C28 UNL     1       3.062   7.832   8.753  1.00  0.00     0.180 C 
HETATM   27  C29 UNL     1       3.524   7.889  10.210  1.00  0.00     0.183 C 
HETATM   28  C30 UNL     1       2.888   6.753  11.008  1.00  0.00     0.204 C 
BRANCH  25  29
HETATM   29  C27 UNL     1       1.033   7.672   7.249  1.00  0.00     0.198 C 
BRANCH  29  30
HETATM   30  O3  UNL     1       1.948   6.941   6.436  1.00  0.00    -0.398 OA
HETATM   31  H41 UNL     1       2.310   6.213   6.989  1.00  0.00     0.209 HD
ENDBRANCH  29  30
ENDBRANCH  25  29
BRANCH  26  32
HETATM   32  O4  UNL     1       3.594   8.952   8.036  1.00  0.00    -0.390 OA
HETATM   33  H43 UNL     1       4.525   9.029   8.347  1.00  0.00     0.210 HD
ENDBRANCH  26  32
BRANCH  27  34
HETATM   34  O5  UNL     1       4.958   7.801  10.250  1.00  0.00    -0.390 OA
HETATM   35  H45 UNL     1       5.174   7.591  11.183  1.00  0.00     0.210 HD
ENDBRANCH  27  34
BRANCH  28  36
HETATM   36  O6  UNL     1       3.287   6.881  12.382  1.00  0.00    -0.388 OA
HETATM   37  H47 UNL     1       2.797   6.176  12.857  1.00  0.00     0.210 HD
ENDBRANCH  28  36
ENDBRANCH  22  23
ENDBRANCH  15  22
BRANCH   1  38
HETATM   38  C8  UNL     1      -2.527  13.522  18.602  1.00  0.00     0.008 C 
HETATM   39  C9  UNL     1      -1.161  13.491  19.294  1.00  0.00     0.014 C 
BRANCH  38  40
HETATM   40  C7  UNL     1      -3.660  13.899  19.552  1.00  0.00    -0.026 C 
HETATM   41  C6  UNL     1      -4.855  13.299  19.702  1.00  0.00    -0.026 C 
BRANCH  41  42
HETATM   42  C4  UNL     1      -5.962  13.706  20.665  1.00  0.00     0.007 C 
HETATM   43  C5  UNL     1      -5.858  13.062  22.055  1.00  0.00     0.014 C 
BRANCH  42  44
HETATM   44  C2  UNL     1      -7.360  13.536  20.002  1.00  0.00    -0.015 C 
HETATM   45  C1  UNL     1      -8.469  13.160  20.994  1.00  0.00     0.010 C 
HETATM   46  C3  UNL     1      -7.782  14.781  19.214  1.00  0.00     0.010 C 
ENDBRANCH  42  44
ENDBRANCH  41  42
ENDBRANCH  38  40
ENDBRANCH   1  38
TORSDOF 11
ENDMDL
MODEL 5
REMARK minimizedAffinity -9.031991
REMARK CNNscore 0.274585783
REMARK CNNaffinity 6.20152807
REMARK  11 active torsions:
REMARK  status: ('A' for Active; 'I' for Inactive)
REMARK    1  A    between atoms: C2_2  and  C4_4 
REMARK    2  A    between atoms: C4_4  and  C6_6 
REMARK    3  A    between atoms: C7_7  and  C8_8 
REMARK    4  A    between atoms: C8_8  and  C10_10 
REMARK    5  A    between atoms: C24_24  and  O1_25 
REMARK    6  A    between atoms: O1_25  and  C25_26 
REMARK    7  A    between atoms: C26_28  and  C27_29 
REMARK    8  A    between atoms: C27_29  and  O3_30 
REMARK    9  A    between atoms: C28_31  and  O4_32 
REMARK   10  A    between atoms: C29_33  and  O5_34 
REMARK   11  A    between atoms: C30_35  and  O6_36 
ROOT
HETATM    1  C10 UNL     1       3.193   6.810  10.549  1.00  0.00     0.001 C 
HETATM    2  C11 UNL     1       4.257   5.739  10.152  1.00  0.00     0.006 C 
HETATM    3  C12 UNL     1       5.523   6.032  10.965  1.00  0.00     0.009 C 
HETATM    4  C13 UNL     1       5.084   7.106  11.951  1.00  0.00     0.036 C 
HETATM    5  C14 UNL     1       4.074   7.960  11.143  1.00  0.00    -0.033 C 
HETATM    6  C15 UNL     1       4.698   8.798  10.004  1.00  0.00     0.016 C 
HETATM    7  C16 UNL     1       3.384   8.882  12.167  1.00  0.00     0.010 C 
HETATM    8  C17 UNL     1       4.397   9.786  12.893  1.00  0.00     0.010 C 
HETATM    9  C18 UNL     1       5.549   9.015  13.582  1.00  0.00     0.039 C 
HETATM   10  C19 UNL     1       6.174   7.884  12.698  1.00  0.00     0.123 C 
HETATM   11  C20 UNL     1       6.946   6.969  13.629  1.00  0.00     0.014 C 
HETATM   12  C21 UNL     1       7.901   7.595  14.324  1.00  0.00     0.014 C 
HETATM   13  C22 UNL     1       8.050   9.059  13.955  1.00  0.00     0.124 C 
HETATM   14  C23 UNL     1       9.224   9.685  14.704  1.00  0.00     0.078 C 
HETATM   15  C24 UNL     1       8.968   9.805  16.217  1.00  0.00     0.128 C 
HETATM   16  C31 UNL     1       7.492   9.654  16.618  1.00  0.00     0.033 C 
HETATM   17  C32 UNL     1       6.514  10.300  15.635  1.00  0.00     0.015 C 
HETATM   18  C33 UNL     1       6.738   9.909  14.145  1.00  0.00     0.001 C 
HETATM   19  C34 UNL     1       6.862  11.250  13.361  1.00  0.00     0.019 C 
HETATM   20  O7  UNL     1       8.328   9.013  12.534  1.00  0.00    -0.223 OA
HETATM   21  O8  UNL     1       7.121   8.493  11.792  1.00  0.00    -0.224 OA
ENDROOT
BRANCH  15  22
HETATM   22  O1  UNL     1       9.487  11.082  16.614  1.00  0.00    -0.353 OA
BRANCH  22  23
HETATM   23  C25 UNL     1      10.413  11.018  17.706  1.00  0.00     0.292 C 
HETATM   24  O2  UNL     1       9.904  11.700  18.848  1.00  0.00    -0.348 OA
HETATM   25  C26 UNL     1      10.803  11.660  19.962  1.00  0.00     0.179 C 
HETATM   26  C28 UNL     1      12.144  12.328  19.607  1.00  0.00     0.180 C 
HETATM   27  C29 UNL     1      12.735  11.664  18.361  1.00  0.00     0.183 C 
HETATM   28  C30 UNL     1      11.716  11.680  17.225  1.00  0.00     0.204 C 
BRANCH  25  29
HETATM   29  C27 UNL     1      10.146  12.367  21.159  1.00  0.00     0.198 C 
BRANCH  29  30
HETATM   30  O3  UNL     1      10.452  13.759  21.204  1.00  0.00    -0.398 OA
HETATM   31  H41 UNL     1      10.446  14.087  20.278  1.00  0.00     0.209 HD
ENDBRANCH  29  30
ENDBRANCH  25  29
BRANCH  26  32
HETATM   32  O4  UNL     1      13.075  12.228  20.691  1.00  0.00    -0.390 OA
HETATM   33  H43 UNL     1      13.951  12.426  20.288  1.00  0.00     0.210 HD
ENDBRANCH  26  32
BRANCH  27  34
HETATM   34  O5  UNL     1      13.933  12.361  17.983  1.00  0.00    -0.390 OA
HETATM   35  H45 UNL     1      14.120  12.065  17.067  1.00  0.00     0.210 HD
ENDBRANCH  27  34
BRANCH  28  36
HETATM   36  O6  UNL     1      12.276  10.987  16.098  1.00  0.00    -0.388 OA
HETATM   37  H47 UNL     1      11.560  10.965  15.428  1.00  0.00     0.210 HD
ENDBRANCH  28  36
ENDBRANCH  22  23
ENDBRANCH  15  22
BRANCH   1  38
HETATM   38  C8  UNL     1       2.203   7.114   9.387  1.00  0.00     0.008 C 
HETATM   39  C9  UNL     1       2.725   8.185   8.424  1.00  0.00     0.014 C 
BRANCH  38  40
HETATM   40  C7  UNL     1       0.823   7.449   9.945  1.00  0.00    -0.026 C 
HETATM   41  C6  UNL     1       0.354   7.235  11.188  1.00  0.00    -0.026 C 
BRANCH  41  42
HETATM   42  C4  UNL     1      -1.034   7.585  11.709  1.00  0.00     0.007 C 
HETATM   43  C5  UNL     1      -1.191   9.046  12.154  1.00  0.00     0.014 C 
BRANCH  42  44
HETATM   44  C2  UNL     1      -1.498   6.554  12.779  1.00  0.00    -0.015 C 
HETATM   45  C1  UNL     1      -1.880   5.189  12.192  1.00  0.00     0.010 C 
HETATM   46  C3  UNL     1      -0.456   6.361  13.886  1.00  0.00     0.010 C 
ENDBRANCH  42  44
ENDBRANCH  41  42
ENDBRANCH  38  40
ENDBRANCH   1  38
TORSDOF 11
ENDMDL
MODEL 6
REMARK minimizedAffinity -9.23019505
REMARK CNNscore 0.240807399
REMARK CNNaffinity 6.88386011
REMARK  11 active torsions:
REMARK  status: ('A' for Active; 'I' for Inactive)
REMARK    1  A    between atoms: C2_2  and  C4_4 
REMARK    2  A    between atoms: C4_4  and  C6_6 
REMARK    3  A    between atoms: C7_7  and  C8_8 
REMARK    4  A    between atoms: C8_8  and  C10_10 
REMARK    5  A    between atoms: C24_24  and  O1_25 
REMARK    6  A    between atoms: O1_25  and  C25_26 
REMARK    7  A    between atoms: C26_28  and  C27_29 
REMARK    8  A    between atoms: C27_29  and  O3_30 
REMARK    9  A    between atoms: C28_31  and  O4_32 
REMARK   10  A    between atoms: C29_33  and  O5_34 
REMARK   11  A    between atoms: C30_35  and  O6_36 
ROOT
HETATM    1  C10 UNL     1      -5.836   6.399  14.953  1.00  0.00     0.001 C 
HETATM    2  C11 UNL     1      -5.878   5.387  13.765  1.00  0.00     0.006 C 
HETATM    3  C12 UNL     1      -4.476   5.351  13.148  1.00  0.00     0.009 C 
HETATM    4  C13 UNL     1      -3.627   6.158  14.121  1.00  0.00     0.036 C 
HETATM    5  C14 UNL     1      -4.584   7.275  14.610  1.00  0.00    -0.033 C 
HETATM    6  C15 UNL     1      -4.949   8.331  13.540  1.00  0.00     0.016 C 
HETATM    7  C16 UNL     1      -3.879   7.947  15.803  1.00  0.00     0.010 C 
HETATM    8  C17 UNL     1      -2.516   8.541  15.399  1.00  0.00     0.010 C 
HETATM    9  C18 UNL     1      -1.558   7.523  14.733  1.00  0.00     0.039 C 
HETATM   10  C19 UNL     1      -2.242   6.619  13.654  1.00  0.00     0.123 C 
HETATM   11  C20 UNL     1      -1.327   5.431  13.428  1.00  0.00     0.014 C 
HETATM   12  C21 UNL     1      -0.095   5.770  13.035  1.00  0.00     0.014 C 
HETATM   13  C22 UNL     1       0.077   7.263  12.822  1.00  0.00     0.124 C 
HETATM   14  C23 UNL     1       1.468   7.570  12.273  1.00  0.00     0.078 C 
HETATM   15  C24 UNL     1       2.584   7.307  13.300  1.00  0.00     0.128 C 
HETATM   16  C31 UNL     1       2.087   7.176  14.748  1.00  0.00     0.033 C 
HETATM   17  C32 UNL     1       0.950   8.137  15.101  1.00  0.00     0.015 C 
HETATM   18  C33 UNL     1      -0.237   8.137  14.093  1.00  0.00     0.001 C 
HETATM   19  C34 UNL     1      -0.446   9.622  13.672  1.00  0.00     0.019 C 
HETATM   20  O7  UNL     1      -0.933   7.571  11.830  1.00  0.00    -0.223 OA
HETATM   21  O8  UNL     1      -2.308   7.366  12.418  1.00  0.00    -0.224 OA
ENDROOT
BRANCH  15  22
HETATM   22  O1  UNL     1       3.519   8.386  13.165  1.00  0.00    -0.353 OA
BRANCH  22  23
HETATM   23  C25 UNL     1       4.871   8.025  13.474  1.00  0.00     0.292 C 
HETATM   24  O2  UNL     1       5.603   9.146  13.957  1.00  0.00    -0.348 OA
HETATM   25  C26 UNL     1       6.962   8.826  14.275  1.00  0.00     0.179 C 
HETATM   26  C28 UNL     1       7.708   8.312  13.030  1.00  0.00     0.180 C 
HETATM   27  C29 UNL     1       6.954   7.120  12.436  1.00  0.00     0.183 C 
HETATM   28  C30 UNL     1       5.499   7.498  12.172  1.00  0.00     0.204 C 
BRANCH  25  29
HETATM   29  C27 UNL     1       7.651  10.078  14.841  1.00  0.00     0.198 C 
BRANCH  29  30
HETATM   30  O3  UNL     1       8.233   9.847  16.122  1.00  0.00    -0.398 OA
HETATM   31  H41 UNL     1       8.621   8.944  16.106  1.00  0.00     0.209 HD
ENDBRANCH  29  30
ENDBRANCH  25  29
BRANCH  26  32
HETATM   32  O4  UNL     1       9.046   7.920  13.355  1.00  0.00    -0.390 OA
HETATM   33  H43 UNL     1       9.339   7.370  12.592  1.00  0.00     0.210 HD
ENDBRANCH  26  32
BRANCH  27  34
HETATM   34  O5  UNL     1       7.605   6.715  11.221  1.00  0.00    -0.390 OA
HETATM   35  H45 UNL     1       6.957   6.136  10.766  1.00  0.00     0.210 HD
ENDBRANCH  27  34
BRANCH  28  36
HETATM   36  O6  UNL     1       4.807   6.338  11.683  1.00  0.00    -0.388 OA
HETATM   37  H47 UNL     1       3.870   6.615  11.599  1.00  0.00     0.210 HD
ENDBRANCH  28  36
ENDBRANCH  22  23
ENDBRANCH  15  22
BRANCH   1  38
HETATM   38  C8  UNL     1      -7.214   7.080  15.197  1.00  0.00     0.008 C 
HETATM   39  C9  UNL     1      -7.761   6.831  16.606  1.00  0.00     0.014 C 
BRANCH  38  40
HETATM   40  C7  UNL     1      -8.200   6.678  14.104  1.00  0.00    -0.026 C 
HETATM   41  C6  UNL     1      -9.513   6.960  14.024  1.00  0.00    -0.026 C 
BRANCH  41  42
HETATM   42  C4  UNL     1     -10.467   6.541  12.913  1.00  0.00     0.007 C 
HETATM   43  C5  UNL     1      -9.875   6.645  11.500  1.00  0.00     0.014 C 
BRANCH  42  44
HETATM   44  C2  UNL     1     -11.842   7.255  13.067  1.00  0.00    -0.015 C 
HETATM   45  C1  UNL     1     -12.433   7.151  14.480  1.00  0.00     0.010 C 
HETATM   46  C3  UNL     1     -11.779   8.727  12.647  1.00  0.00     0.010 C 
ENDBRANCH  42  44
ENDBRANCH  41  42
ENDBRANCH  38  40
ENDBRANCH   1  38
TORSDOF 11
ENDMDL
MODEL 7
REMARK minimizedAffinity -8.45308399
REMARK CNNscore 0.21634762
REMARK CNNaffinity 6.61865187
REMARK  11 active torsions:
REMARK  status: ('A' for Active; 'I' for Inactive)
REMARK    1  A    between atoms: C2_2  and  C4_4 
REMARK    2  A    between atoms: C4_4  and  C6_6 
REMARK    3  A    between atoms: C7_7  and  C8_8 
REMARK    4  A    between atoms: C8_8  and  C10_10 
REMARK    5  A    between atoms: C24_24  and  O1_25 
REMARK    6  A    between atoms: O1_25  and  C25_26 
REMARK    7  A    between atoms: C26_28  and  C27_29 
REMARK    8  A    between atoms: C27_29  and  O3_30 
REMARK    9  A    between atoms: C28_31  and  O4_32 
REMARK   10  A    between atoms: C29_33  and  O5_34 
REMARK   11  A    between atoms: C30_35  and  O6_36 
ROOT
HETATM    1  C10 UNL     1      -6.665   5.210  14.266  1.00  0.00     0.001 C 
HETATM    2  C11 UNL     1      -6.069   4.191  13.245  1.00  0.00     0.006 C 
HETATM    3  C12 UNL     1      -4.594   4.556  13.046  1.00  0.00     0.009 C 
HETATM    4  C13 UNL     1      -4.333   5.616  14.107  1.00  0.00     0.036 C 
HETATM    5  C14 UNL     1      -5.663   6.410  14.174  1.00  0.00    -0.033 C 
HETATM    6  C15 UNL     1      -5.970   7.267  12.924  1.00  0.00     0.016 C 
HETATM    7  C16 UNL     1      -5.561   7.306  15.423  1.00  0.00     0.010 C 
HETATM    8  C17 UNL     1      -4.361   8.268  15.338  1.00  0.00     0.010 C 
HETATM    9  C18 UNL     1      -3.005   7.563  15.091  1.00  0.00     0.039 C 
HETATM   10  C19 UNL     1      -3.056   6.456  13.985  1.00  0.00     0.123 C 
HETATM   11  C20 UNL     1      -1.824   5.591  14.166  1.00  0.00     0.014 C 
HETATM   12  C21 UNL     1      -0.675   6.272  14.088  1.00  0.00     0.014 C 
HETATM   13  C22 UNL     1      -0.869   7.738  13.748  1.00  0.00     0.124 C 
HETATM   14  C23 UNL     1       0.480   8.430  13.569  1.00  0.00     0.078 C 
HETATM   15  C24 UNL     1       1.265   8.553  14.887  1.00  0.00     0.128 C 
HETATM   16  C31 UNL     1       0.415   8.331  16.148  1.00  0.00     0.033 C 
HETATM   17  C32 UNL     1      -0.995   8.917  16.055  1.00  0.00     0.015 C 
HETATM   18  C33 UNL     1      -1.778   8.522  14.768  1.00  0.00     0.001 C 
HETATM   19  C34 UNL     1      -2.256   9.860  14.126  1.00  0.00     0.019 C 
HETATM   20  O7  UNL     1      -1.581   7.692  12.487  1.00  0.00    -0.223 OA
HETATM   21  O8  UNL     1      -2.955   7.104  12.697  1.00  0.00    -0.224 OA
ENDROOT
BRANCH  15  22
HETATM   22  O1  UNL     1       1.860   9.859  14.883  1.00  0.00    -0.353 OA
BRANCH  22  23
HETATM   23  C25 UNL     1       3.145   9.910  14.251  1.00  0.00     0.292 C 
HETATM   24  O2  UNL     1       4.069   9.044  14.901  1.00  0.00    -0.348 OA
HETATM   25  C26 UNL     1       5.369   9.068  14.299  1.00  0.00     0.179 C 
HETATM   26  C28 UNL     1       5.970  10.485  14.356  1.00  0.00     0.180 C 
HETATM   27  C29 UNL     1       5.009  11.478  13.700  1.00  0.00     0.183 C 
HETATM   28  C30 UNL     1       3.626  11.368  14.338  1.00  0.00     0.204 C 
BRANCH  25  29
HETATM   29  C27 UNL     1       6.276   8.064  15.029  1.00  0.00     0.198 C 
BRANCH  29  30
HETATM   30  O3  UNL     1       5.542   6.989  15.609  1.00  0.00    -0.398 OA
HETATM   31  H41 UNL     1       4.826   6.753  14.977  1.00  0.00     0.209 HD
ENDBRANCH  29  30
ENDBRANCH  25  29
BRANCH  26  32
HETATM   32  O4  UNL     1       7.238  10.534  13.691  1.00  0.00    -0.390 OA
HETATM   33  H43 UNL     1       7.406  11.493  13.543  1.00  0.00     0.210 HD
ENDBRANCH  26  32
BRANCH  27  34
HETATM   34  O5  UNL     1       5.536  12.806  13.849  1.00  0.00    -0.390 OA
HETATM   35  H45 UNL     1       4.784  13.402  13.646  1.00  0.00     0.210 HD
ENDBRANCH  27  34
BRANCH  28  36
HETATM   36  O6  UNL     1       2.734  12.261  13.652  1.00  0.00    -0.388 OA
HETATM   37  H47 UNL     1       1.852  12.100  14.051  1.00  0.00     0.210 HD
ENDBRANCH  28  36
ENDBRANCH  22  23
ENDBRANCH  15  22
BRANCH   1  38
HETATM   38  C8  UNL     1      -8.185   5.452  14.037  1.00  0.00     0.008 C 
HETATM   39  C9  UNL     1      -8.621   5.179  12.594  1.00  0.00     0.014 C 
BRANCH  38  40
HETATM   40  C7  UNL     1      -8.574   6.848  14.514  1.00  0.00    -0.026 C 
HETATM   41  C6  UNL     1      -9.758   7.474  14.379  1.00  0.00    -0.026 C 
BRANCH  41  42
HETATM   42  C4  UNL     1     -10.108   8.871  14.872  1.00  0.00     0.007 C 
HETATM   43  C5  UNL     1      -8.894   9.726  15.263  1.00  0.00     0.014 C 
BRANCH  42  44
HETATM   44  C2  UNL     1     -11.207   8.809  15.973  1.00  0.00    -0.015 C 
HETATM   45  C1  UNL     1     -10.748   9.359  17.330  1.00  0.00     0.010 C 
HETATM   46  C3  UNL     1     -12.496   9.518  15.544  1.00  0.00     0.010 C 
ENDBRANCH  42  44
ENDBRANCH  41  42
ENDBRANCH  38  40
ENDBRANCH   1  38
TORSDOF 11
ENDMDL
MODEL 8
REMARK minimizedAffinity -10.5869503
REMARK CNNscore 0.210857376
REMARK CNNaffinity 6.73220444
REMARK  11 active torsions:
REMARK  status: ('A' for Active; 'I' for Inactive)
REMARK    1  A    between atoms: C2_2  and  C4_4 
REMARK    2  A    between atoms: C4_4  and  C6_6 
REMARK    3  A    between atoms: C7_7  and  C8_8 
REMARK    4  A    between atoms: C8_8  and  C10_10 
REMARK    5  A    between atoms: C24_24  and  O1_25 
REMARK    6  A    between atoms: O1_25  and  C25_26 
REMARK    7  A    between atoms: C26_28  and  C27_29 
REMARK    8  A    between atoms: C27_29  and  O3_30 
REMARK    9  A    between atoms: C28_31  and  O4_32 
REMARK   10  A    between atoms: C29_33  and  O5_34 
REMARK   11  A    between atoms: C30_35  and  O6_36 
ROOT
HETATM    1  C10 UNL     1      -5.817   7.028  13.899  1.00  0.00     0.001 C 
HETATM    2  C11 UNL     1      -5.758   8.495  14.429  1.00  0.00     0.006 C 
HETATM    3  C12 UNL     1      -4.323   8.995  14.225  1.00  0.00     0.009 C 
HETATM    4  C13 UNL     1      -3.668   7.899  13.396  1.00  0.00     0.036 C 
HETATM    5  C14 UNL     1      -4.312   6.594  13.930  1.00  0.00    -0.033 C 
HETATM    6  C15 UNL     1      -3.897   6.208  15.369  1.00  0.00     0.016 C 
HETATM    7  C16 UNL     1      -3.906   5.484  12.942  1.00  0.00     0.010 C 
HETATM    8  C17 UNL     1      -2.376   5.334  12.851  1.00  0.00     0.010 C 
HETATM    9  C18 UNL     1      -1.635   6.645  12.494  1.00  0.00     0.039 C 
HETATM   10  C19 UNL     1      -2.139   7.897  13.288  1.00  0.00     0.123 C 
HETATM   11  C20 UNL     1      -1.650   9.122  12.541  1.00  0.00     0.014 C 
HETATM   12  C21 UNL     1      -0.321   9.168  12.399  1.00  0.00     0.014 C 
HETATM   13  C22 UNL     1       0.397   8.027  13.095  1.00  0.00     0.124 C 
HETATM   14  C23 UNL     1       1.910   8.198  12.985  1.00  0.00     0.078 C 
HETATM   15  C24 UNL     1       2.426   8.013  11.547  1.00  0.00     0.128 C 
HETATM   16  C31 UNL     1       1.426   7.325  10.604  1.00  0.00     0.033 C 
HETATM   17  C32 UNL     1       0.623   6.204  11.266  1.00  0.00     0.015 C 
HETATM   18  C33 UNL     1      -0.049   6.595  12.615  1.00  0.00     0.001 C 
HETATM   19  C34 UNL     1       0.409   5.526  13.651  1.00  0.00     0.019 C 
HETATM   20  O7  UNL     1      -0.025   8.167  14.474  1.00  0.00    -0.223 OA
HETATM   21  O8  UNL     1      -1.505   7.890  14.587  1.00  0.00    -0.224 OA
ENDROOT
BRANCH  15  22
HETATM   22  O1  UNL     1       3.646   7.265  11.649  1.00  0.00    -0.353 OA
BRANCH  22  23
HETATM   23  C25 UNL     1       4.642   7.886  12.471  1.00  0.00     0.292 C 
HETATM   24  O2  UNL     1       4.660   9.296  12.275  1.00  0.00    -0.348 OA
HETATM   25  C26 UNL     1       5.646   9.955  13.079  1.00  0.00     0.179 C 
HETATM   26  C28 UNL     1       7.057   9.441  12.742  1.00  0.00     0.180 C 
HETATM   27  C29 UNL     1       7.102   7.920  12.901  1.00  0.00     0.183 C 
HETATM   28  C30 UNL     1       5.995   7.273  12.071  1.00  0.00     0.204 C 
BRANCH  25  29
HETATM   29  C27 UNL     1       5.550  11.471  12.843  1.00  0.00     0.198 C 
BRANCH  29  30
HETATM   30  O3  UNL     1       5.696  11.818  11.468  1.00  0.00    -0.398 OA
HETATM   31  H41 UNL     1       5.227  11.132  10.944  1.00  0.00     0.209 HD
ENDBRANCH  29  30
ENDBRANCH  25  29
BRANCH  26  32
HETATM   32  O4  UNL     1       8.042  10.041  13.592  1.00  0.00    -0.390 OA
HETATM   33  H43 UNL     1       8.838   9.470  13.495  1.00  0.00     0.210 HD
ENDBRANCH  26  32
BRANCH  27  34
HETATM   34  O5  UNL     1       8.393   7.444  12.488  1.00  0.00    -0.390 OA
HETATM   35  H45 UNL     1       8.282   6.477  12.371  1.00  0.00     0.210 HD
ENDBRANCH  27  34
BRANCH  28  36
HETATM   36  O6  UNL     1       6.021   5.855  12.300  1.00  0.00    -0.388 OA
HETATM   37  H47 UNL     1       5.252   5.501  11.804  1.00  0.00     0.210 HD
ENDBRANCH  28  36
ENDBRANCH  22  23
ENDBRANCH  15  22
BRANCH   1  38
HETATM   38  C8  UNL     1      -6.884   6.175  14.646  1.00  0.00     0.008 C 
HETATM   39  C9  UNL     1      -6.618   6.072  16.151  1.00  0.00     0.014 C 
BRANCH  38  40
HETATM   40  C7  UNL     1      -7.027   4.810  13.979  1.00  0.00    -0.026 C 
HETATM   41  C6  UNL     1      -6.831   4.490  12.687  1.00  0.00    -0.026 C 
BRANCH  41  42
HETATM   42  C4  UNL     1      -6.985   3.112  12.059  1.00  0.00     0.007 C 
HETATM   43  C5  UNL     1      -7.684   2.082  12.959  1.00  0.00     0.014 C 
BRANCH  42  44
HETATM   44  C2  UNL     1      -5.627   2.614  11.481  1.00  0.00    -0.015 C 
HETATM   45  C1  UNL     1      -5.576   1.098  11.252  1.00  0.00     0.010 C 
HETATM   46  C3  UNL     1      -5.250   3.340  10.185  1.00  0.00     0.010 C 
ENDBRANCH  42  44
ENDBRANCH  41  42
ENDBRANCH  38  40
ENDBRANCH   1  38
TORSDOF 11
ENDMDL
MODEL 9
REMARK minimizedAffinity -8.3508625
REMARK CNNscore 0.189029038
REMARK CNNaffinity 6.60443115
REMARK  11 active torsions:
REMARK  status: ('A' for Active; 'I' for Inactive)
REMARK    1  A    between atoms: C2_2  and  C4_4 
REMARK    2  A    between atoms: C4_4  and  C6_6 
REMARK    3  A    between atoms: C7_7  and  C8_8 
REMARK    4  A    between atoms: C8_8  and  C10_10 
REMARK    5  A    between atoms: C24_24  and  O1_25 
REMARK    6  A    between atoms: O1_25  and  C25_26 
REMARK    7  A    between atoms: C26_28  and  C27_29 
REMARK    8  A    between atoms: C27_29  and  O3_30 
REMARK    9  A    between atoms: C28_31  and  O4_32 
REMARK   10  A    between atoms: C29_33  and  O5_34 
REMARK   11  A    between atoms: C30_35  and  O6_36 
ROOT
HETATM    1  C10 UNL     1      -6.072   4.558  13.879  1.00  0.00     0.001 C 
HETATM    2  C11 UNL     1      -5.472   3.914  12.590  1.00  0.00     0.006 C 
HETATM    3  C12 UNL     1      -4.082   4.526  12.380  1.00  0.00     0.009 C 
HETATM    4  C13 UNL     1      -3.838   5.324  13.654  1.00  0.00     0.036 C 
HETATM    5  C14 UNL     1      -5.239   5.877  14.020  1.00  0.00    -0.033 C 
HETATM    6  C15 UNL     1      -5.782   6.957  13.056  1.00  0.00     0.016 C 
HETATM    7  C16 UNL     1      -5.111   6.449  15.444  1.00  0.00     0.010 C 
HETATM    8  C17 UNL     1      -4.053   7.565  15.518  1.00  0.00     0.010 C 
HETATM    9  C18 UNL     1      -2.657   7.145  14.998  1.00  0.00     0.039 C 
HETATM   10  C19 UNL     1      -2.693   6.343  13.654  1.00  0.00     0.123 C 
HETATM   11  C20 UNL     1      -1.352   5.648  13.516  1.00  0.00     0.014 C 
HETATM   12  C21 UNL     1      -0.311   6.486  13.528  1.00  0.00     0.014 C 
HETATM   13  C22 UNL     1      -0.717   7.947  13.588  1.00  0.00     0.124 C 
HETATM   14  C23 UNL     1       0.511   8.849  13.490  1.00  0.00     0.078 C 
HETATM   15  C24 UNL     1       1.415   8.762  14.733  1.00  0.00     0.128 C 
HETATM   16  C31 UNL     1       0.740   8.121  15.956  1.00  0.00     0.033 C 
HETATM   17  C32 UNL     1      -0.732   8.501  16.121  1.00  0.00     0.015 C 
HETATM   18  C33 UNL     1      -1.598   8.321  14.839  1.00  0.00     0.001 C 
HETATM   19  C34 UNL     1      -2.300   9.691  14.597  1.00  0.00     0.019 C 
HETATM   20  O7  UNL     1      -1.551   8.105  12.414  1.00  0.00    -0.223 OA
HETATM   21  O8  UNL     1      -2.812   7.291  12.569  1.00  0.00    -0.224 OA
ENDROOT
BRANCH  15  22
HETATM   22  O1  UNL     1       1.842  10.101  15.017  1.00  0.00    -0.353 OA
BRANCH  22  23
HETATM   23  C25 UNL     1       2.729  10.202  16.138  1.00  0.00     0.292 C 
HETATM   24  O2  UNL     1       2.130  10.939  17.198  1.00  0.00    -0.348 OA
HETATM   25  C26 UNL     1       2.987  11.065  18.339  1.00  0.00     0.179 C 
HETATM   26  C28 UNL     1       4.288  11.799  17.967  1.00  0.00     0.180 C 
HETATM   27  C29 UNL     1       4.971  11.075  16.805  1.00  0.00     0.183 C 
HETATM   28  C30 UNL     1       3.997  10.916  15.640  1.00  0.00     0.204 C 
BRANCH  25  29
HETATM   29  C27 UNL     1       2.236  11.821  19.448  1.00  0.00     0.198 C 
BRANCH  29  30
HETATM   30  O3  UNL     1       2.768  11.556  20.743  1.00  0.00    -0.398 OA
HETATM   31  H41 UNL     1       3.745  11.507  20.652  1.00  0.00     0.209 HD
ENDBRANCH  29  30
ENDBRANCH  25  29
BRANCH  26  32
HETATM   32  O4  UNL     1       5.182  11.864  19.084  1.00  0.00    -0.390 OA
HETATM   33  H43 UNL     1       6.056  12.092  18.692  1.00  0.00     0.210 HD
ENDBRANCH  26  32
BRANCH  27  34
HETATM   34  O5  UNL     1       6.129  11.826  16.403  1.00  0.00    -0.390 OA
HETATM   35  H45 UNL     1       6.372  11.467  15.523  1.00  0.00     0.210 HD
ENDBRANCH  27  34
BRANCH  28  36
HETATM   36  O6  UNL     1       4.648  10.172  14.598  1.00  0.00    -0.388 OA
HETATM   37  H47 UNL     1       3.961  10.038  13.911  1.00  0.00     0.210 HD
ENDBRANCH  28  36
ENDBRANCH  22  23
ENDBRANCH  15  22
BRANCH   1  38
HETATM   38  C8  UNL     1      -7.627   4.627  13.833  1.00  0.00     0.008 C 
HETATM   39  C9  UNL     1      -8.191   4.435  12.422  1.00  0.00     0.014 C 
BRANCH  38  40
HETATM   40  C7  UNL     1      -8.117   5.912  14.493  1.00  0.00    -0.026 C 
HETATM   41  C6  UNL     1      -9.216   6.631  14.200  1.00  0.00    -0.026 C 
BRANCH  41  42
HETATM   42  C4  UNL     1      -9.673   7.912  14.884  1.00  0.00     0.007 C 
HETATM   43  C5  UNL     1      -9.284   8.009  16.367  1.00  0.00     0.014 C 
BRANCH  42  44
HETATM   44  C2  UNL     1     -11.186   8.170  14.619  1.00  0.00    -0.015 C 
HETATM   45  C1  UNL     1     -11.449   9.129  13.451  1.00  0.00     0.010 C 
HETATM   46  C3  UNL     1     -11.964   6.868  14.397  1.00  0.00     0.010 C 
ENDBRANCH  42  44
ENDBRANCH  41  42
ENDBRANCH  38  40
ENDBRANCH   1  38
TORSDOF 11
ENDMDL
