MODEL 1
REMARK minimizedAffinity -7.03026295
REMARK CNNscore 0.520316899
REMARK CNNaffinity 6.2615819
REMARK  21 active torsions:
REMARK  status: ('A' for Active; 'I' for Inactive)
REMARK    1  A    between atoms: C2_2  and  C18_25 
REMARK    2  A    between atoms: C3_3  and  C4_4 
REMARK    3  A    between atoms: C4_4  and  O2_6 
REMARK    4  A    between atoms: O2_6  and  C5_7 
REMARK    5  A    between atoms: C5_7  and  C6_8 
REMARK    6  A    between atoms: C6_8  and  C7_9 
REMARK    7  A    between atoms: C7_9  and  C8_10 
REMARK    8  A    between atoms: C8_10  and  C9_11 
REMARK    9  A    between atoms: C9_11  and  C10_12 
REMARK   10  A    between atoms: C10_12  and  C11_13 
REMARK   11  A    between atoms: C11_13  and  C12_14 
REMARK       I    between atoms: C12_14  and  N1_16 
REMARK   12  A    between atoms: N1_16  and  C13_17 
REMARK   13  A    between atoms: C17_23  and  O4_24 
REMARK   14  A    between atoms: C18_25  and  C19_26 
REMARK   15  A    between atoms: C21_29  and  C22_30 
REMARK   16  A    between atoms: C22_30  and  C23_31 
REMARK   17  A    between atoms: C24_32  and  C25_33 
REMARK   18  A    between atoms: C25_33  and  C27_35 
REMARK   19  A    between atoms: C27_35  and  O6_37 
REMARK   20  A    between atoms: C29_38  and  O7_39 
REMARK   21  A    between atoms: C30_40  and  O8_41 
ROOT
HETATM    1  C1  UNL     1      -3.381  49.765 -28.016  1.00  0.00     0.043 C 
HETATM    2  C2  UNL     1      -4.065  48.830 -27.056  1.00  0.00    -0.075 C 
HETATM    3  C3  UNL     1      -4.992  47.914 -27.412  1.00  0.00     0.084 C 
ENDROOT
BRANCH   3   4
HETATM    4  C4  UNL     1      -5.553  47.738 -28.773  1.00  0.00     0.283 C 
HETATM    5  O1  UNL     1      -4.965  47.914 -29.825  1.00  0.00    -0.260 OA
BRANCH   4   6
HETATM    6  O2  UNL     1      -6.853  47.367 -28.633  1.00  0.00    -0.318 OA
BRANCH   6   7
HETATM    7  C5  UNL     1      -7.400  47.561 -27.320  1.00  0.00     0.179 C 
BRANCH   7   8
HETATM    8  C6  UNL     1      -8.914  47.750 -27.392  1.00  0.00     0.027 C 
BRANCH   8   9
HETATM    9  C7  UNL     1      -9.578  46.871 -28.454  1.00  0.00     0.002 C 
BRANCH   9  10
HETATM   10  C8  UNL     1     -10.964  47.381 -28.860  1.00  0.00     0.000 C 
BRANCH  10  11
HETATM   11  C9  UNL     1     -11.785  47.919 -27.685  1.00  0.00     0.000 C 
BRANCH  11  12
HETATM   12  C10 UNL     1     -13.056  47.132 -27.347  1.00  0.00     0.009 C 
BRANCH  12  13
HETATM   13  C11 UNL     1     -13.184  46.783 -25.865  1.00  0.00     0.103 C 
BRANCH  13  14
HETATM   14  C12 UNL     1     -14.622  46.832 -25.378  1.00  0.00     0.218 C 
HETATM   15  O3  UNL     1     -15.056  47.680 -24.610  1.00  0.00    -0.274 OA
HETATM   16  N1  UNL     1     -15.387  45.801 -25.879  1.00  0.00    -0.349 N 
HETATM   17  H19 UNL     1     -15.043  45.340 -26.714  1.00  0.00     0.163 HD
BRANCH  16  18
HETATM   18  C13 UNL     1     -16.835  45.762 -25.665  1.00  0.00     0.159 C 
HETATM   19  C14 UNL     1     -17.239  46.301 -24.295  1.00  0.00     0.035 C 
HETATM   20  C15 UNL     1     -17.117  45.213 -23.239  1.00  0.00     0.022 C 
HETATM   21  C16 UNL     1     -18.021  44.043 -23.605  1.00  0.00     0.121 C 
HETATM   22  N2  UNL     1     -17.770  43.519 -24.949  1.00  0.00    -0.373 N 
HETATM   23  C17 UNL     1     -17.265  44.314 -25.818  1.00  0.00     0.134 C 
ATOM     24  H2  UNL     1     -17.990  42.552 -25.186  1.00  0.00     0.161 HD
BRANCH  23  25
HETATM   25  O4  UNL     1     -17.010  43.788 -27.026  1.00  0.00    -0.348 OA
HETATM   26  H27 UNL     1     -17.330  42.869 -26.999  1.00  0.00     0.219 HD
ENDBRANCH  23  25
ENDBRANCH  16  18
ENDBRANCH  13  14
ENDBRANCH  12  13
ENDBRANCH  11  12
ENDBRANCH  10  11
ENDBRANCH   9  10
ENDBRANCH   8   9
ENDBRANCH   7   8
ENDBRANCH   6   7
ENDBRANCH   4   6
ENDBRANCH   3   4
BRANCH   2  27
HETATM   27  C18 UNL     1      -3.646  48.958 -25.599  1.00  0.00     0.068 C 
BRANCH  27  28
HETATM   28  C19 UNL     1      -4.099  50.285 -24.957  1.00  0.00     0.156 C 
HETATM   29  O5  UNL     1      -2.929  50.930 -24.409  1.00  0.00    -0.382 OA
HETATM   30  C20 UNL     1      -3.269  51.992 -23.521  1.00  0.00     0.175 C 
HETATM   31  C21 UNL     1      -3.814  51.414 -22.207  1.00  0.00     0.044 C 
HETATM   32  C29 UNL     1      -4.530  50.071 -22.468  1.00  0.00     0.155 C 
HETATM   33  C30 UNL     1      -5.162  50.032 -23.865  1.00  0.00     0.176 C 
BRANCH  31  34
HETATM   34  C22 UNL     1      -2.656  51.239 -21.197  1.00  0.00     0.036 C 
BRANCH  34  35
HETATM   35  C23 UNL     1      -1.298  51.439 -21.813  1.00  0.00    -0.030 C 
HETATM   36  C24 UNL     1      -0.451  52.411 -21.436  1.00  0.00    -0.024 C 
BRANCH  36  37
HETATM   37  C25 UNL     1       0.905  52.740 -22.037  1.00  0.00     0.032 C 
HETATM   38  C26 UNL     1       0.828  53.358 -23.439  1.00  0.00     0.017 C 
BRANCH  37  39
HETATM   39  C27 UNL     1       1.706  53.629 -21.048  1.00  0.00     0.121 C 
HETATM   40  C28 UNL     1       0.976  53.914 -19.741  1.00  0.00     0.040 C 
BRANCH  39  41
HETATM   41  O6  UNL     1       2.011  54.895 -21.653  1.00  0.00    -0.395 OA
HETATM   42  H46 UNL     1       1.167  55.337 -21.851  1.00  0.00     0.210 HD
ENDBRANCH  39  41
ENDBRANCH  37  39
ENDBRANCH  36  37
ENDBRANCH  34  35
ENDBRANCH  31  34
BRANCH  32  43
HETATM   43  O7  UNL     1      -5.588  49.909 -21.509  1.00  0.00    -0.392 OA
HETATM   44  H48 UNL     1      -5.575  48.973 -21.232  1.00  0.00     0.210 HD
ENDBRANCH  32  43
BRANCH  33  45
HETATM   45  O8  UNL     1      -6.174  51.058 -23.925  1.00  0.00    -0.390 OA
HETATM   46  H50 UNL     1      -6.650  50.988 -23.074  1.00  0.00     0.210 HD
ENDBRANCH  33  45
ENDBRANCH  27  28
ENDBRANCH   2  27
TORSDOF 21
ENDMDL
MODEL 2
REMARK minimizedAffinity -7.71408606
REMARK CNNscore 0.498159856
REMARK CNNaffinity 6.74010086
REMARK  21 active torsions:
REMARK  status: ('A' for Active; 'I' for Inactive)
REMARK    1  A    between atoms: C2_2  and  C18_25 
REMARK    2  A    between atoms: C3_3  and  C4_4 
REMARK    3  A    between atoms: C4_4  and  O2_6 
REMARK    4  A    between atoms: O2_6  and  C5_7 
REMARK    5  A    between atoms: C5_7  and  C6_8 
REMARK    6  A    between atoms: C6_8  and  C7_9 
REMARK    7  A    between atoms: C7_9  and  C8_10 
REMARK    8  A    between atoms: C8_10  and  C9_11 
REMARK    9  A    between atoms: C9_11  and  C10_12 
REMARK   10  A    between atoms: C10_12  and  C11_13 
REMARK   11  A    between atoms: C11_13  and  C12_14 
REMARK       I    between atoms: C12_14  and  N1_16 
REMARK   12  A    between atoms: N1_16  and  C13_17 
REMARK   13  A    between atoms: C17_23  and  O4_24 
REMARK   14  A    between atoms: C18_25  and  C19_26 
REMARK   15  A    between atoms: C21_29  and  C22_30 
REMARK   16  A    between atoms: C22_30  and  C23_31 
REMARK   17  A    between atoms: C24_32  and  C25_33 
REMARK   18  A    between atoms: C25_33  and  C27_35 
REMARK   19  A    between atoms: C27_35  and  O6_37 
REMARK   20  A    between atoms: C29_38  and  O7_39 
REMARK   21  A    between atoms: C30_40  and  O8_41 
ROOT
HETATM    1  C1  UNL     1      -0.152  51.007 -21.961  1.00  0.00     0.043 C 
HETATM    2  C2  UNL     1       0.248  52.096 -22.921  1.00  0.00    -0.075 C 
HETATM    3  C3  UNL     1       0.775  53.283 -22.551  1.00  0.00     0.084 C 
ENDROOT
BRANCH   3   4
HETATM    4  C4  UNL     1       0.962  53.749 -21.156  1.00  0.00     0.283 C 
HETATM    5  O1  UNL     1       1.910  54.382 -20.727  1.00  0.00    -0.260 OA
BRANCH   4   6
HETATM    6  O2  UNL     1      -0.107  53.318 -20.437  1.00  0.00    -0.318 OA
BRANCH   6   7
HETATM    7  C5  UNL     1       0.082  53.310 -19.014  1.00  0.00     0.179 C 
BRANCH   7   8
HETATM    8  C6  UNL     1       0.421  51.903 -18.525  1.00  0.00     0.027 C 
BRANCH   8   9
HETATM    9  C7  UNL     1       0.923  51.874 -17.080  1.00  0.00     0.002 C 
BRANCH   9  10
HETATM   10  C8  UNL     1       0.633  50.543 -16.381  1.00  0.00     0.000 C 
BRANCH  10  11
HETATM   11  C9  UNL     1       0.496  50.668 -14.861  1.00  0.00     0.000 C 
BRANCH  11  12
HETATM   12  C10 UNL     1       0.430  52.098 -14.315  1.00  0.00     0.009 C 
BRANCH  12  13
HETATM   13  C11 UNL     1       1.044  52.252 -12.924  1.00  0.00     0.103 C 
BRANCH  13  14
HETATM   14  C12 UNL     1       0.104  52.934 -11.945  1.00  0.00     0.218 C 
HETATM   15  O3  UNL     1       0.306  54.037 -11.457  1.00  0.00    -0.274 OA
HETATM   16  N1  UNL     1      -0.999  52.163 -11.646  1.00  0.00    -0.349 N 
HETATM   17  H19 UNL     1      -1.233  51.425 -12.301  1.00  0.00     0.163 HD
BRANCH  16  18
HETATM   18  C13 UNL     1      -2.106  52.704 -10.855  1.00  0.00     0.159 C 
HETATM   19  C14 UNL     1      -2.216  52.051  -9.478  1.00  0.00     0.035 C 
HETATM   20  C15 UNL     1      -2.998  50.749  -9.570  1.00  0.00     0.022 C 
HETATM   21  C16 UNL     1      -4.397  51.031 -10.103  1.00  0.00     0.121 C 
HETATM   22  N2  UNL     1      -4.391  51.747 -11.382  1.00  0.00    -0.373 N 
HETATM   23  C17 UNL     1      -3.375  52.477 -11.656  1.00  0.00     0.134 C 
ATOM     24  H2  UNL     1      -5.172  51.666 -12.033  1.00  0.00     0.161 HD
BRANCH  23  25
HETATM   25  O4  UNL     1      -3.386  53.083 -12.853  1.00  0.00    -0.348 OA
HETATM   26  H27 UNL     1      -4.242  52.867 -13.264  1.00  0.00     0.219 HD
ENDBRANCH  23  25
ENDBRANCH  16  18
ENDBRANCH  13  14
ENDBRANCH  12  13
ENDBRANCH  11  12
ENDBRANCH  10  11
ENDBRANCH   9  10
ENDBRANCH   8   9
ENDBRANCH   7   8
ENDBRANCH   6   7
ENDBRANCH   4   6
ENDBRANCH   3   4
BRANCH   2  27
HETATM   27  C18 UNL     1       0.030  51.788 -24.394  1.00  0.00     0.068 C 
BRANCH  27  28
HETATM   28  C19 UNL     1      -1.424  52.024 -24.851  1.00  0.00     0.156 C 
HETATM   29  O5  UNL     1      -2.227  50.939 -24.339  1.00  0.00    -0.382 OA
HETATM   30  C20 UNL     1      -3.508  50.882 -24.961  1.00  0.00     0.175 C 
HETATM   31  C21 UNL     1      -3.363  50.364 -26.399  1.00  0.00     0.044 C 
HETATM   32  C29 UNL     1      -1.995  50.777 -26.982  1.00  0.00     0.155 C 
HETATM   33  C30 UNL     1      -1.508  52.106 -26.391  1.00  0.00     0.176 C 
BRANCH  31  34
HETATM   34  C22 UNL     1      -3.533  48.827 -26.417  1.00  0.00     0.036 C 
BRANCH  34  35
HETATM   35  C23 UNL     1      -4.474  48.323 -25.356  1.00  0.00    -0.030 C 
HETATM   36  C24 UNL     1      -5.798  48.194 -25.542  1.00  0.00    -0.024 C 
BRANCH  36  37
HETATM   37  C25 UNL     1      -6.837  47.763 -24.520  1.00  0.00     0.032 C 
HETATM   38  C26 UNL     1      -6.580  48.304 -23.109  1.00  0.00     0.017 C 
BRANCH  37  39
HETATM   39  C27 UNL     1      -8.254  48.130 -25.039  1.00  0.00     0.121 C 
HETATM   40  C28 UNL     1      -8.506  47.727 -26.488  1.00  0.00     0.040 C 
BRANCH  39  41
HETATM   41  O6  UNL     1      -8.466  49.546 -24.945  1.00  0.00    -0.395 OA
HETATM   42  H46 UNL     1      -7.806  49.980 -25.514  1.00  0.00     0.210 HD
ENDBRANCH  39  41
ENDBRANCH  37  39
ENDBRANCH  36  37
ENDBRANCH  34  35
ENDBRANCH  31  34
BRANCH  32  43
HETATM   43  O7  UNL     1      -2.125  50.956 -28.403  1.00  0.00    -0.392 OA
HETATM   44  H48 UNL     1      -1.324  50.574 -28.808  1.00  0.00     0.210 HD
ENDBRANCH  32  43
BRANCH  33  45
HETATM   45  O8  UNL     1      -2.447  53.133 -26.772  1.00  0.00    -0.390 OA
HETATM   46  H50 UNL     1      -2.640  52.957 -27.714  1.00  0.00     0.210 HD
ENDBRANCH  33  45
ENDBRANCH  27  28
ENDBRANCH   2  27
TORSDOF 21
ENDMDL
MODEL 3
REMARK minimizedAffinity -7.84377575
REMARK CNNscore 0.454097301
REMARK CNNaffinity 6.69028521
REMARK  21 active torsions:
REMARK  status: ('A' for Active; 'I' for Inactive)
REMARK    1  A    between atoms: C2_2  and  C18_25 
REMARK    2  A    between atoms: C3_3  and  C4_4 
REMARK    3  A    between atoms: C4_4  and  O2_6 
REMARK    4  A    between atoms: O2_6  and  C5_7 
REMARK    5  A    between atoms: C5_7  and  C6_8 
REMARK    6  A    between atoms: C6_8  and  C7_9 
REMARK    7  A    between atoms: C7_9  and  C8_10 
REMARK    8  A    between atoms: C8_10  and  C9_11 
REMARK    9  A    between atoms: C9_11  and  C10_12 
REMARK   10  A    between atoms: C10_12  and  C11_13 
REMARK   11  A    between atoms: C11_13  and  C12_14 
REMARK       I    between atoms: C12_14  and  N1_16 
REMARK   12  A    between atoms: N1_16  and  C13_17 
REMARK   13  A    between atoms: C17_23  and  O4_24 
REMARK   14  A    between atoms: C18_25  and  C19_26 
REMARK   15  A    between atoms: C21_29  and  C22_30 
REMARK   16  A    between atoms: C22_30  and  C23_31 
REMARK   17  A    between atoms: C24_32  and  C25_33 
REMARK   18  A    between atoms: C25_33  and  C27_35 
REMARK   19  A    between atoms: C27_35  and  O6_37 
REMARK   20  A    between atoms: C29_38  and  O7_39 
REMARK   21  A    between atoms: C30_40  and  O8_41 
ROOT
HETATM    1  C1  UNL     1      -1.550  51.864 -21.923  1.00  0.00     0.043 C 
HETATM    2  C2  UNL     1      -0.202  52.263 -22.464  1.00  0.00    -0.075 C 
HETATM    3  C3  UNL     1       0.750  52.898 -21.746  1.00  0.00     0.084 C 
ENDROOT
BRANCH   3   4
HETATM    4  C4  UNL     1       0.601  53.385 -20.354  1.00  0.00     0.283 C 
HETATM    5  O1  UNL     1       0.275  54.509 -20.014  1.00  0.00    -0.260 OA
BRANCH   4   6
HETATM    6  O2  UNL     1       0.919  52.356 -19.526  1.00  0.00    -0.318 OA
BRANCH   6   7
HETATM    7  C5  UNL     1       1.037  52.708 -18.139  1.00  0.00     0.179 C 
BRANCH   7   8
HETATM    8  C6  UNL     1       0.727  51.504 -17.251  1.00  0.00     0.027 C 
BRANCH   8   9
HETATM    9  C7  UNL     1       1.568  51.469 -15.974  1.00  0.00     0.002 C 
BRANCH   9  10
HETATM   10  C8  UNL     1       0.887  50.697 -14.840  1.00  0.00     0.000 C 
BRANCH  10  11
HETATM   11  C9  UNL     1       1.058  51.351 -13.466  1.00  0.00     0.000 C 
BRANCH  11  12
HETATM   12  C10 UNL     1       0.349  52.697 -13.278  1.00  0.00     0.009 C 
BRANCH  12  13
HETATM   13  C11 UNL     1      -0.382  52.822 -11.941  1.00  0.00     0.103 C 
BRANCH  13  14
HETATM   14  C12 UNL     1       0.076  54.027 -11.139  1.00  0.00     0.218 C 
HETATM   15  O3  UNL     1      -0.683  54.855 -10.652  1.00  0.00    -0.274 OA
HETATM   16  N1  UNL     1       1.448  54.102 -11.032  1.00  0.00    -0.349 N 
HETATM   17  H19 UNL     1       1.967  53.246 -11.195  1.00  0.00     0.163 HD
BRANCH  16  18
HETATM   18  C13 UNL     1       2.085  55.092 -10.162  1.00  0.00     0.159 C 
HETATM   19  C14 UNL     1       2.927  56.101 -10.940  1.00  0.00     0.035 C 
HETATM   20  C15 UNL     1       4.314  55.538 -11.211  1.00  0.00     0.022 C 
HETATM   21  C16 UNL     1       5.004  55.223  -9.891  1.00  0.00     0.121 C 
HETATM   22  N2  UNL     1       4.221  54.333  -9.030  1.00  0.00    -0.373 N 
HETATM   23  C17 UNL     1       2.949  54.324  -9.176  1.00  0.00     0.134 C 
ATOM     24  H2  UNL     1       4.675  53.739  -8.336  1.00  0.00     0.161 HD
BRANCH  23  25
HETATM   25  O4  UNL     1       2.268  53.466  -8.401  1.00  0.00    -0.348 OA
HETATM   26  H27 UNL     1       2.923  53.042  -7.818  1.00  0.00     0.219 HD
ENDBRANCH  23  25
ENDBRANCH  16  18
ENDBRANCH  13  14
ENDBRANCH  12  13
ENDBRANCH  11  12
ENDBRANCH  10  11
ENDBRANCH   9  10
ENDBRANCH   8   9
ENDBRANCH   7   8
ENDBRANCH   6   7
ENDBRANCH   4   6
ENDBRANCH   3   4
BRANCH   2  27
HETATM   27  C18 UNL     1       0.059  51.899 -23.917  1.00  0.00     0.068 C 
BRANCH  27  28
HETATM   28  C19 UNL     1      -0.839  52.674 -24.903  1.00  0.00     0.156 C 
HETATM   29  O5  UNL     1      -2.107  51.988 -24.975  1.00  0.00    -0.382 OA
HETATM   30  C20 UNL     1      -2.890  52.424 -26.083  1.00  0.00     0.175 C 
HETATM   31  C21 UNL     1      -2.292  51.877 -27.386  1.00  0.00     0.044 C 
HETATM   32  C29 UNL     1      -0.762  51.725 -27.252  1.00  0.00     0.155 C 
HETATM   33  C30 UNL     1      -0.174  52.768 -26.293  1.00  0.00     0.176 C 
BRANCH  31  34
HETATM   34  C22 UNL     1      -2.956  50.524 -27.736  1.00  0.00     0.036 C 
BRANCH  34  35
HETATM   35  C23 UNL     1      -3.024  49.579 -26.568  1.00  0.00    -0.030 C 
HETATM   36  C24 UNL     1      -4.153  49.324 -25.887  1.00  0.00    -0.024 C 
BRANCH  36  37
HETATM   37  C25 UNL     1      -4.314  48.445 -24.658  1.00  0.00     0.032 C 
HETATM   38  C26 UNL     1      -3.130  48.518 -23.686  1.00  0.00     0.017 C 
BRANCH  37  39
HETATM   39  C27 UNL     1      -5.663  48.771 -23.963  1.00  0.00     0.121 C 
HETATM   40  C28 UNL     1      -6.741  47.713 -24.176  1.00  0.00     0.040 C 
BRANCH  39  41
HETATM   41  O6  UNL     1      -6.185  50.017 -24.449  1.00  0.00    -0.395 OA
HETATM   42  H46 UNL     1      -6.345  49.915 -25.404  1.00  0.00     0.210 HD
ENDBRANCH  39  41
ENDBRANCH  37  39
ENDBRANCH  36  37
ENDBRANCH  34  35
ENDBRANCH  31  34
BRANCH  32  43
HETATM   43  O7  UNL     1      -0.154  51.927 -28.539  1.00  0.00    -0.392 OA
HETATM   44  H48 UNL     1       0.555  51.262 -28.622  1.00  0.00     0.210 HD
ENDBRANCH  32  43
BRANCH  33  45
HETATM   45  O8  UNL     1      -0.411  54.074 -26.858  1.00  0.00    -0.390 OA
HETATM   46  H50 UNL     1      -0.197  53.978 -27.807  1.00  0.00     0.210 HD
ENDBRANCH  33  45
ENDBRANCH  27  28
ENDBRANCH   2  27
TORSDOF 21
ENDMDL
MODEL 4
REMARK minimizedAffinity -8.00381184
REMARK CNNscore 0.410602063
REMARK CNNaffinity 6.43573999
REMARK  21 active torsions:
REMARK  status: ('A' for Active; 'I' for Inactive)
REMARK    1  A    between atoms: C2_2  and  C18_25 
REMARK    2  A    between atoms: C3_3  and  C4_4 
REMARK    3  A    between atoms: C4_4  and  O2_6 
REMARK    4  A    between atoms: O2_6  and  C5_7 
REMARK    5  A    between atoms: C5_7  and  C6_8 
REMARK    6  A    between atoms: C6_8  and  C7_9 
REMARK    7  A    between atoms: C7_9  and  C8_10 
REMARK    8  A    between atoms: C8_10  and  C9_11 
REMARK    9  A    between atoms: C9_11  and  C10_12 
REMARK   10  A    between atoms: C10_12  and  C11_13 
REMARK   11  A    between atoms: C11_13  and  C12_14 
REMARK       I    between atoms: C12_14  and  N1_16 
REMARK   12  A    between atoms: N1_16  and  C13_17 
REMARK   13  A    between atoms: C17_23  and  O4_24 
REMARK   14  A    between atoms: C18_25  and  C19_26 
REMARK   15  A    between atoms: C21_29  and  C22_30 
REMARK   16  A    between atoms: C22_30  and  C23_31 
REMARK   17  A    between atoms: C24_32  and  C25_33 
REMARK   18  A    between atoms: C25_33  and  C27_35 
REMARK   19  A    between atoms: C27_35  and  O6_37 
REMARK   20  A    between atoms: C29_38  and  O7_39 
REMARK   21  A    between atoms: C30_40  and  O8_41 
ROOT
HETATM    1  C1  UNL     1      -1.591  51.963 -21.699  1.00  0.00     0.043 C 
HETATM    2  C2  UNL     1      -0.428  52.120 -22.643  1.00  0.00    -0.075 C 
HETATM    3  C3  UNL     1       0.694  52.817 -22.361  1.00  0.00     0.084 C 
ENDROOT
BRANCH   3   4
HETATM    4  C4  UNL     1       0.932  53.612 -21.132  1.00  0.00     0.283 C 
HETATM    5  O1  UNL     1       1.719  54.534 -21.010  1.00  0.00    -0.260 OA
BRANCH   4   6
HETATM    6  O2  UNL     1       0.129  53.107 -20.159  1.00  0.00    -0.318 OA
BRANCH   6   7
HETATM    7  C5  UNL     1       0.795  52.791 -18.927  1.00  0.00     0.179 C 
BRANCH   7   8
HETATM    8  C6  UNL     1       0.136  51.589 -18.254  1.00  0.00     0.027 C 
BRANCH   8   9
HETATM    9  C7  UNL     1       0.794  51.210 -16.926  1.00  0.00     0.002 C 
BRANCH   9  10
HETATM   10  C8  UNL     1       0.323  49.851 -16.400  1.00  0.00     0.000 C 
BRANCH  10  11
HETATM   11  C9  UNL     1       0.191  49.797 -14.876  1.00  0.00     0.000 C 
BRANCH  11  12
HETATM   12  C10 UNL     1      -0.092  51.136 -14.186  1.00  0.00     0.009 C 
BRANCH  12  13
HETATM   13  C11 UNL     1      -1.576  51.502 -14.145  1.00  0.00     0.103 C 
BRANCH  13  14
HETATM   14  C12 UNL     1      -2.101  51.644 -12.727  1.00  0.00     0.218 C 
HETATM   15  O3  UNL     1      -2.902  50.875 -12.214  1.00  0.00    -0.274 OA
HETATM   16  N1  UNL     1      -1.592  52.750 -12.081  1.00  0.00    -0.349 N 
HETATM   17  H19 UNL     1      -0.736  53.145 -12.455  1.00  0.00     0.163 HD
BRANCH  16  18
HETATM   18  C13 UNL     1      -1.842  52.975 -10.656  1.00  0.00     0.159 C 
HETATM   19  C14 UNL     1      -2.490  54.330 -10.382  1.00  0.00     0.035 C 
HETATM   20  C15 UNL     1      -1.430  55.419 -10.304  1.00  0.00     0.022 C 
HETATM   21  C16 UNL     1      -0.448  55.097  -9.185  1.00  0.00     0.121 C 
HETATM   22  N2  UNL     1       0.154  53.768  -9.313  1.00  0.00    -0.373 N 
HETATM   23  C17 UNL     1      -0.501  52.871  -9.951  1.00  0.00     0.134 C 
ATOM     24  H2  UNL     1       1.067  53.563  -8.906  1.00  0.00     0.161 HD
BRANCH  23  25
HETATM   25  O4  UNL     1       0.100  51.679 -10.084  1.00  0.00    -0.348 OA
HETATM   26  H27 UNL     1       0.938  51.736  -9.591  1.00  0.00     0.219 HD
ENDBRANCH  23  25
ENDBRANCH  16  18
ENDBRANCH  13  14
ENDBRANCH  12  13
ENDBRANCH  11  12
ENDBRANCH  10  11
ENDBRANCH   9  10
ENDBRANCH   8   9
ENDBRANCH   7   8
ENDBRANCH   6   7
ENDBRANCH   4   6
ENDBRANCH   3   4
BRANCH   2  27
HETATM   27  C18 UNL     1      -0.572  51.424 -23.987  1.00  0.00     0.068 C 
BRANCH  27  28
HETATM   28  C19 UNL     1      -1.984  51.566 -24.591  1.00  0.00     0.156 C 
HETATM   29  O5  UNL     1      -2.694  50.333 -24.344  1.00  0.00    -0.382 OA
HETATM   30  C20 UNL     1      -3.879  50.231 -25.128  1.00  0.00     0.175 C 
HETATM   31  C21 UNL     1      -3.509  49.959 -26.593  1.00  0.00     0.044 C 
HETATM   32  C29 UNL     1      -2.149  50.605 -26.931  1.00  0.00     0.155 C 
HETATM   33  C30 UNL     1      -1.905  51.873 -26.103  1.00  0.00     0.176 C 
BRANCH  31  34
HETATM   34  C22 UNL     1      -3.478  48.434 -26.846  1.00  0.00     0.036 C 
BRANCH  34  35
HETATM   35  C23 UNL     1      -4.209  48.026 -28.097  1.00  0.00    -0.030 C 
HETATM   36  C24 UNL     1      -5.521  48.238 -28.289  1.00  0.00    -0.024 C 
BRANCH  36  37
HETATM   37  C25 UNL     1      -6.363  47.807 -29.478  1.00  0.00     0.032 C 
HETATM   38  C26 UNL     1      -7.849  48.166 -29.347  1.00  0.00     0.017 C 
BRANCH  37  39
HETATM   39  C27 UNL     1      -5.738  48.366 -30.784  1.00  0.00     0.121 C 
HETATM   40  C28 UNL     1      -4.902  47.350 -31.555  1.00  0.00     0.040 C 
BRANCH  39  41
HETATM   41  O6  UNL     1      -4.888  49.484 -30.489  1.00  0.00    -0.395 OA
HETATM   42  H46 UNL     1      -4.170  49.164 -29.915  1.00  0.00     0.210 HD
ENDBRANCH  39  41
ENDBRANCH  37  39
ENDBRANCH  36  37
ENDBRANCH  34  35
ENDBRANCH  31  34
BRANCH  32  43
HETATM   43  O7  UNL     1      -2.140  50.985 -28.318  1.00  0.00    -0.392 OA
HETATM   44  H48 UNL     1      -1.256  50.760 -28.665  1.00  0.00     0.210 HD
ENDBRANCH  32  43
BRANCH  33  45
HETATM   45  O8  UNL     1      -2.919  52.836 -26.456  1.00  0.00    -0.390 OA
HETATM   46  H50 UNL     1      -2.981  52.787 -27.430  1.00  0.00     0.210 HD
ENDBRANCH  33  45
ENDBRANCH  27  28
ENDBRANCH   2  27
TORSDOF 21
ENDMDL
MODEL 5
REMARK minimizedAffinity -7.54267025
REMARK CNNscore 0.410513908
REMARK CNNaffinity 6.60912466
REMARK  21 active torsions:
REMARK  status: ('A' for Active; 'I' for Inactive)
REMARK    1  A    between atoms: C2_2  and  C18_25 
REMARK    2  A    between atoms: C3_3  and  C4_4 
REMARK    3  A    between atoms: C4_4  and  O2_6 
REMARK    4  A    between atoms: O2_6  and  C5_7 
REMARK    5  A    between atoms: C5_7  and  C6_8 
REMARK    6  A    between atoms: C6_8  and  C7_9 
REMARK    7  A    between atoms: C7_9  and  C8_10 
REMARK    8  A    between atoms: C8_10  and  C9_11 
REMARK    9  A    between atoms: C9_11  and  C10_12 
REMARK   10  A    between atoms: C10_12  and  C11_13 
REMARK   11  A    between atoms: C11_13  and  C12_14 
REMARK       I    between atoms: C12_14  and  N1_16 
REMARK   12  A    between atoms: N1_16  and  C13_17 
REMARK   13  A    between atoms: C17_23  and  O4_24 
REMARK   14  A    between atoms: C18_25  and  C19_26 
REMARK   15  A    between atoms: C21_29  and  C22_30 
REMARK   16  A    between atoms: C22_30  and  C23_31 
REMARK   17  A    between atoms: C24_32  and  C25_33 
REMARK   18  A    between atoms: C25_33  and  C27_35 
REMARK   19  A    between atoms: C27_35  and  O6_37 
REMARK   20  A    between atoms: C29_38  and  O7_39 
REMARK   21  A    between atoms: C30_40  and  O8_41 
ROOT
HETATM    1  C1  UNL     1       1.060  54.695 -23.919  1.00  0.00     0.043 C 
HETATM    2  C2  UNL     1       0.655  53.315 -23.472  1.00  0.00    -0.075 C 
HETATM    3  C3  UNL     1       0.614  52.913 -22.183  1.00  0.00     0.084 C 
ENDROOT
BRANCH   3   4
HETATM    4  C4  UNL     1       1.041  53.717 -21.013  1.00  0.00     0.283 C 
HETATM    5  O1  UNL     1       2.054  54.390 -20.930  1.00  0.00    -0.260 OA
BRANCH   4   6
HETATM    6  O2  UNL     1       0.109  53.547 -20.040  1.00  0.00    -0.318 OA
BRANCH   6   7
HETATM    7  C5  UNL     1       0.493  52.658 -18.980  1.00  0.00     0.179 C 
BRANCH   7   8
HETATM    8  C6  UNL     1      -0.265  51.336 -19.086  1.00  0.00     0.027 C 
BRANCH   8   9
HETATM    9  C7  UNL     1      -0.645  50.752 -17.724  1.00  0.00     0.002 C 
BRANCH   9  10
HETATM   10  C8  UNL     1       0.390  51.066 -16.639  1.00  0.00     0.000 C 
BRANCH  10  11
HETATM   11  C9  UNL     1      -0.143  50.883 -15.215  1.00  0.00     0.000 C 
BRANCH  11  12
HETATM   12  C10 UNL     1      -1.559  50.307 -15.104  1.00  0.00     0.009 C 
BRANCH  12  13
HETATM   13  C11 UNL     1      -2.601  51.326 -14.646  1.00  0.00     0.103 C 
BRANCH  13  14
HETATM   14  C12 UNL     1      -2.559  51.569 -13.148  1.00  0.00     0.218 C 
HETATM   15  O3  UNL     1      -3.387  51.132 -12.360  1.00  0.00    -0.274 OA
HETATM   16  N1  UNL     1      -1.493  52.357 -12.769  1.00  0.00    -0.349 N 
HETATM   17  H19 UNL     1      -0.716  52.418 -13.418  1.00  0.00     0.163 HD
BRANCH  16  18
HETATM   18  C13 UNL     1      -1.178  52.571 -11.355  1.00  0.00     0.159 C 
HETATM   19  C14 UNL     1      -2.423  52.832 -10.510  1.00  0.00     0.035 C 
HETATM   20  C15 UNL     1      -2.812  54.302 -10.582  1.00  0.00     0.022 C 
HETATM   21  C16 UNL     1      -1.666  55.160 -10.064  1.00  0.00     0.121 C 
HETATM   22  N2  UNL     1      -0.399  54.905 -10.755  1.00  0.00    -0.373 N 
HETATM   23  C17 UNL     1      -0.228  53.754 -11.288  1.00  0.00     0.134 C 
ATOM     24  H2  UNL     1       0.324  55.622 -10.808  1.00  0.00     0.161 HD
BRANCH  23  25
HETATM   25  O4  UNL     1       0.926  53.571 -11.948  1.00  0.00    -0.348 OA
HETATM   26  H27 UNL     1       1.444  54.387 -11.830  1.00  0.00     0.219 HD
ENDBRANCH  23  25
ENDBRANCH  16  18
ENDBRANCH  13  14
ENDBRANCH  12  13
ENDBRANCH  11  12
ENDBRANCH  10  11
ENDBRANCH   9  10
ENDBRANCH   8   9
ENDBRANCH   7   8
ENDBRANCH   6   7
ENDBRANCH   4   6
ENDBRANCH   3   4
BRANCH   2  27
HETATM   27  C18 UNL     1       0.270  52.349 -24.582  1.00  0.00     0.068 C 
BRANCH  27  28
HETATM   28  C19 UNL     1      -1.247  52.324 -24.859  1.00  0.00     0.156 C 
HETATM   29  O5  UNL     1      -1.801  51.184 -24.166  1.00  0.00    -0.382 OA
HETATM   30  C20 UNL     1      -3.121  50.880 -24.607  1.00  0.00     0.175 C 
HETATM   31  C21 UNL     1      -3.068  50.256 -26.008  1.00  0.00     0.044 C 
HETATM   32  C29 UNL     1      -1.863  50.811 -26.797  1.00  0.00     0.155 C 
HETATM   33  C30 UNL     1      -1.526  52.246 -26.376  1.00  0.00     0.176 C 
BRANCH  31  34
HETATM   34  C22 UNL     1      -2.993  48.716 -25.890  1.00  0.00     0.036 C 
BRANCH  34  35
HETATM   35  C23 UNL     1      -4.180  48.117 -25.185  1.00  0.00    -0.030 C 
HETATM   36  C24 UNL     1      -5.286  48.815 -24.877  1.00  0.00    -0.024 C 
BRANCH  36  37
HETATM   37  C25 UNL     1      -6.504  48.326 -24.111  1.00  0.00     0.032 C 
HETATM   38  C26 UNL     1      -6.193  47.220 -23.094  1.00  0.00     0.017 C 
BRANCH  37  39
HETATM   39  C27 UNL     1      -7.223  49.537 -23.458  1.00  0.00     0.121 C 
HETATM   40  C28 UNL     1      -6.283  50.657 -23.027  1.00  0.00     0.040 C 
BRANCH  39  41
HETATM   41  O6  UNL     1      -7.948  49.115 -22.293  1.00  0.00    -0.395 OA
HETATM   42  H46 UNL     1      -7.301  48.760 -21.657  1.00  0.00     0.210 HD
ENDBRANCH  39  41
ENDBRANCH  37  39
ENDBRANCH  36  37
ENDBRANCH  34  35
ENDBRANCH  31  34
BRANCH  32  43
HETATM   43  O7  UNL     1      -2.187  50.834 -28.197  1.00  0.00    -0.392 OA
HETATM   44  H48 UNL     1      -1.390  50.539 -28.676  1.00  0.00     0.210 HD
ENDBRANCH  32  43
BRANCH  33  45
HETATM   45  O8  UNL     1      -2.655  53.083 -26.705  1.00  0.00    -0.390 OA
HETATM   46  H50 UNL     1      -2.928  52.793 -27.597  1.00  0.00     0.210 HD
ENDBRANCH  33  45
ENDBRANCH  27  28
ENDBRANCH   2  27
TORSDOF 21
ENDMDL
MODEL 6
REMARK minimizedAffinity -7.38869905
REMARK CNNscore 0.399937689
REMARK CNNaffinity 6.63491821
REMARK  21 active torsions:
REMARK  status: ('A' for Active; 'I' for Inactive)
REMARK    1  A    between atoms: C2_2  and  C18_25 
REMARK    2  A    between atoms: C3_3  and  C4_4 
REMARK    3  A    between atoms: C4_4  and  O2_6 
REMARK    4  A    between atoms: O2_6  and  C5_7 
REMARK    5  A    between atoms: C5_7  and  C6_8 
REMARK    6  A    between atoms: C6_8  and  C7_9 
REMARK    7  A    between atoms: C7_9  and  C8_10 
REMARK    8  A    between atoms: C8_10  and  C9_11 
REMARK    9  A    between atoms: C9_11  and  C10_12 
REMARK   10  A    between atoms: C10_12  and  C11_13 
REMARK   11  A    between atoms: C11_13  and  C12_14 
REMARK       I    between atoms: C12_14  and  N1_16 
REMARK   12  A    between atoms: N1_16  and  C13_17 
REMARK   13  A    between atoms: C17_23  and  O4_24 
REMARK   14  A    between atoms: C18_25  and  C19_26 
REMARK   15  A    between atoms: C21_29  and  C22_30 
REMARK   16  A    between atoms: C22_30  and  C23_31 
REMARK   17  A    between atoms: C24_32  and  C25_33 
REMARK   18  A    between atoms: C25_33  and  C27_35 
REMARK   19  A    between atoms: C27_35  and  O6_37 
REMARK   20  A    between atoms: C29_38  and  O7_39 
REMARK   21  A    between atoms: C30_40  and  O8_41 
ROOT
HETATM    1  C1  UNL     1      -2.920  48.603 -27.000  1.00  0.00     0.043 C 
HETATM    2  C2  UNL     1      -4.289  48.447 -26.393  1.00  0.00    -0.075 C 
HETATM    3  C3  UNL     1      -5.407  48.162 -27.096  1.00  0.00     0.084 C 
ENDROOT
BRANCH   3   4
HETATM    4  C4  UNL     1      -5.494  48.046 -28.572  1.00  0.00     0.283 C 
HETATM    5  O1  UNL     1      -4.563  47.875 -29.338  1.00  0.00    -0.260 OA
BRANCH   4   6
HETATM    6  O2  UNL     1      -6.801  48.192 -28.915  1.00  0.00    -0.318 OA
BRANCH   6   7
HETATM    7  C5  UNL     1      -7.312  47.181 -29.797  1.00  0.00     0.179 C 
BRANCH   7   8
HETATM    8  C6  UNL     1      -6.234  46.145 -30.109  1.00  0.00     0.027 C 
BRANCH   8   9
HETATM    9  C7  UNL     1      -6.077  45.875 -31.606  1.00  0.00     0.002 C 
BRANCH   9  10
HETATM   10  C8  UNL     1      -5.931  44.384 -31.925  1.00  0.00     0.000 C 
BRANCH  10  11
HETATM   11  C9  UNL     1      -4.618  44.035 -32.630  1.00  0.00     0.000 C 
BRANCH  11  12
HETATM   12  C10 UNL     1      -4.455  42.568 -33.043  1.00  0.00     0.009 C 
BRANCH  12  13
HETATM   13  C11 UNL     1      -3.401  42.351 -34.129  1.00  0.00     0.103 C 
BRANCH  13  14
HETATM   14  C12 UNL     1      -3.814  41.294 -35.138  1.00  0.00     0.218 C 
HETATM   15  O3  UNL     1      -4.298  41.545 -36.233  1.00  0.00    -0.274 OA
HETATM   16  N1  UNL     1      -3.605  40.011 -34.678  1.00  0.00    -0.349 N 
HETATM   17  H19 UNL     1      -2.944  39.901 -33.917  1.00  0.00     0.163 HD
BRANCH  16  18
HETATM   18  C13 UNL     1      -3.781  38.855 -35.558  1.00  0.00     0.159 C 
HETATM   19  C14 UNL     1      -5.246  38.607 -35.913  1.00  0.00     0.035 C 
HETATM   20  C15 UNL     1      -5.927  37.799 -34.817  1.00  0.00     0.022 C 
HETATM   21  C16 UNL     1      -5.216  36.461 -34.654  1.00  0.00     0.121 C 
HETATM   22  N2  UNL     1      -3.779  36.599 -34.406  1.00  0.00    -0.373 N 
HETATM   23  C17 UNL     1      -3.196  37.655 -34.835  1.00  0.00     0.134 C 
ATOM     24  H2  UNL     1      -3.260  35.876 -33.908  1.00  0.00     0.161 HD
BRANCH  23  25
HETATM   25  O4  UNL     1      -1.888  37.767 -34.553  1.00  0.00    -0.348 OA
HETATM   26  H27 UNL     1      -1.633  36.945 -34.098  1.00  0.00     0.219 HD
ENDBRANCH  23  25
ENDBRANCH  16  18
ENDBRANCH  13  14
ENDBRANCH  12  13
ENDBRANCH  11  12
ENDBRANCH  10  11
ENDBRANCH   9  10
ENDBRANCH   8   9
ENDBRANCH   7   8
ENDBRANCH   6   7
ENDBRANCH   4   6
ENDBRANCH   3   4
BRANCH   2  27
HETATM   27  C18 UNL     1      -4.365  48.625 -24.885  1.00  0.00     0.068 C 
BRANCH  27  28
HETATM   28  C19 UNL     1      -4.561  50.095 -24.461  1.00  0.00     0.156 C 
HETATM   29  O5  UNL     1      -3.410  50.840 -24.914  1.00  0.00    -0.382 OA
HETATM   30  C20 UNL     1      -3.331  52.126 -24.306  1.00  0.00     0.175 C 
HETATM   31  C21 UNL     1      -2.909  51.979 -22.837  1.00  0.00     0.044 C 
HETATM   32  C29 UNL     1      -3.421  50.641 -22.264  1.00  0.00     0.155 C 
HETATM   33  C30 UNL     1      -4.733  50.207 -22.930  1.00  0.00     0.176 C 
BRANCH  31  34
HETATM   34  C22 UNL     1      -1.370  52.079 -22.726  1.00  0.00     0.036 C 
BRANCH  34  35
HETATM   35  C23 UNL     1      -0.720  52.616 -23.971  1.00  0.00    -0.030 C 
HETATM   36  C24 UNL     1       0.116  51.897 -24.738  1.00  0.00    -0.024 C 
BRANCH  36  37
HETATM   37  C25 UNL     1       0.875  52.365 -25.969  1.00  0.00     0.032 C 
HETATM   38  C26 UNL     1       2.062  51.468 -26.343  1.00  0.00     0.017 C 
BRANCH  37  39
HETATM   39  C27 UNL     1      -0.117  52.545 -27.150  1.00  0.00     0.121 C 
HETATM   40  C28 UNL     1      -0.970  51.314 -27.436  1.00  0.00     0.040 C 
BRANCH  39  41
HETATM   41  O6  UNL     1       0.596  52.861 -28.355  1.00  0.00    -0.395 OA
HETATM   42  H46 UNL     1       1.182  52.109 -28.555  1.00  0.00     0.210 HD
ENDBRANCH  39  41
ENDBRANCH  37  39
ENDBRANCH  36  37
ENDBRANCH  34  35
ENDBRANCH  31  34
BRANCH  32  43
HETATM   43  O7  UNL     1      -3.681  50.800 -20.858  1.00  0.00    -0.392 OA
HETATM   44  H48 UNL     1      -3.363  49.988 -20.421  1.00  0.00     0.210 HD
ENDBRANCH  32  43
BRANCH  33  45
HETATM   45  O8  UNL     1      -5.736  51.197 -22.625  1.00  0.00    -0.390 OA
HETATM   46  H50 UNL     1      -5.610  51.396 -21.676  1.00  0.00     0.210 HD
ENDBRANCH  33  45
ENDBRANCH  27  28
ENDBRANCH   2  27
TORSDOF 21
ENDMDL
MODEL 7
REMARK minimizedAffinity -7.957232
REMARK CNNscore 0.343764603
REMARK CNNaffinity 6.5946002
REMARK  21 active torsions:
REMARK  status: ('A' for Active; 'I' for Inactive)
REMARK    1  A    between atoms: C2_2  and  C18_25 
REMARK    2  A    between atoms: C3_3  and  C4_4 
REMARK    3  A    between atoms: C4_4  and  O2_6 
REMARK    4  A    between atoms: O2_6  and  C5_7 
REMARK    5  A    between atoms: C5_7  and  C6_8 
REMARK    6  A    between atoms: C6_8  and  C7_9 
REMARK    7  A    between atoms: C7_9  and  C8_10 
REMARK    8  A    between atoms: C8_10  and  C9_11 
REMARK    9  A    between atoms: C9_11  and  C10_12 
REMARK   10  A    between atoms: C10_12  and  C11_13 
REMARK   11  A    between atoms: C11_13  and  C12_14 
REMARK       I    between atoms: C12_14  and  N1_16 
REMARK   12  A    between atoms: N1_16  and  C13_17 
REMARK   13  A    between atoms: C17_23  and  O4_24 
REMARK   14  A    between atoms: C18_25  and  C19_26 
REMARK   15  A    between atoms: C21_29  and  C22_30 
REMARK   16  A    between atoms: C22_30  and  C23_31 
REMARK   17  A    between atoms: C24_32  and  C25_33 
REMARK   18  A    between atoms: C25_33  and  C27_35 
REMARK   19  A    between atoms: C27_35  and  O6_37 
REMARK   20  A    between atoms: C29_38  and  O7_39 
REMARK   21  A    between atoms: C30_40  and  O8_41 
ROOT
HETATM    1  C1  UNL     1      -0.804  51.077 -22.000  1.00  0.00     0.043 C 
HETATM    2  C2  UNL     1       0.139  52.057 -22.647  1.00  0.00    -0.075 C 
HETATM    3  C3  UNL     1       0.780  53.046 -21.988  1.00  0.00     0.084 C 
ENDROOT
BRANCH   3   4
HETATM    4  C4  UNL     1       0.599  53.390 -20.556  1.00  0.00     0.283 C 
HETATM    5  O1  UNL     1       0.549  54.512 -20.084  1.00  0.00    -0.260 OA
BRANCH   4   6
HETATM    6  O2  UNL     1       0.523  52.224 -19.864  1.00  0.00    -0.318 OA
BRANCH   6   7
HETATM    7  C5  UNL     1       0.156  52.361 -18.483  1.00  0.00     0.179 C 
BRANCH   7   8
HETATM    8  C6  UNL     1       1.167  51.651 -17.585  1.00  0.00     0.027 C 
BRANCH   8   9
HETATM    9  C7  UNL     1       1.856  52.594 -16.596  1.00  0.00     0.002 C 
BRANCH   9  10
HETATM   10  C8  UNL     1       2.134  51.929 -15.245  1.00  0.00     0.000 C 
BRANCH  10  11
HETATM   11  C9  UNL     1       0.889  51.317 -14.596  1.00  0.00     0.000 C 
BRANCH  11  12
HETATM   12  C10 UNL     1       0.796  51.459 -13.073  1.00  0.00     0.009 C 
BRANCH  12  13
HETATM   13  C11 UNL     1       0.192  52.787 -12.617  1.00  0.00     0.103 C 
BRANCH  13  14
HETATM   14  C12 UNL     1      -1.194  52.621 -12.019  1.00  0.00     0.218 C 
HETATM   15  O3  UNL     1      -1.944  51.689 -12.277  1.00  0.00    -0.274 OA
HETATM   16  N1  UNL     1      -1.530  53.649 -11.165  1.00  0.00    -0.349 N 
HETATM   17  H19 UNL     1      -0.765  54.197 -10.786  1.00  0.00     0.163 HD
BRANCH  16  18
HETATM   18  C13 UNL     1      -2.751  53.594 -10.359  1.00  0.00     0.159 C 
HETATM   19  C14 UNL     1      -2.592  52.722  -9.115  1.00  0.00     0.035 C 
HETATM   20  C15 UNL     1      -2.827  51.259  -9.460  1.00  0.00     0.022 C 
HETATM   21  C16 UNL     1      -4.234  51.086 -10.018  1.00  0.00     0.121 C 
HETATM   22  N2  UNL     1      -4.512  51.959 -11.161  1.00  0.00    -0.373 N 
HETATM   23  C17 UNL     1      -3.849  53.050 -11.257  1.00  0.00     0.134 C 
ATOM     24  H2  UNL     1      -5.211  51.706 -11.858  1.00  0.00     0.161 HD
BRANCH  23  25
HETATM   25  O4  UNL     1      -4.099  53.804 -12.338  1.00  0.00    -0.348 OA
HETATM   26  H27 UNL     1      -4.815  53.358 -12.825  1.00  0.00     0.219 HD
ENDBRANCH  23  25
ENDBRANCH  16  18
ENDBRANCH  13  14
ENDBRANCH  12  13
ENDBRANCH  11  12
ENDBRANCH  10  11
ENDBRANCH   9  10
ENDBRANCH   8   9
ENDBRANCH   7   8
ENDBRANCH   6   7
ENDBRANCH   4   6
ENDBRANCH   3   4
BRANCH   2  27
HETATM   27  C18 UNL     1       0.355  51.876 -24.141  1.00  0.00     0.068 C 
BRANCH  27  28
HETATM   28  C19 UNL     1      -0.615  52.716 -24.996  1.00  0.00     0.156 C 
HETATM   29  O5  UNL     1      -1.889  52.036 -25.012  1.00  0.00    -0.382 OA
HETATM   30  C20 UNL     1      -2.756  52.546 -26.021  1.00  0.00     0.175 C 
HETATM   31  C21 UNL     1      -2.267  52.088 -27.403  1.00  0.00     0.044 C 
HETATM   32  C29 UNL     1      -0.732  51.928 -27.402  1.00  0.00     0.155 C 
HETATM   33  C30 UNL     1      -0.064  52.904 -26.427  1.00  0.00     0.176 C 
BRANCH  31  34
HETATM   34  C22 UNL     1      -2.965  50.763 -27.788  1.00  0.00     0.036 C 
BRANCH  34  35
HETATM   35  C23 UNL     1      -2.999  49.763 -26.664  1.00  0.00    -0.030 C 
HETATM   36  C24 UNL     1      -4.137  49.269 -26.148  1.00  0.00    -0.024 C 
BRANCH  36  37
HETATM   37  C25 UNL     1      -4.282  48.315 -24.974  1.00  0.00     0.032 C 
HETATM   38  C26 UNL     1      -3.172  48.451 -23.925  1.00  0.00     0.017 C 
BRANCH  37  39
HETATM   39  C27 UNL     1      -5.697  48.471 -24.354  1.00  0.00     0.121 C 
HETATM   40  C28 UNL     1      -5.969  49.855 -23.773  1.00  0.00     0.040 C 
BRANCH  39  41
HETATM   41  O6  UNL     1      -5.883  47.519 -23.297  1.00  0.00    -0.395 OA
HETATM   42  H46 UNL     1      -5.221  47.710 -22.609  1.00  0.00     0.210 HD
ENDBRANCH  39  41
ENDBRANCH  37  39
ENDBRANCH  36  37
ENDBRANCH  34  35
ENDBRANCH  31  34
BRANCH  32  43
HETATM   43  O7  UNL     1      -0.229  52.217 -28.718  1.00  0.00    -0.392 OA
HETATM   44  H48 UNL     1       0.467  51.559 -28.903  1.00  0.00     0.210 HD
ENDBRANCH  32  43
BRANCH  33  45
HETATM   45  O8  UNL     1      -0.338  54.245 -26.881  1.00  0.00    -0.390 OA
HETATM   46  H50 UNL     1      -0.202  54.213 -27.848  1.00  0.00     0.210 HD
ENDBRANCH  33  45
ENDBRANCH  27  28
ENDBRANCH   2  27
TORSDOF 21
ENDMDL
MODEL 8
REMARK minimizedAffinity -7.38220644
REMARK CNNscore 0.322312474
REMARK CNNaffinity 6.61449671
REMARK  21 active torsions:
REMARK  status: ('A' for Active; 'I' for Inactive)
REMARK    1  A    between atoms: C2_2  and  C18_25 
REMARK    2  A    between atoms: C3_3  and  C4_4 
REMARK    3  A    between atoms: C4_4  and  O2_6 
REMARK    4  A    between atoms: O2_6  and  C5_7 
REMARK    5  A    between atoms: C5_7  and  C6_8 
REMARK    6  A    between atoms: C6_8  and  C7_9 
REMARK    7  A    between atoms: C7_9  and  C8_10 
REMARK    8  A    between atoms: C8_10  and  C9_11 
REMARK    9  A    between atoms: C9_11  and  C10_12 
REMARK   10  A    between atoms: C10_12  and  C11_13 
REMARK   11  A    between atoms: C11_13  and  C12_14 
REMARK       I    between atoms: C12_14  and  N1_16 
REMARK   12  A    between atoms: N1_16  and  C13_17 
REMARK   13  A    between atoms: C17_23  and  O4_24 
REMARK   14  A    between atoms: C18_25  and  C19_26 
REMARK   15  A    between atoms: C21_29  and  C22_30 
REMARK   16  A    between atoms: C22_30  and  C23_31 
REMARK   17  A    between atoms: C24_32  and  C25_33 
REMARK   18  A    between atoms: C25_33  and  C27_35 
REMARK   19  A    between atoms: C27_35  and  O6_37 
REMARK   20  A    between atoms: C29_38  and  O7_39 
REMARK   21  A    between atoms: C30_40  and  O8_41 
ROOT
HETATM    1  C1  UNL     1      -1.487  51.952 -18.543  1.00  0.00     0.043 C 
HETATM    2  C2  UNL     1      -0.026  51.839 -18.197  1.00  0.00    -0.075 C 
HETATM    3  C3  UNL     1       0.970  52.426 -18.895  1.00  0.00     0.084 C 
ENDROOT
BRANCH   3   4
HETATM    4  C4  UNL     1       0.808  53.191 -20.155  1.00  0.00     0.283 C 
HETATM    5  O1  UNL     1       0.511  54.369 -20.251  1.00  0.00    -0.260 OA
BRANCH   4   6
HETATM    6  O2  UNL     1       1.028  52.332 -21.184  1.00  0.00    -0.318 OA
BRANCH   6   7
HETATM    7  C5  UNL     1      -0.113  51.554 -21.578  1.00  0.00     0.179 C 
BRANCH   7   8
HETATM    8  C6  UNL     1      -0.983  52.336 -22.560  1.00  0.00     0.027 C 
BRANCH   8   9
HETATM    9  C7  UNL     1      -2.274  51.604 -22.930  1.00  0.00     0.002 C 
BRANCH   9  10
HETATM   10  C8  UNL     1      -2.015  50.241 -23.579  1.00  0.00     0.000 C 
BRANCH  10  11
HETATM   11  C9  UNL     1      -3.252  49.637 -24.249  1.00  0.00     0.000 C 
BRANCH  11  12
HETATM   12  C10 UNL     1      -2.983  48.498 -25.237  1.00  0.00     0.009 C 
BRANCH  12  13
HETATM   13  C11 UNL     1      -3.672  48.684 -26.589  1.00  0.00     0.103 C 
BRANCH  13  14
HETATM   14  C12 UNL     1      -3.020  49.768 -27.429  1.00  0.00     0.218 C 
HETATM   15  O3  UNL     1      -3.494  50.207 -28.468  1.00  0.00    -0.274 OA
HETATM   16  N1  UNL     1      -1.819  50.195 -26.905  1.00  0.00    -0.349 N 
HETATM   17  H19 UNL     1      -1.656  50.007 -25.922  1.00  0.00     0.163 HD
BRANCH  16  18
HETATM   18  C13 UNL     1      -1.115  51.347 -27.470  1.00  0.00     0.159 C 
HETATM   19  C14 UNL     1       0.403  51.189 -27.419  1.00  0.00     0.035 C 
HETATM   20  C15 UNL     1       0.935  51.611 -26.056  1.00  0.00     0.022 C 
HETATM   21  C16 UNL     1       0.574  53.067 -25.797  1.00  0.00     0.121 C 
HETATM   22  N2  UNL     1      -0.861  53.336 -25.921  1.00  0.00    -0.373 N 
HETATM   23  C17 UNL     1      -1.552  52.566 -26.676  1.00  0.00     0.134 C 
ATOM     24  H2  UNL     1      -1.296  54.112 -25.422  1.00  0.00     0.161 HD
BRANCH  23  25
HETATM   25  O4  UNL     1      -2.869  52.816 -26.733  1.00  0.00    -0.348 OA
HETATM   26  H27 UNL     1      -3.022  53.613 -26.194  1.00  0.00     0.219 HD
ENDBRANCH  23  25
ENDBRANCH  16  18
ENDBRANCH  13  14
ENDBRANCH  12  13
ENDBRANCH  11  12
ENDBRANCH  10  11
ENDBRANCH   9  10
ENDBRANCH   8   9
ENDBRANCH   7   8
ENDBRANCH   6   7
ENDBRANCH   4   6
ENDBRANCH   3   4
BRANCH   2  27
HETATM   27  C18 UNL     1       0.297  51.005 -16.967  1.00  0.00     0.068 C 
BRANCH  27  28
HETATM   28  C19 UNL     1       1.114  51.779 -15.912  1.00  0.00     0.156 C 
HETATM   29  O5  UNL     1       2.428  51.183 -15.850  1.00  0.00    -0.382 OA
HETATM   30  C20 UNL     1       3.152  51.603 -14.697  1.00  0.00     0.175 C 
HETATM   31  C21 UNL     1       2.568  50.932 -13.446  1.00  0.00     0.044 C 
HETATM   32  C29 UNL     1       1.057  50.679 -13.629  1.00  0.00     0.155 C 
HETATM   33  C30 UNL     1       0.414  51.736 -14.536  1.00  0.00     0.176 C 
BRANCH  31  34
HETATM   34  C22 UNL     1       3.322  49.612 -13.163  1.00  0.00     0.036 C 
BRANCH  34  35
HETATM   35  C23 UNL     1       2.516  48.386 -13.498  1.00  0.00    -0.030 C 
HETATM   36  C24 UNL     1       2.419  47.321 -12.687  1.00  0.00    -0.024 C 
BRANCH  36  37
HETATM   37  C25 UNL     1       1.693  46.014 -12.960  1.00  0.00     0.032 C 
HETATM   38  C26 UNL     1       0.177  46.090 -12.737  1.00  0.00     0.017 C 
BRANCH  37  39
HETATM   39  C27 UNL     1       2.052  45.511 -14.384  1.00  0.00     0.121 C 
HETATM   40  C28 UNL     1       1.534  44.111 -14.695  1.00  0.00     0.040 C 
BRANCH  39  41
HETATM   41  O6  UNL     1       3.476  45.489 -14.559  1.00  0.00    -0.395 OA
HETATM   42  H46 UNL     1       3.842  44.864 -13.909  1.00  0.00     0.210 HD
ENDBRANCH  39  41
ENDBRANCH  37  39
ENDBRANCH  36  37
ENDBRANCH  34  35
ENDBRANCH  31  34
BRANCH  32  43
HETATM   43  O7  UNL     1       0.408  50.755 -12.348  1.00  0.00    -0.392 OA
HETATM   44  H48 UNL     1      -0.251  50.037 -12.325  1.00  0.00     0.210 HD
ENDBRANCH  32  43
BRANCH  33  45
HETATM   45  O8  UNL     1       0.542  53.017 -13.886  1.00  0.00    -0.390 OA
HETATM   46  H50 UNL     1       0.316  52.846 -12.951  1.00  0.00     0.210 HD
ENDBRANCH  33  45
ENDBRANCH  27  28
ENDBRANCH   2  27
TORSDOF 21
ENDMDL
MODEL 9
REMARK minimizedAffinity -7.2168622
REMARK CNNscore 0.306366444
REMARK CNNaffinity 6.81477594
REMARK  21 active torsions:
REMARK  status: ('A' for Active; 'I' for Inactive)
REMARK    1  A    between atoms: C2_2  and  C18_25 
REMARK    2  A    between atoms: C3_3  and  C4_4 
REMARK    3  A    between atoms: C4_4  and  O2_6 
REMARK    4  A    between atoms: O2_6  and  C5_7 
REMARK    5  A    between atoms: C5_7  and  C6_8 
REMARK    6  A    between atoms: C6_8  and  C7_9 
REMARK    7  A    between atoms: C7_9  and  C8_10 
REMARK    8  A    between atoms: C8_10  and  C9_11 
REMARK    9  A    between atoms: C9_11  and  C10_12 
REMARK   10  A    between atoms: C10_12  and  C11_13 
REMARK   11  A    between atoms: C11_13  and  C12_14 
REMARK       I    between atoms: C12_14  and  N1_16 
REMARK   12  A    between atoms: N1_16  and  C13_17 
REMARK   13  A    between atoms: C17_23  and  O4_24 
REMARK   14  A    between atoms: C18_25  and  C19_26 
REMARK   15  A    between atoms: C21_29  and  C22_30 
REMARK   16  A    between atoms: C22_30  and  C23_31 
REMARK   17  A    between atoms: C24_32  and  C25_33 
REMARK   18  A    between atoms: C25_33  and  C27_35 
REMARK   19  A    between atoms: C27_35  and  O6_37 
REMARK   20  A    between atoms: C29_38  and  O7_39 
REMARK   21  A    between atoms: C30_40  and  O8_41 
ROOT
HETATM    1  C1  UNL     1      -2.708  47.682 -21.151  1.00  0.00     0.043 C 
HETATM    2  C2  UNL     1      -3.435  49.000 -21.180  1.00  0.00    -0.075 C 
HETATM    3  C3  UNL     1      -2.840  50.203 -21.024  1.00  0.00     0.084 C 
ENDROOT
BRANCH   3   4
HETATM    4  C4  UNL     1      -1.407  50.423 -20.709  1.00  0.00     0.283 C 
HETATM    5  O1  UNL     1      -0.461  50.152 -21.426  1.00  0.00    -0.260 OA
BRANCH   4   6
HETATM    6  O2  UNL     1      -1.343  50.962 -19.464  1.00  0.00    -0.318 OA
BRANCH   6   7
HETATM    7  C5  UNL     1      -0.038  50.952 -18.866  1.00  0.00     0.179 C 
BRANCH   7   8
HETATM    8  C6  UNL     1       0.113  52.114 -17.886  1.00  0.00     0.027 C 
BRANCH   8   9
HETATM    9  C7  UNL     1       1.412  52.053 -17.080  1.00  0.00     0.002 C 
BRANCH   9  10
HETATM   10  C8  UNL     1       1.178  52.192 -15.573  1.00  0.00     0.000 C 
BRANCH  10  11
HETATM   11  C9  UNL     1       2.215  51.455 -14.722  1.00  0.00     0.000 C 
BRANCH  11  12
HETATM   12  C10 UNL     1       1.693  50.243 -13.940  1.00  0.00     0.009 C 
BRANCH  12  13
HETATM   13  C11 UNL     1       0.221  50.358 -13.544  1.00  0.00     0.103 C 
BRANCH  13  14
HETATM   14  C12 UNL     1       0.038  50.924 -12.147  1.00  0.00     0.218 C 
HETATM   15  O3  UNL     1       0.943  51.050 -11.335  1.00  0.00    -0.274 OA
HETATM   16  N1  UNL     1      -1.271  51.265 -11.882  1.00  0.00    -0.349 N 
HETATM   17  H19 UNL     1      -1.878  51.409 -12.682  1.00  0.00     0.163 HD
BRANCH  16  18
HETATM   18  C13 UNL     1      -1.632  51.981 -10.657  1.00  0.00     0.159 C 
HETATM   19  C14 UNL     1      -2.998  51.564 -10.116  1.00  0.00     0.035 C 
HETATM   20  C15 UNL     1      -4.105  52.336 -10.819  1.00  0.00     0.022 C 
HETATM   21  C16 UNL     1      -3.910  53.829 -10.591  1.00  0.00     0.121 C 
HETATM   22  N2  UNL     1      -2.583  54.305 -10.993  1.00  0.00    -0.373 N 
HETATM   23  C17 UNL     1      -1.619  53.463 -10.990  1.00  0.00     0.134 C 
ATOM     24  H2  UNL     1      -2.433  55.275 -11.266  1.00  0.00     0.161 HD
BRANCH  23  25
HETATM   25  O4  UNL     1      -0.428  53.923 -11.403  1.00  0.00    -0.348 OA
HETATM   26  H27 UNL     1      -0.546  54.873 -11.581  1.00  0.00     0.219 HD
ENDBRANCH  23  25
ENDBRANCH  16  18
ENDBRANCH  13  14
ENDBRANCH  12  13
ENDBRANCH  11  12
ENDBRANCH  10  11
ENDBRANCH   9  10
ENDBRANCH   8   9
ENDBRANCH   7   8
ENDBRANCH   6   7
ENDBRANCH   4   6
ENDBRANCH   3   4
BRANCH   2  27
HETATM   27  C18 UNL     1      -4.936  48.920 -21.410  1.00  0.00     0.068 C 
BRANCH  27  28
HETATM   28  C19 UNL     1      -5.323  49.029 -22.899  1.00  0.00     0.156 C 
HETATM   29  O5  UNL     1      -4.454  48.151 -23.645  1.00  0.00    -0.382 OA
HETATM   30  C20 UNL     1      -4.506  48.410 -25.046  1.00  0.00     0.175 C 
HETATM   31  C21 UNL     1      -3.776  49.724 -25.357  1.00  0.00     0.044 C 
HETATM   32  C29 UNL     1      -3.893  50.697 -24.164  1.00  0.00     0.155 C 
HETATM   33  C30 UNL     1      -5.202  50.488 -23.392  1.00  0.00     0.176 C 
BRANCH  31  34
HETATM   34  C22 UNL     1      -2.295  49.431 -25.692  1.00  0.00     0.036 C 
BRANCH  34  35
HETATM   35  C23 UNL     1      -1.457  50.675 -25.809  1.00  0.00    -0.030 C 
HETATM   36  C24 UNL     1      -0.283  50.717 -26.460  1.00  0.00    -0.024 C 
BRANCH  36  37
HETATM   37  C25 UNL     1       0.667  51.897 -26.578  1.00  0.00     0.032 C 
HETATM   38  C26 UNL     1       1.653  51.783 -27.747  1.00  0.00     0.017 C 
BRANCH  37  39
HETATM   39  C27 UNL     1      -0.150  53.216 -26.627  1.00  0.00     0.121 C 
HETATM   40  C28 UNL     1      -0.346  53.771 -28.033  1.00  0.00     0.040 C 
BRANCH  39  41
HETATM   41  O6  UNL     1       0.502  54.234 -25.852  1.00  0.00    -0.395 OA
HETATM   42  H46 UNL     1       1.374  54.395 -26.254  1.00  0.00     0.210 HD
ENDBRANCH  39  41
ENDBRANCH  37  39
ENDBRANCH  36  37
ENDBRANCH  34  35
ENDBRANCH  31  34
BRANCH  32  43
HETATM   43  O7  UNL     1      -3.891  52.048 -24.656  1.00  0.00    -0.392 OA
HETATM   44  H48 UNL     1      -3.339  52.569 -24.043  1.00  0.00     0.210 HD
ENDBRANCH  32  43
BRANCH  33  45
HETATM   45  O8  UNL     1      -6.296  50.793 -24.281  1.00  0.00    -0.390 OA
HETATM   46  H50 UNL     1      -6.022  51.610 -24.742  1.00  0.00     0.210 HD
ENDBRANCH  33  45
ENDBRANCH  27  28
ENDBRANCH   2  27
TORSDOF 21
ENDMDL
