MODEL 1
REMARK minimizedAffinity -7.71005583
REMARK CNNscore 0.437125921
REMARK CNNaffinity 7.37375641
REMARK  16 active torsions:
REMARK  status: ('A' for Active; 'I' for Inactive)
REMARK    1  A    between atoms: S1_2  and  C2_3 
REMARK    2  A    between atoms: C2_3  and  C3_4 
REMARK    3  A    between atoms: C3_4  and  C4_5 
REMARK    4  A    between atoms: C4_5  and  N1_6 
REMARK    5  A    between atoms: C4_5  and  C33_44 
REMARK       I    between atoms: N1_6  and  C5_7 
REMARK    6  A    between atoms: C5_7  and  C6_9 
REMARK    7  A    between atoms: C6_9  and  N2_11 
REMARK       I    between atoms: N2_11  and  C8_12 
REMARK    8  A    between atoms: C8_12  and  C9_14 
REMARK    9  A    between atoms: C9_14  and  C10_15 
REMARK   10  A    between atoms: C10_15  and  C11_16 
REMARK   11  A    between atoms: C11_16  and  O4_18 
REMARK   12  A    between atoms: O4_18  and  C12_19 
REMARK   13  A    between atoms: C12_19  and  C13_20 
REMARK   14  A    between atoms: C13_20  and  C14_22 
REMARK   15  A    between atoms: C14_22  and  O6_23 
REMARK   16  A    between atoms: C33_44  and  O10_46 
ROOT
HETATM    1  C12 UNL     1      -5.768   4.183  12.834  1.00  0.00     0.260 C 
ENDROOT
BRANCH   1   2
HETATM    2  O4  UNL     1      -4.899   4.087  11.712  1.00  0.00    -0.314 OA
BRANCH   2   3
HETATM    3  C11 UNL     1      -3.829   3.266  11.856  1.00  0.00     0.259 C 
HETATM    4  O3  UNL     1      -3.909   2.053  11.974  1.00  0.00    -0.265 OA
BRANCH   3   5
HETATM    5  C10 UNL     1      -2.543   4.048  11.963  1.00  0.00     0.120 C 
BRANCH   5   6
HETATM    6  C9  UNL     1      -2.370   4.603  13.374  1.00  0.00     0.112 C 
BRANCH   6   7
HETATM    7  C8  UNL     1      -1.376   5.746  13.392  1.00  0.00     0.218 C 
HETATM    8  N2  UNL     1      -0.120   5.392  12.943  1.00  0.00    -0.348 N 
HETATM    9  H14 UNL     1      -0.086   4.625  12.279  1.00  0.00     0.163 HD
HETATM   10  O2  UNL     1      -1.653   6.869  13.803  1.00  0.00    -0.274 OA
BRANCH   8  11
HETATM   11  C6  UNL     1       0.885   6.429  12.735  1.00  0.00     0.172 C 
HETATM   12  C7  UNL     1       1.632   6.722  14.029  1.00  0.00     0.042 C 
BRANCH  11  13
HETATM   13  C5  UNL     1       1.878   5.920  11.674  1.00  0.00     0.240 C 
HETATM   14  N1  UNL     1       2.819   6.841  11.280  1.00  0.00    -0.345 N 
HETATM   15  H9  UNL     1       2.636   7.822  11.475  1.00  0.00     0.163 HD
HETATM   16  O1  UNL     1       1.859   4.761  11.270  1.00  0.00    -0.271 OA
BRANCH  14  17
HETATM   17  C4  UNL     1       3.722   6.588  10.154  1.00  0.00     0.183 C 
BRANCH  17  18
HETATM   18  C3  UNL     1       3.163   5.586   9.131  1.00  0.00     0.046 C 
BRANCH  18  19
HETATM   19  C2  UNL     1       2.636   6.176   7.824  1.00  0.00     0.076 C 
BRANCH  19  20
HETATM   20  S1  UNL     1       1.758   7.762   7.989  1.00  0.00    -0.173 SA
HETATM   21  C1  UNL     1       3.166   8.899   7.935  1.00  0.00     0.089 C 
ENDBRANCH  19  20
ENDBRANCH  18  19
ENDBRANCH  17  18
BRANCH  17  22
HETATM   22  C33 UNL     1       5.088   6.198  10.716  1.00  0.00     0.163 C 
HETATM   23  O9  UNL     1       5.789   6.905  11.427  1.00  0.00    -0.648 OA
BRANCH  22  24
HETATM   24  O10 UNL     1       5.534   4.996  10.301  1.00  0.00    -0.775 OA
HETATM   25  H46 UNL     1       6.413   4.909  10.727  1.00  0.00     0.167 HD
ENDBRANCH  22  24
ENDBRANCH  17  22
ENDBRANCH  14  17
ENDBRANCH  11  13
ENDBRANCH   8  11
ENDBRANCH   6   7
ENDBRANCH   5   6
ENDBRANCH   3   5
ENDBRANCH   2   3
ENDBRANCH   1   2
BRANCH   1  26
HETATM   26  C13 UNL     1      -5.900   5.453  13.699  1.00  0.00     0.185 C 
HETATM   27  O5  UNL     1      -5.062   6.354  13.582  1.00  0.00    -0.292 OA
BRANCH  26  28
HETATM   28  C14 UNL     1      -7.061   5.567  14.717  1.00  0.00     0.128 C 
HETATM   29  C15 UNL     1      -6.647   5.883  16.177  1.00  0.00     0.047 C 
HETATM   30  C16 UNL     1      -7.784   6.721  16.793  1.00  0.00     0.009 C 
HETATM   31  C17 UNL     1      -8.856   6.769  15.712  1.00  0.00     0.002 C 
HETATM   32  C18 UNL     1      -9.974   7.811  15.811  1.00  0.00     0.003 C 
HETATM   33  C31 UNL     1      -8.073   6.725  14.380  1.00  0.00     0.005 C 
HETATM   34  C19 UNL     1      -9.631   9.157  16.479  1.00  0.00     0.010 C 
HETATM   35  C28 UNL     1     -10.655   8.083  14.449  1.00  0.00     0.072 C 
HETATM   36  C20 UNL     1     -10.685  10.243  16.184  1.00  0.00     0.035 C 
HETATM   37  C21 UNL     1     -12.035   9.631  15.887  1.00  0.00    -0.067 C 
HETATM   38  C22 UNL     1     -13.075   9.849  16.709  1.00  0.00     0.053 C 
HETATM   39  C26 UNL     1     -12.093   8.672  14.677  1.00  0.00    -0.009 C 
HETATM   40  C23 UNL     1     -14.380   9.176  16.510  1.00  0.00     0.149 C 
HETATM   41  O7  UNL     1     -15.329   9.494  17.224  1.00  0.00    -0.293 OA
HETATM   42  C24 UNL     1     -14.506   8.148  15.413  1.00  0.00     0.084 C 
HETATM   43  C25 UNL     1     -13.155   7.581  14.979  1.00  0.00     0.022 C 
HETATM   44  C27 UNL     1     -12.505   9.480  13.428  1.00  0.00     0.021 C 
HETATM   45  C29 UNL     1     -10.486   6.902  13.492  1.00  0.00     0.133 C 
HETATM   46  O8  UNL     1     -11.427   6.410  12.867  1.00  0.00    -0.297 OA
HETATM   47  C30 UNL     1      -9.060   6.419  13.227  1.00  0.00     0.091 C 
HETATM   48  C32 UNL     1      -7.318   8.047  14.091  1.00  0.00     0.019 C 
BRANCH  28  49
HETATM   49  O6  UNL     1      -7.793   4.336  14.737  1.00  0.00    -0.381 OA
HETATM   50  H21 UNL     1      -7.160   3.584  14.689  1.00  0.00     0.211 HD
ENDBRANCH  28  49
ENDBRANCH  26  28
ENDBRANCH   1  26
TORSDOF 16
ENDMDL
MODEL 2
REMARK minimizedAffinity -8.50508499
REMARK CNNscore 0.362300277
REMARK CNNaffinity 6.35282135
REMARK  16 active torsions:
REMARK  status: ('A' for Active; 'I' for Inactive)
REMARK    1  A    between atoms: S1_2  and  C2_3 
REMARK    2  A    between atoms: C2_3  and  C3_4 
REMARK    3  A    between atoms: C3_4  and  C4_5 
REMARK    4  A    between atoms: C4_5  and  N1_6 
REMARK    5  A    between atoms: C4_5  and  C33_44 
REMARK       I    between atoms: N1_6  and  C5_7 
REMARK    6  A    between atoms: C5_7  and  C6_9 
REMARK    7  A    between atoms: C6_9  and  N2_11 
REMARK       I    between atoms: N2_11  and  C8_12 
REMARK    8  A    between atoms: C8_12  and  C9_14 
REMARK    9  A    between atoms: C9_14  and  C10_15 
REMARK   10  A    between atoms: C10_15  and  C11_16 
REMARK   11  A    between atoms: C11_16  and  O4_18 
REMARK   12  A    between atoms: O4_18  and  C12_19 
REMARK   13  A    between atoms: C12_19  and  C13_20 
REMARK   14  A    between atoms: C13_20  and  C14_22 
REMARK   15  A    between atoms: C14_22  and  O6_23 
REMARK   16  A    between atoms: C33_44  and  O10_46 
ROOT
HETATM    1  C12 UNL     1       0.321  11.135  15.609  1.00  0.00     0.260 C 
ENDROOT
BRANCH   1   2
HETATM    2  O4  UNL     1      -0.230  10.987  16.912  1.00  0.00    -0.314 OA
BRANCH   2   3
HETATM    3  C11 UNL     1       0.485  11.531  17.927  1.00  0.00     0.259 C 
HETATM    4  O3  UNL     1       1.210  12.506  17.806  1.00  0.00    -0.265 OA
BRANCH   3   5
HETATM    5  C10 UNL     1       0.359  10.717  19.191  1.00  0.00     0.120 C 
BRANCH   5   6
HETATM    6  C9  UNL     1       0.936  11.480  20.379  1.00  0.00     0.112 C 
BRANCH   6   7
HETATM    7  C8  UNL     1       2.189  10.808  20.903  1.00  0.00     0.218 C 
HETATM    8  N2  UNL     1       2.796  11.496  21.932  1.00  0.00    -0.348 N 
HETATM    9  H14 UNL     1       2.185  12.072  22.502  1.00  0.00     0.163 HD
HETATM   10  O2  UNL     1       2.640   9.768  20.430  1.00  0.00    -0.274 OA
BRANCH   8  11
HETATM   11  C6  UNL     1       3.905  10.879  22.652  1.00  0.00     0.172 C 
HETATM   12  C7  UNL     1       3.849   9.362  22.530  1.00  0.00     0.042 C 
BRANCH  11  13
HETATM   13  C5  UNL     1       5.217  11.396  22.034  1.00  0.00     0.240 C 
HETATM   14  N1  UNL     1       5.987  12.161  22.879  1.00  0.00    -0.345 N 
HETATM   15  H9  UNL     1       5.538  12.561  23.699  1.00  0.00     0.163 HD
HETATM   16  O1  UNL     1       5.567  11.085  20.899  1.00  0.00    -0.271 OA
BRANCH  14  17
HETATM   17  C4  UNL     1       7.171  12.881  22.403  1.00  0.00     0.183 C 
BRANCH  17  18
HETATM   18  C3  UNL     1       7.335  12.853  20.875  1.00  0.00     0.046 C 
BRANCH  18  19
HETATM   19  C2  UNL     1       8.742  13.119  20.341  1.00  0.00     0.076 C 
BRANCH  19  20
HETATM   20  S1  UNL     1       9.566  11.683  19.583  1.00  0.00    -0.173 SA
HETATM   21  C1  UNL     1       9.925  12.365  17.945  1.00  0.00     0.089 C 
ENDBRANCH  19  20
ENDBRANCH  18  19
ENDBRANCH  17  18
BRANCH  17  22
HETATM   22  C33 UNL     1       8.387  12.353  23.162  1.00  0.00     0.163 C 
HETATM   23  O9  UNL     1       8.685  11.173  23.288  1.00  0.00    -0.648 OA
BRANCH  22  24
HETATM   24  O10 UNL     1       9.110  13.306  23.780  1.00  0.00    -0.775 OA
HETATM   25  H46 UNL     1       9.826  12.808  24.228  1.00  0.00     0.167 HD
ENDBRANCH  22  24
ENDBRANCH  17  22
ENDBRANCH  14  17
ENDBRANCH  11  13
ENDBRANCH   8  11
ENDBRANCH   6   7
ENDBRANCH   5   6
ENDBRANCH   3   5
ENDBRANCH   2   3
ENDBRANCH   1   2
BRANCH   1  26
HETATM   26  C13 UNL     1       0.574   9.950  14.655  1.00  0.00     0.185 C 
HETATM   27  O5  UNL     1       1.677   9.393  14.662  1.00  0.00    -0.292 OA
BRANCH  26  28
HETATM   28  C14 UNL     1      -0.546   9.497  13.686  1.00  0.00     0.128 C 
HETATM   29  C15 UNL     1      -0.068   8.823  12.375  1.00  0.00     0.047 C 
HETATM   30  C16 UNL     1      -1.139   7.784  11.989  1.00  0.00     0.009 C 
HETATM   31  C17 UNL     1      -2.243   7.968  13.023  1.00  0.00     0.002 C 
HETATM   32  C18 UNL     1      -3.301   6.875  13.192  1.00  0.00     0.003 C 
HETATM   33  C31 UNL     1      -1.507   8.417  14.307  1.00  0.00     0.005 C 
HETATM   34  C19 UNL     1      -2.868   5.421  12.921  1.00  0.00     0.010 C 
HETATM   35  C28 UNL     1      -4.012   6.942  14.564  1.00  0.00     0.072 C 
HETATM   36  C20 UNL     1      -3.874   4.395  13.481  1.00  0.00     0.035 C 
HETATM   37  C21 UNL     1      -5.262   4.985  13.577  1.00  0.00    -0.067 C 
HETATM   38  C22 UNL     1      -6.262   4.492  12.827  1.00  0.00     0.053 C 
HETATM   39  C26 UNL     1      -5.410   6.230  14.479  1.00  0.00    -0.009 C 
HETATM   40  C23 UNL     1      -7.606   5.116  12.812  1.00  0.00     0.149 C 
HETATM   41  O7  UNL     1      -8.513   4.562  12.194  1.00  0.00    -0.293 OA
HETATM   42  C24 UNL     1      -7.821   6.394  13.586  1.00  0.00     0.084 C 
HETATM   43  C25 UNL     1      -6.516   7.135  13.873  1.00  0.00     0.022 C 
HETATM   44  C27 UNL     1      -5.820   5.768  15.893  1.00  0.00     0.021 C 
HETATM   45  C29 UNL     1      -3.935   8.345  15.167  1.00  0.00     0.133 C 
HETATM   46  O8  UNL     1      -4.921   8.932  15.617  1.00  0.00    -0.297 OA
HETATM   47  C30 UNL     1      -2.546   8.965  15.315  1.00  0.00     0.091 C 
HETATM   48  C32 UNL     1      -0.695   7.269  14.958  1.00  0.00     0.019 C 
BRANCH  28  49
HETATM   49  O6  UNL     1      -1.339  10.632  13.319  1.00  0.00    -0.381 OA
HETATM   50  H21 UNL     1      -0.747  11.404  13.172  1.00  0.00     0.211 HD
ENDBRANCH  28  49
ENDBRANCH  26  28
ENDBRANCH   1  26
TORSDOF 16
ENDMDL
MODEL 3
REMARK minimizedAffinity -7.81550503
REMARK CNNscore 0.356832236
REMARK CNNaffinity 7.29267454
REMARK  16 active torsions:
REMARK  status: ('A' for Active; 'I' for Inactive)
REMARK    1  A    between atoms: S1_2  and  C2_3 
REMARK    2  A    between atoms: C2_3  and  C3_4 
REMARK    3  A    between atoms: C3_4  and  C4_5 
REMARK    4  A    between atoms: C4_5  and  N1_6 
REMARK    5  A    between atoms: C4_5  and  C33_44 
REMARK       I    between atoms: N1_6  and  C5_7 
REMARK    6  A    between atoms: C5_7  and  C6_9 
REMARK    7  A    between atoms: C6_9  and  N2_11 
REMARK       I    between atoms: N2_11  and  C8_12 
REMARK    8  A    between atoms: C8_12  and  C9_14 
REMARK    9  A    between atoms: C9_14  and  C10_15 
REMARK   10  A    between atoms: C10_15  and  C11_16 
REMARK   11  A    between atoms: C11_16  and  O4_18 
REMARK   12  A    between atoms: O4_18  and  C12_19 
REMARK   13  A    between atoms: C12_19  and  C13_20 
REMARK   14  A    between atoms: C13_20  and  C14_22 
REMARK   15  A    between atoms: C14_22  and  O6_23 
REMARK   16  A    between atoms: C33_44  and  O10_46 
ROOT
HETATM    1  C12 UNL     1      -5.985   4.929  13.282  1.00  0.00     0.260 C 
ENDROOT
BRANCH   1   2
HETATM    2  O4  UNL     1      -5.959   3.507  13.278  1.00  0.00    -0.314 OA
BRANCH   2   3
HETATM    3  C11 UNL     1      -7.028   2.893  12.713  1.00  0.00     0.259 C 
HETATM    4  O3  UNL     1      -8.190   3.155  12.984  1.00  0.00    -0.265 OA
BRANCH   3   5
HETATM    5  C10 UNL     1      -6.601   1.774  11.795  1.00  0.00     0.120 C 
BRANCH   5   6
HETATM    6  C9  UNL     1      -5.534   2.261  10.819  1.00  0.00     0.112 C 
BRANCH   6   7
HETATM    7  C8  UNL     1      -4.143   2.047  11.382  1.00  0.00     0.218 C 
HETATM    8  N2  UNL     1      -3.354   3.177  11.347  1.00  0.00    -0.348 N 
HETATM    9  H14 UNL     1      -3.847   4.064  11.383  1.00  0.00     0.163 HD
HETATM   10  O2  UNL     1      -3.746   0.961  11.795  1.00  0.00    -0.274 OA
BRANCH   8  11
HETATM   11  C6  UNL     1      -2.058   3.168  12.018  1.00  0.00     0.172 C 
HETATM   12  C7  UNL     1      -1.043   2.362  11.219  1.00  0.00     0.042 C 
BRANCH  11  13
HETATM   13  C5  UNL     1      -1.576   4.626  12.137  1.00  0.00     0.240 C 
HETATM   14  N1  UNL     1      -0.211   4.782  12.117  1.00  0.00    -0.345 N 
HETATM   15  H9  UNL     1       0.365   3.967  12.313  1.00  0.00     0.163 HD
HETATM   16  O1  UNL     1      -2.362   5.568  12.178  1.00  0.00    -0.271 OA
BRANCH  14  17
HETATM   17  C4  UNL     1       0.422   6.073  12.401  1.00  0.00     0.183 C 
BRANCH  17  18
HETATM   18  C3  UNL     1       1.733   6.298  11.631  1.00  0.00     0.046 C 
BRANCH  18  19
HETATM   19  C2  UNL     1       1.902   7.665  10.967  1.00  0.00     0.076 C 
BRANCH  19  20
HETATM   20  S1  UNL     1       3.157   7.736   9.651  1.00  0.00    -0.173 SA
HETATM   21  C1  UNL     1       2.642   6.310   8.659  1.00  0.00     0.089 C 
ENDBRANCH  19  20
ENDBRANCH  18  19
ENDBRANCH  17  18
BRANCH  17  22
HETATM   22  C33 UNL     1       0.567   6.210  13.916  1.00  0.00     0.163 C 
HETATM   23  O9  UNL     1      -0.355   6.380  14.702  1.00  0.00    -0.648 OA
BRANCH  22  24
HETATM   24  O10 UNL     1       1.841   6.206  14.353  1.00  0.00    -0.775 OA
HETATM   25  H46 UNL     1       1.760   6.321  15.324  1.00  0.00     0.167 HD
ENDBRANCH  22  24
ENDBRANCH  17  22
ENDBRANCH  14  17
ENDBRANCH  11  13
ENDBRANCH   8  11
ENDBRANCH   6   7
ENDBRANCH   5   6
ENDBRANCH   3   5
ENDBRANCH   2   3
ENDBRANCH   1   2
BRANCH   1  26
HETATM   26  C13 UNL     1      -5.975   5.776  14.570  1.00  0.00     0.185 C 
HETATM   27  O5  UNL     1      -4.910   6.263  14.965  1.00  0.00    -0.292 OA
BRANCH  26  28
HETATM   28  C14 UNL     1      -7.290   5.978  15.364  1.00  0.00     0.128 C 
HETATM   29  C15 UNL     1      -7.124   6.436  16.835  1.00  0.00     0.047 C 
HETATM   30  C16 UNL     1      -8.342   7.319  17.168  1.00  0.00     0.009 C 
HETATM   31  C17 UNL     1      -9.217   7.254  15.923  1.00  0.00     0.002 C 
HETATM   32  C18 UNL     1     -10.327   8.291  15.731  1.00  0.00     0.003 C 
HETATM   33  C31 UNL     1      -8.221   7.089  14.752  1.00  0.00     0.005 C 
HETATM   34  C19 UNL     1     -10.091   9.698  16.315  1.00  0.00     0.010 C 
HETATM   35  C28 UNL     1     -10.767   8.425  14.256  1.00  0.00     0.072 C 
HETATM   36  C20 UNL     1     -11.072  10.742  15.745  1.00  0.00     0.035 C 
HETATM   37  C21 UNL     1     -12.357  10.092  15.285  1.00  0.00    -0.067 C 
HETATM   38  C22 UNL     1     -13.519  10.380  15.896  1.00  0.00     0.053 C 
HETATM   39  C26 UNL     1     -12.219   9.021  14.181  1.00  0.00    -0.009 C 
HETATM   40  C23 UNL     1     -14.777   9.679  15.547  1.00  0.00     0.149 C 
HETATM   41  O7  UNL     1     -15.830  10.056  16.058  1.00  0.00    -0.293 OA
HETATM   42  C24 UNL     1     -14.725   8.550  14.548  1.00  0.00     0.084 C 
HETATM   43  C25 UNL     1     -13.325   7.955  14.403  1.00  0.00     0.022 C 
HETATM   44  C27 UNL     1     -12.409   9.702  12.809  1.00  0.00     0.021 C 
HETATM   45  C29 UNL     1     -10.449   7.159  13.458  1.00  0.00     0.133 C 
HETATM   46  O8  UNL     1     -11.276   6.601  12.735  1.00  0.00    -0.297 OA
HETATM   47  C30 UNL     1      -9.003   6.665  13.484  1.00  0.00     0.091 C 
HETATM   48  C32 UNL     1      -7.419   8.383  14.467  1.00  0.00     0.019 C 
BRANCH  28  49
HETATM   49  O6  UNL     1      -8.024   4.748  15.378  1.00  0.00    -0.381 OA
HETATM   50  H21 UNL     1      -7.398   4.000  15.510  1.00  0.00     0.211 HD
ENDBRANCH  28  49
ENDBRANCH  26  28
ENDBRANCH   1  26
TORSDOF 16
ENDMDL
MODEL 4
REMARK minimizedAffinity -8.35443974
REMARK CNNscore 0.322445989
REMARK CNNaffinity 7.06368446
REMARK  16 active torsions:
REMARK  status: ('A' for Active; 'I' for Inactive)
REMARK    1  A    between atoms: S1_2  and  C2_3 
REMARK    2  A    between atoms: C2_3  and  C3_4 
REMARK    3  A    between atoms: C3_4  and  C4_5 
REMARK    4  A    between atoms: C4_5  and  N1_6 
REMARK    5  A    between atoms: C4_5  and  C33_44 
REMARK       I    between atoms: N1_6  and  C5_7 
REMARK    6  A    between atoms: C5_7  and  C6_9 
REMARK    7  A    between atoms: C6_9  and  N2_11 
REMARK       I    between atoms: N2_11  and  C8_12 
REMARK    8  A    between atoms: C8_12  and  C9_14 
REMARK    9  A    between atoms: C9_14  and  C10_15 
REMARK   10  A    between atoms: C10_15  and  C11_16 
REMARK   11  A    between atoms: C11_16  and  O4_18 
REMARK   12  A    between atoms: O4_18  and  C12_19 
REMARK   13  A    between atoms: C12_19  and  C13_20 
REMARK   14  A    between atoms: C13_20  and  C14_22 
REMARK   15  A    between atoms: C14_22  and  O6_23 
REMARK   16  A    between atoms: C33_44  and  O10_46 
ROOT
HETATM    1  C12 UNL     1      -3.892   7.931  14.732  1.00  0.00     0.260 C 
ENDROOT
BRANCH   1   2
HETATM    2  O4  UNL     1      -4.887   7.210  15.447  1.00  0.00    -0.314 OA
BRANCH   2   3
HETATM    3  C11 UNL     1      -6.132   7.749  15.442  1.00  0.00     0.259 C 
HETATM    4  O3  UNL     1      -6.477   8.666  14.713  1.00  0.00    -0.265 OA
BRANCH   3   5
HETATM    5  C10 UNL     1      -6.998   7.149  16.522  1.00  0.00     0.120 C 
BRANCH   5   6
HETATM    6  C9  UNL     1      -8.245   6.512  15.916  1.00  0.00     0.112 C 
BRANCH   6   7
HETATM    7  C8  UNL     1      -7.892   5.657  14.716  1.00  0.00     0.218 C 
HETATM    8  N2  UNL     1      -8.967   5.386  13.896  1.00  0.00    -0.348 N 
HETATM    9  H14 UNL     1      -9.712   6.076  13.898  1.00  0.00     0.163 HD
HETATM   10  O2  UNL     1      -6.763   5.218  14.514  1.00  0.00    -0.274 OA
BRANCH   8  11
HETATM   11  C6  UNL     1      -8.743   4.728  12.613  1.00  0.00     0.172 C 
HETATM   12  C7  UNL     1      -8.262   5.729  11.571  1.00  0.00     0.042 C 
BRANCH  11  13
HETATM   13  C5  UNL     1      -7.669   3.644  12.817  1.00  0.00     0.240 C 
HETATM   14  N1  UNL     1      -6.443   3.941  12.270  1.00  0.00    -0.345 N 
HETATM   15  H9  UNL     1      -6.403   4.666  11.558  1.00  0.00     0.163 HD
HETATM   16  O1  UNL     1      -7.886   2.632  13.477  1.00  0.00    -0.271 OA
BRANCH  14  17
HETATM   17  C4  UNL     1      -5.365   2.951  12.212  1.00  0.00     0.183 C 
BRANCH  17  18
HETATM   18  C3  UNL     1      -3.959   3.568  12.270  1.00  0.00     0.046 C 
BRANCH  18  19
HETATM   19  C2  UNL     1      -3.092   3.397  11.023  1.00  0.00     0.076 C 
BRANCH  19  20
HETATM   20  S1  UNL     1      -1.365   2.916  11.339  1.00  0.00    -0.173 SA
HETATM   21  C1  UNL     1      -1.444   1.168  10.872  1.00  0.00     0.089 C 
ENDBRANCH  19  20
ENDBRANCH  18  19
ENDBRANCH  17  18
BRANCH  17  22
HETATM   22  C33 UNL     1      -5.597   2.064  10.990  1.00  0.00     0.163 C 
HETATM   23  O9  UNL     1      -5.691   0.844  11.008  1.00  0.00    -0.648 OA
BRANCH  22  24
HETATM   24  O10 UNL     1      -5.620   2.730   9.819  1.00  0.00    -0.775 OA
HETATM   25  H46 UNL     1      -5.755   2.027   9.149  1.00  0.00     0.167 HD
ENDBRANCH  22  24
ENDBRANCH  17  22
ENDBRANCH  14  17
ENDBRANCH  11  13
ENDBRANCH   8  11
ENDBRANCH   6   7
ENDBRANCH   5   6
ENDBRANCH   3   5
ENDBRANCH   2   3
ENDBRANCH   1   2
BRANCH   1  26
HETATM   26  C13 UNL     1      -2.482   8.212  15.289  1.00  0.00     0.185 C 
HETATM   27  O5  UNL     1      -2.320   9.148  16.080  1.00  0.00    -0.292 OA
BRANCH  26  28
HETATM   28  C14 UNL     1      -1.289   7.338  14.829  1.00  0.00     0.128 C 
HETATM   29  C15 UNL     1      -1.637   6.184  13.856  1.00  0.00     0.047 C 
HETATM   30  C16 UNL     1      -0.418   5.994  12.932  1.00  0.00     0.009 C 
HETATM   31  C17 UNL     1       0.626   6.965  13.469  1.00  0.00     0.002 C 
HETATM   32  C18 UNL     1       1.829   7.331  12.596  1.00  0.00     0.003 C 
HETATM   33  C31 UNL     1      -0.193   8.145  14.041  1.00  0.00     0.005 C 
HETATM   34  C19 UNL     1       1.619   7.346  11.070  1.00  0.00     0.010 C 
HETATM   35  C28 UNL     1       2.495   8.658  13.027  1.00  0.00     0.072 C 
HETATM   36  C20 UNL     1       2.752   8.083  10.329  1.00  0.00     0.035 C 
HETATM   37  C21 UNL     1       4.037   8.052  11.124  1.00  0.00    -0.067 C 
HETATM   38  C22 UNL     1       5.113   7.402  10.650  1.00  0.00     0.053 C 
HETATM   39  C26 UNL     1       3.984   8.699  12.526  1.00  0.00    -0.009 C 
HETATM   40  C23 UNL     1       6.351   7.256  11.451  1.00  0.00     0.149 C 
HETATM   41  O7  UNL     1       7.341   6.748  10.929  1.00  0.00    -0.293 OA
HETATM   42  C24 UNL     1       6.362   7.770  12.870  1.00  0.00     0.084 C 
HETATM   43  C25 UNL     1       4.957   7.922  13.451  1.00  0.00     0.022 C 
HETATM   44  C27 UNL     1       4.429  10.172  12.406  1.00  0.00     0.021 C 
HETATM   45  C29 UNL     1       2.202   8.982  14.493  1.00  0.00     0.133 C 
HETATM   46  O8  UNL     1       3.082   9.304  15.293  1.00  0.00    -0.297 OA
HETATM   47  C30 UNL     1       0.734   9.022  14.917  1.00  0.00     0.091 C 
HETATM   48  C32 UNL     1      -0.841   9.011  12.931  1.00  0.00     0.019 C 
BRANCH  28  49
HETATM   49  O6  UNL     1      -0.663   6.754  15.978  1.00  0.00    -0.381 OA
HETATM   50  H21 UNL     1      -1.359   6.468  16.613  1.00  0.00     0.211 HD
ENDBRANCH  28  49
ENDBRANCH  26  28
ENDBRANCH   1  26
TORSDOF 16
ENDMDL
MODEL 5
REMARK minimizedAffinity -8.25918961
REMARK CNNscore 0.301052302
REMARK CNNaffinity 6.294909
REMARK  16 active torsions:
REMARK  status: ('A' for Active; 'I' for Inactive)
REMARK    1  A    between atoms: S1_2  and  C2_3 
REMARK    2  A    between atoms: C2_3  and  C3_4 
REMARK    3  A    between atoms: C3_4  and  C4_5 
REMARK    4  A    between atoms: C4_5  and  N1_6 
REMARK    5  A    between atoms: C4_5  and  C33_44 
REMARK       I    between atoms: N1_6  and  C5_7 
REMARK    6  A    between atoms: C5_7  and  C6_9 
REMARK    7  A    between atoms: C6_9  and  N2_11 
REMARK       I    between atoms: N2_11  and  C8_12 
REMARK    8  A    between atoms: C8_12  and  C9_14 
REMARK    9  A    between atoms: C9_14  and  C10_15 
REMARK   10  A    between atoms: C10_15  and  C11_16 
REMARK   11  A    between atoms: C11_16  and  O4_18 
REMARK   12  A    between atoms: O4_18  and  C12_19 
REMARK   13  A    between atoms: C12_19  and  C13_20 
REMARK   14  A    between atoms: C13_20  and  C14_22 
REMARK   15  A    between atoms: C14_22  and  O6_23 
REMARK   16  A    between atoms: C33_44  and  O10_46 
ROOT
HETATM    1  C12 UNL     1       0.258  10.810  15.856  1.00  0.00     0.260 C 
ENDROOT
BRANCH   1   2
HETATM    2  O4  UNL     1       0.307  10.385  17.212  1.00  0.00    -0.314 OA
BRANCH   2   3
HETATM    3  C11 UNL     1       0.060  11.338  18.145  1.00  0.00     0.259 C 
HETATM    4  O3  UNL     1      -0.094  12.521  17.888  1.00  0.00    -0.265 OA
BRANCH   3   5
HETATM    5  C10 UNL     1       0.110  10.770  19.542  1.00  0.00     0.120 C 
BRANCH   5   6
HETATM    6  C9  UNL     1       1.146  11.510  20.383  1.00  0.00     0.112 C 
BRANCH   6   7
HETATM    7  C8  UNL     1       2.514  10.874  20.247  1.00  0.00     0.218 C 
HETATM    8  N2  UNL     1       3.553  11.732  20.541  1.00  0.00    -0.348 N 
HETATM    9  H14 UNL     1       3.341  12.478  21.196  1.00  0.00     0.163 HD
HETATM   10  O2  UNL     1       2.682   9.716  19.875  1.00  0.00    -0.274 OA
BRANCH   8  11
HETATM   11  C6  UNL     1       4.913  11.208  20.628  1.00  0.00     0.172 C 
HETATM   12  C7  UNL     1       5.782  11.779  19.516  1.00  0.00     0.042 C 
BRANCH  11  13
HETATM   13  C5  UNL     1       5.492  11.619  21.995  1.00  0.00     0.240 C 
HETATM   14  N1  UNL     1       6.459  12.595  21.938  1.00  0.00    -0.345 N 
HETATM   15  H9  UNL     1       6.915  12.761  21.045  1.00  0.00     0.163 HD
HETATM   16  O1  UNL     1       5.066  11.152  23.047  1.00  0.00    -0.271 OA
BRANCH  14  17
HETATM   17  C4  UNL     1       7.242  12.973  23.117  1.00  0.00     0.183 C 
BRANCH  17  18
HETATM   18  C3  UNL     1       7.361  14.493  23.315  1.00  0.00     0.046 C 
BRANCH  18  19
HETATM   19  C2  UNL     1       6.337  15.353  22.574  1.00  0.00     0.076 C 
BRANCH  19  20
HETATM   20  S1  UNL     1       5.753  16.818  23.485  1.00  0.00    -0.173 SA
HETATM   21  C1  UNL     1       7.216  17.875  23.335  1.00  0.00     0.089 C 
ENDBRANCH  19  20
ENDBRANCH  18  19
ENDBRANCH  17  18
BRANCH  17  22
HETATM   22  C33 UNL     1       8.589  12.255  23.045  1.00  0.00     0.163 C 
HETATM   23  O9  UNL     1       8.787  11.089  23.359  1.00  0.00    -0.648 OA
BRANCH  22  24
HETATM   24  O10 UNL     1       9.616  13.042  22.668  1.00  0.00    -0.775 OA
HETATM   25  H46 UNL     1      10.394  12.445  22.693  1.00  0.00     0.167 HD
ENDBRANCH  22  24
ENDBRANCH  17  22
ENDBRANCH  14  17
ENDBRANCH  11  13
ENDBRANCH   8  11
ENDBRANCH   6   7
ENDBRANCH   5   6
ENDBRANCH   3   5
ENDBRANCH   2   3
ENDBRANCH   1   2
BRANCH   1  26
HETATM   26  C13 UNL     1       0.599   9.892  14.665  1.00  0.00     0.185 C 
HETATM   27  O5  UNL     1       1.769   9.534  14.493  1.00  0.00    -0.292 OA
BRANCH  26  28
HETATM   28  C14 UNL     1      -0.523   9.456  13.690  1.00  0.00     0.128 C 
HETATM   29  C15 UNL     1      -0.049   8.782  12.378  1.00  0.00     0.047 C 
HETATM   30  C16 UNL     1      -1.131   7.758  11.985  1.00  0.00     0.009 C 
HETATM   31  C17 UNL     1      -2.236   7.950  13.016  1.00  0.00     0.002 C 
HETATM   32  C18 UNL     1      -3.308   6.869  13.177  1.00  0.00     0.003 C 
HETATM   33  C31 UNL     1      -1.499   8.385  14.304  1.00  0.00     0.005 C 
HETATM   34  C19 UNL     1      -2.891   5.411  12.902  1.00  0.00     0.010 C 
HETATM   35  C28 UNL     1      -4.022   6.939  14.546  1.00  0.00     0.072 C 
HETATM   36  C20 UNL     1      -3.911   4.395  13.454  1.00  0.00     0.035 C 
HETATM   37  C21 UNL     1      -5.293   5.001  13.547  1.00  0.00    -0.067 C 
HETATM   38  C22 UNL     1      -6.295   4.523  12.792  1.00  0.00     0.053 C 
HETATM   39  C26 UNL     1      -5.428   6.245  14.454  1.00  0.00    -0.009 C 
HETATM   40  C23 UNL     1      -7.632   5.164  12.775  1.00  0.00     0.149 C 
HETATM   41  O7  UNL     1      -8.543   4.623  12.152  1.00  0.00    -0.293 OA
HETATM   42  C24 UNL     1      -7.834   6.440  13.554  1.00  0.00     0.084 C 
HETATM   43  C25 UNL     1      -6.521   7.164  13.849  1.00  0.00     0.022 C 
HETATM   44  C27 UNL     1      -5.849   5.781  15.865  1.00  0.00     0.021 C 
HETATM   45  C29 UNL     1      -3.931   8.339  15.155  1.00  0.00     0.133 C 
HETATM   46  O8  UNL     1      -4.911   8.936  15.605  1.00  0.00    -0.297 OA
HETATM   47  C30 UNL     1      -2.534   8.941  15.311  1.00  0.00     0.091 C 
HETATM   48  C32 UNL     1      -0.703   7.224  14.953  1.00  0.00     0.019 C 
BRANCH  28  49
HETATM   49  O6  UNL     1      -1.301  10.602  13.326  1.00  0.00    -0.381 OA
HETATM   50  H21 UNL     1      -0.700  11.368  13.184  1.00  0.00     0.211 HD
ENDBRANCH  28  49
ENDBRANCH  26  28
ENDBRANCH   1  26
TORSDOF 16
ENDMDL
MODEL 6
REMARK minimizedAffinity -8.44107914
REMARK CNNscore 0.262742758
REMARK CNNaffinity 6.01211977
REMARK  16 active torsions:
REMARK  status: ('A' for Active; 'I' for Inactive)
REMARK    1  A    between atoms: S1_2  and  C2_3 
REMARK    2  A    between atoms: C2_3  and  C3_4 
REMARK    3  A    between atoms: C3_4  and  C4_5 
REMARK    4  A    between atoms: C4_5  and  N1_6 
REMARK    5  A    between atoms: C4_5  and  C33_44 
REMARK       I    between atoms: N1_6  and  C5_7 
REMARK    6  A    between atoms: C5_7  and  C6_9 
REMARK    7  A    between atoms: C6_9  and  N2_11 
REMARK       I    between atoms: N2_11  and  C8_12 
REMARK    8  A    between atoms: C8_12  and  C9_14 
REMARK    9  A    between atoms: C9_14  and  C10_15 
REMARK   10  A    between atoms: C10_15  and  C11_16 
REMARK   11  A    between atoms: C11_16  and  O4_18 
REMARK   12  A    between atoms: O4_18  and  C12_19 
REMARK   13  A    between atoms: C12_19  and  C13_20 
REMARK   14  A    between atoms: C13_20  and  C14_22 
REMARK   15  A    between atoms: C14_22  and  O6_23 
REMARK   16  A    between atoms: C33_44  and  O10_46 
ROOT
HETATM    1  C12 UNL     1       1.469   5.772  11.832  1.00  0.00     0.260 C 
ENDROOT
BRANCH   1   2
HETATM    2  O4  UNL     1       1.011   4.774  10.929  1.00  0.00    -0.314 OA
BRANCH   2   3
HETATM    3  C11 UNL     1      -0.032   4.018  11.354  1.00  0.00     0.259 C 
HETATM    4  O3  UNL     1       0.040   2.820  11.579  1.00  0.00    -0.265 OA
BRANCH   3   5
HETATM    5  C10 UNL     1      -1.309   4.818  11.406  1.00  0.00     0.120 C 
BRANCH   5   6
HETATM    6  C9  UNL     1      -2.354   4.103  12.258  1.00  0.00     0.112 C 
BRANCH   6   7
HETATM    7  C8  UNL     1      -3.503   3.603  11.405  1.00  0.00     0.218 C 
HETATM    8  N2  UNL     1      -4.532   3.048  12.135  1.00  0.00    -0.348 N 
HETATM    9  H14 UNL     1      -4.643   3.397  13.082  1.00  0.00     0.163 HD
HETATM   10  O2  UNL     1      -3.499   3.654  10.178  1.00  0.00    -0.274 OA
BRANCH   8  11
HETATM   11  C6  UNL     1      -5.777   2.690  11.464  1.00  0.00     0.172 C 
HETATM   12  C7  UNL     1      -5.870   1.183  11.269  1.00  0.00     0.042 C 
BRANCH  11  13
HETATM   13  C5  UNL     1      -6.945   3.167  12.346  1.00  0.00     0.240 C 
HETATM   14  N1  UNL     1      -6.963   4.520  12.592  1.00  0.00    -0.345 N 
HETATM   15  H9  UNL     1      -6.104   5.042  12.440  1.00  0.00     0.163 HD
HETATM   16  O1  UNL     1      -7.821   2.399  12.735  1.00  0.00    -0.271 OA
BRANCH  14  17
HETATM   17  C4  UNL     1      -7.892   5.116  13.555  1.00  0.00     0.183 C 
BRANCH  17  18
HETATM   18  C3  UNL     1      -9.011   5.942  12.900  1.00  0.00     0.046 C 
BRANCH  18  19
HETATM   19  C2  UNL     1      -9.913   6.731  13.849  1.00  0.00     0.076 C 
BRANCH  19  20
HETATM   20  S1  UNL     1     -11.392   7.463  13.081  1.00  0.00    -0.173 SA
HETATM   21  C1  UNL     1     -12.639   6.991  14.307  1.00  0.00     0.089 C 
ENDBRANCH  19  20
ENDBRANCH  18  19
ENDBRANCH  17  18
BRANCH  17  22
HETATM   22  C33 UNL     1      -7.076   5.894  14.586  1.00  0.00     0.163 C 
HETATM   23  O9  UNL     1      -7.124   5.729  15.798  1.00  0.00    -0.648 OA
BRANCH  22  24
HETATM   24  O10 UNL     1      -6.315   6.875  14.064  1.00  0.00    -0.775 OA
HETATM   25  H46 UNL     1      -5.881   7.281  14.844  1.00  0.00     0.167 HD
ENDBRANCH  22  24
ENDBRANCH  17  22
ENDBRANCH  14  17
ENDBRANCH  11  13
ENDBRANCH   8  11
ENDBRANCH   6   7
ENDBRANCH   5   6
ENDBRANCH   3   5
ENDBRANCH   2   3
ENDBRANCH   1   2
BRANCH   1  26
HETATM   26  C13 UNL     1       1.976   7.156  11.381  1.00  0.00     0.185 C 
HETATM   27  O5  UNL     1       1.184   8.103  11.327  1.00  0.00    -0.292 OA
BRANCH  26  28
HETATM   28  C14 UNL     1       3.461   7.333  10.977  1.00  0.00     0.128 C 
HETATM   29  C15 UNL     1       3.712   8.119   9.665  1.00  0.00     0.047 C 
HETATM   30  C16 UNL     1       5.048   8.867   9.841  1.00  0.00     0.009 C 
HETATM   31  C17 UNL     1       5.572   8.406  11.195  1.00  0.00     0.002 C 
HETATM   32  C18 UNL     1       6.686   9.204  11.879  1.00  0.00     0.003 C 
HETATM   33  C31 UNL     1       4.303   8.137  12.036  1.00  0.00     0.005 C 
HETATM   34  C19 UNL     1       6.729  10.723  11.622  1.00  0.00     0.010 C 
HETATM   35  C28 UNL     1       6.750   8.948  13.402  1.00  0.00     0.072 C 
HETATM   36  C20 UNL     1       7.623  11.464  12.637  1.00  0.00     0.035 C 
HETATM   37  C21 UNL     1       8.689  10.550  13.198  1.00  0.00    -0.067 C 
HETATM   38  C22 UNL     1       9.988  10.792  12.952  1.00  0.00     0.053 C 
HETATM   39  C26 UNL     1       8.183   9.296  13.945  1.00  0.00    -0.009 C 
HETATM   40  C23 UNL     1      11.051   9.857  13.391  1.00  0.00     0.149 C 
HETATM   41  O7  UNL     1      12.227  10.179  13.237  1.00  0.00    -0.293 OA
HETATM   42  C24 UNL     1      10.649   8.557  14.043  1.00  0.00     0.084 C 
HETATM   43  C25 UNL     1       9.211   8.155  13.720  1.00  0.00     0.022 C 
HETATM   44  C27 UNL     1       8.081   9.627  15.448  1.00  0.00     0.021 C 
HETATM   45  C29 UNL     1       6.131   7.599  13.771  1.00  0.00     0.133 C 
HETATM   46  O8  UNL     1       6.696   6.783  14.501  1.00  0.00    -0.297 OA
HETATM   47  C30 UNL     1       4.700   7.339  13.302  1.00  0.00     0.091 C 
HETATM   48  C32 UNL     1       3.573   9.441  12.443  1.00  0.00     0.019 C 
BRANCH  28  49
HETATM   49  O6  UNL     1       4.064   6.042  10.824  1.00  0.00    -0.381 OA
HETATM   50  H21 UNL     1       3.427   5.440  10.376  1.00  0.00     0.211 HD
ENDBRANCH  28  49
ENDBRANCH  26  28
ENDBRANCH   1  26
TORSDOF 16
ENDMDL
MODEL 7
REMARK minimizedAffinity -7.47096062
REMARK CNNscore 0.239937752
REMARK CNNaffinity 5.55768538
REMARK  16 active torsions:
REMARK  status: ('A' for Active; 'I' for Inactive)
REMARK    1  A    between atoms: S1_2  and  C2_3 
REMARK    2  A    between atoms: C2_3  and  C3_4 
REMARK    3  A    between atoms: C3_4  and  C4_5 
REMARK    4  A    between atoms: C4_5  and  N1_6 
REMARK    5  A    between atoms: C4_5  and  C33_44 
REMARK       I    between atoms: N1_6  and  C5_7 
REMARK    6  A    between atoms: C5_7  and  C6_9 
REMARK    7  A    between atoms: C6_9  and  N2_11 
REMARK       I    between atoms: N2_11  and  C8_12 
REMARK    8  A    between atoms: C8_12  and  C9_14 
REMARK    9  A    between atoms: C9_14  and  C10_15 
REMARK   10  A    between atoms: C10_15  and  C11_16 
REMARK   11  A    between atoms: C11_16  and  O4_18 
REMARK   12  A    between atoms: O4_18  and  C12_19 
REMARK   13  A    between atoms: C12_19  and  C13_20 
REMARK   14  A    between atoms: C13_20  and  C14_22 
REMARK   15  A    between atoms: C14_22  and  O6_23 
REMARK   16  A    between atoms: C33_44  and  O10_46 
ROOT
HETATM    1  C12 UNL     1       1.040  11.189  19.721  1.00  0.00     0.260 C 
ENDROOT
BRANCH   1   2
HETATM    2  O4  UNL     1       0.486  10.889  18.446  1.00  0.00    -0.314 OA
BRANCH   2   3
HETATM    3  C11 UNL     1      -0.776  11.335  18.225  1.00  0.00     0.259 C 
HETATM    4  O3  UNL     1      -1.450  11.918  19.059  1.00  0.00    -0.265 OA
BRANCH   3   5
HETATM    5  C10 UNL     1      -1.277  10.922  16.863  1.00  0.00     0.120 C 
BRANCH   5   6
HETATM    6  C9  UNL     1      -2.189   9.704  16.975  1.00  0.00     0.112 C 
BRANCH   6   7
HETATM    7  C8  UNL     1      -3.254   9.720  15.897  1.00  0.00     0.218 C 
HETATM    8  N2  UNL     1      -3.567   8.467  15.413  1.00  0.00    -0.348 N 
HETATM    9  H14 UNL     1      -3.427   7.694  16.056  1.00  0.00     0.163 HD
HETATM   10  O2  UNL     1      -3.762  10.753  15.472  1.00  0.00    -0.274 OA
BRANCH   8  11
HETATM   11  C6  UNL     1      -4.699   8.311  14.505  1.00  0.00     0.172 C 
HETATM   12  C7  UNL     1      -4.241   8.392  13.055  1.00  0.00     0.042 C 
BRANCH  11  13
HETATM   13  C5  UNL     1      -5.331   6.932  14.768  1.00  0.00     0.240 C 
HETATM   14  N1  UNL     1      -5.917   6.351  13.668  1.00  0.00    -0.345 N 
HETATM   15  H9  UNL     1      -6.146   6.949  12.879  1.00  0.00     0.163 HD
HETATM   16  O1  UNL     1      -5.251   6.379  15.861  1.00  0.00    -0.271 OA
BRANCH  14  17
HETATM   17  C4  UNL     1      -6.720   5.130  13.778  1.00  0.00     0.183 C 
BRANCH  17  18
HETATM   18  C3  UNL     1      -6.681   4.253  12.516  1.00  0.00     0.046 C 
BRANCH  18  19
HETATM   19  C2  UNL     1      -5.306   3.739  12.091  1.00  0.00     0.076 C 
BRANCH  19  20
HETATM   20  S1  UNL     1      -5.275   2.026  11.476  1.00  0.00    -0.173 SA
HETATM   21  C1  UNL     1      -3.507   1.672  11.643  1.00  0.00     0.089 C 
ENDBRANCH  19  20
ENDBRANCH  18  19
ENDBRANCH  17  18
BRANCH  17  22
HETATM   22  C33 UNL     1      -8.131   5.525  14.210  1.00  0.00     0.163 C 
HETATM   23  O9  UNL     1      -8.992   5.991  13.476  1.00  0.00    -0.648 OA
BRANCH  22  24
HETATM   24  O10 UNL     1      -8.363   5.392  15.530  1.00  0.00    -0.775 OA
HETATM   25  H46 UNL     1      -9.287   5.701  15.641  1.00  0.00     0.167 HD
ENDBRANCH  22  24
ENDBRANCH  17  22
ENDBRANCH  14  17
ENDBRANCH  11  13
ENDBRANCH   8  11
ENDBRANCH   6   7
ENDBRANCH   5   6
ENDBRANCH   3   5
ENDBRANCH   2   3
ENDBRANCH   1   2
BRANCH   1  26
HETATM   26  C13 UNL     1       2.335  10.545  20.257  1.00  0.00     0.185 C 
HETATM   27  O5  UNL     1       2.840   9.600  19.642  1.00  0.00    -0.292 OA
BRANCH  26  28
HETATM   28  C14 UNL     1       2.967  11.075  21.568  1.00  0.00     0.128 C 
HETATM   29  C15 UNL     1       3.568   9.998  22.507  1.00  0.00     0.047 C 
HETATM   30  C16 UNL     1       4.765  10.650  23.227  1.00  0.00     0.009 C 
HETATM   31  C17 UNL     1       4.748  12.102  22.763  1.00  0.00     0.002 C 
HETATM   32  C18 UNL     1       5.992  12.970  22.971  1.00  0.00     0.003 C 
HETATM   33  C31 UNL     1       4.179  12.048  21.327  1.00  0.00     0.005 C 
HETATM   34  C19 UNL     1       7.362  12.265  22.928  1.00  0.00     0.010 C 
HETATM   35  C28 UNL     1       6.025  14.195  22.030  1.00  0.00     0.072 C 
HETATM   36  C20 UNL     1       8.528  13.261  22.765  1.00  0.00     0.035 C 
HETATM   37  C21 UNL     1       8.163  14.626  23.301  1.00  0.00    -0.067 C 
HETATM   38  C22 UNL     1       8.813  15.135  24.361  1.00  0.00     0.053 C 
HETATM   39  C26 UNL     1       6.948  15.313  22.637  1.00  0.00    -0.009 C 
HETATM   40  C23 UNL     1       8.407  16.418  24.981  1.00  0.00     0.149 C 
HETATM   41  O7  UNL     1       9.101  16.892  25.878  1.00  0.00    -0.293 OA
HETATM   42  C24 UNL     1       7.172  17.116  24.463  1.00  0.00     0.084 C 
HETATM   43  C25 UNL     1       6.234  16.172  23.713  1.00  0.00     0.022 C 
HETATM   44  C27 UNL     1       7.458  16.215  21.493  1.00  0.00     0.021 C 
HETATM   45  C29 UNL     1       4.623  14.577  21.555  1.00  0.00     0.133 C 
HETATM   46  O8  UNL     1       4.194  15.731  21.601  1.00  0.00    -0.297 OA
HETATM   47  C30 UNL     1       3.792  13.481  20.886  1.00  0.00     0.091 C 
HETATM   48  C32 UNL     1       5.180  11.439  20.314  1.00  0.00     0.019 C 
BRANCH  28  49
HETATM   49  O6  UNL     1       1.973  11.787  22.315  1.00  0.00    -0.381 OA
HETATM   50  H21 UNL     1       1.118  11.302  22.258  1.00  0.00     0.211 HD
ENDBRANCH  28  49
ENDBRANCH  26  28
ENDBRANCH   1  26
TORSDOF 16
ENDMDL
MODEL 8
REMARK minimizedAffinity -8.04822063
REMARK CNNscore 0.229855925
REMARK CNNaffinity 6.94088221
REMARK  16 active torsions:
REMARK  status: ('A' for Active; 'I' for Inactive)
REMARK    1  A    between atoms: S1_2  and  C2_3 
REMARK    2  A    between atoms: C2_3  and  C3_4 
REMARK    3  A    between atoms: C3_4  and  C4_5 
REMARK    4  A    between atoms: C4_5  and  N1_6 
REMARK    5  A    between atoms: C4_5  and  C33_44 
REMARK       I    between atoms: N1_6  and  C5_7 
REMARK    6  A    between atoms: C5_7  and  C6_9 
REMARK    7  A    between atoms: C6_9  and  N2_11 
REMARK       I    between atoms: N2_11  and  C8_12 
REMARK    8  A    between atoms: C8_12  and  C9_14 
REMARK    9  A    between atoms: C9_14  and  C10_15 
REMARK   10  A    between atoms: C10_15  and  C11_16 
REMARK   11  A    between atoms: C11_16  and  O4_18 
REMARK   12  A    between atoms: O4_18  and  C12_19 
REMARK   13  A    between atoms: C12_19  and  C13_20 
REMARK   14  A    between atoms: C13_20  and  C14_22 
REMARK   15  A    between atoms: C14_22  and  O6_23 
REMARK   16  A    between atoms: C33_44  and  O10_46 
ROOT
HETATM    1  C12 UNL     1       2.299   7.713  13.757  1.00  0.00     0.260 C 
ENDROOT
BRANCH   1   2
HETATM    2  O4  UNL     1       2.943   7.717  15.025  1.00  0.00    -0.314 OA
BRANCH   2   3
HETATM    3  C11 UNL     1       3.370   8.924  15.472  1.00  0.00     0.259 C 
HETATM    4  O3  UNL     1       2.629   9.794  15.904  1.00  0.00    -0.265 OA
BRANCH   3   5
HETATM    5  C10 UNL     1       4.854   9.097  15.266  1.00  0.00     0.120 C 
BRANCH   5   6
HETATM    6  C9  UNL     1       5.138  10.356  14.452  1.00  0.00     0.112 C 
BRANCH   6   7
HETATM    7  C8  UNL     1       5.876  10.022  13.171  1.00  0.00     0.218 C 
HETATM    8  N2  UNL     1       5.934   8.671  12.904  1.00  0.00    -0.348 N 
HETATM    9  H14 UNL     1       5.176   8.111  13.280  1.00  0.00     0.163 HD
HETATM   10  O2  UNL     1       6.403  10.873  12.459  1.00  0.00    -0.274 OA
BRANCH   8  11
HETATM   11  C6  UNL     1       6.453   8.215  11.618  1.00  0.00     0.172 C 
HETATM   12  C7  UNL     1       7.208   6.903  11.777  1.00  0.00     0.042 C 
BRANCH  11  13
HETATM   13  C5  UNL     1       5.257   8.009  10.671  1.00  0.00     0.240 C 
HETATM   14  N1  UNL     1       4.639   6.786  10.786  1.00  0.00    -0.345 N 
HETATM   15  H9  UNL     1       5.151   6.035  11.240  1.00  0.00     0.163 HD
HETATM   16  O1  UNL     1       4.858   8.899   9.926  1.00  0.00    -0.271 OA
BRANCH  14  17
HETATM   17  C4  UNL     1       3.605   6.353   9.842  1.00  0.00     0.183 C 
BRANCH  17  18
HETATM   18  C3  UNL     1       2.173   6.555  10.362  1.00  0.00     0.046 C 
BRANCH  18  19
HETATM   19  C2  UNL     1       1.136   7.001   9.332  1.00  0.00     0.076 C 
BRANCH  19  20
HETATM   20  S1  UNL     1       1.709   8.264   8.153  1.00  0.00    -0.173 SA
HETATM   21  C1  UNL     1       1.819   7.256   6.653  1.00  0.00     0.089 C 
ENDBRANCH  19  20
ENDBRANCH  18  19
ENDBRANCH  17  18
BRANCH  17  22
HETATM   22  C33 UNL     1       3.912   4.915   9.426  1.00  0.00     0.163 C 
HETATM   23  O9  UNL     1       3.214   4.226   8.694  1.00  0.00    -0.648 OA
BRANCH  22  24
HETATM   24  O10 UNL     1       5.013   4.395  10.002  1.00  0.00    -0.775 OA
HETATM   25  H46 UNL     1       5.054   3.480   9.652  1.00  0.00     0.167 HD
ENDBRANCH  22  24
ENDBRANCH  17  22
ENDBRANCH  14  17
ENDBRANCH  11  13
ENDBRANCH   8  11
ENDBRANCH   6   7
ENDBRANCH   5   6
ENDBRANCH   3   5
ENDBRANCH   2   3
ENDBRANCH   1   2
BRANCH   1  26
HETATM   26  C13 UNL     1       0.775   7.864  13.578  1.00  0.00     0.185 C 
HETATM   27  O5  UNL     1       0.327   8.887  13.050  1.00  0.00    -0.292 OA
BRANCH  26  28
HETATM   28  C14 UNL     1      -0.169   6.747  14.087  1.00  0.00     0.128 C 
HETATM   29  C15 UNL     1      -0.951   7.068  15.386  1.00  0.00     0.047 C 
HETATM   30  C16 UNL     1      -2.303   6.335  15.287  1.00  0.00     0.009 C 
HETATM   31  C17 UNL     1      -2.214   5.536  13.993  1.00  0.00     0.002 C 
HETATM   32  C18 UNL     1      -3.494   4.975  13.369  1.00  0.00     0.003 C 
HETATM   33  C31 UNL     1      -1.313   6.386  13.069  1.00  0.00     0.005 C 
HETATM   34  C19 UNL     1      -4.794   5.777  13.576  1.00  0.00     0.010 C 
HETATM   35  C28 UNL     1      -3.332   4.657  11.864  1.00  0.00     0.072 C 
HETATM   36  C20 UNL     1      -5.912   5.342  12.607  1.00  0.00     0.035 C 
HETATM   37  C21 UNL     1      -5.724   3.910  12.161  1.00  0.00    -0.067 C 
HETATM   38  C22 UNL     1      -6.625   2.971  12.495  1.00  0.00     0.053 C 
HETATM   39  C26 UNL     1      -4.404   3.598  11.421  1.00  0.00    -0.009 C 
HETATM   40  C23 UNL     1      -6.415   1.540  12.171  1.00  0.00     0.149 C 
HETATM   41  O7  UNL     1      -7.319   0.739  12.403  1.00  0.00    -0.293 OA
HETATM   42  C24 UNL     1      -5.112   1.123  11.536  1.00  0.00     0.084 C 
HETATM   43  C25 UNL     1      -3.995   2.141  11.762  1.00  0.00     0.022 C 
HETATM   44  C27 UNL     1      -4.645   3.738   9.903  1.00  0.00     0.021 C 
HETATM   45  C29 UNL     1      -1.867   4.420  11.496  1.00  0.00     0.133 C 
HETATM   46  O8  UNL     1      -1.493   3.447  10.840  1.00  0.00    -0.297 OA
HETATM   47  C30 UNL     1      -0.870   5.519  11.865  1.00  0.00     0.091 C 
HETATM   48  C32 UNL     1      -2.022   7.667  12.562  1.00  0.00     0.019 C 
BRANCH  28  49
HETATM   49  O6  UNL     1       0.595   5.559  14.330  1.00  0.00    -0.381 OA
HETATM   50  H21 UNL     1       1.450   5.806  14.749  1.00  0.00     0.211 HD
ENDBRANCH  28  49
ENDBRANCH  26  28
ENDBRANCH   1  26
TORSDOF 16
ENDMDL
MODEL 9
REMARK minimizedAffinity -7.38455057
REMARK CNNscore 0.223812521
REMARK CNNaffinity 7.43949318
REMARK  16 active torsions:
REMARK  status: ('A' for Active; 'I' for Inactive)
REMARK    1  A    between atoms: S1_2  and  C2_3 
REMARK    2  A    between atoms: C2_3  and  C3_4 
REMARK    3  A    between atoms: C3_4  and  C4_5 
REMARK    4  A    between atoms: C4_5  and  N1_6 
REMARK    5  A    between atoms: C4_5  and  C33_44 
REMARK       I    between atoms: N1_6  and  C5_7 
REMARK    6  A    between atoms: C5_7  and  C6_9 
REMARK    7  A    between atoms: C6_9  and  N2_11 
REMARK       I    between atoms: N2_11  and  C8_12 
REMARK    8  A    between atoms: C8_12  and  C9_14 
REMARK    9  A    between atoms: C9_14  and  C10_15 
REMARK   10  A    between atoms: C10_15  and  C11_16 
REMARK   11  A    between atoms: C11_16  and  O4_18 
REMARK   12  A    between atoms: O4_18  and  C12_19 
REMARK   13  A    between atoms: C12_19  and  C13_20 
REMARK   14  A    between atoms: C13_20  and  C14_22 
REMARK   15  A    between atoms: C14_22  and  O6_23 
REMARK   16  A    between atoms: C33_44  and  O10_46 
ROOT
HETATM    1  C12 UNL     1      -5.477   3.909  12.806  1.00  0.00     0.260 C 
ENDROOT
BRANCH   1   2
HETATM    2  O4  UNL     1      -4.740   3.976  11.591  1.00  0.00    -0.314 OA
BRANCH   2   3
HETATM    3  C11 UNL     1      -3.614   3.222  11.535  1.00  0.00     0.259 C 
HETATM    4  O3  UNL     1      -3.558   2.051  11.879  1.00  0.00    -0.265 OA
BRANCH   3   5
HETATM    5  C10 UNL     1      -2.422   4.039  11.101  1.00  0.00     0.120 C 
BRANCH   5   6
HETATM    6  C9  UNL     1      -1.751   4.688  12.307  1.00  0.00     0.112 C 
BRANCH   6   7
HETATM    7  C8  UNL     1      -0.906   5.874  11.887  1.00  0.00     0.218 C 
HETATM    8  N2  UNL     1       0.136   5.539  11.047  1.00  0.00    -0.348 N 
HETATM    9  H14 UNL     1      -0.005   4.715  10.472  1.00  0.00     0.163 HD
HETATM   10  O2  UNL     1      -1.108   7.017  12.287  1.00  0.00    -0.274 OA
BRANCH   8  11
HETATM   11  C6  UNL     1       0.920   6.598  10.421  1.00  0.00     0.172 C 
HETATM   12  C7  UNL     1       0.046   7.805  10.110  1.00  0.00     0.042 C 
BRANCH  11  13
HETATM   13  C5  UNL     1       2.032   7.009  11.404  1.00  0.00     0.240 C 
HETATM   14  N1  UNL     1       2.873   7.993  10.941  1.00  0.00    -0.345 N 
HETATM   15  H9  UNL     1       2.895   8.167   9.939  1.00  0.00     0.163 HD
HETATM   16  O1  UNL     1       2.107   6.535  12.534  1.00  0.00    -0.271 OA
BRANCH  14  17
HETATM   17  C4  UNL     1       4.087   8.375  11.666  1.00  0.00     0.183 C 
BRANCH  17  18
HETATM   18  C3  UNL     1       3.936   9.670  12.480  1.00  0.00     0.046 C 
BRANCH  18  19
HETATM   19  C2  UNL     1       4.559   9.668  13.876  1.00  0.00     0.076 C 
BRANCH  19  20
HETATM   20  S1  UNL     1       5.051   8.030  14.502  1.00  0.00    -0.173 SA
HETATM   21  C1  UNL     1       6.838   8.122  14.227  1.00  0.00     0.089 C 
ENDBRANCH  19  20
ENDBRANCH  18  19
ENDBRANCH  17  18
BRANCH  17  22
HETATM   22  C33 UNL     1       5.247   8.404  10.672  1.00  0.00     0.163 C 
HETATM   23  O9  UNL     1       5.942   7.444  10.367  1.00  0.00    -0.648 OA
BRANCH  22  24
HETATM   24  O10 UNL     1       5.524   9.627  10.181  1.00  0.00    -0.775 OA
HETATM   25  H46 UNL     1       6.291   9.477   9.588  1.00  0.00     0.167 HD
ENDBRANCH  22  24
ENDBRANCH  17  22
ENDBRANCH  14  17
ENDBRANCH  11  13
ENDBRANCH   8  11
ENDBRANCH   6   7
ENDBRANCH   5   6
ENDBRANCH   3   5
ENDBRANCH   2   3
ENDBRANCH   1   2
BRANCH   1  26
HETATM   26  C13 UNL     1      -5.496   5.042  13.851  1.00  0.00     0.185 C 
HETATM   27  O5  UNL     1      -4.492   5.747  13.998  1.00  0.00    -0.292 OA
BRANCH  26  28
HETATM   28  C14 UNL     1      -6.760   5.261  14.718  1.00  0.00     0.128 C 
HETATM   29  C15 UNL     1      -6.503   5.646  16.197  1.00  0.00     0.047 C 
HETATM   30  C16 UNL     1      -7.664   6.562  16.630  1.00  0.00     0.009 C 
HETATM   31  C17 UNL     1      -8.602   6.588  15.429  1.00  0.00     0.002 C 
HETATM   32  C18 UNL     1      -9.675   7.676  15.340  1.00  0.00     0.003 C 
HETATM   33  C31 UNL     1      -7.673   6.435  14.203  1.00  0.00     0.005 C 
HETATM   34  C19 UNL     1      -9.351   9.045  15.970  1.00  0.00     0.010 C 
HETATM   35  C28 UNL     1     -10.181   7.893  13.895  1.00  0.00     0.072 C 
HETATM   36  C20 UNL     1     -10.313  10.151  15.495  1.00  0.00     0.035 C 
HETATM   37  C21 UNL     1     -11.647   9.576  15.075  1.00  0.00    -0.067 C 
HETATM   38  C22 UNL     1     -12.763   9.882  15.756  1.00  0.00     0.053 C 
HETATM   39  C26 UNL     1     -11.609   8.550  13.920  1.00  0.00    -0.009 C 
HETATM   40  C23 UNL     1     -14.066   9.249  15.442  1.00  0.00     0.149 C 
HETATM   41  O7  UNL     1     -15.075   9.645  16.022  1.00  0.00    -0.293 OA
HETATM   42  C24 UNL     1     -14.111   8.164  14.395  1.00  0.00     0.084 C 
HETATM   43  C25 UNL     1     -12.746   7.521  14.153  1.00  0.00     0.022 C 
HETATM   44  C27 UNL     1     -11.837   9.298  12.590  1.00  0.00     0.021 C 
HETATM   45  C29 UNL     1      -9.957   6.653  13.029  1.00  0.00     0.133 C 
HETATM   46  O8  UNL     1     -10.842   6.161  12.326  1.00  0.00    -0.297 OA
HETATM   47  C30 UNL     1      -8.533   6.100  12.960  1.00  0.00     0.091 C 
HETATM   48  C32 UNL     1      -6.831   7.708  13.933  1.00  0.00     0.019 C 
BRANCH  28  49
HETATM   49  O6  UNL     1      -7.545   4.062  14.718  1.00  0.00    -0.381 OA
HETATM   50  H21 UNL     1      -6.945   3.285  14.786  1.00  0.00     0.211 HD
ENDBRANCH  28  49
ENDBRANCH  26  28
ENDBRANCH   1  26
TORSDOF 16
ENDMDL
