MODEL 1
REMARK minimizedAffinity -8.96396542
REMARK CNNscore 0.539179564
REMARK CNNaffinity 7.23285103
REMARK  6 active torsions:
REMARK  status: ('A' for Active; 'I' for Inactive)
REMARK    1  A    between atoms: C3_3  and  O1_4 
REMARK    2  A    between atoms: N1_14  and  O2_16 
REMARK    3  A    between atoms: O2_16  and  C13_17 
REMARK    4  A    between atoms: C13_17  and  C14_18 
REMARK       I    between atoms: C14_18  and  N2_20 
REMARK    5  A    between atoms: N2_20  and  C15_21 
REMARK    6  A    between atoms: C15_21  and  C17_23 
ROOT
HETATM    1  C1  UNL     1       2.234  51.270 -27.521  1.00  0.00     0.015 C 
HETATM    2  C2  UNL     1       1.203  51.867 -27.360  1.00  0.00    -0.078 C 
HETATM    3  C3  UNL     1      -0.058  52.623 -27.188  1.00  0.00     0.128 C 
HETATM    4  C4  UNL     1       0.223  53.976 -26.485  1.00  0.00     0.052 C 
HETATM    5  C5  UNL     1      -0.153  53.792 -25.000  1.00  0.00     0.010 C 
HETATM    6  C6  UNL     1      -0.484  52.307 -24.861  1.00  0.00     0.002 C 
HETATM    7  C7  UNL     1      -1.366  51.864 -23.686  1.00  0.00    -0.004 C 
HETATM    8  C8  UNL     1      -0.739  52.250 -22.340  1.00  0.00     0.010 C 
HETATM    9  C9  UNL     1      -1.618  51.807 -21.178  1.00  0.00     0.035 C 
HETATM   10  C10 UNL     1      -1.940  50.332 -21.228  1.00  0.00    -0.069 C 
HETATM   11  C11 UNL     1      -1.797  49.588 -20.116  1.00  0.00     0.030 C 
HETATM   12  C12 UNL     1      -2.233  48.170 -20.052  1.00  0.00     0.032 C 
HETATM   13  N1  UNL     1      -2.074  47.539 -18.923  1.00  0.00    -0.271 N 
ATOM     14  H1  UNL     1      -1.623  47.940 -18.101  1.00  0.00     0.194 HD
HETATM   15  C23 UNL     1      -2.899  47.579 -21.277  1.00  0.00     0.060 C 
HETATM   16  C24 UNL     1      -2.369  48.224 -22.549  1.00  0.00     0.020 C 
HETATM   17  C25 UNL     1      -2.461  49.777 -22.559  1.00  0.00    -0.016 C 
HETATM   18  C26 UNL     1      -3.942  50.194 -22.707  1.00  0.00     0.020 C 
HETATM   19  C27 UNL     1      -1.573  50.319 -23.747  1.00  0.00     0.002 C 
HETATM   20  C28 UNL     1      -2.045  49.844 -25.150  1.00  0.00     0.007 C 
HETATM   21  C29 UNL     1      -1.201  50.408 -26.307  1.00  0.00     0.014 C 
HETATM   22  C30 UNL     1      -1.085  51.941 -26.236  1.00  0.00     0.003 C 
HETATM   23  C31 UNL     1      -2.498  52.553 -26.483  1.00  0.00     0.020 C 
ENDROOT
BRANCH   3  24
HETATM   24  O1  UNL     1      -0.610  52.848 -28.479  1.00  0.00    -0.377 OA
HETATM   25  H2  UNL     1       0.111  53.182 -29.039  1.00  0.00     0.211 HD
ENDBRANCH   3  24
BRANCH  13  26
HETATM   26  O2  UNL     1      -2.602  46.240 -18.980  1.00  0.00    -0.271 OA
BRANCH  26  27
HETATM   27  C13 UNL     1      -3.388  46.020 -17.818  1.00  0.00     0.303 C 
BRANCH  27  28
HETATM   28  C14 UNL     1      -3.362  44.539 -17.464  1.00  0.00     0.244 C 
HETATM   29  O3  UNL     1      -4.228  43.751 -17.839  1.00  0.00    -0.271 OA
HETATM   30  N2  UNL     1      -2.290  44.152 -16.686  1.00  0.00    -0.351 N 
HETATM   31  H16 UNL     1      -1.537  44.805 -16.511  1.00  0.00     0.163 HD
BRANCH  30  32
HETATM   32  C15 UNL     1      -2.100  42.772 -16.271  1.00  0.00     0.113 C 
HETATM   33  C16 UNL     1      -2.303  42.617 -14.759  1.00  0.00     0.037 C 
BRANCH  32  34
HETATM   34  C17 UNL     1      -0.742  42.286 -16.753  1.00  0.00    -0.036 A 
HETATM   35  C18 UNL     1       0.463  42.798 -16.247  1.00  0.00     0.009 A 
HETATM   36  C19 UNL     1       1.692  42.341 -16.731  1.00  0.00     0.001 A 
HETATM   37  C20 UNL     1       1.733  41.375 -17.733  1.00  0.00     0.000 A 
HETATM   38  C21 UNL     1       0.546  40.872 -18.261  1.00  0.00     0.001 A 
HETATM   39  C22 UNL     1      -0.683  41.328 -17.779  1.00  0.00     0.009 A 
ENDBRANCH  32  34
ENDBRANCH  30  32
ENDBRANCH  27  28
ENDBRANCH  26  27
ENDBRANCH  13  26
TORSDOF 6
ENDMDL
MODEL 2
REMARK minimizedAffinity -8.28981209
REMARK CNNscore 0.396717787
REMARK CNNaffinity 5.81256342
REMARK  6 active torsions:
REMARK  status: ('A' for Active; 'I' for Inactive)
REMARK    1  A    between atoms: C3_3  and  O1_4 
REMARK    2  A    between atoms: N1_14  and  O2_16 
REMARK    3  A    between atoms: O2_16  and  C13_17 
REMARK    4  A    between atoms: C13_17  and  C14_18 
REMARK       I    between atoms: C14_18  and  N2_20 
REMARK    5  A    between atoms: N2_20  and  C15_21 
REMARK    6  A    between atoms: C15_21  and  C17_23 
ROOT
HETATM    1  C1  UNL     1       0.677  67.295 -41.554  1.00  0.00     0.015 C 
HETATM    2  C2  UNL     1       0.630  67.863 -40.496  1.00  0.00    -0.078 C 
HETATM    3  C3  UNL     1       0.546  68.580 -39.203  1.00  0.00     0.128 C 
HETATM    4  C4  UNL     1       1.110  70.016 -39.352  1.00  0.00     0.052 C 
HETATM    5  C5  UNL     1       2.546  69.991 -38.787  1.00  0.00     0.010 C 
HETATM    6  C6  UNL     1       2.820  68.519 -38.480  1.00  0.00     0.002 C 
HETATM    7  C7  UNL     1       3.916  68.179 -37.462  1.00  0.00    -0.004 C 
HETATM    8  C8  UNL     1       5.275  68.746 -37.895  1.00  0.00     0.010 C 
HETATM    9  C9  UNL     1       6.360  68.404 -36.881  1.00  0.00     0.035 C 
HETATM   10  C10 UNL     1       6.447  66.921 -36.607  1.00  0.00    -0.069 C 
HETATM   11  C11 UNL     1       7.650  66.318 -36.622  1.00  0.00     0.030 C 
HETATM   12  C12 UNL     1       7.828  64.900 -36.218  1.00  0.00     0.032 C 
HETATM   13  N1  UNL     1       9.037  64.412 -36.243  1.00  0.00    -0.271 N 
ATOM     14  H1  UNL     1       9.855  64.924 -36.570  1.00  0.00     0.194 HD
HETATM   15  C23 UNL     1       6.609  64.143 -35.737  1.00  0.00     0.060 C 
HETATM   16  C24 UNL     1       5.346  64.657 -36.414  1.00  0.00     0.020 C 
HETATM   17  C25 UNL     1       5.137  66.193 -36.282  1.00  0.00    -0.016 C 
HETATM   18  C26 UNL     1       4.751  66.527 -34.825  1.00  0.00     0.020 C 
HETATM   19  C27 UNL     1       4.017  66.630 -37.306  1.00  0.00     0.002 C 
HETATM   20  C28 UNL     1       2.633  65.976 -37.037  1.00  0.00     0.007 C 
HETATM   21  C29 UNL     1       1.534  66.437 -38.012  1.00  0.00     0.014 C 
HETATM   22  C30 UNL     1       1.433  67.970 -38.077  1.00  0.00     0.003 C 
HETATM   23  C31 UNL     1       0.935  68.490 -36.694  1.00  0.00     0.020 C 
ENDROOT
BRANCH   3  24
HETATM   24  O1  UNL     1      -0.823  68.629 -38.821  1.00  0.00    -0.377 OA
HETATM   25  H2  UNL     1      -1.322  68.926 -39.601  1.00  0.00     0.211 HD
ENDBRANCH   3  24
BRANCH  13  26
HETATM   26  O2  UNL     1       9.070  63.094 -35.761  1.00  0.00    -0.271 OA
BRANCH  26  27
HETATM   27  C13 UNL     1       9.596  63.107 -34.443  1.00  0.00     0.303 C 
BRANCH  27  28
HETATM   28  C14 UNL     1      11.117  63.174 -34.508  1.00  0.00     0.244 C 
HETATM   29  O3  UNL     1      11.828  63.114 -33.506  1.00  0.00    -0.271 OA
HETATM   30  N2  UNL     1      11.633  63.311 -35.780  1.00  0.00    -0.351 N 
HETATM   31  H16 UNL     1      11.021  63.225 -36.580  1.00  0.00     0.163 HD
BRANCH  30  32
HETATM   32  C15 UNL     1      13.065  63.372 -36.025  1.00  0.00     0.113 C 
HETATM   33  C16 UNL     1      13.458  64.709 -36.667  1.00  0.00     0.037 C 
BRANCH  32  34
HETATM   34  C17 UNL     1      13.486  62.161 -36.842  1.00  0.00    -0.036 A 
HETATM   35  C18 UNL     1      14.711  61.507 -36.640  1.00  0.00     0.009 A 
HETATM   36  C19 UNL     1      15.071  60.409 -37.426  1.00  0.00     0.001 A 
HETATM   37  C20 UNL     1      14.219  59.958 -38.430  1.00  0.00     0.000 A 
HETATM   38  C21 UNL     1      13.008  60.609 -38.658  1.00  0.00     0.001 A 
HETATM   39  C22 UNL     1      12.647  61.706 -37.874  1.00  0.00     0.009 A 
ENDBRANCH  32  34
ENDBRANCH  30  32
ENDBRANCH  27  28
ENDBRANCH  26  27
ENDBRANCH  13  26
TORSDOF 6
ENDMDL
MODEL 3
REMARK minimizedAffinity -10.5499115
REMARK CNNscore 0.388948917
REMARK CNNaffinity 7.18039179
REMARK  6 active torsions:
REMARK  status: ('A' for Active; 'I' for Inactive)
REMARK    1  A    between atoms: C3_3  and  O1_4 
REMARK    2  A    between atoms: N1_14  and  O2_16 
REMARK    3  A    between atoms: O2_16  and  C13_17 
REMARK    4  A    between atoms: C13_17  and  C14_18 
REMARK       I    between atoms: C14_18  and  N2_20 
REMARK    5  A    between atoms: N2_20  and  C15_21 
REMARK    6  A    between atoms: C15_21  and  C17_23 
ROOT
HETATM    1  C1  UNL     1       2.115  51.063 -26.452  1.00  0.00     0.015 C 
HETATM    2  C2  UNL     1       1.166  51.739 -26.155  1.00  0.00    -0.078 C 
HETATM    3  C3  UNL     1      -0.000  52.586 -25.819  1.00  0.00     0.128 C 
HETATM    4  C4  UNL     1       0.464  54.030 -25.499  1.00  0.00     0.052 C 
HETATM    5  C5  UNL     1       0.492  54.158 -23.962  1.00  0.00     0.010 C 
HETATM    6  C6  UNL     1       0.202  52.749 -23.446  1.00  0.00     0.002 C 
HETATM    7  C7  UNL     1      -0.341  52.593 -22.020  1.00  0.00    -0.004 C 
HETATM    8  C8  UNL     1       0.622  53.193 -20.987  1.00  0.00     0.010 C 
HETATM    9  C9  UNL     1       0.079  53.034 -19.573  1.00  0.00     0.035 C 
HETATM   10  C10 UNL     1      -0.254  51.598 -19.241  1.00  0.00    -0.069 C 
HETATM   11  C11 UNL     1       0.174  51.074 -18.077  1.00  0.00     0.030 C 
HETATM   12  C12 UNL     1      -0.238  49.724 -17.620  1.00  0.00     0.032 C 
HETATM   13  N1  UNL     1       0.210  49.314 -16.467  1.00  0.00    -0.271 N 
ATOM     14  H1  UNL     1       0.865  49.837 -15.887  1.00  0.00     0.194 HD
HETATM   15  C23 UNL     1      -1.207  48.948 -18.486  1.00  0.00     0.060 C 
HETATM   16  C24 UNL     1      -1.029  49.304 -19.956  1.00  0.00     0.020 C 
HETATM   17  C25 UNL     1      -1.111  50.829 -20.253  1.00  0.00    -0.016 C 
HETATM   18  C26 UNL     1      -2.576  51.295 -20.095  1.00  0.00     0.020 C 
HETATM   19  C27 UNL     1      -0.566  51.080 -21.713  1.00  0.00     0.002 C 
HETATM   20  C28 UNL     1      -1.394  50.372 -22.822  1.00  0.00     0.007 C 
HETATM   21  C29 UNL     1      -0.883  50.653 -24.247  1.00  0.00     0.014 C 
HETATM   22  C30 UNL     1      -0.744  52.161 -24.517  1.00  0.00     0.003 C 
HETATM   23  C31 UNL     1      -2.167  52.796 -24.509  1.00  0.00     0.020 C 
ENDROOT
BRANCH   3  24
HETATM   24  O1  UNL     1      -0.873  52.590 -26.942  1.00  0.00    -0.377 OA
HETATM   25  H2  UNL     1      -0.323  52.767 -27.724  1.00  0.00     0.211 HD
ENDBRANCH   3  24
BRANCH  13  26
HETATM   26  O2  UNL     1      -0.322  48.061 -16.123  1.00  0.00    -0.271 OA
BRANCH  26  27
HETATM   27  C13 UNL     1       0.081  47.746 -14.799  1.00  0.00     0.303 C 
BRANCH  27  28
HETATM   28  C14 UNL     1       0.947  48.875 -14.253  1.00  0.00     0.244 C 
HETATM   29  O3  UNL     1       2.140  48.732 -13.995  1.00  0.00    -0.271 OA
HETATM   30  N2  UNL     1       0.284  50.071 -14.069  1.00  0.00    -0.351 N 
HETATM   31  H16 UNL     1      -0.660  50.178 -14.416  1.00  0.00     0.163 HD
BRANCH  30  32
HETATM   32  C15 UNL     1       0.962  51.257 -13.573  1.00  0.00     0.113 C 
HETATM   33  C16 UNL     1      -0.045  52.339 -13.165  1.00  0.00     0.037 C 
BRANCH  32  34
HETATM   34  C17 UNL     1       1.971  51.728 -14.609  1.00  0.00    -0.036 A 
HETATM   35  C18 UNL     1       1.594  52.458 -15.747  1.00  0.00     0.009 A 
HETATM   36  C19 UNL     1       2.549  52.855 -16.688  1.00  0.00     0.001 A 
HETATM   37  C20 UNL     1       3.888  52.518 -16.510  1.00  0.00     0.000 A 
HETATM   38  C21 UNL     1       4.276  51.775 -15.396  1.00  0.00     0.001 A 
HETATM   39  C22 UNL     1       3.323  51.378 -14.456  1.00  0.00     0.009 A 
ENDBRANCH  32  34
ENDBRANCH  30  32
ENDBRANCH  27  28
ENDBRANCH  26  27
ENDBRANCH  13  26
TORSDOF 6
ENDMDL
MODEL 4
REMARK minimizedAffinity -10.1459579
REMARK CNNscore 0.344020426
REMARK CNNaffinity 7.29471779
REMARK  6 active torsions:
REMARK  status: ('A' for Active; 'I' for Inactive)
REMARK    1  A    between atoms: C3_3  and  O1_4 
REMARK    2  A    between atoms: N1_14  and  O2_16 
REMARK    3  A    between atoms: O2_16  and  C13_17 
REMARK    4  A    between atoms: C13_17  and  C14_18 
REMARK       I    between atoms: C14_18  and  N2_20 
REMARK    5  A    between atoms: N2_20  and  C15_21 
REMARK    6  A    between atoms: C15_21  and  C17_23 
ROOT
HETATM    1  C1  UNL     1       2.114  50.980 -26.373  1.00  0.00     0.015 C 
HETATM    2  C2  UNL     1       1.157  51.651 -26.093  1.00  0.00    -0.078 C 
HETATM    3  C3  UNL     1      -0.023  52.488 -25.781  1.00  0.00     0.128 C 
HETATM    4  C4  UNL     1       0.397  53.976 -25.657  1.00  0.00     0.052 C 
HETATM    5  C5  UNL     1       0.513  54.281 -24.149  1.00  0.00     0.010 C 
HETATM    6  C6  UNL     1       0.315  52.932 -23.459  1.00  0.00     0.002 C 
HETATM    7  C7  UNL     1      -0.133  52.923 -21.993  1.00  0.00    -0.004 C 
HETATM    8  C8  UNL     1       0.863  53.673 -21.099  1.00  0.00     0.010 C 
HETATM    9  C9  UNL     1       0.414  53.659 -19.643  1.00  0.00     0.035 C 
HETATM   10  C10 UNL     1       0.164  52.261 -19.130  1.00  0.00    -0.069 C 
HETATM   11  C11 UNL     1       0.684  51.891 -17.945  1.00  0.00     0.030 C 
HETATM   12  C12 UNL     1       0.359  50.588 -17.312  1.00  0.00     0.032 C 
HETATM   13  N1  UNL     1       0.893  50.331 -16.151  1.00  0.00    -0.271 N 
ATOM     14  H1  UNL     1       1.559  50.941 -15.678  1.00  0.00     0.194 HD
HETATM   15  C23 UNL     1      -0.626  49.683 -18.020  1.00  0.00     0.060 C 
HETATM   16  C24 UNL     1      -0.552  49.873 -19.528  1.00  0.00     0.020 C 
HETATM   17  C25 UNL     1      -0.719  51.349 -19.991  1.00  0.00    -0.016 C 
HETATM   18  C26 UNL     1      -2.190  51.778 -19.792  1.00  0.00     0.020 C 
HETATM   19  C27 UNL     1      -0.274  51.448 -21.502  1.00  0.00     0.002 C 
HETATM   20  C28 UNL     1      -1.136  50.588 -22.468  1.00  0.00     0.007 C 
HETATM   21  C29 UNL     1      -0.725  50.720 -23.945  1.00  0.00     0.014 C 
HETATM   22  C30 UNL     1      -0.667  52.191 -24.393  1.00  0.00     0.003 C 
HETATM   23  C31 UNL     1      -2.114  52.771 -24.365  1.00  0.00     0.020 C 
ENDROOT
BRANCH   3  24
HETATM   24  O1  UNL     1      -0.961  52.332 -26.837  1.00  0.00    -0.377 OA
HETATM   25  H2  UNL     1      -0.468  52.437 -27.668  1.00  0.00     0.211 HD
ENDBRANCH   3  24
BRANCH  13  26
HETATM   26  O2  UNL     1       0.438  49.108 -15.634  1.00  0.00    -0.271 OA
BRANCH  26  27
HETATM   27  C13 UNL     1       0.222  49.259 -14.239  1.00  0.00     0.303 C 
BRANCH  27  28
HETATM   28  C14 UNL     1      -0.536  50.555 -13.983  1.00  0.00     0.244 C 
HETATM   29  O3  UNL     1      -1.433  50.957 -14.722  1.00  0.00    -0.271 OA
HETATM   30  N2  UNL     1      -0.135  51.245 -12.858  1.00  0.00    -0.351 N 
HETATM   31  H16 UNL     1       0.514  50.813 -12.212  1.00  0.00     0.163 HD
BRANCH  30  32
HETATM   32  C15 UNL     1      -0.764  52.491 -12.455  1.00  0.00     0.113 C 
HETATM   33  C16 UNL     1       0.190  53.344 -11.609  1.00  0.00     0.037 C 
BRANCH  32  34
HETATM   34  C17 UNL     1      -2.081  52.186 -11.760  1.00  0.00    -0.036 A 
HETATM   35  C18 UNL     1      -2.478  50.878 -11.442  1.00  0.00     0.009 A 
HETATM   36  C19 UNL     1      -3.707  50.636 -10.821  1.00  0.00     0.001 A 
HETATM   37  C20 UNL     1      -4.559  51.696 -10.520  1.00  0.00     0.000 A 
HETATM   38  C21 UNL     1      -4.189  52.999 -10.848  1.00  0.00     0.001 A 
HETATM   39  C22 UNL     1      -2.962  53.242 -11.468  1.00  0.00     0.009 A 
ENDBRANCH  32  34
ENDBRANCH  30  32
ENDBRANCH  27  28
ENDBRANCH  26  27
ENDBRANCH  13  26
TORSDOF 6
ENDMDL
MODEL 5
REMARK minimizedAffinity -7.83446455
REMARK CNNscore 0.299153358
REMARK CNNaffinity 5.99844551
REMARK  6 active torsions:
REMARK  status: ('A' for Active; 'I' for Inactive)
REMARK    1  A    between atoms: C3_3  and  O1_4 
REMARK    2  A    between atoms: N1_14  and  O2_16 
REMARK    3  A    between atoms: O2_16  and  C13_17 
REMARK    4  A    between atoms: C13_17  and  C14_18 
REMARK       I    between atoms: C14_18  and  N2_20 
REMARK    5  A    between atoms: N2_20  and  C15_21 
REMARK    6  A    between atoms: C15_21  and  C17_23 
ROOT
HETATM    1  C1  UNL     1      -6.053  43.607 -31.884  1.00  0.00     0.015 C 
HETATM    2  C2  UNL     1      -6.285  44.782 -31.983  1.00  0.00    -0.078 C 
HETATM    3  C3  UNL     1      -6.543  46.232 -32.124  1.00  0.00     0.128 C 
HETATM    4  C4  UNL     1      -5.606  47.034 -31.183  1.00  0.00     0.052 C 
HETATM    5  C5  UNL     1      -6.441  47.413 -29.942  1.00  0.00     0.010 C 
HETATM    6  C6  UNL     1      -7.774  46.689 -30.129  1.00  0.00     0.002 C 
HETATM    7  C7  UNL     1      -9.002  47.218 -29.379  1.00  0.00    -0.004 C 
HETATM    8  C8  UNL     1      -8.772  47.221 -27.862  1.00  0.00     0.010 C 
HETATM    9  C9  UNL     1      -9.996  47.746 -27.122  1.00  0.00     0.035 C 
HETATM   10  C10 UNL     1     -11.255  46.994 -27.483  1.00  0.00    -0.069 C 
HETATM   11  C11 UNL     1     -12.069  46.563 -26.502  1.00  0.00     0.030 C 
HETATM   12  C12 UNL     1     -13.391  45.950 -26.784  1.00  0.00     0.032 C 
HETATM   13  N1  UNL     1     -14.119  45.586 -25.766  1.00  0.00    -0.271 N 
ATOM     14  H1  UNL     1     -13.816  45.647 -24.794  1.00  0.00     0.194 HD
HETATM   15  C23 UNL     1     -13.834  45.857 -28.229  1.00  0.00     0.060 C 
HETATM   16  C24 UNL     1     -12.637  45.704 -29.157  1.00  0.00     0.020 C 
HETATM   17  C25 UNL     1     -11.550  46.803 -28.975  1.00  0.00    -0.016 C 
HETATM   18  C26 UNL     1     -12.086  48.140 -29.534  1.00  0.00     0.020 C 
HETATM   19  C27 UNL     1     -10.240  46.333 -29.722  1.00  0.00     0.002 C 
HETATM   20  C28 UNL     1     -10.424  46.148 -31.254  1.00  0.00     0.007 C 
HETATM   21  C29 UNL     1      -9.135  45.730 -31.984  1.00  0.00     0.014 C 
HETATM   22  C30 UNL     1      -7.964  46.675 -31.662  1.00  0.00     0.003 C 
HETATM   23  C31 UNL     1      -8.284  48.078 -32.263  1.00  0.00     0.020 C 
ENDROOT
BRANCH   3  24
HETATM   24  O1  UNL     1      -6.298  46.589 -33.478  1.00  0.00    -0.377 OA
HETATM   25  H2  UNL     1      -5.442  46.199 -33.721  1.00  0.00     0.211 HD
ENDBRANCH   3  24
BRANCH  13  26
HETATM   26  O2  UNL     1     -15.370  45.100 -26.175  1.00  0.00    -0.271 OA
BRANCH  26  27
HETATM   27  C13 UNL     1     -16.382  45.891 -25.569  1.00  0.00     0.303 C 
BRANCH  27  28
HETATM   28  C14 UNL     1     -16.681  45.348 -24.177  1.00  0.00     0.244 C 
HETATM   29  O3  UNL     1     -16.804  44.147 -23.945  1.00  0.00    -0.271 OA
HETATM   30  N2  UNL     1     -16.806  46.312 -23.198  1.00  0.00    -0.351 N 
HETATM   31  H16 UNL     1     -16.569  47.273 -23.409  1.00  0.00     0.163 HD
BRANCH  30  32
HETATM   32  C15 UNL     1     -17.073  45.968 -21.811  1.00  0.00     0.113 C 
HETATM   33  C16 UNL     1     -18.569  46.085 -21.492  1.00  0.00     0.037 C 
BRANCH  32  34
HETATM   34  C17 UNL     1     -16.193  46.815 -20.907  1.00  0.00    -0.036 A 
HETATM   35  C18 UNL     1     -14.969  47.353 -21.337  1.00  0.00     0.009 A 
HETATM   36  C19 UNL     1     -14.177  48.109 -20.468  1.00  0.00     0.001 A 
HETATM   37  C20 UNL     1     -14.592  48.330 -19.157  1.00  0.00     0.000 A 
HETATM   38  C21 UNL     1     -15.794  47.786 -18.708  1.00  0.00     0.001 A 
HETATM   39  C22 UNL     1     -16.586  47.030 -19.575  1.00  0.00     0.009 A 
ENDBRANCH  32  34
ENDBRANCH  30  32
ENDBRANCH  27  28
ENDBRANCH  26  27
ENDBRANCH  13  26
TORSDOF 6
ENDMDL
MODEL 6
REMARK minimizedAffinity -7.75586367
REMARK CNNscore 0.283987343
REMARK CNNaffinity 5.84474516
REMARK  6 active torsions:
REMARK  status: ('A' for Active; 'I' for Inactive)
REMARK    1  A    between atoms: C3_3  and  O1_4 
REMARK    2  A    between atoms: N1_14  and  O2_16 
REMARK    3  A    between atoms: O2_16  and  C13_17 
REMARK    4  A    between atoms: C13_17  and  C14_18 
REMARK       I    between atoms: C14_18  and  N2_20 
REMARK    5  A    between atoms: N2_20  and  C15_21 
REMARK    6  A    between atoms: C15_21  and  C17_23 
ROOT
HETATM    1  C1  UNL     1      -5.830  43.702 -31.901  1.00  0.00     0.015 C 
HETATM    2  C2  UNL     1      -6.095  44.872 -31.979  1.00  0.00    -0.078 C 
HETATM    3  C3  UNL     1      -6.393  46.317 -32.094  1.00  0.00     0.128 C 
HETATM    4  C4  UNL     1      -5.503  47.125 -31.114  1.00  0.00     0.052 C 
HETATM    5  C5  UNL     1      -6.378  47.451 -29.885  1.00  0.00     0.010 C 
HETATM    6  C6  UNL     1      -7.683  46.692 -30.121  1.00  0.00     0.002 C 
HETATM    7  C7  UNL     1      -8.944  47.167 -29.389  1.00  0.00    -0.004 C 
HETATM    8  C8  UNL     1      -8.750  47.143 -27.867  1.00  0.00     0.010 C 
HETATM    9  C9  UNL     1     -10.006  47.615 -27.146  1.00  0.00     0.035 C 
HETATM   10  C10 UNL     1     -11.233  46.834 -27.553  1.00  0.00    -0.069 C 
HETATM   11  C11 UNL     1     -12.058  46.357 -26.602  1.00  0.00     0.030 C 
HETATM   12  C12 UNL     1     -13.353  45.711 -26.930  1.00  0.00     0.032 C 
HETATM   13  N1  UNL     1     -14.093  45.303 -25.938  1.00  0.00    -0.271 N 
ATOM     14  H1  UNL     1     -13.816  45.351 -24.958  1.00  0.00     0.194 HD
HETATM   15  C23 UNL     1     -13.759  45.638 -28.387  1.00  0.00     0.060 C 
HETATM   16  C24 UNL     1     -12.536  45.542 -29.288  1.00  0.00     0.020 C 
HETATM   17  C25 UNL     1     -11.487  46.668 -29.056  1.00  0.00    -0.016 C 
HETATM   18  C26 UNL     1     -12.050  48.001 -29.598  1.00  0.00     0.020 C 
HETATM   19  C27 UNL     1     -10.147  46.254 -29.781  1.00  0.00     0.002 C 
HETATM   20  C28 UNL     1     -10.289  46.099 -31.321  1.00  0.00     0.007 C 
HETATM   21  C29 UNL     1      -8.971  45.736 -32.028  1.00  0.00     0.014 C 
HETATM   22  C30 UNL     1      -7.837  46.708 -31.658  1.00  0.00     0.003 C 
HETATM   23  C31 UNL     1      -8.185  48.113 -32.236  1.00  0.00     0.020 C 
ENDROOT
BRANCH   3  24
HETATM   24  O1  UNL     1      -6.127  46.712 -33.434  1.00  0.00    -0.377 OA
HETATM   25  H2  UNL     1      -5.254  46.353 -33.664  1.00  0.00     0.211 HD
ENDBRANCH   3  24
BRANCH  13  26
HETATM   26  O2  UNL     1     -15.320  44.789 -26.387  1.00  0.00    -0.271 OA
BRANCH  26  27
HETATM   27  C13 UNL     1     -15.802  43.864 -25.425  1.00  0.00     0.303 C 
BRANCH  27  28
HETATM   28  C14 UNL     1     -17.268  44.157 -25.132  1.00  0.00     0.244 C 
HETATM   29  O3  UNL     1     -18.187  43.516 -25.639  1.00  0.00    -0.271 OA
HETATM   30  N2  UNL     1     -17.482  45.201 -24.256  1.00  0.00    -0.351 N 
HETATM   31  H16 UNL     1     -16.698  45.612 -23.766  1.00  0.00     0.163 HD
BRANCH  30  32
HETATM   32  C15 UNL     1     -18.820  45.603 -23.853  1.00  0.00     0.113 C 
HETATM   33  C16 UNL     1     -19.176  46.982 -24.423  1.00  0.00     0.037 C 
BRANCH  32  34
HETATM   34  C17 UNL     1     -18.932  45.526 -22.339  1.00  0.00    -0.036 A 
HETATM   35  C18 UNL     1     -18.599  46.605 -21.505  1.00  0.00     0.009 A 
HETATM   36  C19 UNL     1     -18.695  46.488 -20.115  1.00  0.00     0.001 A 
HETATM   37  C20 UNL     1     -19.114  45.290 -19.542  1.00  0.00     0.000 A 
HETATM   38  C21 UNL     1     -19.428  44.203 -20.355  1.00  0.00     0.001 A 
HETATM   39  C22 UNL     1     -19.332  44.319 -21.743  1.00  0.00     0.009 A 
ENDBRANCH  32  34
ENDBRANCH  30  32
ENDBRANCH  27  28
ENDBRANCH  26  27
ENDBRANCH  13  26
TORSDOF 6
ENDMDL
MODEL 7
REMARK minimizedAffinity -9.36397743
REMARK CNNscore 0.258142412
REMARK CNNaffinity 6.78744268
REMARK  6 active torsions:
REMARK  status: ('A' for Active; 'I' for Inactive)
REMARK    1  A    between atoms: C3_3  and  O1_4 
REMARK    2  A    between atoms: N1_14  and  O2_16 
REMARK    3  A    between atoms: O2_16  and  C13_17 
REMARK    4  A    between atoms: C13_17  and  C14_18 
REMARK       I    between atoms: C14_18  and  N2_20 
REMARK    5  A    between atoms: N2_20  and  C15_21 
REMARK    6  A    between atoms: C15_21  and  C17_23 
ROOT
HETATM    1  C1  UNL     1       2.080  51.085 -26.301  1.00  0.00     0.015 C 
HETATM    2  C2  UNL     1       1.104  51.721 -26.004  1.00  0.00    -0.078 C 
HETATM    3  C3  UNL     1      -0.099  52.516 -25.670  1.00  0.00     0.128 C 
HETATM    4  C4  UNL     1       0.283  54.008 -25.486  1.00  0.00     0.052 C 
HETATM    5  C5  UNL     1       0.378  54.258 -23.966  1.00  0.00     0.010 C 
HETATM    6  C6  UNL     1       0.209  52.879 -23.330  1.00  0.00     0.002 C 
HETATM    7  C7  UNL     1      -0.250  52.802 -21.869  1.00  0.00    -0.004 C 
HETATM    8  C8  UNL     1       0.720  53.542 -20.939  1.00  0.00     0.010 C 
HETATM    9  C9  UNL     1       0.259  53.461 -19.489  1.00  0.00     0.035 C 
HETATM   10  C10 UNL     1       0.041  52.038 -19.032  1.00  0.00    -0.069 C 
HETATM   11  C11 UNL     1       0.560  51.636 -17.857  1.00  0.00     0.030 C 
HETATM   12  C12 UNL     1       0.263  50.302 -17.277  1.00  0.00     0.032 C 
HETATM   13  N1  UNL     1       0.795  50.013 -16.122  1.00  0.00    -0.271 N 
ATOM     14  H1  UNL     1       1.441  50.622 -15.620  1.00  0.00     0.194 HD
HETATM   15  C23 UNL     1      -0.693  49.400 -18.028  1.00  0.00     0.060 C 
HETATM   16  C24 UNL     1      -0.612  49.650 -19.527  1.00  0.00     0.020 C 
HETATM   17  C25 UNL     1      -0.812  51.138 -19.934  1.00  0.00    -0.016 C 
HETATM   18  C26 UNL     1      -2.295  51.522 -19.732  1.00  0.00     0.020 C 
HETATM   19  C27 UNL     1      -0.358  51.307 -21.437  1.00  0.00     0.002 C 
HETATM   20  C28 UNL     1      -1.190  50.463 -22.442  1.00  0.00     0.007 C 
HETATM   21  C29 UNL     1      -0.771  50.662 -23.910  1.00  0.00     0.014 C 
HETATM   22  C30 UNL     1      -0.747  52.149 -24.301  1.00  0.00     0.003 C 
HETATM   23  C31 UNL     1      -2.208  52.692 -24.263  1.00  0.00     0.020 C 
ENDROOT
BRANCH   3  24
HETATM   24  O1  UNL     1      -1.025  52.377 -26.740  1.00  0.00    -0.377 OA
HETATM   25  H2  UNL     1      -0.528  52.526 -27.562  1.00  0.00     0.211 HD
ENDBRANCH   3  24
BRANCH  13  26
HETATM   26  O2  UNL     1       0.366  48.761 -15.656  1.00  0.00    -0.271 OA
BRANCH  26  27
HETATM   27  C13 UNL     1       1.268  48.319 -14.652  1.00  0.00     0.303 C 
BRANCH  27  28
HETATM   28  C14 UNL     1       1.077  46.825 -14.424  1.00  0.00     0.244 C 
HETATM   29  O3  UNL     1       0.145  46.367 -13.766  1.00  0.00    -0.271 OA
HETATM   30  N2  UNL     1       2.036  46.026 -15.013  1.00  0.00    -0.351 N 
HETATM   31  H16 UNL     1       2.706  46.436 -15.651  1.00  0.00     0.163 HD
BRANCH  30  32
HETATM   32  C15 UNL     1       1.996  44.577 -14.911  1.00  0.00     0.113 C 
HETATM   33  C16 UNL     1       0.582  44.085 -14.579  1.00  0.00     0.037 C 
BRANCH  32  34
HETATM   34  C17 UNL     1       3.047  44.115 -13.915  1.00  0.00    -0.036 A 
HETATM   35  C18 UNL     1       3.981  43.111 -14.218  1.00  0.00     0.009 A 
HETATM   36  C19 UNL     1       4.919  42.699 -13.267  1.00  0.00     0.001 A 
HETATM   37  C20 UNL     1       4.930  43.276 -12.001  1.00  0.00     0.000 A 
HETATM   38  C21 UNL     1       3.998  44.259 -11.677  1.00  0.00     0.001 A 
HETATM   39  C22 UNL     1       3.060  44.672 -12.625  1.00  0.00     0.009 A 
ENDBRANCH  32  34
ENDBRANCH  30  32
ENDBRANCH  27  28
ENDBRANCH  26  27
ENDBRANCH  13  26
TORSDOF 6
ENDMDL
MODEL 8
REMARK minimizedAffinity -8.68169975
REMARK CNNscore 0.223580092
REMARK CNNaffinity 6.26647711
REMARK  6 active torsions:
REMARK  status: ('A' for Active; 'I' for Inactive)
REMARK    1  A    between atoms: C3_3  and  O1_4 
REMARK    2  A    between atoms: N1_14  and  O2_16 
REMARK    3  A    between atoms: O2_16  and  C13_17 
REMARK    4  A    between atoms: C13_17  and  C14_18 
REMARK       I    between atoms: C14_18  and  N2_20 
REMARK    5  A    between atoms: N2_20  and  C15_21 
REMARK    6  A    between atoms: C15_21  and  C17_23 
ROOT
HETATM    1  C1  UNL     1      -3.882  52.118 -22.481  1.00  0.00     0.015 C 
HETATM    2  C2  UNL     1      -3.492  51.009 -22.230  1.00  0.00    -0.078 C 
HETATM    3  C3  UNL     1      -3.024  49.633 -21.951  1.00  0.00     0.128 C 
HETATM    4  C4  UNL     1      -4.219  48.739 -21.531  1.00  0.00     0.052 C 
HETATM    5  C5  UNL     1      -4.177  48.636 -19.992  1.00  0.00     0.010 C 
HETATM    6  C6  UNL     1      -3.067  49.595 -19.564  1.00  0.00     0.002 C 
HETATM    7  C7  UNL     1      -2.411  49.385 -18.194  1.00  0.00    -0.004 C 
HETATM    8  C8  UNL     1      -3.444  49.458 -17.062  1.00  0.00     0.010 C 
HETATM    9  C9  UNL     1      -2.785  49.250 -15.704  1.00  0.00     0.035 C 
HETATM   10  C10 UNL     1      -1.643  50.207 -15.464  1.00  0.00    -0.069 C 
HETATM   11  C11 UNL     1      -1.572  50.870 -14.295  1.00  0.00     0.030 C 
HETATM   12  C12 UNL     1      -0.404  51.711 -13.932  1.00  0.00     0.032 C 
HETATM   13  N1  UNL     1      -0.418  52.294 -12.767  1.00  0.00    -0.271 N 
ATOM     14  H1  UNL     1      -1.200  52.252 -12.113  1.00  0.00     0.194 HD
HETATM   15  C23 UNL     1       0.753  51.774 -14.907  1.00  0.00     0.060 C 
HETATM   16  C24 UNL     1       0.267  51.609 -16.340  1.00  0.00     0.020 C 
HETATM   17  C25 UNL     1      -0.593  50.333 -16.575  1.00  0.00    -0.016 C 
HETATM   18  C26 UNL     1       0.323  49.090 -16.513  1.00  0.00     0.020 C 
HETATM   19  C27 UNL     1      -1.311  50.469 -17.974  1.00  0.00     0.002 C 
HETATM   20  C28 UNL     1      -0.329  50.563 -19.176  1.00  0.00     0.007 C 
HETATM   21  C29 UNL     1      -1.034  50.654 -20.541  1.00  0.00     0.014 C 
HETATM   22  C30 UNL     1      -2.059  49.523 -20.732  1.00  0.00     0.003 C 
HETATM   23  C31 UNL     1      -1.289  48.169 -20.809  1.00  0.00     0.020 C 
ENDROOT
BRANCH   3  24
HETATM   24  O1  UNL     1      -2.427  49.126 -23.138  1.00  0.00    -0.377 OA
HETATM   25  H2  UNL     1      -3.044  49.317 -23.865  1.00  0.00     0.211 HD
ENDBRANCH   3  24
BRANCH  13  26
HETATM   26  O2  UNL     1       0.778  52.987 -12.523  1.00  0.00    -0.271 OA
BRANCH  26  27
HETATM   27  C13 UNL     1       1.068  52.913 -11.135  1.00  0.00     0.303 C 
BRANCH  27  28
HETATM   28  C14 UNL     1       1.442  54.299 -10.623  1.00  0.00     0.244 C 
HETATM   29  O3  UNL     1       0.621  55.065 -10.122  1.00  0.00    -0.271 OA
HETATM   30  N2  UNL     1       2.774  54.627 -10.770  1.00  0.00    -0.351 N 
HETATM   31  H16 UNL     1       3.434  53.919 -11.066  1.00  0.00     0.163 HD
BRANCH  30  32
HETATM   32  C15 UNL     1       3.305  55.903 -10.319  1.00  0.00     0.113 C 
HETATM   33  C16 UNL     1       3.534  56.854 -11.500  1.00  0.00     0.037 C 
BRANCH  32  34
HETATM   34  C17 UNL     1       4.553  55.660  -9.486  1.00  0.00    -0.036 A 
HETATM   35  C18 UNL     1       5.591  54.817  -9.915  1.00  0.00     0.009 A 
HETATM   36  C19 UNL     1       6.714  54.602  -9.110  1.00  0.00     0.001 A 
HETATM   37  C20 UNL     1       6.810  55.217  -7.865  1.00  0.00     0.000 A 
HETATM   38  C21 UNL     1       5.779  56.039  -7.415  1.00  0.00     0.001 A 
HETATM   39  C22 UNL     1       4.657  56.255  -8.218  1.00  0.00     0.009 A 
ENDBRANCH  32  34
ENDBRANCH  30  32
ENDBRANCH  27  28
ENDBRANCH  26  27
ENDBRANCH  13  26
TORSDOF 6
ENDMDL
MODEL 9
REMARK minimizedAffinity -8.72916031
REMARK CNNscore 0.221911609
REMARK CNNaffinity 5.73614454
REMARK  6 active torsions:
REMARK  status: ('A' for Active; 'I' for Inactive)
REMARK    1  A    between atoms: C3_3  and  O1_4 
REMARK    2  A    between atoms: N1_14  and  O2_16 
REMARK    3  A    between atoms: O2_16  and  C13_17 
REMARK    4  A    between atoms: C13_17  and  C14_18 
REMARK       I    between atoms: C14_18  and  N2_20 
REMARK    5  A    between atoms: N2_20  and  C15_21 
REMARK    6  A    between atoms: C15_21  and  C17_23 
ROOT
HETATM    1  C1  UNL     1       0.313  52.169 -24.115  1.00  0.00     0.015 C 
HETATM    2  C2  UNL     1      -0.039  52.006 -22.977  1.00  0.00    -0.078 C 
HETATM    3  C3  UNL     1      -0.442  51.819 -21.565  1.00  0.00     0.128 C 
HETATM    4  C4  UNL     1       0.299  50.600 -20.956  1.00  0.00     0.052 C 
HETATM    5  C5  UNL     1      -0.695  49.420 -20.977  1.00  0.00     0.010 C 
HETATM    6  C6  UNL     1      -1.912  49.946 -21.737  1.00  0.00     0.002 C 
HETATM    7  C7  UNL     1      -3.262  49.251 -21.521  1.00  0.00    -0.004 C 
HETATM    8  C8  UNL     1      -3.189  47.762 -21.887  1.00  0.00     0.010 C 
HETATM    9  C9  UNL     1      -4.533  47.078 -21.672  1.00  0.00     0.035 C 
HETATM   10  C10 UNL     1      -5.656  47.768 -22.409  1.00  0.00    -0.069 C 
HETATM   11  C11 UNL     1      -6.513  47.033 -23.142  1.00  0.00     0.030 C 
HETATM   12  C12 UNL     1      -7.722  47.622 -23.770  1.00  0.00     0.032 C 
HETATM   13  N1  UNL     1      -8.504  46.824 -24.441  1.00  0.00    -0.271 N 
ATOM     14  H1  UNL     1      -8.311  45.837 -24.606  1.00  0.00     0.194 HD
HETATM   15  C23 UNL     1      -8.003  49.090 -23.526  1.00  0.00     0.060 C 
HETATM   16  C24 UNL     1      -6.708  49.867 -23.337  1.00  0.00     0.020 C 
HETATM   17  C25 UNL     1      -5.775  49.287 -22.235  1.00  0.00    -0.016 C 
HETATM   18  C26 UNL     1      -6.397  49.565 -20.849  1.00  0.00     0.020 C 
HETATM   19  C27 UNL     1      -4.352  49.954 -22.388  1.00  0.00     0.002 C 
HETATM   20  C28 UNL     1      -4.357  51.495 -22.189  1.00  0.00     0.007 C 
HETATM   21  C29 UNL     1      -2.961  52.135 -22.299  1.00  0.00     0.014 C 
HETATM   22  C30 UNL     1      -1.943  51.447 -21.374  1.00  0.00     0.003 C 
HETATM   23  C31 UNL     1      -2.355  51.723 -19.896  1.00  0.00     0.020 C 
ENDROOT
BRANCH   3  24
HETATM   24  O1  UNL     1      -0.102  53.002 -20.854  1.00  0.00    -0.377 OA
HETATM   25  H2  UNL     1       0.813  53.223 -21.097  1.00  0.00     0.211 HD
ENDBRANCH   3  24
BRANCH  13  26
HETATM   26  O2  UNL     1      -9.645  47.494 -24.909  1.00  0.00    -0.271 OA
BRANCH  26  27
HETATM   27  C13 UNL     1     -10.795  46.771 -24.496  1.00  0.00     0.303 C 
BRANCH  27  28
HETATM   28  C14 UNL     1     -11.901  46.950 -25.528  1.00  0.00     0.244 C 
HETATM   29  O3  UNL     1     -12.107  48.017 -26.103  1.00  0.00    -0.271 OA
HETATM   30  N2  UNL     1     -12.656  45.819 -25.765  1.00  0.00    -0.351 N 
HETATM   31  H16 UNL     1     -12.369  44.934 -25.368  1.00  0.00     0.163 HD
BRANCH  30  32
HETATM   32  C15 UNL     1     -13.741  45.809 -26.733  1.00  0.00     0.113 C 
HETATM   33  C16 UNL     1     -13.461  46.779 -27.886  1.00  0.00     0.037 C 
BRANCH  32  34
HETATM   34  C17 UNL     1     -15.054  46.081 -26.017  1.00  0.00    -0.036 A 
HETATM   35  C18 UNL     1     -15.146  46.951 -24.919  1.00  0.00     0.009 A 
HETATM   36  C19 UNL     1     -16.368  47.159 -24.273  1.00  0.00     0.001 A 
HETATM   37  C20 UNL     1     -17.511  46.494 -24.710  1.00  0.00     0.000 A 
HETATM   38  C21 UNL     1     -17.433  45.611 -25.785  1.00  0.00     0.001 A 
HETATM   39  C22 UNL     1     -16.212  45.402 -26.430  1.00  0.00     0.009 A 
ENDBRANCH  32  34
ENDBRANCH  30  32
ENDBRANCH  27  28
ENDBRANCH  26  27
ENDBRANCH  13  26
TORSDOF 6
ENDMDL
