MODEL 1
REMARK minimizedAffinity -7.5187521
REMARK CNNscore 0.911960185
REMARK CNNaffinity 6.61392212
REMARK  9 active torsions:
REMARK  status: ('A' for Active; 'I' for Inactive)
REMARK    1  A    between atoms: C2_2  and  C30_35 
REMARK    2  A    between atoms: C3_3  and  C4_4 
REMARK    3  A    between atoms: C4_4  and  O1_5 
REMARK    4  A    between atoms: C4_4  and  C5_6 
REMARK    5  A    between atoms: C5_6  and  C6_7 
REMARK    6  A    between atoms: C6_7  and  C8_9 
REMARK    7  A    between atoms: C10_11  and  O2_12 
REMARK    8  A    between atoms: C29_33  and  O5_34 
REMARK    9  A    between atoms: C30_35  and  O7_37 
ROOT
HETATM    1  C8  UNL     1       3.955  56.444  -7.620  1.00  0.00     0.001 C 
HETATM    2  C9  UNL     1       4.973  55.429  -8.211  1.00  0.00     0.038 C 
HETATM    3  C10 UNL     1       4.146  54.287  -8.836  1.00  0.00     0.132 C 
HETATM    4  C11 UNL     1       2.740  54.911  -9.063  1.00  0.00     0.017 C 
HETATM    5  C12 UNL     1       2.809  55.793 -10.355  1.00  0.00     0.023 C 
HETATM    6  C13 UNL     1       1.503  54.030  -9.275  1.00  0.00    -0.029 C 
HETATM    7  C14 UNL     1       0.253  54.522  -9.046  1.00  0.00     0.002 C 
HETATM    8  C15 UNL     1       0.125  55.868  -8.344  1.00  0.00     0.157 C 
HETATM    9  O3  UNL     1      -0.976  56.382  -8.148  1.00  0.00    -0.293 OA
HETATM   10  C16 UNL     1       1.360  56.617  -7.861  1.00  0.00     0.094 C 
HETATM   11  C17 UNL     1       2.580  55.708  -7.720  1.00  0.00    -0.019 C 
HETATM   12  C18 UNL     1       2.351  54.786  -6.488  1.00  0.00     0.017 C 
HETATM   13  C19 UNL     1      -1.040  53.745  -9.435  1.00  0.00    -0.008 C 
HETATM   14  C20 UNL     1      -1.543  53.110  -8.120  1.00  0.00     0.021 C 
HETATM   15  C21 UNL     1      -2.150  54.655 -10.036  1.00  0.00     0.022 C 
HETATM   16  C22 UNL     1      -3.360  53.901 -10.569  1.00  0.00     0.080 C 
HETATM   17  C23 UNL     1      -2.965  52.885 -11.606  1.00  0.00     0.135 C 
HETATM   18  O4  UNL     1      -3.594  52.808 -12.663  1.00  0.00    -0.297 OA
HETATM   19  C24 UNL     1      -1.842  51.907 -11.241  1.00  0.00     0.018 C 
HETATM   20  C25 UNL     1      -2.439  50.778 -10.389  1.00  0.00     0.023 C 
HETATM   21  C26 UNL     1      -1.341  51.261 -12.560  1.00  0.00     0.023 C 
HETATM   22  C27 UNL     1      -0.671  52.709 -10.575  1.00  0.00     0.016 C 
HETATM   23  C28 UNL     1       0.490  51.823 -10.116  1.00  0.00     0.043 C 
HETATM   24  C29 UNL     1       1.745  52.653  -9.843  1.00  0.00     0.149 C 
ENDROOT
BRANCH   1  25
HETATM   25  C6  UNL     1       4.448  57.139  -6.313  1.00  0.00    -0.011 C 
HETATM   26  C7  UNL     1       3.594  58.307  -5.803  1.00  0.00     0.010 C 
BRANCH  25  27
HETATM   27  C5  UNL     1       5.946  57.524  -6.412  1.00  0.00     0.040 C 
BRANCH  27  28
HETATM   28  C4  UNL     1       6.845  56.871  -5.349  1.00  0.00     0.142 C 
BRANCH  28  29
HETATM   29  C3  UNL     1       8.126  57.643  -5.176  1.00  0.00     0.018 C 
HETATM   30  C2  UNL     1       9.389  57.182  -5.040  1.00  0.00     0.010 C 
HETATM   31  C1  UNL     1       9.784  55.735  -4.962  1.00  0.00     0.055 C 
BRANCH  30  32
HETATM   32  C30 UNL     1      10.528  58.131  -4.930  1.00  0.00     0.171 C 
HETATM   33  O6  UNL     1      10.499  59.310  -5.239  1.00  0.00    -0.646 OA
BRANCH  32  34
HETATM   34  O7  UNL     1      11.655  57.575  -4.454  1.00  0.00    -0.773 OA
HETATM   35  H44 UNL     1      12.294  58.316  -4.462  1.00  0.00     0.167 HD
ENDBRANCH  32  34
ENDBRANCH  30  32
ENDBRANCH  28  29
BRANCH  28  36
HETATM   36  O1  UNL     1       6.164  56.759  -4.111  1.00  0.00    -0.392 OA
HETATM   37  H6  UNL     1       6.789  56.371  -3.476  1.00  0.00     0.210 HD
ENDBRANCH  28  36
ENDBRANCH  27  28
ENDBRANCH  25  27
ENDBRANCH   1  25
BRANCH   3  38
HETATM   38  O2  UNL     1       4.757  53.825 -10.034  1.00  0.00    -0.394 OA
HETATM   39  H17 UNL     1       5.664  53.554  -9.805  1.00  0.00     0.210 HD
ENDBRANCH   3  38
BRANCH  24  40
HETATM   40  O5  UNL     1       2.519  51.905  -8.911  1.00  0.00    -0.391 OA
HETATM   41  H43 UNL     1       3.000  51.236  -9.427  1.00  0.00     0.210 HD
ENDBRANCH  24  40
TORSDOF 9
ENDMDL
MODEL 2
REMARK minimizedAffinity -9.85948658
REMARK CNNscore 0.795802057
REMARK CNNaffinity 7.12499666
REMARK  9 active torsions:
REMARK  status: ('A' for Active; 'I' for Inactive)
REMARK    1  A    between atoms: C2_2  and  C30_35 
REMARK    2  A    between atoms: C3_3  and  C4_4 
REMARK    3  A    between atoms: C4_4  and  O1_5 
REMARK    4  A    between atoms: C4_4  and  C5_6 
REMARK    5  A    between atoms: C5_6  and  C6_7 
REMARK    6  A    between atoms: C6_7  and  C8_9 
REMARK    7  A    between atoms: C10_11  and  O2_12 
REMARK    8  A    between atoms: C29_33  and  O5_34 
REMARK    9  A    between atoms: C30_35  and  O7_37 
ROOT
HETATM    1  C8  UNL     1      -0.881  49.404 -18.082  1.00  0.00     0.001 C 
HETATM    2  C9  UNL     1      -2.001  48.335 -18.217  1.00  0.00     0.038 C 
HETATM    3  C10 UNL     1      -2.598  48.495 -19.629  1.00  0.00     0.132 C 
HETATM    4  C11 UNL     1      -1.497  49.247 -20.429  1.00  0.00     0.017 C 
HETATM    5  C12 UNL     1      -0.399  48.203 -20.829  1.00  0.00     0.023 C 
HETATM    6  C13 UNL     1      -1.819  49.973 -21.740  1.00  0.00    -0.029 C 
HETATM    7  C14 UNL     1      -1.004  50.960 -22.205  1.00  0.00     0.002 C 
HETATM    8  C15 UNL     1       0.084  51.492 -21.281  1.00  0.00     0.157 C 
HETATM    9  O3  UNL     1       0.878  52.353 -21.660  1.00  0.00    -0.293 OA
HETATM   10  C16 UNL     1       0.222  50.973 -19.856  1.00  0.00     0.094 C 
HETATM   11  C17 UNL     1      -1.054  50.300 -19.352  1.00  0.00    -0.019 C 
HETATM   12  C18 UNL     1      -2.118  51.407 -19.111  1.00  0.00     0.017 C 
HETATM   13  C19 UNL     1      -1.170  51.590 -23.620  1.00  0.00    -0.008 C 
HETATM   14  C20 UNL     1      -1.901  52.930 -23.386  1.00  0.00     0.021 C 
HETATM   15  C21 UNL     1       0.184  51.851 -24.343  1.00  0.00     0.022 C 
HETATM   16  C22 UNL     1       0.047  52.317 -25.785  1.00  0.00     0.080 C 
HETATM   17  C23 UNL     1      -0.751  51.342 -26.607  1.00  0.00     0.135 C 
HETATM   18  O4  UNL     1      -0.343  50.994 -27.718  1.00  0.00    -0.297 OA
HETATM   19  C24 UNL     1      -2.112  50.902 -26.054  1.00  0.00     0.018 C 
HETATM   20  C25 UNL     1      -3.143  51.991 -26.380  1.00  0.00     0.023 C 
HETATM   21  C26 UNL     1      -2.540  49.628 -26.830  1.00  0.00     0.023 C 
HETATM   22  C27 UNL     1      -1.951  50.557 -24.533  1.00  0.00     0.016 C 
HETATM   23  C28 UNL     1      -3.264  50.156 -23.857  1.00  0.00     0.043 C 
HETATM   24  C29 UNL     1      -3.009  49.464 -22.518  1.00  0.00     0.149 C 
ENDROOT
BRANCH   1  25
HETATM   25  C6  UNL     1      -0.746  49.995 -16.645  1.00  0.00    -0.011 C 
HETATM   26  C7  UNL     1      -2.047  50.463 -15.980  1.00  0.00     0.010 C 
BRANCH  25  27
HETATM   27  C5  UNL     1       0.354  51.085 -16.587  1.00  0.00     0.040 C 
BRANCH  27  28
HETATM   28  C4  UNL     1       0.630  51.640 -15.179  1.00  0.00     0.142 C 
BRANCH  28  29
HETATM   29  C3  UNL     1       1.645  50.796 -14.455  1.00  0.00     0.018 C 
HETATM   30  C2  UNL     1       2.993  50.883 -14.468  1.00  0.00     0.010 C 
HETATM   31  C1  UNL     1       3.795  51.840 -15.303  1.00  0.00     0.055 C 
BRANCH  30  32
HETATM   32  C30 UNL     1       3.814  49.970 -13.629  1.00  0.00     0.171 C 
HETATM   33  O6  UNL     1       4.951  49.610 -13.881  1.00  0.00    -0.646 OA
BRANCH  32  34
HETATM   34  O7  UNL     1       3.185  49.535 -12.524  1.00  0.00    -0.773 OA
HETATM   35  H44 UNL     1       3.845  48.945 -12.106  1.00  0.00     0.167 HD
ENDBRANCH  32  34
ENDBRANCH  30  32
ENDBRANCH  28  29
BRANCH  28  36
HETATM   36  O1  UNL     1       1.065  52.989 -15.244  1.00  0.00    -0.392 OA
HETATM   37  H6  UNL     1       1.252  53.271 -14.333  1.00  0.00     0.210 HD
ENDBRANCH  28  36
ENDBRANCH  27  28
ENDBRANCH  25  27
ENDBRANCH   1  25
BRANCH   3  38
HETATM   38  O2  UNL     1      -2.928  47.226 -20.180  1.00  0.00    -0.394 OA
HETATM   39  H17 UNL     1      -3.539  46.795 -19.557  1.00  0.00     0.210 HD
ENDBRANCH   3  38
BRANCH  24  40
HETATM   40  O5  UNL     1      -4.184  49.666 -21.738  1.00  0.00    -0.391 OA
HETATM   41  H43 UNL     1      -4.825  48.996 -22.030  1.00  0.00     0.210 HD
ENDBRANCH  24  40
TORSDOF 9
ENDMDL
MODEL 3
REMARK minimizedAffinity -7.39525986
REMARK CNNscore 0.73061043
REMARK CNNaffinity 6.42639685
REMARK  9 active torsions:
REMARK  status: ('A' for Active; 'I' for Inactive)
REMARK    1  A    between atoms: C2_2  and  C30_35 
REMARK    2  A    between atoms: C3_3  and  C4_4 
REMARK    3  A    between atoms: C4_4  and  O1_5 
REMARK    4  A    between atoms: C4_4  and  C5_6 
REMARK    5  A    between atoms: C5_6  and  C6_7 
REMARK    6  A    between atoms: C6_7  and  C8_9 
REMARK    7  A    between atoms: C10_11  and  O2_12 
REMARK    8  A    between atoms: C29_33  and  O5_34 
REMARK    9  A    between atoms: C30_35  and  O7_37 
ROOT
HETATM    1  C8  UNL     1       3.269  55.549  -8.120  1.00  0.00     0.001 C 
HETATM    2  C9  UNL     1       2.186  56.497  -7.532  1.00  0.00     0.038 C 
HETATM    3  C10 UNL     1       0.843  56.078  -8.163  1.00  0.00     0.132 C 
HETATM    4  C11 UNL     1       1.085  54.622  -8.651  1.00  0.00     0.017 C 
HETATM    5  C12 UNL     1       0.988  53.675  -7.407  1.00  0.00     0.023 C 
HETATM    6  C13 UNL     1       0.169  53.968  -9.692  1.00  0.00    -0.029 C 
HETATM    7  C14 UNL     1       0.601  52.904 -10.426  1.00  0.00     0.002 C 
HETATM    8  C15 UNL     1       2.079  52.541 -10.369  1.00  0.00     0.157 C 
HETATM    9  O3  UNL     1       2.519  51.565 -10.976  1.00  0.00    -0.293 OA
HETATM   10  C16 UNL     1       3.059  53.378  -9.557  1.00  0.00     0.094 C 
HETATM   11  C17 UNL     1       2.525  54.778  -9.258  1.00  0.00    -0.019 C 
HETATM   12  C18 UNL     1       2.541  55.592 -10.583  1.00  0.00     0.017 C 
HETATM   13  C19 UNL     1      -0.347  52.079 -11.347  1.00  0.00    -0.008 C 
HETATM   14  C20 UNL     1      -0.074  52.594 -12.777  1.00  0.00     0.021 C 
HETATM   15  C21 UNL     1      -0.087  50.545 -11.285  1.00  0.00     0.022 C 
HETATM   16  C22 UNL     1      -1.099  49.704 -12.050  1.00  0.00     0.080 C 
HETATM   17  C23 UNL     1      -2.504  49.969 -11.582  1.00  0.00     0.135 C 
HETATM   18  O4  UNL     1      -3.263  49.025 -11.350  1.00  0.00    -0.297 OA
HETATM   19  C24 UNL     1      -2.962  51.431 -11.516  1.00  0.00     0.018 C 
HETATM   20  C25 UNL     1      -3.369  51.876 -12.927  1.00  0.00     0.023 C 
HETATM   21  C26 UNL     1      -4.242  51.479 -10.640  1.00  0.00     0.023 C 
HETATM   22  C27 UNL     1      -1.833  52.283 -10.838  1.00  0.00     0.016 C 
HETATM   23  C28 UNL     1      -2.158  53.777 -10.767  1.00  0.00     0.043 C 
HETATM   24  C29 UNL     1      -1.243  54.496  -9.775  1.00  0.00     0.149 C 
ENDROOT
BRANCH   1  25
HETATM   25  C6  UNL     1       4.655  56.232  -8.329  1.00  0.00    -0.011 C 
HETATM   26  C7  UNL     1       5.824  55.301  -8.674  1.00  0.00     0.010 C 
BRANCH  25  27
HETATM   27  C5  UNL     1       5.001  57.174  -7.147  1.00  0.00     0.040 C 
BRANCH  27  28
HETATM   28  C4  UNL     1       5.666  56.477  -5.948  1.00  0.00     0.142 C 
BRANCH  28  29
HETATM   29  C3  UNL     1       7.054  57.010  -5.713  1.00  0.00     0.018 C 
HETATM   30  C2  UNL     1       8.187  56.338  -5.413  1.00  0.00     0.010 C 
HETATM   31  C1  UNL     1       8.284  54.858  -5.174  1.00  0.00     0.055 C 
BRANCH  30  32
HETATM   32  C30 UNL     1       9.477  57.064  -5.271  1.00  0.00     0.171 C 
HETATM   33  O6  UNL     1       9.603  58.208  -4.870  1.00  0.00    -0.646 OA
BRANCH  32  34
HETATM   34  O7  UNL     1      10.549  56.345  -5.644  1.00  0.00    -0.773 OA
HETATM   35  H44 UNL     1      11.295  56.964  -5.506  1.00  0.00     0.167 HD
ENDBRANCH  32  34
ENDBRANCH  30  32
ENDBRANCH  28  29
BRANCH  28  36
HETATM   36  O1  UNL     1       4.876  56.622  -4.778  1.00  0.00    -0.392 OA
HETATM   37  H6  UNL     1       5.360  56.192  -4.053  1.00  0.00     0.210 HD
ENDBRANCH  28  36
ENDBRANCH  27  28
ENDBRANCH  25  27
ENDBRANCH   1  25
BRANCH   3  38
HETATM   38  O2  UNL     1      -0.210  56.185  -7.213  1.00  0.00    -0.394 OA
HETATM   39  H17 UNL     1      -0.213  57.104  -6.893  1.00  0.00     0.210 HD
ENDBRANCH   3  38
BRANCH  24  40
HETATM   40  O5  UNL     1      -1.198  55.856 -10.192  1.00  0.00    -0.391 OA
HETATM   41  H43 UNL     1      -2.003  56.277  -9.847  1.00  0.00     0.210 HD
ENDBRANCH  24  40
TORSDOF 9
ENDMDL
MODEL 4
REMARK minimizedAffinity -7.98852444
REMARK CNNscore 0.723388731
REMARK CNNaffinity 6.01397085
REMARK  9 active torsions:
REMARK  status: ('A' for Active; 'I' for Inactive)
REMARK    1  A    between atoms: C2_2  and  C30_35 
REMARK    2  A    between atoms: C3_3  and  C4_4 
REMARK    3  A    between atoms: C4_4  and  O1_5 
REMARK    4  A    between atoms: C4_4  and  C5_6 
REMARK    5  A    between atoms: C5_6  and  C6_7 
REMARK    6  A    between atoms: C6_7  and  C8_9 
REMARK    7  A    between atoms: C10_11  and  O2_12 
REMARK    8  A    between atoms: C29_33  and  O5_34 
REMARK    9  A    between atoms: C30_35  and  O7_37 
ROOT
HETATM    1  C8  UNL     1     -13.349  46.011 -27.139  1.00  0.00     0.001 C 
HETATM    2  C9  UNL     1     -12.842  47.122 -26.176  1.00  0.00     0.038 C 
HETATM    3  C10 UNL     1     -11.405  47.466 -26.617  1.00  0.00     0.132 C 
HETATM    4  C11 UNL     1     -11.323  46.964 -28.086  1.00  0.00     0.017 C 
HETATM    5  C12 UNL     1     -12.035  48.023 -28.995  1.00  0.00     0.023 C 
HETATM    6  C13 UNL     1      -9.973  46.727 -28.773  1.00  0.00    -0.029 C 
HETATM    7  C14 UNL     1      -9.880  45.908 -29.856  1.00  0.00     0.002 C 
HETATM    8  C15 UNL     1     -11.084  45.046 -30.215  1.00  0.00     0.157 C 
HETATM    9  O3  UNL     1     -11.074  44.318 -31.207  1.00  0.00    -0.293 OA
HETATM   10  C16 UNL     1     -12.339  45.060 -29.351  1.00  0.00     0.094 C 
HETATM   11  C17 UNL     1     -12.076  45.594 -27.945  1.00  0.00    -0.019 C 
HETATM   12  C18 UNL     1     -11.253  44.525 -27.171  1.00  0.00     0.017 C 
HETATM   13  C19 UNL     1      -8.582  45.788 -30.711  1.00  0.00    -0.008 C 
HETATM   14  C20 UNL     1      -7.902  44.485 -30.238  1.00  0.00     0.021 C 
HETATM   15  C21 UNL     1      -8.856  45.710 -32.241  1.00  0.00     0.022 C 
HETATM   16  C22 UNL     1      -7.604  45.753 -33.107  1.00  0.00     0.080 C 
HETATM   17  C23 UNL     1      -6.784  46.984 -32.832  1.00  0.00     0.135 C 
HETATM   18  O4  UNL     1      -6.350  47.656 -33.770  1.00  0.00    -0.297 OA
HETATM   19  C24 UNL     1      -6.436  47.287 -31.370  1.00  0.00     0.018 C 
HETATM   20  C25 UNL     1      -5.235  46.420 -30.967  1.00  0.00     0.023 C 
HETATM   21  C26 UNL     1      -5.971  48.765 -31.299  1.00  0.00     0.023 C 
HETATM   22  C27 UNL     1      -7.725  47.103 -30.495  1.00  0.00     0.016 C 
HETATM   23  C28 UNL     1      -7.484  47.326 -29.000  1.00  0.00     0.043 C 
HETATM   24  C29 UNL     1      -8.801  47.524 -28.251  1.00  0.00     0.149 C 
ENDROOT
BRANCH   1  25
HETATM   25  C6  UNL     1     -14.295  44.975 -26.459  1.00  0.00    -0.011 C 
HETATM   26  C7  UNL     1     -13.708  44.197 -25.274  1.00  0.00     0.010 C 
BRANCH  25  27
HETATM   27  C5  UNL     1     -14.937  44.028 -27.506  1.00  0.00     0.040 C 
BRANCH  27  28
HETATM   28  C4  UNL     1     -16.466  44.142 -27.617  1.00  0.00     0.142 C 
BRANCH  28  29
HETATM   29  C3  UNL     1     -17.012  45.114 -26.605  1.00  0.00     0.018 C 
HETATM   30  C2  UNL     1     -18.263  45.213 -26.105  1.00  0.00     0.010 C 
HETATM   31  C1  UNL     1     -19.438  44.378 -26.527  1.00  0.00     0.055 C 
BRANCH  30  32
HETATM   32  C30 UNL     1     -18.579  46.227 -25.064  1.00  0.00     0.171 C 
HETATM   33  O6  UNL     1     -17.864  46.517 -24.120  1.00  0.00    -0.646 OA
BRANCH  32  34
HETATM   34  O7  UNL     1     -19.771  46.824 -25.231  1.00  0.00    -0.773 OA
HETATM   35  H44 UNL     1     -19.827  47.435 -24.468  1.00  0.00     0.167 HD
ENDBRANCH  32  34
ENDBRANCH  30  32
ENDBRANCH  28  29
BRANCH  28  36
HETATM   36  O1  UNL     1     -16.850  44.526 -28.927  1.00  0.00    -0.392 OA
HETATM   37  H6  UNL     1     -17.818  44.611 -28.927  1.00  0.00     0.210 HD
ENDBRANCH  28  36
ENDBRANCH  27  28
ENDBRANCH  25  27
ENDBRANCH   1  25
BRANCH   3  38
HETATM   38  O2  UNL     1     -11.162  48.861 -26.484  1.00  0.00    -0.394 OA
HETATM   39  H17 UNL     1     -11.340  49.094 -25.555  1.00  0.00     0.210 HD
ENDBRANCH   3  38
BRANCH  24  40
HETATM   40  O5  UNL     1      -8.552  47.139 -26.903  1.00  0.00    -0.391 OA
HETATM   41  H43 UNL     1      -8.124  47.899 -26.474  1.00  0.00     0.210 HD
ENDBRANCH  24  40
TORSDOF 9
ENDMDL
MODEL 5
REMARK minimizedAffinity -7.7594924
REMARK CNNscore 0.680664718
REMARK CNNaffinity 6.28731966
REMARK  9 active torsions:
REMARK  status: ('A' for Active; 'I' for Inactive)
REMARK    1  A    between atoms: C2_2  and  C30_35 
REMARK    2  A    between atoms: C3_3  and  C4_4 
REMARK    3  A    between atoms: C4_4  and  O1_5 
REMARK    4  A    between atoms: C4_4  and  C5_6 
REMARK    5  A    between atoms: C5_6  and  C6_7 
REMARK    6  A    between atoms: C6_7  and  C8_9 
REMARK    7  A    between atoms: C10_11  and  O2_12 
REMARK    8  A    between atoms: C29_33  and  O5_34 
REMARK    9  A    between atoms: C30_35  and  O7_37 
ROOT
HETATM    1  C8  UNL     1      -1.551  52.727 -10.773  1.00  0.00     0.001 C 
HETATM    2  C9  UNL     1      -0.623  52.670 -12.019  1.00  0.00     0.038 C 
HETATM    3  C10 UNL     1       0.652  53.458 -11.656  1.00  0.00     0.132 C 
HETATM    4  C11 UNL     1       0.661  53.480 -10.101  1.00  0.00     0.017 C 
HETATM    5  C12 UNL     1       1.178  52.086  -9.605  1.00  0.00     0.023 C 
HETATM    6  C13 UNL     1       1.509  54.493  -9.324  1.00  0.00    -0.029 C 
HETATM    7  C14 UNL     1       1.207  54.804  -8.032  1.00  0.00     0.002 C 
HETATM    8  C15 UNL     1      -0.121  54.319  -7.465  1.00  0.00     0.157 C 
HETATM    9  O3  UNL     1      -0.430  54.533  -6.293  1.00  0.00    -0.293 OA
HETATM   10  C16 UNL     1      -1.110  53.555  -8.336  1.00  0.00     0.094 C 
HETATM   11  C17 UNL     1      -0.859  53.762  -9.828  1.00  0.00    -0.019 C 
HETATM   12  C18 UNL     1      -1.282  55.214 -10.189  1.00  0.00     0.017 C 
HETATM   13  C19 UNL     1       2.143  55.667  -7.135  1.00  0.00    -0.008 C 
HETATM   14  C20 UNL     1       1.523  57.082  -7.142  1.00  0.00     0.021 C 
HETATM   15  C21 UNL     1       2.246  55.148  -5.671  1.00  0.00     0.022 C 
HETATM   16  C22 UNL     1       3.275  55.876  -4.817  1.00  0.00     0.080 C 
HETATM   17  C23 UNL     1       4.644  55.825  -5.437  1.00  0.00     0.135 C 
HETATM   18  O4  UNL     1       5.623  55.533  -4.747  1.00  0.00    -0.297 OA
HETATM   19  C24 UNL     1       4.769  56.250  -6.906  1.00  0.00     0.018 C 
HETATM   20  C25 UNL     1       4.820  57.783  -6.964  1.00  0.00     0.023 C 
HETATM   21  C26 UNL     1       6.136  55.732  -7.426  1.00  0.00     0.023 C 
HETATM   22  C27 UNL     1       3.611  55.581  -7.725  1.00  0.00     0.016 C 
HETATM   23  C28 UNL     1       3.601  55.980  -9.203  1.00  0.00     0.043 C 
HETATM   24  C29 UNL     1       2.732  55.029 -10.027  1.00  0.00     0.149 C 
ENDROOT
BRANCH   1  25
HETATM   25  C6  UNL     1      -3.070  52.787 -11.123  1.00  0.00    -0.011 C 
HETATM   26  C7  UNL     1      -3.829  54.027 -10.635  1.00  0.00     0.010 C 
BRANCH  25  27
HETATM   27  C5  UNL     1      -3.792  51.476 -10.720  1.00  0.00     0.040 C 
BRANCH  27  28
HETATM   28  C4  UNL     1      -3.576  50.302 -11.689  1.00  0.00     0.142 C 
BRANCH  28  29
HETATM   29  C3  UNL     1      -3.130  50.793 -13.041  1.00  0.00     0.018 C 
HETATM   30  C2  UNL     1      -2.809  50.081 -14.144  1.00  0.00     0.010 C 
HETATM   31  C1  UNL     1      -2.763  48.582 -14.230  1.00  0.00     0.055 C 
BRANCH  30  32
HETATM   32  C30 UNL     1      -2.437  50.775 -15.405  1.00  0.00     0.171 C 
HETATM   33  O6  UNL     1      -3.221  51.187 -16.242  1.00  0.00    -0.646 OA
BRANCH  32  34
HETATM   34  O7  UNL     1      -1.112  50.915 -15.578  1.00  0.00    -0.773 OA
HETATM   35  H44 UNL     1      -1.044  51.366 -16.445  1.00  0.00     0.167 HD
ENDBRANCH  32  34
ENDBRANCH  30  32
ENDBRANCH  28  29
BRANCH  28  36
HETATM   36  O1  UNL     1      -2.636  49.379 -11.164  1.00  0.00    -0.392 OA
HETATM   37  H6  UNL     1      -2.519  48.682 -11.830  1.00  0.00     0.210 HD
ENDBRANCH  28  36
ENDBRANCH  27  28
ENDBRANCH  25  27
ENDBRANCH   1  25
BRANCH   3  38
HETATM   38  O2  UNL     1       1.801  52.834 -12.217  1.00  0.00    -0.394 OA
HETATM   39  H17 UNL     1       1.653  52.776 -13.177  1.00  0.00     0.210 HD
ENDBRANCH   3  38
BRANCH  24  40
HETATM   40  O5  UNL     1       2.314  55.767 -11.171  1.00  0.00    -0.391 OA
HETATM   41  H43 UNL     1       3.052  55.736 -11.802  1.00  0.00     0.210 HD
ENDBRANCH  24  40
TORSDOF 9
ENDMDL
MODEL 6
REMARK minimizedAffinity -8.04047108
REMARK CNNscore 0.670496523
REMARK CNNaffinity 6.29355431
REMARK  9 active torsions:
REMARK  status: ('A' for Active; 'I' for Inactive)
REMARK    1  A    between atoms: C2_2  and  C30_35 
REMARK    2  A    between atoms: C3_3  and  C4_4 
REMARK    3  A    between atoms: C4_4  and  O1_5 
REMARK    4  A    between atoms: C4_4  and  C5_6 
REMARK    5  A    between atoms: C5_6  and  C6_7 
REMARK    6  A    between atoms: C6_7  and  C8_9 
REMARK    7  A    between atoms: C10_11  and  O2_12 
REMARK    8  A    between atoms: C29_33  and  O5_34 
REMARK    9  A    between atoms: C30_35  and  O7_37 
ROOT
HETATM    1  C8  UNL     1      -1.732  52.664 -10.878  1.00  0.00     0.001 C 
HETATM    2  C9  UNL     1      -0.751  52.598 -12.083  1.00  0.00     0.038 C 
HETATM    3  C10 UNL     1       0.501  53.401 -11.677  1.00  0.00     0.132 C 
HETATM    4  C11 UNL     1       0.444  53.445 -10.124  1.00  0.00     0.017 C 
HETATM    5  C12 UNL     1       0.950  52.063  -9.587  1.00  0.00     0.023 C 
HETATM    6  C13 UNL     1       1.249  54.476  -9.326  1.00  0.00    -0.029 C 
HETATM    7  C14 UNL     1       0.890  54.802  -8.053  1.00  0.00     0.002 C 
HETATM    8  C15 UNL     1      -0.457  54.314  -7.536  1.00  0.00     0.157 C 
HETATM    9  O3  UNL     1      -0.817  54.542  -6.381  1.00  0.00    -0.293 OA
HETATM   10  C16 UNL     1      -1.402  53.529  -8.437  1.00  0.00     0.094 C 
HETATM   11  C17 UNL     1      -1.089  53.718  -9.920  1.00  0.00    -0.019 C 
HETATM   12  C18 UNL     1      -1.508  55.161 -10.319  1.00  0.00     0.017 C 
HETATM   13  C19 UNL     1       1.781  55.686  -7.129  1.00  0.00    -0.008 C 
HETATM   14  C20 UNL     1       1.151  57.094  -7.183  1.00  0.00     0.021 C 
HETATM   15  C21 UNL     1       1.826  55.188  -5.655  1.00  0.00     0.022 C 
HETATM   16  C22 UNL     1       2.811  55.936  -4.768  1.00  0.00     0.080 C 
HETATM   17  C23 UNL     1       4.206  55.888  -5.330  1.00  0.00     0.135 C 
HETATM   18  O4  UNL     1       5.157  55.614  -4.594  1.00  0.00    -0.297 OA
HETATM   19  C24 UNL     1       4.390  56.294  -6.797  1.00  0.00     0.018 C 
HETATM   20  C25 UNL     1       4.431  57.826  -6.875  1.00  0.00     0.023 C 
HETATM   21  C26 UNL     1       5.782  55.780  -7.252  1.00  0.00     0.023 C 
HETATM   22  C27 UNL     1       3.273  55.603  -7.655  1.00  0.00     0.016 C 
HETATM   23  C28 UNL     1       3.323  55.981  -9.138  1.00  0.00     0.043 C 
HETATM   24  C29 UNL     1       2.497  55.013  -9.984  1.00  0.00     0.149 C 
ENDROOT
BRANCH   1  25
HETATM   25  C6  UNL     1      -3.235  52.706 -11.294  1.00  0.00    -0.011 C 
HETATM   26  C7  UNL     1      -4.122  53.696 -10.527  1.00  0.00     0.010 C 
BRANCH  25  27
HETATM   27  C5  UNL     1      -3.851  51.284 -11.319  1.00  0.00     0.040 C 
BRANCH  27  28
HETATM   28  C4  UNL     1      -4.640  50.907 -10.055  1.00  0.00     0.142 C 
BRANCH  28  29
HETATM   29  C3  UNL     1      -5.884  50.133 -10.404  1.00  0.00     0.018 C 
HETATM   30  C2  UNL     1      -6.000  48.945 -11.038  1.00  0.00     0.010 C 
HETATM   31  C1  UNL     1      -4.863  48.150 -11.612  1.00  0.00     0.055 C 
BRANCH  30  32
HETATM   32  C30 UNL     1      -7.338  48.328 -11.239  1.00  0.00     0.171 C 
HETATM   33  O6  UNL     1      -7.559  47.133 -11.328  1.00  0.00    -0.646 OA
BRANCH  32  34
HETATM   34  O7  UNL     1      -8.339  49.219 -11.334  1.00  0.00    -0.773 OA
HETATM   35  H44 UNL     1      -9.128  48.658 -11.478  1.00  0.00     0.167 HD
ENDBRANCH  32  34
ENDBRANCH  30  32
ENDBRANCH  28  29
BRANCH  28  36
HETATM   36  O1  UNL     1      -3.832  50.163  -9.158  1.00  0.00    -0.392 OA
HETATM   37  H6  UNL     1      -4.391  49.929  -8.398  1.00  0.00     0.210 HD
ENDBRANCH  28  36
ENDBRANCH  27  28
ENDBRANCH  25  27
ENDBRANCH   1  25
BRANCH   3  38
HETATM   38  O2  UNL     1       1.677  52.780 -12.181  1.00  0.00    -0.394 OA
HETATM   39  H17 UNL     1       1.571  52.706 -13.145  1.00  0.00     0.210 HD
ENDBRANCH   3  38
BRANCH  24  40
HETATM   40  O5  UNL     1       2.123  55.731 -11.155  1.00  0.00    -0.391 OA
HETATM   41  H43 UNL     1       2.887  55.698 -11.754  1.00  0.00     0.210 HD
ENDBRANCH  24  40
TORSDOF 9
ENDMDL
MODEL 7
REMARK minimizedAffinity -8.43989086
REMARK CNNscore 0.65942651
REMARK CNNaffinity 6.45903587
REMARK  9 active torsions:
REMARK  status: ('A' for Active; 'I' for Inactive)
REMARK    1  A    between atoms: C2_2  and  C30_35 
REMARK    2  A    between atoms: C3_3  and  C4_4 
REMARK    3  A    between atoms: C4_4  and  O1_5 
REMARK    4  A    between atoms: C4_4  and  C5_6 
REMARK    5  A    between atoms: C5_6  and  C6_7 
REMARK    6  A    between atoms: C6_7  and  C8_9 
REMARK    7  A    between atoms: C10_11  and  O2_12 
REMARK    8  A    between atoms: C29_33  and  O5_34 
REMARK    9  A    between atoms: C30_35  and  O7_37 
ROOT
HETATM    1  C8  UNL     1      -3.688  49.095 -21.803  1.00  0.00     0.001 C 
HETATM    2  C9  UNL     1      -4.456  49.528 -23.084  1.00  0.00     0.038 C 
HETATM    3  C10 UNL     1      -5.919  49.082 -22.893  1.00  0.00     0.132 C 
HETATM    4  C11 UNL     1      -6.070  48.904 -21.355  1.00  0.00     0.017 C 
HETATM    5  C12 UNL     1      -6.244  50.327 -20.723  1.00  0.00     0.023 C 
HETATM    6  C13 UNL     1      -7.218  48.084 -20.757  1.00  0.00    -0.029 C 
HETATM    7  C14 UNL     1      -7.122  47.572 -19.498  1.00  0.00     0.002 C 
HETATM    8  C15 UNL     1      -5.769  47.619 -18.801  1.00  0.00     0.157 C 
HETATM    9  O3  UNL     1      -5.631  47.211 -17.648  1.00  0.00    -0.293 OA
HETATM   10  C16 UNL     1      -4.542  48.173 -19.514  1.00  0.00     0.094 C 
HETATM   11  C17 UNL     1      -4.707  48.195 -21.032  1.00  0.00    -0.019 C 
HETATM   12  C18 UNL     1      -4.649  46.727 -21.543  1.00  0.00     0.017 C 
HETATM   13  C19 UNL     1      -8.327  46.908 -18.767  1.00  0.00    -0.008 C 
HETATM   14  C20 UNL     1      -8.101  45.387 -18.911  1.00  0.00     0.021 C 
HETATM   15  C21 UNL     1      -8.418  47.283 -17.259  1.00  0.00     0.022 C 
HETATM   16  C22 UNL     1      -9.672  46.777 -16.560  1.00  0.00     0.080 C 
HETATM   17  C23 UNL     1     -10.921  47.259 -17.247  1.00  0.00     0.135 C 
HETATM   18  O4  UNL     1     -11.845  47.733 -16.582  1.00  0.00    -0.297 OA
HETATM   19  C24 UNL     1     -11.023  47.036 -18.761  1.00  0.00     0.018 C 
HETATM   20  C25 UNL     1     -11.469  45.589 -19.008  1.00  0.00     0.023 C 
HETATM   21  C26 UNL     1     -12.156  47.955 -19.291  1.00  0.00     0.023 C 
HETATM   22  C27 UNL     1      -9.664  47.448 -19.425  1.00  0.00     0.016 C 
HETATM   23  C28 UNL     1      -9.629  47.214 -20.937  1.00  0.00     0.043 C 
HETATM   24  C29 UNL     1      -8.473  47.973 -21.588  1.00  0.00     0.149 C 
ENDROOT
BRANCH   1  25
HETATM   25  C6  UNL     1      -2.213  48.663 -22.071  1.00  0.00    -0.011 C 
HETATM   26  C7  UNL     1      -1.836  47.239 -21.642  1.00  0.00     0.010 C 
BRANCH  25  27
HETATM   27  C5  UNL     1      -1.212  49.712 -21.523  1.00  0.00     0.040 C 
BRANCH  27  28
HETATM   28  C4  UNL     1      -1.451  51.146 -22.022  1.00  0.00     0.142 C 
BRANCH  28  29
HETATM   29  C3  UNL     1      -0.552  52.123 -21.312  1.00  0.00     0.018 C 
HETATM   30  C2  UNL     1       0.331  53.004 -21.833  1.00  0.00     0.010 C 
HETATM   31  C1  UNL     1       0.661  53.147 -23.291  1.00  0.00     0.055 C 
BRANCH  30  32
HETATM   32  C30 UNL     1       1.090  53.922 -20.943  1.00  0.00     0.171 C 
HETATM   33  O6  UNL     1       2.132  54.484 -21.231  1.00  0.00    -0.646 OA
BRANCH  32  34
HETATM   34  O7  UNL     1       0.531  54.092 -19.733  1.00  0.00    -0.773 OA
HETATM   35  H44 UNL     1       1.153  54.697 -19.279  1.00  0.00     0.167 HD
ENDBRANCH  32  34
ENDBRANCH  30  32
ENDBRANCH  28  29
BRANCH  28  36
HETATM   36  O1  UNL     1      -1.263  51.231 -23.425  1.00  0.00    -0.392 OA
HETATM   37  H6  UNL     1      -1.396  52.161 -23.675  1.00  0.00     0.210 HD
ENDBRANCH  28  36
ENDBRANCH  27  28
ENDBRANCH  25  27
ENDBRANCH   1  25
BRANCH   3  38
HETATM   38  O2  UNL     1      -6.811  50.047 -23.438  1.00  0.00    -0.394 OA
HETATM   39  H17 UNL     1      -6.569  50.161 -24.374  1.00  0.00     0.210 HD
ENDBRANCH   3  38
BRANCH  24  40
HETATM   40  O5  UNL     1      -8.164  47.271 -22.788  1.00  0.00    -0.391 OA
HETATM   41  H43 UNL     1      -8.810  47.564 -23.452  1.00  0.00     0.210 HD
ENDBRANCH  24  40
TORSDOF 9
ENDMDL
MODEL 8
REMARK minimizedAffinity -8.58277702
REMARK CNNscore 0.655805767
REMARK CNNaffinity 6.5501461
REMARK  9 active torsions:
REMARK  status: ('A' for Active; 'I' for Inactive)
REMARK    1  A    between atoms: C2_2  and  C30_35 
REMARK    2  A    between atoms: C3_3  and  C4_4 
REMARK    3  A    between atoms: C4_4  and  O1_5 
REMARK    4  A    between atoms: C4_4  and  C5_6 
REMARK    5  A    between atoms: C5_6  and  C6_7 
REMARK    6  A    between atoms: C6_7  and  C8_9 
REMARK    7  A    between atoms: C10_11  and  O2_12 
REMARK    8  A    between atoms: C29_33  and  O5_34 
REMARK    9  A    between atoms: C30_35  and  O7_37 
ROOT
HETATM    1  C8  UNL     1      -6.318  49.151 -23.953  1.00  0.00     0.001 C 
HETATM    2  C9  UNL     1      -7.175  49.357 -22.672  1.00  0.00     0.038 C 
HETATM    3  C10 UNL     1      -6.207  49.816 -21.562  1.00  0.00     0.132 C 
HETATM    4  C11 UNL     1      -4.973  50.365 -22.332  1.00  0.00     0.017 C 
HETATM    5  C12 UNL     1      -5.329  51.801 -22.848  1.00  0.00     0.023 C 
HETATM    6  C13 UNL     1      -3.616  50.541 -21.640  1.00  0.00    -0.029 C 
HETATM    7  C14 UNL     1      -2.468  50.599 -22.370  1.00  0.00     0.002 C 
HETATM    8  C15 UNL     1      -2.534  50.240 -23.849  1.00  0.00     0.157 C 
HETATM    9  O3  UNL     1      -1.538  50.316 -24.568  1.00  0.00    -0.293 OA
HETATM   10  C16 UNL     1      -3.838  49.774 -24.482  1.00  0.00     0.094 C 
HETATM   11  C17 UNL     1      -4.843  49.269 -23.449  1.00  0.00    -0.019 C 
HETATM   12  C18 UNL     1      -4.330  47.905 -22.906  1.00  0.00     0.017 C 
HETATM   13  C19 UNL     1      -1.092  50.976 -21.743  1.00  0.00    -0.008 C 
HETATM   14  C20 UNL     1      -0.356  49.633 -21.540  1.00  0.00     0.021 C 
HETATM   15  C21 UNL     1      -0.236  51.910 -22.647  1.00  0.00     0.022 C 
HETATM   16  C22 UNL     1       1.040  52.421 -21.994  1.00  0.00     0.080 C 
HETATM   17  C23 UNL     1       0.752  53.140 -20.704  1.00  0.00     0.135 C 
HETATM   18  O4  UNL     1       1.282  54.229 -20.474  1.00  0.00    -0.297 OA
HETATM   19  C24 UNL     1      -0.126  52.416 -19.675  1.00  0.00     0.018 C 
HETATM   20  C25 UNL     1       0.752  51.423 -18.902  1.00  0.00     0.023 C 
HETATM   21  C26 UNL     1      -0.615  53.477 -18.653  1.00  0.00     0.023 C 
HETATM   22  C27 UNL     1      -1.361  51.794 -20.414  1.00  0.00     0.016 C 
HETATM   23  C28 UNL     1      -2.285  50.996 -19.490  1.00  0.00     0.043 C 
HETATM   24  C29 UNL     1      -3.643  50.748 -20.145  1.00  0.00     0.149 C 
ENDROOT
BRANCH   1  25
HETATM   25  C6  UNL     1      -6.811  47.979 -24.856  1.00  0.00    -0.011 C 
HETATM   26  C7  UNL     1      -6.088  47.807 -26.198  1.00  0.00     0.010 C 
BRANCH  25  27
HETATM   27  C5  UNL     1      -8.350  48.015 -25.034  1.00  0.00     0.040 C 
BRANCH  27  28
HETATM   28  C4  UNL     1      -8.836  48.845 -26.234  1.00  0.00     0.142 C 
BRANCH  28  29
HETATM   29  C3  UNL     1      -9.725  48.028 -27.133  1.00  0.00     0.018 C 
HETATM   30  C2  UNL     1      -9.677  47.882 -28.475  1.00  0.00     0.010 C 
HETATM   31  C1  UNL     1      -8.726  48.591 -29.396  1.00  0.00     0.055 C 
BRANCH  30  32
HETATM   32  C30 UNL     1     -10.632  46.975 -29.167  1.00  0.00     0.171 C 
HETATM   33  O6  UNL     1     -10.346  45.911 -29.687  1.00  0.00    -0.646 OA
BRANCH  32  34
HETATM   34  O7  UNL     1     -11.895  47.435 -29.194  1.00  0.00    -0.773 OA
HETATM   35  H44 UNL     1     -12.377  46.741 -29.689  1.00  0.00     0.167 HD
ENDBRANCH  32  34
ENDBRANCH  30  32
ENDBRANCH  28  29
BRANCH  28  36
HETATM   36  O1  UNL     1      -9.513  50.013 -25.799  1.00  0.00    -0.392 OA
HETATM   37  H6  UNL     1      -9.821  50.477 -26.595  1.00  0.00     0.210 HD
ENDBRANCH  28  36
ENDBRANCH  27  28
ENDBRANCH  25  27
ENDBRANCH   1  25
BRANCH   3  38
HETATM   38  O2  UNL     1      -6.828  50.786 -20.728  1.00  0.00    -0.394 OA
HETATM   39  H17 UNL     1      -7.641  50.381 -20.377  1.00  0.00     0.210 HD
ENDBRANCH   3  38
BRANCH  24  40
HETATM   40  O5  UNL     1      -4.170  49.576 -19.532  1.00  0.00    -0.391 OA
HETATM   41  H43 UNL     1      -4.561  49.859 -18.688  1.00  0.00     0.210 HD
ENDBRANCH  24  40
TORSDOF 9
ENDMDL
MODEL 9
REMARK minimizedAffinity -9.43262482
REMARK CNNscore 0.633622825
REMARK CNNaffinity 6.60380697
REMARK  9 active torsions:
REMARK  status: ('A' for Active; 'I' for Inactive)
REMARK    1  A    between atoms: C2_2  and  C30_35 
REMARK    2  A    between atoms: C3_3  and  C4_4 
REMARK    3  A    between atoms: C4_4  and  O1_5 
REMARK    4  A    between atoms: C4_4  and  C5_6 
REMARK    5  A    between atoms: C5_6  and  C6_7 
REMARK    6  A    between atoms: C6_7  and  C8_9 
REMARK    7  A    between atoms: C10_11  and  O2_12 
REMARK    8  A    between atoms: C29_33  and  O5_34 
REMARK    9  A    between atoms: C30_35  and  O7_37 
ROOT
HETATM    1  C8  UNL     1      -1.877  50.889 -22.345  1.00  0.00     0.001 C 
HETATM    2  C9  UNL     1      -1.039  52.153 -22.688  1.00  0.00     0.038 C 
HETATM    3  C10 UNL     1      -0.333  52.581 -21.386  1.00  0.00     0.132 C 
HETATM    4  C11 UNL     1      -0.344  51.300 -20.503  1.00  0.00     0.017 C 
HETATM    5  C12 UNL     1       0.799  50.357 -21.012  1.00  0.00     0.023 C 
HETATM    6  C13 UNL     1      -0.123  51.375 -18.988  1.00  0.00    -0.029 C 
HETATM    7  C14 UNL     1      -0.547  50.368 -18.175  1.00  0.00     0.002 C 
HETATM    8  C15 UNL     1      -1.456  49.297 -18.765  1.00  0.00     0.157 C 
HETATM    9  O3  UNL     1      -1.836  48.341 -18.091  1.00  0.00    -0.293 OA
HETATM   10  C16 UNL     1      -1.923  49.382 -20.213  1.00  0.00     0.094 C 
HETATM   11  C17 UNL     1      -1.802  50.792 -20.787  1.00  0.00    -0.019 C 
HETATM   12  C18 UNL     1      -2.895  51.677 -20.121  1.00  0.00     0.017 C 
HETATM   13  C19 UNL     1      -0.174  50.295 -16.664  1.00  0.00    -0.008 C 
HETATM   14  C20 UNL     1      -1.420  50.813 -15.912  1.00  0.00     0.021 C 
HETATM   15  C21 UNL     1       0.168  48.855 -16.181  1.00  0.00     0.022 C 
HETATM   16  C22 UNL     1       0.688  48.778 -14.753  1.00  0.00     0.080 C 
HETATM   17  C23 UNL     1       1.901  49.646 -14.559  1.00  0.00     0.135 C 
HETATM   18  O4  UNL     1       2.891  49.199 -13.975  1.00  0.00    -0.297 OA
HETATM   19  C24 UNL     1       1.804  51.106 -15.016  1.00  0.00     0.018 C 
HETATM   20  C25 UNL     1       1.079  51.908 -13.926  1.00  0.00     0.023 C 
HETATM   21  C26 UNL     1       3.249  51.664 -15.103  1.00  0.00     0.023 C 
HETATM   22  C27 UNL     1       1.142  51.147 -16.437  1.00  0.00     0.016 C 
HETATM   23  C28 UNL     1       0.941  52.566 -16.975  1.00  0.00     0.043 C 
HETATM   24  C29 UNL     1       0.670  52.554 -18.480  1.00  0.00     0.149 C 
ENDROOT
BRANCH   1  25
HETATM   25  C6  UNL     1      -3.219  50.792 -23.134  1.00  0.00    -0.011 C 
HETATM   26  C7  UNL     1      -4.492  51.139 -22.350  1.00  0.00     0.010 C 
BRANCH  25  27
HETATM   27  C5  UNL     1      -3.346  49.430 -23.862  1.00  0.00     0.040 C 
BRANCH  27  28
HETATM   28  C4  UNL     1      -4.785  48.902 -23.983  1.00  0.00     0.142 C 
BRANCH  28  29
HETATM   29  C3  UNL     1      -5.144  48.633 -25.421  1.00  0.00     0.018 C 
HETATM   30  C2  UNL     1      -4.330  48.413 -26.476  1.00  0.00     0.010 C 
HETATM   31  C1  UNL     1      -2.829  48.461 -26.444  1.00  0.00     0.055 C 
BRANCH  30  32
HETATM   32  C30 UNL     1      -4.902  48.115 -27.817  1.00  0.00     0.171 C 
HETATM   33  O6  UNL     1      -4.355  48.337 -28.883  1.00  0.00    -0.646 OA
BRANCH  32  34
HETATM   34  O7  UNL     1      -6.128  47.567 -27.775  1.00  0.00    -0.773 OA
HETATM   35  H44 UNL     1      -6.357  47.453 -28.720  1.00  0.00     0.167 HD
ENDBRANCH  32  34
ENDBRANCH  30  32
ENDBRANCH  28  29
BRANCH  28  36
HETATM   36  O1  UNL     1      -4.960  47.730 -23.203  1.00  0.00    -0.392 OA
HETATM   37  H6  UNL     1      -5.874  47.428 -23.344  1.00  0.00     0.210 HD
ENDBRANCH  28  36
ENDBRANCH  27  28
ENDBRANCH  25  27
ENDBRANCH   1  25
BRANCH   3  38
HETATM   38  O2  UNL     1       0.977  53.062 -21.663  1.00  0.00    -0.394 OA
HETATM   39  H17 UNL     1       0.883  53.792 -22.300  1.00  0.00     0.210 HD
ENDBRANCH   3  38
BRANCH  24  40
HETATM   40  O5  UNL     1      -0.055  53.747 -18.760  1.00  0.00    -0.391 OA
HETATM   41  H43 UNL     1       0.602  54.461 -18.823  1.00  0.00     0.210 HD
ENDBRANCH  24  40
TORSDOF 9
ENDMDL
