MODEL 1
REMARK minimizedAffinity -9.45732784
REMARK CNNscore 0.732746542
REMARK CNNaffinity 7.09873819
REMARK  12 active torsions:
REMARK  status: ('A' for Active; 'I' for Inactive)
REMARK    1  A    between atoms: C12_13  and  O2_14 
REMARK    2  A    between atoms: C19_21  and  O3_22 
REMARK    3  A    between atoms: C19_21  and  C20_23 
REMARK    4  A    between atoms: C20_23  and  C21_25 
REMARK    5  A    between atoms: C21_25  and  O5_26 
REMARK    6  A    between atoms: O5_26  and  C22_27 
REMARK    7  A    between atoms: C22_27  and  C23_29 
REMARK    8  A    between atoms: C23_29  and  C24_30 
REMARK    9  A    between atoms: C24_30  and  C25_31 
REMARK       I    between atoms: C25_31  and  N1_33 
REMARK   10  A    between atoms: N1_33  and  C26_34 
REMARK   11  A    between atoms: C26_34  and  C27_35 
REMARK   12  A    between atoms: C27_35  and  C28_36 
ROOT
HETATM    1  C1  UNL     1      -6.114  49.962 -21.389  1.00  0.00     0.020 C 
HETATM    2  C2  UNL     1      -6.293  49.390 -22.820  1.00  0.00    -0.014 C 
HETATM    3  C3  UNL     1      -7.705  49.857 -23.290  1.00  0.00     0.022 C 
HETATM    4  C4  UNL     1      -8.294  49.039 -24.431  1.00  0.00     0.084 C 
HETATM    5  C5  UNL     1      -8.309  47.575 -24.077  1.00  0.00     0.149 C 
HETATM    6  O1  UNL     1      -9.160  46.799 -24.502  1.00  0.00    -0.293 OA
HETATM    7  C6  UNL     1      -7.184  47.046 -23.274  1.00  0.00     0.053 C 
HETATM    8  C7  UNL     1      -6.255  47.858 -22.742  1.00  0.00    -0.068 C 
HETATM    9  C8  UNL     1      -5.005  47.275 -22.131  1.00  0.00     0.035 C 
HETATM   10  C9  UNL     1      -3.753  48.045 -22.567  1.00  0.00     0.010 C 
HETATM   11  C10 UNL     1      -3.950  48.810 -23.891  1.00  0.00    -0.002 C 
HETATM   12  C11 UNL     1      -5.153  49.820 -23.835  1.00  0.00     0.031 C 
HETATM   13  C12 UNL     1      -4.681  51.297 -23.811  1.00  0.00     0.124 C 
HETATM   14  C13 UNL     1      -3.353  51.491 -23.076  1.00  0.00     0.045 C 
HETATM   15  C14 UNL     1      -2.166  50.768 -23.755  1.00  0.00     0.001 C 
HETATM   16  C15 UNL     1      -1.096  50.472 -22.678  1.00  0.00     0.019 C 
HETATM   17  C16 UNL     1      -2.615  49.407 -24.385  1.00  0.00     0.002 C 
HETATM   18  C17 UNL     1      -2.592  49.632 -25.901  1.00  0.00     0.009 C 
HETATM   19  C18 UNL     1      -1.385  50.535 -26.083  1.00  0.00     0.047 C 
HETATM   20  C19 UNL     1      -1.557  51.584 -24.973  1.00  0.00     0.128 C 
ENDROOT
BRANCH  20  21
HETATM   21  O3  UNL     1      -2.489  52.560 -25.449  1.00  0.00    -0.381 OA
HETATM   22  H27 UNL     1      -2.258  52.795 -26.366  1.00  0.00     0.211 HD
ENDBRANCH  20  21
BRANCH  20  23
HETATM   23  C20 UNL     1      -0.222  52.303 -24.670  1.00  0.00     0.185 C 
HETATM   24  O4  UNL     1       0.475  52.784 -25.573  1.00  0.00    -0.292 OA
BRANCH  23  25
HETATM   25  C21 UNL     1       0.202  52.367 -23.206  1.00  0.00     0.260 C 
BRANCH  25  26
HETATM   26  O5  UNL     1       0.892  53.597 -22.976  1.00  0.00    -0.314 OA
BRANCH  26  27
HETATM   27  C22 UNL     1       1.318  53.762 -21.698  1.00  0.00     0.259 C 
HETATM   28  O6  UNL     1       1.922  54.750 -21.295  1.00  0.00    -0.265 OA
BRANCH  27  29
HETATM   29  C23 UNL     1       1.026  52.556 -20.833  1.00  0.00     0.120 C 
BRANCH  29  30
HETATM   30  C24 UNL     1      -0.061  52.766 -19.783  1.00  0.00     0.112 C 
BRANCH  30  31
HETATM   31  C25 UNL     1       0.422  52.437 -18.383  1.00  0.00     0.218 C 
HETATM   32  O7  UNL     1      -0.204  51.728 -17.602  1.00  0.00    -0.274 OA
HETATM   33  N1  UNL     1       1.635  53.014 -18.080  1.00  0.00    -0.361 N 
HETATM   34  H34 UNL     1       2.191  53.410 -18.829  1.00  0.00     0.162 HD
BRANCH  33  35
HETATM   35  C26 UNL     1       2.316  52.726 -16.829  1.00  0.00     0.128 C 
BRANCH  35  36
HETATM   36  C27 UNL     1       1.682  51.557 -16.067  1.00  0.00     0.078 C 
BRANCH  36  37
HETATM   37  C28 UNL     1       2.223  51.427 -14.683  1.00  0.00     0.027 A 
HETATM   38  C29 UNL     1       3.031  50.477 -14.095  1.00  0.00     0.114 A 
HETATM   39  N2  UNL     1       3.254  50.775 -12.776  1.00  0.00    -0.360 N 
HETATM   40  C30 UNL     1       2.612  51.900 -12.560  1.00  0.00     0.180 A 
ATOM     41  H2  UNL     1       3.802  50.237 -12.105  1.00  0.00     0.166 HD
HETATM   42  N3  UNL     1       1.971  52.335 -13.685  1.00  0.00    -0.355 N 
HETATM   43  H41 UNL     1       1.418  53.187 -13.753  1.00  0.00     0.166 HD
ENDBRANCH  36  37
ENDBRANCH  35  36
ENDBRANCH  33  35
ENDBRANCH  30  31
ENDBRANCH  29  30
ENDBRANCH  27  29
ENDBRANCH  26  27
ENDBRANCH  25  26
ENDBRANCH  23  25
ENDBRANCH  20  23
BRANCH  13  44
HETATM   44  O2  UNL     1      -5.655  52.175 -23.266  1.00  0.00    -0.395 OA
HETATM   45  H16 UNL     1      -5.334  53.085 -23.396  1.00  0.00     0.210 HD
ENDBRANCH  13  44
TORSDOF 12
ENDMDL
MODEL 2
REMARK minimizedAffinity -8.61942101
REMARK CNNscore 0.617876709
REMARK CNNaffinity 7.18615723
REMARK  12 active torsions:
REMARK  status: ('A' for Active; 'I' for Inactive)
REMARK    1  A    between atoms: C12_13  and  O2_14 
REMARK    2  A    between atoms: C19_21  and  O3_22 
REMARK    3  A    between atoms: C19_21  and  C20_23 
REMARK    4  A    between atoms: C20_23  and  C21_25 
REMARK    5  A    between atoms: C21_25  and  O5_26 
REMARK    6  A    between atoms: O5_26  and  C22_27 
REMARK    7  A    between atoms: C22_27  and  C23_29 
REMARK    8  A    between atoms: C23_29  and  C24_30 
REMARK    9  A    between atoms: C24_30  and  C25_31 
REMARK       I    between atoms: C25_31  and  N1_33 
REMARK   10  A    between atoms: N1_33  and  C26_34 
REMARK   11  A    between atoms: C26_34  and  C27_35 
REMARK   12  A    between atoms: C27_35  and  C28_36 
ROOT
HETATM    1  C1  UNL     1      -4.948  51.566 -24.185  1.00  0.00     0.020 C 
HETATM    2  C2  UNL     1      -3.896  50.488 -24.555  1.00  0.00    -0.014 C 
HETATM    3  C3  UNL     1      -3.211  50.995 -25.862  1.00  0.00     0.022 C 
HETATM    4  C4  UNL     1      -2.508  49.912 -26.668  1.00  0.00     0.084 C 
HETATM    5  C5  UNL     1      -3.456  48.781 -26.969  1.00  0.00     0.149 C 
HETATM    6  O1  UNL     1      -3.369  48.096 -27.985  1.00  0.00    -0.293 OA
HETATM    7  C6  UNL     1      -4.455  48.422 -25.939  1.00  0.00     0.053 C 
HETATM    8  C7  UNL     1      -4.625  49.168 -24.834  1.00  0.00    -0.068 C 
HETATM    9  C8  UNL     1      -5.481  48.654 -23.703  1.00  0.00     0.035 C 
HETATM   10  C9  UNL     1      -4.811  48.879 -22.342  1.00  0.00     0.010 C 
HETATM   11  C10 UNL     1      -3.279  49.025 -22.445  1.00  0.00    -0.002 C 
HETATM   12  C11 UNL     1      -2.844  50.191 -23.406  1.00  0.00     0.031 C 
HETATM   13  C12 UNL     1      -2.251  51.399 -22.635  1.00  0.00     0.124 C 
HETATM   14  C13 UNL     1      -2.888  51.603 -21.259  1.00  0.00     0.045 C 
HETATM   15  C14 UNL     1      -2.637  50.427 -20.287  1.00  0.00     0.001 C 
HETATM   16  C15 UNL     1      -3.782  50.402 -19.247  1.00  0.00     0.019 C 
HETATM   17  C16 UNL     1      -2.634  49.055 -21.043  1.00  0.00     0.002 C 
HETATM   18  C17 UNL     1      -1.172  48.599 -21.054  1.00  0.00     0.009 C 
HETATM   19  C18 UNL     1      -0.671  49.059 -19.696  1.00  0.00     0.047 C 
HETATM   20  C19 UNL     1      -1.214  50.493 -19.587  1.00  0.00     0.128 C 
ENDROOT
BRANCH  20  21
HETATM   21  O3  UNL     1      -0.325  51.343 -20.318  1.00  0.00    -0.381 OA
HETATM   22  H27 UNL     1       0.594  51.108 -20.093  1.00  0.00     0.211 HD
ENDBRANCH  20  21
BRANCH  20  23
HETATM   23  C20 UNL     1      -1.235  50.972 -18.117  1.00  0.00     0.185 C 
HETATM   24  O4  UNL     1      -2.264  51.423 -17.597  1.00  0.00    -0.292 OA
BRANCH  23  25
HETATM   25  C21 UNL     1       0.080  50.881 -17.350  1.00  0.00     0.260 C 
BRANCH  25  26
HETATM   26  O5  UNL     1       0.864  52.041 -17.634  1.00  0.00    -0.314 OA
BRANCH  26  27
HETATM   27  C22 UNL     1       1.865  52.265 -16.744  1.00  0.00     0.259 C 
HETATM   28  O6  UNL     1       2.803  53.028 -16.939  1.00  0.00    -0.265 OA
BRANCH  27  29
HETATM   29  C23 UNL     1       1.733  51.410 -15.503  1.00  0.00     0.120 C 
BRANCH  29  30
HETATM   30  C24 UNL     1       2.967  51.386 -14.605  1.00  0.00     0.112 C 
BRANCH  30  31
HETATM   31  C25 UNL     1       2.607  51.454 -13.133  1.00  0.00     0.218 C 
HETATM   32  O7  UNL     1       3.206  50.832 -12.262  1.00  0.00    -0.274 OA
HETATM   33  N1  UNL     1       1.544  52.289 -12.875  1.00  0.00    -0.361 N 
HETATM   34  H34 UNL     1       1.231  52.925 -13.598  1.00  0.00     0.162 HD
BRANCH  33  35
HETATM   35  C26 UNL     1       1.121  52.573 -11.514  1.00  0.00     0.128 C 
BRANCH  35  36
HETATM   36  C27 UNL     1       0.256  53.834 -11.416  1.00  0.00     0.078 C 
BRANCH  36  37
HETATM   37  C28 UNL     1      -1.108  53.541 -10.887  1.00  0.00     0.027 A 
HETATM   38  C29 UNL     1      -1.577  53.340  -9.606  1.00  0.00     0.114 A 
HETATM   39  N2  UNL     1      -2.923  53.082  -9.614  1.00  0.00    -0.360 N 
HETATM   40  C30 UNL     1      -3.281  53.143 -10.875  1.00  0.00     0.180 A 
ATOM     41  H2  UNL     1      -3.519  52.885  -8.810  1.00  0.00     0.166 HD
HETATM   42  N3  UNL     1      -2.218  53.418 -11.687  1.00  0.00    -0.355 N 
HETATM   43  H41 UNL     1      -2.261  53.518 -12.698  1.00  0.00     0.166 HD
ENDBRANCH  36  37
ENDBRANCH  35  36
ENDBRANCH  33  35
ENDBRANCH  30  31
ENDBRANCH  29  30
ENDBRANCH  27  29
ENDBRANCH  26  27
ENDBRANCH  25  26
ENDBRANCH  23  25
ENDBRANCH  20  23
BRANCH  13  44
HETATM   44  O2  UNL     1      -2.324  52.609 -23.374  1.00  0.00    -0.395 OA
HETATM   45  H16 UNL     1      -1.830  53.285 -22.878  1.00  0.00     0.210 HD
ENDBRANCH  13  44
TORSDOF 12
ENDMDL
MODEL 3
REMARK minimizedAffinity -8.79347515
REMARK CNNscore 0.490344793
REMARK CNNaffinity 6.71085882
REMARK  12 active torsions:
REMARK  status: ('A' for Active; 'I' for Inactive)
REMARK    1  A    between atoms: C12_13  and  O2_14 
REMARK    2  A    between atoms: C19_21  and  O3_22 
REMARK    3  A    between atoms: C19_21  and  C20_23 
REMARK    4  A    between atoms: C20_23  and  C21_25 
REMARK    5  A    between atoms: C21_25  and  O5_26 
REMARK    6  A    between atoms: O5_26  and  C22_27 
REMARK    7  A    between atoms: C22_27  and  C23_29 
REMARK    8  A    between atoms: C23_29  and  C24_30 
REMARK    9  A    between atoms: C24_30  and  C25_31 
REMARK       I    between atoms: C25_31  and  N1_33 
REMARK   10  A    between atoms: N1_33  and  C26_34 
REMARK   11  A    between atoms: C26_34  and  C27_35 
REMARK   12  A    between atoms: C27_35  and  C28_36 
ROOT
HETATM    1  C1  UNL     1       0.222  50.453 -26.275  1.00  0.00     0.020 C 
HETATM    2  C2  UNL     1      -0.640  51.738 -26.161  1.00  0.00    -0.014 C 
HETATM    3  C3  UNL     1      -0.639  52.377 -27.584  1.00  0.00     0.022 C 
HETATM    4  C4  UNL     1      -0.996  53.856 -27.613  1.00  0.00     0.084 C 
HETATM    5  C5  UNL     1      -0.103  54.633 -26.682  1.00  0.00     0.149 C 
HETATM    6  O1  UNL     1       0.214  55.801 -26.888  1.00  0.00    -0.293 OA
HETATM    7  C6  UNL     1       0.311  53.983 -25.418  1.00  0.00     0.053 C 
HETATM    8  C7  UNL     1       0.034  52.692 -25.167  1.00  0.00    -0.068 C 
HETATM    9  C8  UNL     1       0.262  52.128 -23.787  1.00  0.00     0.035 C 
HETATM   10  C9  UNL     1      -0.919  51.264 -23.330  1.00  0.00     0.010 C 
HETATM   11  C10 UNL     1      -2.233  51.609 -24.059  1.00  0.00    -0.002 C 
HETATM   12  C11 UNL     1      -2.109  51.485 -25.622  1.00  0.00     0.031 C 
HETATM   13  C12 UNL     1      -2.886  50.263 -26.178  1.00  0.00     0.124 C 
HETATM   14  C13 UNL     1      -2.906  49.075 -25.215  1.00  0.00     0.045 C 
HETATM   15  C14 UNL     1      -3.649  49.373 -23.891  1.00  0.00     0.001 C 
HETATM   16  C15 UNL     1      -3.084  48.438 -22.796  1.00  0.00     0.019 C 
HETATM   17  C16 UNL     1      -3.425  50.853 -23.434  1.00  0.00     0.002 C 
HETATM   18  C17 UNL     1      -4.763  51.560 -23.668  1.00  0.00     0.009 C 
HETATM   19  C18 UNL     1      -5.774  50.484 -23.311  1.00  0.00     0.047 C 
HETATM   20  C19 UNL     1      -5.225  49.235 -24.020  1.00  0.00     0.128 C 
ENDROOT
BRANCH  20  21
HETATM   21  O3  UNL     1      -5.633  49.308 -25.389  1.00  0.00    -0.381 OA
HETATM   22  H27 UNL     1      -6.572  49.566 -25.426  1.00  0.00     0.211 HD
ENDBRANCH  20  21
BRANCH  20  23
HETATM   23  C20 UNL     1      -5.816  47.942 -23.411  1.00  0.00     0.185 C 
HETATM   24  O4  UNL     1      -5.389  47.471 -22.350  1.00  0.00    -0.292 OA
BRANCH  23  25
HETATM   25  C21 UNL     1      -6.935  47.267 -24.198  1.00  0.00     0.260 C 
BRANCH  25  26
HETATM   26  O5  UNL     1      -8.138  48.021 -24.034  1.00  0.00    -0.314 OA
BRANCH  26  27
HETATM   27  C22 UNL     1      -8.720  48.395 -25.202  1.00  0.00     0.259 C 
HETATM   28  O6  UNL     1      -9.523  49.315 -25.308  1.00  0.00    -0.265 OA
BRANCH  27  29
HETATM   29  C23 UNL     1      -8.322  47.501 -26.356  1.00  0.00     0.120 C 
BRANCH  29  30
HETATM   30  C24 UNL     1      -8.681  48.038 -27.739  1.00  0.00     0.112 C 
BRANCH  30  31
HETATM   31  C25 UNL     1      -9.988  47.466 -28.256  1.00  0.00     0.218 C 
HETATM   32  O7  UNL     1     -10.061  46.423 -28.897  1.00  0.00    -0.274 OA
HETATM   33  N1  UNL     1     -11.081  48.235 -27.929  1.00  0.00    -0.361 N 
HETATM   34  H34 UNL     1     -10.980  48.963 -27.231  1.00  0.00     0.162 HD
BRANCH  33  35
HETATM   35  C26 UNL     1     -12.431  47.796 -28.238  1.00  0.00     0.128 C 
BRANCH  35  36
HETATM   36  C27 UNL     1     -13.135  47.161 -27.035  1.00  0.00     0.078 C 
BRANCH  36  37
HETATM   37  C28 UNL     1     -14.240  46.247 -27.446  1.00  0.00     0.027 A 
HETATM   38  C29 UNL     1     -14.524  45.623 -28.643  1.00  0.00     0.114 A 
HETATM   39  N2  UNL     1     -15.672  44.881 -28.547  1.00  0.00    -0.360 N 
HETATM   40  C30 UNL     1     -16.078  45.028 -27.308  1.00  0.00     0.180 A 
ATOM     41  H2  UNL     1     -16.116  44.332 -29.283  1.00  0.00     0.166 HD
HETATM   42  N3  UNL     1     -15.245  45.846 -26.600  1.00  0.00    -0.355 N 
HETATM   43  H41 UNL     1     -15.359  46.096 -25.620  1.00  0.00     0.166 HD
ENDBRANCH  36  37
ENDBRANCH  35  36
ENDBRANCH  33  35
ENDBRANCH  30  31
ENDBRANCH  29  30
ENDBRANCH  27  29
ENDBRANCH  26  27
ENDBRANCH  25  26
ENDBRANCH  23  25
ENDBRANCH  20  23
BRANCH  13  44
HETATM   44  O2  UNL     1      -2.402  49.837 -27.444  1.00  0.00    -0.395 OA
HETATM   45  H16 UNL     1      -3.011  49.154 -27.774  1.00  0.00     0.210 HD
ENDBRANCH  13  44
TORSDOF 12
ENDMDL
MODEL 4
REMARK minimizedAffinity -7.42764235
REMARK CNNscore 0.468476117
REMARK CNNaffinity 6.77954626
REMARK  12 active torsions:
REMARK  status: ('A' for Active; 'I' for Inactive)
REMARK    1  A    between atoms: C12_13  and  O2_14 
REMARK    2  A    between atoms: C19_21  and  O3_22 
REMARK    3  A    between atoms: C19_21  and  C20_23 
REMARK    4  A    between atoms: C20_23  and  C21_25 
REMARK    5  A    between atoms: C21_25  and  O5_26 
REMARK    6  A    between atoms: O5_26  and  C22_27 
REMARK    7  A    between atoms: C22_27  and  C23_29 
REMARK    8  A    between atoms: C23_29  and  C24_30 
REMARK    9  A    between atoms: C24_30  and  C25_31 
REMARK       I    between atoms: C25_31  and  N1_33 
REMARK   10  A    between atoms: N1_33  and  C26_34 
REMARK   11  A    between atoms: C26_34  and  C27_35 
REMARK   12  A    between atoms: C27_35  and  C28_36 
ROOT
HETATM    1  C1  UNL     1      -4.006  52.179 -24.674  1.00  0.00     0.020 C 
HETATM    2  C2  UNL     1      -3.325  50.813 -24.950  1.00  0.00    -0.014 C 
HETATM    3  C3  UNL     1      -2.583  50.976 -26.312  1.00  0.00     0.022 C 
HETATM    4  C4  UNL     1      -2.257  49.666 -27.015  1.00  0.00     0.084 C 
HETATM    5  C5  UNL     1      -3.501  48.836 -27.186  1.00  0.00     0.149 C 
HETATM    6  O1  UNL     1      -3.660  48.065 -28.128  1.00  0.00    -0.293 OA
HETATM    7  C6  UNL     1      -4.515  48.880 -26.108  1.00  0.00     0.053 C 
HETATM    8  C7  UNL     1      -4.415  49.741 -25.082  1.00  0.00    -0.068 C 
HETATM    9  C8  UNL     1      -5.331  49.605 -23.891  1.00  0.00     0.035 C 
HETATM   10  C9  UNL     1      -4.564  49.750 -22.571  1.00  0.00     0.010 C 
HETATM   11  C10 UNL     1      -3.062  49.435 -22.712  1.00  0.00    -0.002 C 
HETATM   12  C11 UNL     1      -2.353  50.331 -23.794  1.00  0.00     0.031 C 
HETATM   13  C12 UNL     1      -1.405  51.381 -23.159  1.00  0.00     0.124 C 
HETATM   14  C13 UNL     1      -1.894  51.888 -21.800  1.00  0.00     0.045 C 
HETATM   15  C14 UNL     1      -1.949  50.784 -20.719  1.00  0.00     0.001 C 
HETATM   16  C15 UNL     1      -3.005  51.189 -19.663  1.00  0.00     0.019 C 
HETATM   17  C16 UNL     1      -2.373  49.407 -21.331  1.00  0.00     0.002 C 
HETATM   18  C17 UNL     1      -1.105  48.547 -21.319  1.00  0.00     0.009 C 
HETATM   19  C18 UNL     1      -0.434  48.965 -20.023  1.00  0.00     0.047 C 
HETATM   20  C19 UNL     1      -0.537  50.499 -20.051  1.00  0.00     0.128 C 
ENDROOT
BRANCH  20  21
HETATM   21  O3  UNL     1       0.525  50.983 -20.878  1.00  0.00    -0.381 OA
HETATM   22  H27 UNL     1       1.347  50.514 -20.645  1.00  0.00     0.211 HD
ENDBRANCH  20  21
BRANCH  20  23
HETATM   23  C20 UNL     1      -0.354  51.098 -18.636  1.00  0.00     0.185 C 
HETATM   24  O4  UNL     1      -0.221  52.315 -18.460  1.00  0.00    -0.292 OA
BRANCH  23  25
HETATM   25  C21 UNL     1      -0.325  50.108 -17.476  1.00  0.00     0.260 C 
BRANCH  25  26
HETATM   26  O5  UNL     1       0.555  50.605 -16.465  1.00  0.00    -0.314 OA
BRANCH  26  27
HETATM   27  C22 UNL     1      -0.080  51.068 -15.358  1.00  0.00     0.259 C 
HETATM   28  O6  UNL     1      -1.224  50.764 -15.041  1.00  0.00    -0.265 OA
BRANCH  27  29
HETATM   29  C23 UNL     1       0.760  52.062 -14.586  1.00  0.00     0.120 C 
BRANCH  29  30
HETATM   30  C24 UNL     1       0.234  52.406 -13.196  1.00  0.00     0.112 C 
BRANCH  30  31
HETATM   31  C25 UNL     1       1.221  52.045 -12.102  1.00  0.00     0.218 C 
HETATM   32  O7  UNL     1       1.223  50.963 -11.525  1.00  0.00    -0.274 OA
HETATM   33  N1  UNL     1       2.115  53.054 -11.826  1.00  0.00    -0.361 N 
HETATM   34  H34 UNL     1       2.192  53.832 -12.471  1.00  0.00     0.162 HD
BRANCH  33  35
HETATM   35  C26 UNL     1       3.208  52.859 -10.889  1.00  0.00     0.128 C 
BRANCH  35  36
HETATM   36  C27 UNL     1       3.311  53.988  -9.859  1.00  0.00     0.078 C 
BRANCH  36  37
HETATM   37  C28 UNL     1       2.003  54.273  -9.200  1.00  0.00     0.027 A 
HETATM   38  C29 UNL     1       1.200  53.511  -8.379  1.00  0.00     0.114 A 
HETATM   39  N2  UNL     1       0.068  54.199  -8.028  1.00  0.00    -0.360 N 
HETATM   40  C30 UNL     1       0.182  55.373  -8.605  1.00  0.00     0.180 A 
ATOM     41  H2  UNL     1      -0.699  53.870  -7.442  1.00  0.00     0.166 HD
HETATM   42  N3  UNL     1       1.337  55.467  -9.328  1.00  0.00    -0.355 N 
HETATM   43  H41 UNL     1       1.637  56.285  -9.853  1.00  0.00     0.166 HD
ENDBRANCH  36  37
ENDBRANCH  35  36
ENDBRANCH  33  35
ENDBRANCH  30  31
ENDBRANCH  29  30
ENDBRANCH  27  29
ENDBRANCH  26  27
ENDBRANCH  25  26
ENDBRANCH  23  25
ENDBRANCH  20  23
BRANCH  13  44
HETATM   44  O2  UNL     1      -1.160  52.487 -24.015  1.00  0.00    -0.395 OA
HETATM   45  H16 UNL     1      -0.471  53.033 -23.598  1.00  0.00     0.210 HD
ENDBRANCH  13  44
TORSDOF 12
ENDMDL
MODEL 5
REMARK minimizedAffinity -7.18915462
REMARK CNNscore 0.419551343
REMARK CNNaffinity 6.68427992
REMARK  12 active torsions:
REMARK  status: ('A' for Active; 'I' for Inactive)
REMARK    1  A    between atoms: C12_13  and  O2_14 
REMARK    2  A    between atoms: C19_21  and  O3_22 
REMARK    3  A    between atoms: C19_21  and  C20_23 
REMARK    4  A    between atoms: C20_23  and  C21_25 
REMARK    5  A    between atoms: C21_25  and  O5_26 
REMARK    6  A    between atoms: O5_26  and  C22_27 
REMARK    7  A    between atoms: C22_27  and  C23_29 
REMARK    8  A    between atoms: C23_29  and  C24_30 
REMARK    9  A    between atoms: C24_30  and  C25_31 
REMARK       I    between atoms: C25_31  and  N1_33 
REMARK   10  A    between atoms: N1_33  and  C26_34 
REMARK   11  A    between atoms: C26_34  and  C27_35 
REMARK   12  A    between atoms: C27_35  and  C28_36 
ROOT
HETATM    1  C1  UNL     1       0.342  50.622 -26.145  1.00  0.00     0.020 C 
HETATM    2  C2  UNL     1      -0.529  51.901 -26.020  1.00  0.00    -0.014 C 
HETATM    3  C3  UNL     1      -0.536  52.550 -27.438  1.00  0.00     0.022 C 
HETATM    4  C4  UNL     1      -0.904  54.027 -27.455  1.00  0.00     0.084 C 
HETATM    5  C5  UNL     1      -0.013  54.802 -26.520  1.00  0.00     0.149 C 
HETATM    6  O1  UNL     1       0.294  55.974 -26.718  1.00  0.00    -0.293 OA
HETATM    7  C6  UNL     1       0.408  54.146 -25.262  1.00  0.00     0.053 C 
HETATM    8  C7  UNL     1       0.141  52.852 -25.020  1.00  0.00    -0.068 C 
HETATM    9  C8  UNL     1       0.377  52.279 -23.645  1.00  0.00     0.035 C 
HETATM   10  C9  UNL     1      -0.797  51.403 -23.191  1.00  0.00     0.010 C 
HETATM   11  C10 UNL     1      -2.115  51.744 -23.914  1.00  0.00    -0.002 C 
HETATM   12  C11 UNL     1      -1.995  51.633 -25.478  1.00  0.00     0.031 C 
HETATM   13  C12 UNL     1      -2.764  50.410 -26.042  1.00  0.00     0.124 C 
HETATM   14  C13 UNL     1      -2.773  49.214 -25.087  1.00  0.00     0.045 C 
HETATM   15  C14 UNL     1      -3.515  49.497 -23.760  1.00  0.00     0.001 C 
HETATM   16  C15 UNL     1      -2.941  48.558 -22.673  1.00  0.00     0.019 C 
HETATM   17  C16 UNL     1      -3.300  50.975 -23.292  1.00  0.00     0.002 C 
HETATM   18  C17 UNL     1      -4.644  51.674 -23.518  1.00  0.00     0.009 C 
HETATM   19  C18 UNL     1      -5.646  50.589 -23.166  1.00  0.00     0.047 C 
HETATM   20  C19 UNL     1      -5.090  49.349 -23.885  1.00  0.00     0.128 C 
ENDROOT
BRANCH  20  21
HETATM   21  O3  UNL     1      -5.502  49.429 -25.253  1.00  0.00    -0.381 OA
HETATM   22  H27 UNL     1      -6.444  49.681 -25.285  1.00  0.00     0.211 HD
ENDBRANCH  20  21
BRANCH  20  23
HETATM   23  C20 UNL     1      -5.671  48.047 -23.285  1.00  0.00     0.185 C 
HETATM   24  O4  UNL     1      -6.437  47.321 -23.931  1.00  0.00    -0.292 OA
BRANCH  23  25
HETATM   25  C21 UNL     1      -5.269  47.718 -21.851  1.00  0.00     0.260 C 
BRANCH  25  26
HETATM   26  O5  UNL     1      -5.487  46.326 -21.615  1.00  0.00    -0.314 OA
BRANCH  26  27
HETATM   27  C22 UNL     1      -5.564  45.993 -20.302  1.00  0.00     0.259 C 
HETATM   28  O6  UNL     1      -6.204  46.622 -19.467  1.00  0.00    -0.265 OA
BRANCH  27  29
HETATM   29  C23 UNL     1      -4.711  44.790 -19.961  1.00  0.00     0.120 C 
BRANCH  29  30
HETATM   30  C24 UNL     1      -5.398  43.738 -19.096  1.00  0.00     0.112 C 
BRANCH  30  31
HETATM   31  C25 UNL     1      -6.485  42.995 -19.849  1.00  0.00     0.218 C 
HETATM   32  O7  UNL     1      -7.667  43.017 -19.524  1.00  0.00    -0.274 OA
HETATM   33  N1  UNL     1      -6.009  42.298 -20.936  1.00  0.00    -0.361 N 
HETATM   34  H34 UNL     1      -5.070  42.486 -21.269  1.00  0.00     0.162 HD
BRANCH  33  35
HETATM   35  C26 UNL     1      -6.911  41.615 -21.848  1.00  0.00     0.128 C 
BRANCH  35  36
HETATM   36  C27 UNL     1      -6.825  40.090 -21.731  1.00  0.00     0.078 C 
BRANCH  36  37
HETATM   37  C28 UNL     1      -5.859  39.658 -20.680  1.00  0.00     0.027 A 
HETATM   38  C29 UNL     1      -4.524  39.317 -20.739  1.00  0.00     0.114 A 
HETATM   39  N2  UNL     1      -4.054  38.967 -19.500  1.00  0.00    -0.360 N 
HETATM   40  C30 UNL     1      -5.076  39.110 -18.688  1.00  0.00     0.180 A 
ATOM     41  H2  UNL     1      -3.112  38.660 -19.260  1.00  0.00     0.166 HD
HETATM   42  N3  UNL     1      -6.193  39.527 -19.355  1.00  0.00    -0.355 N 
HETATM   43  H41 UNL     1      -7.098  39.710 -18.928  1.00  0.00     0.166 HD
ENDBRANCH  36  37
ENDBRANCH  35  36
ENDBRANCH  33  35
ENDBRANCH  30  31
ENDBRANCH  29  30
ENDBRANCH  27  29
ENDBRANCH  26  27
ENDBRANCH  25  26
ENDBRANCH  23  25
ENDBRANCH  20  23
BRANCH  13  44
HETATM   44  O2  UNL     1      -2.281  49.997 -27.312  1.00  0.00    -0.395 OA
HETATM   45  H16 UNL     1      -2.885  49.311 -27.646  1.00  0.00     0.210 HD
ENDBRANCH  13  44
TORSDOF 12
ENDMDL
MODEL 6
REMARK minimizedAffinity -7.75095892
REMARK CNNscore 0.414817125
REMARK CNNaffinity 6.31822348
REMARK  12 active torsions:
REMARK  status: ('A' for Active; 'I' for Inactive)
REMARK    1  A    between atoms: C12_13  and  O2_14 
REMARK    2  A    between atoms: C19_21  and  O3_22 
REMARK    3  A    between atoms: C19_21  and  C20_23 
REMARK    4  A    between atoms: C20_23  and  C21_25 
REMARK    5  A    between atoms: C21_25  and  O5_26 
REMARK    6  A    between atoms: O5_26  and  C22_27 
REMARK    7  A    between atoms: C22_27  and  C23_29 
REMARK    8  A    between atoms: C23_29  and  C24_30 
REMARK    9  A    between atoms: C24_30  and  C25_31 
REMARK       I    between atoms: C25_31  and  N1_33 
REMARK   10  A    between atoms: N1_33  and  C26_34 
REMARK   11  A    between atoms: C26_34  and  C27_35 
REMARK   12  A    between atoms: C27_35  and  C28_36 
ROOT
HETATM    1  C1  UNL     1      -5.329  50.046 -23.474  1.00  0.00     0.020 C 
HETATM    2  C2  UNL     1      -3.930  50.579 -23.880  1.00  0.00    -0.014 C 
HETATM    3  C3  UNL     1      -4.195  51.823 -24.782  1.00  0.00     0.022 C 
HETATM    4  C4  UNL     1      -3.028  52.216 -25.676  1.00  0.00     0.084 C 
HETATM    5  C5  UNL     1      -2.583  51.043 -26.508  1.00  0.00     0.149 C 
HETATM    6  O1  UNL     1      -2.095  51.170 -27.628  1.00  0.00    -0.293 OA
HETATM    7  C6  UNL     1      -2.641  49.697 -25.894  1.00  0.00     0.053 C 
HETATM    8  C7  UNL     1      -3.211  49.496 -24.694  1.00  0.00    -0.068 C 
HETATM    9  C8  UNL     1      -3.050  48.167 -23.997  1.00  0.00     0.035 C 
HETATM   10  C9  UNL     1      -2.717  48.348 -22.511  1.00  0.00     0.010 C 
HETATM   11  C10 UNL     1      -2.082  49.718 -22.201  1.00  0.00    -0.002 C 
HETATM   12  C11 UNL     1      -2.988  50.922 -22.651  1.00  0.00     0.031 C 
HETATM   13  C12 UNL     1      -3.613  51.671 -21.446  1.00  0.00     0.124 C 
HETATM   14  C13 UNL     1      -3.920  50.752 -20.261  1.00  0.00     0.045 C 
HETATM   15  C14 UNL     1      -2.658  50.109 -19.642  1.00  0.00     0.001 C 
HETATM   16  C15 UNL     1      -3.072  48.786 -18.956  1.00  0.00     0.019 C 
HETATM   17  C16 UNL     1      -1.591  49.778 -20.739  1.00  0.00     0.002 C 
HETATM   18  C17 UNL     1      -0.465  50.796 -20.534  1.00  0.00     0.009 C 
HETATM   19  C18 UNL     1      -0.418  50.940 -19.023  1.00  0.00     0.047 C 
HETATM   20  C19 UNL     1      -1.900  51.075 -18.635  1.00  0.00     0.128 C 
ENDROOT
BRANCH  20  21
HETATM   21  O3  UNL     1      -2.276  52.437 -18.856  1.00  0.00    -0.381 OA
HETATM   22  H27 UNL     1      -1.581  53.019 -18.497  1.00  0.00     0.211 HD
ENDBRANCH  20  21
BRANCH  20  23
HETATM   23  C20 UNL     1      -2.118  50.753 -17.138  1.00  0.00     0.185 C 
HETATM   24  O4  UNL     1      -3.201  50.969 -16.580  1.00  0.00    -0.292 OA
BRANCH  23  25
HETATM   25  C21 UNL     1      -0.923  50.179 -16.382  1.00  0.00     0.260 C 
BRANCH  25  26
HETATM   26  O5  UNL     1      -1.094  50.429 -14.986  1.00  0.00    -0.314 OA
BRANCH  26  27
HETATM   27  C22 UNL     1      -0.248  51.364 -14.484  1.00  0.00     0.259 C 
HETATM   28  O6  UNL     1       0.596  51.957 -15.146  1.00  0.00    -0.265 OA
BRANCH  27  29
HETATM   29  C23 UNL     1      -0.412  51.547 -12.991  1.00  0.00     0.120 C 
BRANCH  29  30
HETATM   30  C24 UNL     1       0.258  52.793 -12.418  1.00  0.00     0.112 C 
BRANCH  30  31
HETATM   31  C25 UNL     1       1.637  52.498 -11.860  1.00  0.00     0.218 C 
HETATM   32  O7  UNL     1       2.137  51.378 -11.852  1.00  0.00    -0.274 OA
HETATM   33  N1  UNL     1       2.270  53.616 -11.365  1.00  0.00    -0.361 N 
HETATM   34  H34 UNL     1       1.896  54.531 -11.587  1.00  0.00     0.162 HD
BRANCH  33  35
HETATM   35  C26 UNL     1       3.642  53.557 -10.891  1.00  0.00     0.128 C 
BRANCH  35  36
HETATM   36  C27 UNL     1       3.747  53.699  -9.369  1.00  0.00     0.078 C 
BRANCH  36  37
HETATM   37  C28 UNL     1       5.045  54.302  -8.947  1.00  0.00     0.027 A 
HETATM   38  C29 UNL     1       6.039  54.941  -9.658  1.00  0.00     0.114 A 
HETATM   39  N2  UNL     1       7.067  55.314  -8.832  1.00  0.00    -0.360 N 
HETATM   40  C30 UNL     1       6.704  54.931  -7.630  1.00  0.00     0.180 A 
ATOM     41  H2  UNL     1       7.930  55.789  -9.096  1.00  0.00     0.166 HD
HETATM   42  N3  UNL     1       5.487  54.312  -7.647  1.00  0.00    -0.355 N 
HETATM   43  H41 UNL     1       5.005  53.940  -6.831  1.00  0.00     0.166 HD
ENDBRANCH  36  37
ENDBRANCH  35  36
ENDBRANCH  33  35
ENDBRANCH  30  31
ENDBRANCH  29  30
ENDBRANCH  27  29
ENDBRANCH  26  27
ENDBRANCH  25  26
ENDBRANCH  23  25
ENDBRANCH  20  23
BRANCH  13  44
HETATM   44  O2  UNL     1      -4.783  52.396 -21.797  1.00  0.00    -0.395 OA
HETATM   45  H16 UNL     1      -5.041  52.927 -21.024  1.00  0.00     0.210 HD
ENDBRANCH  13  44
TORSDOF 12
ENDMDL
MODEL 7
REMARK minimizedAffinity -7.373559
REMARK CNNscore 0.378654718
REMARK CNNaffinity 6.19179964
REMARK  12 active torsions:
REMARK  status: ('A' for Active; 'I' for Inactive)
REMARK    1  A    between atoms: C12_13  and  O2_14 
REMARK    2  A    between atoms: C19_21  and  O3_22 
REMARK    3  A    between atoms: C19_21  and  C20_23 
REMARK    4  A    between atoms: C20_23  and  C21_25 
REMARK    5  A    between atoms: C21_25  and  O5_26 
REMARK    6  A    between atoms: O5_26  and  C22_27 
REMARK    7  A    between atoms: C22_27  and  C23_29 
REMARK    8  A    between atoms: C23_29  and  C24_30 
REMARK    9  A    between atoms: C24_30  and  C25_31 
REMARK       I    between atoms: C25_31  and  N1_33 
REMARK   10  A    between atoms: N1_33  and  C26_34 
REMARK   11  A    between atoms: C26_34  and  C27_35 
REMARK   12  A    between atoms: C27_35  and  C28_36 
ROOT
HETATM    1  C1  UNL     1      -5.303  51.223 -24.014  1.00  0.00     0.020 C 
HETATM    2  C2  UNL     1      -4.146  50.310 -24.501  1.00  0.00    -0.014 C 
HETATM    3  C3  UNL     1      -3.559  51.009 -25.766  1.00  0.00     0.022 C 
HETATM    4  C4  UNL     1      -2.761  50.092 -26.682  1.00  0.00     0.084 C 
HETATM    5  C5  UNL     1      -3.583  48.892 -27.072  1.00  0.00     0.149 C 
HETATM    6  O1  UNL     1      -3.448  48.318 -28.148  1.00  0.00    -0.293 OA
HETATM    7  C6  UNL     1      -4.508  48.329 -26.063  1.00  0.00     0.053 C 
HETATM    8  C7  UNL     1      -4.730  48.947 -24.890  1.00  0.00    -0.068 C 
HETATM    9  C8  UNL     1      -5.492  48.237 -23.798  1.00  0.00     0.035 C 
HETATM   10  C9  UNL     1      -4.814  48.413 -22.434  1.00  0.00     0.010 C 
HETATM   11  C10 UNL     1      -3.312  48.741 -22.548  1.00  0.00    -0.002 C 
HETATM   12  C11 UNL     1      -3.037  50.032 -23.403  1.00  0.00     0.031 C 
HETATM   13  C12 UNL     1      -2.563  51.225 -22.532  1.00  0.00     0.124 C 
HETATM   14  C13 UNL     1      -3.181  51.229 -21.132  1.00  0.00     0.045 C 
HETATM   15  C14 UNL     1      -2.772  50.005 -20.280  1.00  0.00     0.001 C 
HETATM   16  C15 UNL     1      -3.878  49.755 -19.227  1.00  0.00     0.019 C 
HETATM   17  C16 UNL     1      -2.636  48.718 -21.161  1.00  0.00     0.002 C 
HETATM   18  C17 UNL     1      -1.132  48.434 -21.239  1.00  0.00     0.009 C 
HETATM   19  C18 UNL     1      -0.649  48.824 -19.853  1.00  0.00     0.047 C 
HETATM   20  C19 UNL     1      -1.347  50.170 -19.600  1.00  0.00     0.128 C 
ENDROOT
BRANCH  20  21
HETATM   21  O3  UNL     1      -0.580  51.179 -20.263  1.00  0.00    -0.381 OA
HETATM   22  H27 UNL     1       0.365  51.031 -20.076  1.00  0.00     0.211 HD
ENDBRANCH  20  21
BRANCH  20  23
HETATM   23  C20 UNL     1      -1.382  50.507 -18.091  1.00  0.00     0.185 C 
HETATM   24  O4  UNL     1      -1.996  51.492 -17.661  1.00  0.00    -0.292 OA
BRANCH  23  25
HETATM   25  C21 UNL     1      -0.602  49.578 -17.166  1.00  0.00     0.260 C 
BRANCH  25  26
HETATM   26  O5  UNL     1      -1.326  48.356 -17.019  1.00  0.00    -0.314 OA
BRANCH  26  27
HETATM   27  C22 UNL     1      -2.241  48.371 -16.017  1.00  0.00     0.259 C 
HETATM   28  O6  UNL     1      -3.432  48.121 -16.166  1.00  0.00    -0.265 OA
BRANCH  27  29
HETATM   29  C23 UNL     1      -1.643  48.803 -14.696  1.00  0.00     0.120 C 
BRANCH  29  30
HETATM   30  C24 UNL     1      -2.512  49.750 -13.874  1.00  0.00     0.112 C 
BRANCH  30  31
HETATM   31  C25 UNL     1      -1.950  49.988 -12.486  1.00  0.00     0.218 C 
HETATM   32  O7  UNL     1      -2.331  49.382 -11.490  1.00  0.00    -0.274 OA
HETATM   33  N1  UNL     1      -0.966  50.951 -12.459  1.00  0.00    -0.361 N 
HETATM   34  H34 UNL     1      -0.557  51.260 -13.333  1.00  0.00     0.162 HD
BRANCH  33  35
HETATM   35  C26 UNL     1      -0.227  51.240 -11.242  1.00  0.00     0.128 C 
BRANCH  35  36
HETATM   36  C27 UNL     1      -0.446  52.673 -10.745  1.00  0.00     0.078 C 
BRANCH  36  37
HETATM   37  C28 UNL     1      -1.893  53.016 -10.634  1.00  0.00     0.027 A 
HETATM   38  C29 UNL     1      -2.930  52.430  -9.938  1.00  0.00     0.114 A 
HETATM   39  N2  UNL     1      -4.105  53.098 -10.158  1.00  0.00    -0.360 N 
HETATM   40  C30 UNL     1      -3.796  54.092 -10.959  1.00  0.00     0.180 A 
ATOM     41  H2  UNL     1      -5.025  52.872  -9.780  1.00  0.00     0.166 HD
HETATM   42  N3  UNL     1      -2.468  54.085 -11.277  1.00  0.00    -0.355 N 
HETATM   43  H41 UNL     1      -2.004  54.764 -11.876  1.00  0.00     0.166 HD
ENDBRANCH  36  37
ENDBRANCH  35  36
ENDBRANCH  33  35
ENDBRANCH  30  31
ENDBRANCH  29  30
ENDBRANCH  27  29
ENDBRANCH  26  27
ENDBRANCH  25  26
ENDBRANCH  23  25
ENDBRANCH  20  23
BRANCH  13  44
HETATM   44  O2  UNL     1      -2.791  52.481 -23.153  1.00  0.00    -0.395 OA
HETATM   45  H16 UNL     1      -2.363  53.161 -22.604  1.00  0.00     0.210 HD
ENDBRANCH  13  44
TORSDOF 12
ENDMDL
MODEL 8
REMARK minimizedAffinity -8.88721275
REMARK CNNscore 0.368211925
REMARK CNNaffinity 6.78568697
REMARK  12 active torsions:
REMARK  status: ('A' for Active; 'I' for Inactive)
REMARK    1  A    between atoms: C12_13  and  O2_14 
REMARK    2  A    between atoms: C19_21  and  O3_22 
REMARK    3  A    between atoms: C19_21  and  C20_23 
REMARK    4  A    between atoms: C20_23  and  C21_25 
REMARK    5  A    between atoms: C21_25  and  O5_26 
REMARK    6  A    between atoms: O5_26  and  C22_27 
REMARK    7  A    between atoms: C22_27  and  C23_29 
REMARK    8  A    between atoms: C23_29  and  C24_30 
REMARK    9  A    between atoms: C24_30  and  C25_31 
REMARK       I    between atoms: C25_31  and  N1_33 
REMARK   10  A    between atoms: N1_33  and  C26_34 
REMARK   11  A    between atoms: C26_34  and  C27_35 
REMARK   12  A    between atoms: C27_35  and  C28_36 
ROOT
HETATM    1  C1  UNL     1       0.123  50.365 -26.269  1.00  0.00     0.020 C 
HETATM    2  C2  UNL     1      -0.699  51.675 -26.147  1.00  0.00    -0.014 C 
HETATM    3  C3  UNL     1      -0.743  52.282 -27.583  1.00  0.00     0.022 C 
HETATM    4  C4  UNL     1      -1.062  53.770 -27.631  1.00  0.00     0.084 C 
HETATM    5  C5  UNL     1      -0.109  54.542 -26.757  1.00  0.00     0.149 C 
HETATM    6  O1  UNL     1       0.229  55.696 -27.002  1.00  0.00    -0.293 OA
HETATM    7  C6  UNL     1       0.342  53.908 -25.497  1.00  0.00     0.053 C 
HETATM    8  C7  UNL     1       0.042  52.632 -25.205  1.00  0.00    -0.068 C 
HETATM    9  C8  UNL     1       0.315  52.091 -23.823  1.00  0.00     0.035 C 
HETATM   10  C9  UNL     1      -0.867  51.269 -23.296  1.00  0.00     0.010 C 
HETATM   11  C10 UNL     1      -2.202  51.634 -23.976  1.00  0.00    -0.002 C 
HETATM   12  C11 UNL     1      -2.150  51.473 -25.540  1.00  0.00     0.031 C 
HETATM   13  C12 UNL     1      -2.981  50.262 -26.035  1.00  0.00     0.124 C 
HETATM   14  C13 UNL     1      -2.991  49.095 -25.044  1.00  0.00     0.045 C 
HETATM   15  C14 UNL     1      -3.668  49.442 -23.698  1.00  0.00     0.001 C 
HETATM   16  C15 UNL     1      -3.081  48.516 -22.606  1.00  0.00     0.019 C 
HETATM   17  C16 UNL     1      -3.385  50.925 -23.284  1.00  0.00     0.002 C 
HETATM   18  C17 UNL     1      -4.714  51.663 -23.477  1.00  0.00     0.009 C 
HETATM   19  C18 UNL     1      -5.735  50.623 -23.052  1.00  0.00     0.047 C 
HETATM   20  C19 UNL     1      -5.251  49.345 -23.755  1.00  0.00     0.128 C 
ENDROOT
BRANCH  20  21
HETATM   21  O3  UNL     1      -5.716  49.399 -25.107  1.00  0.00    -0.381 OA
HETATM   22  H27 UNL     1      -6.649  49.682 -25.109  1.00  0.00     0.211 HD
ENDBRANCH  20  21
BRANCH  20  23
HETATM   23  C20 UNL     1      -5.849  48.081 -23.092  1.00  0.00     0.185 C 
HETATM   24  O4  UNL     1      -5.468  47.690 -21.982  1.00  0.00    -0.292 OA
BRANCH  23  25
HETATM   25  C21 UNL     1      -6.914  47.332 -23.888  1.00  0.00     0.260 C 
BRANCH  25  26
HETATM   26  O5  UNL     1      -8.124  48.092 -23.873  1.00  0.00    -0.314 OA
BRANCH  26  27
HETATM   27  C22 UNL     1      -8.688  48.258 -25.097  1.00  0.00     0.259 C 
HETATM   28  O6  UNL     1      -9.455  49.170 -25.384  1.00  0.00    -0.265 OA
BRANCH  27  29
HETATM   29  C23 UNL     1      -8.319  47.149 -26.057  1.00  0.00     0.120 C 
BRANCH  29  30
HETATM   30  C24 UNL     1      -7.487  47.588 -27.258  1.00  0.00     0.112 C 
BRANCH  30  31
HETATM   31  C25 UNL     1      -8.349  47.936 -28.457  1.00  0.00     0.218 C 
HETATM   32  O7  UNL     1      -9.569  47.820 -28.468  1.00  0.00    -0.274 OA
HETATM   33  N1  UNL     1      -7.620  48.398 -29.530  1.00  0.00    -0.361 N 
HETATM   34  H34 UNL     1      -6.653  48.664 -29.390  1.00  0.00     0.162 HD
BRANCH  33  35
HETATM   35  C26 UNL     1      -8.275  48.889 -30.731  1.00  0.00     0.128 C 
BRANCH  35  36
HETATM   36  C27 UNL     1      -8.385  47.819 -31.822  1.00  0.00     0.078 C 
BRANCH  36  37
HETATM   37  C28 UNL     1      -7.149  47.733 -32.654  1.00  0.00     0.027 A 
HETATM   38  C29 UNL     1      -6.959  47.642 -34.016  1.00  0.00     0.114 A 
HETATM   39  N2  UNL     1      -5.624  47.570 -34.319  1.00  0.00    -0.360 N 
HETATM   40  C30 UNL     1      -5.002  47.636 -33.165  1.00  0.00     0.180 A 
ATOM     41  H2  UNL     1      -5.204  47.484 -35.244  1.00  0.00     0.166 HD
HETATM   42  N3  UNL     1      -5.881  47.736 -32.125  1.00  0.00    -0.355 N 
HETATM   43  H41 UNL     1      -5.625  47.807 -31.143  1.00  0.00     0.166 HD
ENDBRANCH  36  37
ENDBRANCH  35  36
ENDBRANCH  33  35
ENDBRANCH  30  31
ENDBRANCH  29  30
ENDBRANCH  27  29
ENDBRANCH  26  27
ENDBRANCH  25  26
ENDBRANCH  23  25
ENDBRANCH  20  23
BRANCH  13  44
HETATM   44  O2  UNL     1      -2.565  49.795 -27.310  1.00  0.00    -0.395 OA
HETATM   45  H16 UNL     1      -3.205  49.121 -27.598  1.00  0.00     0.210 HD
ENDBRANCH  13  44
TORSDOF 12
ENDMDL
MODEL 9
REMARK minimizedAffinity -9.41973782
REMARK CNNscore 0.336003125
REMARK CNNaffinity 6.94631958
REMARK  12 active torsions:
REMARK  status: ('A' for Active; 'I' for Inactive)
REMARK    1  A    between atoms: C12_13  and  O2_14 
REMARK    2  A    between atoms: C19_21  and  O3_22 
REMARK    3  A    between atoms: C19_21  and  C20_23 
REMARK    4  A    between atoms: C20_23  and  C21_25 
REMARK    5  A    between atoms: C21_25  and  O5_26 
REMARK    6  A    between atoms: O5_26  and  C22_27 
REMARK    7  A    between atoms: C22_27  and  C23_29 
REMARK    8  A    between atoms: C23_29  and  C24_30 
REMARK    9  A    between atoms: C24_30  and  C25_31 
REMARK       I    between atoms: C25_31  and  N1_33 
REMARK   10  A    between atoms: N1_33  and  C26_34 
REMARK   11  A    between atoms: C26_34  and  C27_35 
REMARK   12  A    between atoms: C27_35  and  C28_36 
ROOT
HETATM    1  C1  UNL     1      -5.366  50.400 -20.869  1.00  0.00     0.020 C 
HETATM    2  C2  UNL     1      -5.915  49.306 -21.822  1.00  0.00    -0.014 C 
HETATM    3  C3  UNL     1      -7.456  49.537 -21.890  1.00  0.00     0.022 C 
HETATM    4  C4  UNL     1      -8.256  48.329 -22.357  1.00  0.00     0.084 C 
HETATM    5  C5  UNL     1      -7.935  47.125 -21.511  1.00  0.00     0.149 C 
HETATM    6  O1  UNL     1      -8.752  46.237 -21.285  1.00  0.00    -0.293 OA
HETATM    7  C6  UNL     1      -6.544  46.967 -21.031  1.00  0.00     0.053 C 
HETATM    8  C7  UNL     1      -5.625  47.932 -21.207  1.00  0.00    -0.068 C 
HETATM    9  C8  UNL     1      -4.172  47.649 -20.916  1.00  0.00     0.035 C 
HETATM   10  C9  UNL     1      -3.261  48.194 -22.023  1.00  0.00     0.010 C 
HETATM   11  C10 UNL     1      -3.991  48.369 -23.369  1.00  0.00    -0.002 C 
HETATM   12  C11 UNL     1      -5.247  49.309 -23.260  1.00  0.00     0.031 C 
HETATM   13  C12 UNL     1      -5.019  50.678 -23.951  1.00  0.00     0.124 C 
HETATM   14  C13 UNL     1      -3.568  51.159 -23.868  1.00  0.00     0.045 C 
HETATM   15  C14 UNL     1      -2.575  50.236 -24.612  1.00  0.00     0.001 C 
HETATM   16  C15 UNL     1      -1.180  50.400 -23.963  1.00  0.00     0.019 C 
HETATM   17  C16 UNL     1      -2.996  48.732 -24.492  1.00  0.00     0.002 C 
HETATM   18  C17 UNL     1      -3.502  48.338 -25.883  1.00  0.00     0.009 C 
HETATM   19  C18 UNL     1      -2.571  49.105 -26.805  1.00  0.00     0.047 C 
HETATM   20  C19 UNL     1      -2.526  50.507 -26.175  1.00  0.00     0.128 C 
ENDROOT
BRANCH  20  21
HETATM   21  O3  UNL     1      -3.696  51.206 -26.607  1.00  0.00    -0.381 OA
HETATM   22  H27 UNL     1      -3.816  51.061 -27.564  1.00  0.00     0.211 HD
ENDBRANCH  20  21
BRANCH  20  23
HETATM   23  C20 UNL     1      -1.288  51.298 -26.659  1.00  0.00     0.185 C 
HETATM   24  O4  UNL     1      -0.230  50.729 -26.955  1.00  0.00    -0.292 OA
BRANCH  23  25
HETATM   25  C21 UNL     1      -1.433  52.815 -26.730  1.00  0.00     0.260 C 
BRANCH  25  26
HETATM   26  O5  UNL     1      -0.134  53.401 -26.835  1.00  0.00    -0.314 OA
BRANCH  26  27
HETATM   27  C22 UNL     1       0.103  54.389 -25.935  1.00  0.00     0.259 C 
HETATM   28  O6  UNL     1       0.212  55.574 -26.225  1.00  0.00    -0.265 OA
BRANCH  27  29
HETATM   29  C23 UNL     1       0.288  53.856 -24.531  1.00  0.00     0.120 C 
BRANCH  29  30
HETATM   30  C24 UNL     1       1.125  54.742 -23.612  1.00  0.00     0.112 C 
BRANCH  30  31
HETATM   31  C25 UNL     1       1.398  54.085 -22.273  1.00  0.00     0.218 C 
HETATM   32  O7  UNL     1       2.010  54.634 -21.364  1.00  0.00    -0.274 OA
HETATM   33  N1  UNL     1       0.885  52.811 -22.181  1.00  0.00    -0.361 N 
HETATM   34  H34 UNL     1       0.220  52.497 -22.879  1.00  0.00     0.162 HD
BRANCH  33  35
HETATM   35  C26 UNL     1       0.945  52.061 -20.938  1.00  0.00     0.128 C 
BRANCH  35  36
HETATM   36  C27 UNL     1      -0.104  52.519 -19.921  1.00  0.00     0.078 C 
BRANCH  36  37
HETATM   37  C28 UNL     1       0.331  52.277 -18.514  1.00  0.00     0.027 A 
HETATM   38  C29 UNL     1      -0.055  51.341 -17.578  1.00  0.00     0.114 A 
HETATM   39  N2  UNL     1       0.621  51.522 -16.400  1.00  0.00    -0.360 N 
HETATM   40  C30 UNL     1       1.424  52.539 -16.612  1.00  0.00     0.180 A 
ATOM     41  H2  UNL     1       0.521  50.982 -15.540  1.00  0.00     0.166 HD
HETATM   42  N3  UNL     1       1.286  53.031 -17.878  1.00  0.00    -0.355 N 
HETATM   43  H41 UNL     1       1.811  53.812 -18.266  1.00  0.00     0.166 HD
ENDBRANCH  36  37
ENDBRANCH  35  36
ENDBRANCH  33  35
ENDBRANCH  30  31
ENDBRANCH  29  30
ENDBRANCH  27  29
ENDBRANCH  26  27
ENDBRANCH  25  26
ENDBRANCH  23  25
ENDBRANCH  20  23
BRANCH  13  44
HETATM   44  O2  UNL     1      -5.881  51.692 -23.456  1.00  0.00    -0.395 OA
HETATM   45  H16 UNL     1      -5.760  52.478 -24.017  1.00  0.00     0.210 HD
ENDBRANCH  13  44
TORSDOF 12
ENDMDL
