MODEL 1
REMARK minimizedAffinity -9.39311314
REMARK  7 active torsions:
REMARK  status: ('A' for Active; 'I' for Inactive)
REMARK    1  A    between atoms: C2_2  and  C3_3 
REMARK    2  A    between atoms: C2_2  and  C4_5 
REMARK    3  A    between atoms: C3_3  and  O1_4 
REMARK    4  A    between atoms: C13_14  and  C14_15 
REMARK    5  A    between atoms: C14_15  and  C16_17 
REMARK    6  A    between atoms: C16_17  and  C17_18 
REMARK    7  A    between atoms: C17_18  and  C18_20 
ROOT
HETATM    1  C4  UNL     1      -0.573  52.651 -22.621  1.00  0.00     0.051 C 
HETATM    2  C5  UNL     1      -0.705  51.371 -21.753  1.00  0.00     0.012 C 
HETATM    3  C6  UNL     1      -1.210  50.074 -22.382  1.00  0.00     0.006 C 
HETATM    4  C7  UNL     1      -2.608  50.057 -23.050  1.00  0.00    -0.001 C 
HETATM    5  C8  UNL     1      -3.198  51.458 -23.384  1.00  0.00    -0.007 C 
HETATM    6  C9  UNL     1      -4.666  51.423 -23.901  1.00  0.00     0.006 C 
HETATM    7  C10 UNL     1      -5.618  50.448 -23.193  1.00  0.00     0.011 C 
HETATM    8  C11 UNL     1      -4.989  49.054 -23.058  1.00  0.00    -0.032 C 
HETATM    9  C12 UNL     1      -4.794  48.459 -24.488  1.00  0.00     0.016 C 
HETATM   10  C13 UNL     1      -5.760  48.014 -22.183  1.00  0.00    -0.002 C 
HETATM   11  C22 UNL     1      -4.631  47.027 -21.768  1.00  0.00     0.006 C 
HETATM   12  C23 UNL     1      -3.281  47.738 -21.997  1.00  0.00     0.011 C 
HETATM   13  C24 UNL     1      -3.648  49.213 -22.238  1.00  0.00    -0.032 C 
HETATM   14  C25 UNL     1      -3.837  49.858 -20.823  1.00  0.00     0.016 C 
HETATM   15  C26 UNL     1      -2.369  52.248 -24.424  1.00  0.00     0.044 C 
HETATM   16  C27 UNL     1      -0.857  52.485 -24.147  1.00  0.00     0.079 C 
HETATM   17  C28 UNL     1       0.006  51.485 -24.915  1.00  0.00     0.049 C 
HETATM   18  C29 UNL     1       0.222  52.121 -26.269  1.00  0.00     0.114 C 
HETATM   19  C30 UNL     1       0.046  53.577 -25.992  1.00  0.00     0.259 C 
HETATM   20  O3  UNL     1       0.369  54.483 -26.741  1.00  0.00    -0.265 OA
HETATM   21  O4  UNL     1      -0.557  53.758 -24.786  1.00  0.00    -0.309 OA
ENDROOT
BRANCH  10  22
HETATM   22  C14 UNL     1      -6.998  47.266 -22.755  1.00  0.00    -0.007 C 
HETATM   23  C15 UNL     1      -7.020  45.777 -22.395  1.00  0.00     0.011 C 
BRANCH  22  24
HETATM   24  C16 UNL     1      -7.147  47.438 -24.288  1.00  0.00     0.087 C 
BRANCH  24  25
HETATM   25  C17 UNL     1      -8.477  46.960 -24.851  1.00  0.00     0.149 C 
HETATM   26  O2  UNL     1      -9.528  47.515 -24.546  1.00  0.00    -0.293 OA
BRANCH  25  27
HETATM   27  C18 UNL     1      -8.429  45.817 -25.817  1.00  0.00     0.052 C 
HETATM   28  C19 UNL     1      -7.914  45.856 -27.061  1.00  0.00    -0.084 C 
HETATM   29  C20 UNL     1      -7.884  44.618 -27.917  1.00  0.00     0.043 C 
HETATM   30  C21 UNL     1      -7.325  47.088 -27.692  1.00  0.00     0.043 C 
ENDBRANCH  25  27
ENDBRANCH  24  25
ENDBRANCH  22  24
ENDBRANCH  10  22
BRANCH   1  31
HETATM   31  C2  UNL     1       0.697  53.417 -22.179  1.00  0.00    -0.059 C 
HETATM   32  C1  UNL     1       1.335  54.377 -22.872  1.00  0.00     0.017 C 
BRANCH  31  33
HETATM   33  C3  UNL     1       1.234  53.028 -20.816  1.00  0.00     0.198 C 
BRANCH  33  34
HETATM   34  O1  UNL     1       1.409  54.196 -20.028  1.00  0.00    -0.397 OA
HETATM   35  H5  UNL     1       1.758  54.884 -20.623  1.00  0.00     0.209 HD
ENDBRANCH  33  34
ENDBRANCH  31  33
ENDBRANCH   1  31
TORSDOF 7
ENDMDL
MODEL 2
REMARK minimizedAffinity -9.35779476
REMARK  7 active torsions:
REMARK  status: ('A' for Active; 'I' for Inactive)
REMARK    1  A    between atoms: C2_2  and  C3_3 
REMARK    2  A    between atoms: C2_2  and  C4_5 
REMARK    3  A    between atoms: C3_3  and  O1_4 
REMARK    4  A    between atoms: C13_14  and  C14_15 
REMARK    5  A    between atoms: C14_15  and  C16_17 
REMARK    6  A    between atoms: C16_17  and  C17_18 
REMARK    7  A    between atoms: C17_18  and  C18_20 
ROOT
HETATM    1  C4  UNL     1      -5.543  48.462 -23.881  1.00  0.00     0.051 C 
HETATM    2  C5  UNL     1      -5.885  49.239 -22.582  1.00  0.00     0.012 C 
HETATM    3  C6  UNL     1      -4.901  50.269 -22.029  1.00  0.00     0.006 C 
HETATM    4  C7  UNL     1      -3.464  49.817 -21.667  1.00  0.00    -0.001 C 
HETATM    5  C8  UNL     1      -3.025  48.456 -22.282  1.00  0.00    -0.007 C 
HETATM    6  C9  UNL     1      -1.645  47.945 -21.775  1.00  0.00     0.006 C 
HETATM    7  C10 UNL     1      -1.356  48.128 -20.278  1.00  0.00     0.011 C 
HETATM    8  C11 UNL     1      -1.680  49.557 -19.817  1.00  0.00    -0.032 C 
HETATM    9  C12 UNL     1      -0.707  50.542 -20.538  1.00  0.00     0.016 C 
HETATM   10  C13 UNL     1      -1.625  49.832 -18.280  1.00  0.00    -0.002 C 
HETATM   11  C22 UNL     1      -2.551  51.073 -18.132  1.00  0.00     0.006 C 
HETATM   12  C23 UNL     1      -3.416  51.166 -19.405  1.00  0.00     0.011 C 
HETATM   13  C24 UNL     1      -3.208  49.821 -20.123  1.00  0.00    -0.032 C 
HETATM   14  C25 UNL     1      -4.182  48.800 -19.441  1.00  0.00     0.016 C 
HETATM   15  C26 UNL     1      -2.967  48.464 -23.827  1.00  0.00     0.044 C 
HETATM   16  C27 UNL     1      -4.235  48.890 -24.619  1.00  0.00     0.079 C 
HETATM   17  C28 UNL     1      -4.134  50.345 -25.077  1.00  0.00     0.049 C 
HETATM   18  C29 UNL     1      -3.408  50.283 -26.402  1.00  0.00     0.114 C 
HETATM   19  C30 UNL     1      -3.697  48.900 -26.882  1.00  0.00     0.259 C 
HETATM   20  O3  UNL     1      -3.516  48.494 -28.018  1.00  0.00    -0.265 OA
HETATM   21  O4  UNL     1      -4.170  48.135 -25.861  1.00  0.00    -0.309 OA
ENDROOT
BRANCH  10  22
HETATM   22  C14 UNL     1      -0.259  50.043 -17.566  1.00  0.00    -0.007 C 
HETATM   23  C15 UNL     1       0.032  48.984 -16.498  1.00  0.00     0.011 C 
BRANCH  22  24
HETATM   24  C16 UNL     1      -0.116  51.460 -16.954  1.00  0.00     0.087 C 
BRANCH  24  25
HETATM   25  C17 UNL     1       1.320  51.905 -16.721  1.00  0.00     0.149 C 
HETATM   26  O2  UNL     1       1.889  52.646 -17.517  1.00  0.00    -0.293 OA
BRANCH  25  27
HETATM   27  C18 UNL     1       1.979  51.430 -15.462  1.00  0.00     0.052 C 
HETATM   28  C19 UNL     1       3.274  51.601 -15.137  1.00  0.00    -0.084 C 
HETATM   29  C20 UNL     1       3.801  51.115 -13.812  1.00  0.00     0.043 C 
HETATM   30  C21 UNL     1       4.283  52.283 -16.019  1.00  0.00     0.043 C 
ENDBRANCH  25  27
ENDBRANCH  24  25
ENDBRANCH  22  24
ENDBRANCH  10  22
BRANCH   1  31
HETATM   31  C2  UNL     1      -6.840  48.288 -24.706  1.00  0.00    -0.059 C 
HETATM   32  C1  UNL     1      -7.021  47.455 -25.748  1.00  0.00     0.017 C 
BRANCH  31  33
HETATM   33  C3  UNL     1      -8.005  49.146 -24.253  1.00  0.00     0.198 C 
BRANCH  33  34
HETATM   34  O1  UNL     1      -8.741  49.578 -25.388  1.00  0.00    -0.397 OA
HETATM   35  H5  UNL     1      -8.089  49.790 -26.079  1.00  0.00     0.209 HD
ENDBRANCH  33  34
ENDBRANCH  31  33
ENDBRANCH   1  31
TORSDOF 7
ENDMDL
MODEL 3
REMARK minimizedAffinity -9.31811428
REMARK  7 active torsions:
REMARK  status: ('A' for Active; 'I' for Inactive)
REMARK    1  A    between atoms: C2_2  and  C3_3 
REMARK    2  A    between atoms: C2_2  and  C4_5 
REMARK    3  A    between atoms: C3_3  and  O1_4 
REMARK    4  A    between atoms: C13_14  and  C14_15 
REMARK    5  A    between atoms: C14_15  and  C16_17 
REMARK    6  A    between atoms: C16_17  and  C17_18 
REMARK    7  A    between atoms: C17_18  and  C18_20 
ROOT
HETATM    1  C4  UNL     1      -0.652  52.674 -22.631  1.00  0.00     0.051 C 
HETATM    2  C5  UNL     1      -0.789  51.362 -21.813  1.00  0.00     0.012 C 
HETATM    3  C6  UNL     1      -1.285  50.088 -22.494  1.00  0.00     0.006 C 
HETATM    4  C7  UNL     1      -2.677  50.093 -23.175  1.00  0.00    -0.001 C 
HETATM    5  C8  UNL     1      -3.266  51.505 -23.463  1.00  0.00    -0.007 C 
HETATM    6  C9  UNL     1      -4.729  51.487 -23.994  1.00  0.00     0.006 C 
HETATM    7  C10 UNL     1      -5.685  50.484 -23.331  1.00  0.00     0.011 C 
HETATM    8  C11 UNL     1      -5.055  49.087 -23.243  1.00  0.00    -0.032 C 
HETATM    9  C12 UNL     1      -4.845  48.546 -24.692  1.00  0.00     0.016 C 
HETATM   10  C13 UNL     1      -5.831  48.014 -22.414  1.00  0.00    -0.002 C 
HETATM   11  C22 UNL     1      -4.704  47.014 -22.026  1.00  0.00     0.006 C 
HETATM   12  C23 UNL     1      -3.354  47.735 -22.216  1.00  0.00     0.011 C 
HETATM   13  C24 UNL     1      -3.721  49.218 -22.405  1.00  0.00    -0.032 C 
HETATM   14  C25 UNL     1      -3.925  49.809 -20.969  1.00  0.00     0.016 C 
HETATM   15  C26 UNL     1      -2.430  52.334 -24.464  1.00  0.00     0.044 C 
HETATM   16  C27 UNL     1      -0.921  52.565 -24.165  1.00  0.00     0.079 C 
HETATM   17  C28 UNL     1      -0.049  51.595 -24.961  1.00  0.00     0.049 C 
HETATM   18  C29 UNL     1       0.178  52.282 -26.289  1.00  0.00     0.114 C 
HETATM   19  C30 UNL     1      -0.003  53.726 -25.960  1.00  0.00     0.259 C 
HETATM   20  O3  UNL     1       0.325  54.660 -26.672  1.00  0.00    -0.265 OA
HETATM   21  O4  UNL     1      -0.618  53.860 -24.753  1.00  0.00    -0.309 OA
ENDROOT
BRANCH  10  22
HETATM   22  C14 UNL     1      -7.062  47.285 -23.025  1.00  0.00    -0.007 C 
HETATM   23  C15 UNL     1      -7.115  47.372 -24.553  1.00  0.00     0.011 C 
BRANCH  22  24
HETATM   24  C16 UNL     1      -8.406  47.770 -22.424  1.00  0.00     0.087 C 
BRANCH  24  25
HETATM   25  C17 UNL     1      -8.750  47.161 -21.074  1.00  0.00     0.149 C 
HETATM   26  O2  UNL     1      -9.194  46.019 -20.990  1.00  0.00    -0.293 OA
BRANCH  25  27
HETATM   27  C18 UNL     1      -8.482  48.003 -19.864  1.00  0.00     0.052 C 
HETATM   28  C19 UNL     1      -9.410  48.470 -19.007  1.00  0.00    -0.084 C 
HETATM   29  C20 UNL     1      -9.001  49.269 -17.797  1.00  0.00     0.043 C 
HETATM   30  C21 UNL     1     -10.888  48.238 -19.154  1.00  0.00     0.043 C 
ENDBRANCH  25  27
ENDBRANCH  24  25
ENDBRANCH  22  24
ENDBRANCH  10  22
BRANCH   1  31
HETATM   31  C2  UNL     1       0.613  53.425 -22.150  1.00  0.00    -0.059 C 
HETATM   32  C1  UNL     1       1.301  54.356 -22.835  1.00  0.00     0.017 C 
BRANCH  31  33
HETATM   33  C3  UNL     1       1.080  53.058 -20.755  1.00  0.00     0.198 C 
BRANCH  33  34
HETATM   34  O1  UNL     1       1.461  54.237 -20.060  1.00  0.00    -0.397 OA
HETATM   35  H5  UNL     1       1.922  54.803 -20.704  1.00  0.00     0.209 HD
ENDBRANCH  33  34
ENDBRANCH  31  33
ENDBRANCH   1  31
TORSDOF 7
ENDMDL
MODEL 4
REMARK minimizedAffinity -9.17642784
REMARK  7 active torsions:
REMARK  status: ('A' for Active; 'I' for Inactive)
REMARK    1  A    between atoms: C2_2  and  C3_3 
REMARK    2  A    between atoms: C2_2  and  C4_5 
REMARK    3  A    between atoms: C3_3  and  O1_4 
REMARK    4  A    between atoms: C13_14  and  C14_15 
REMARK    5  A    between atoms: C14_15  and  C16_17 
REMARK    6  A    between atoms: C16_17  and  C17_18 
REMARK    7  A    between atoms: C17_18  and  C18_20 
ROOT
HETATM    1  C4  UNL     1      -0.495  52.747 -22.652  1.00  0.00     0.051 C 
HETATM    2  C5  UNL     1      -0.604  51.458 -21.793  1.00  0.00     0.012 C 
HETATM    3  C6  UNL     1      -1.169  50.179 -22.408  1.00  0.00     0.006 C 
HETATM    4  C7  UNL     1      -2.602  50.198 -22.996  1.00  0.00    -0.001 C 
HETATM    5  C8  UNL     1      -3.181  51.615 -23.280  1.00  0.00    -0.007 C 
HETATM    6  C9  UNL     1      -4.676  51.615 -23.715  1.00  0.00     0.006 C 
HETATM    7  C10 UNL     1      -5.606  50.649 -22.965  1.00  0.00     0.011 C 
HETATM    8  C11 UNL     1      -4.999  49.241 -22.882  1.00  0.00    -0.032 C 
HETATM    9  C12 UNL     1      -4.896  48.661 -24.328  1.00  0.00     0.016 C 
HETATM   10  C13 UNL     1      -5.741  48.206 -21.977  1.00  0.00    -0.002 C 
HETATM   11  C22 UNL     1      -4.610  47.192 -21.638  1.00  0.00     0.006 C 
HETATM   12  C23 UNL     1      -3.262  47.879 -21.935  1.00  0.00     0.011 C 
HETATM   13  C24 UNL     1      -3.611  49.364 -22.137  1.00  0.00    -0.032 C 
HETATM   14  C25 UNL     1      -3.708  49.995 -20.706  1.00  0.00     0.016 C 
HETATM   15  C26 UNL     1      -2.396  52.401 -24.356  1.00  0.00     0.044 C 
HETATM   16  C27 UNL     1      -0.867  52.606 -24.161  1.00  0.00     0.079 C 
HETATM   17  C28 UNL     1      -0.068  51.599 -24.988  1.00  0.00     0.049 C 
HETATM   18  C29 UNL     1       0.085  52.248 -26.345  1.00  0.00     0.114 C 
HETATM   19  C30 UNL     1      -0.046  53.703 -26.042  1.00  0.00     0.259 C 
HETATM   20  O3  UNL     1       0.252  54.613 -26.797  1.00  0.00    -0.265 OA
HETATM   21  O4  UNL     1      -0.578  53.880 -24.801  1.00  0.00    -0.309 OA
ENDROOT
BRANCH  10  22
HETATM   22  C14 UNL     1      -7.024  47.489 -22.488  1.00  0.00    -0.007 C 
HETATM   23  C15 UNL     1      -8.291  47.921 -21.744  1.00  0.00     0.011 C 
BRANCH  22  24
HETATM   24  C16 UNL     1      -6.899  45.945 -22.459  1.00  0.00     0.087 C 
BRANCH  24  25
HETATM   25  C17 UNL     1      -8.049  45.206 -23.127  1.00  0.00     0.149 C 
HETATM   26  O2  UNL     1      -8.768  44.445 -22.487  1.00  0.00    -0.293 OA
BRANCH  25  27
HETATM   27  C18 UNL     1      -8.278  45.486 -24.580  1.00  0.00     0.052 C 
HETATM   28  C19 UNL     1      -8.213  44.583 -25.578  1.00  0.00    -0.084 C 
HETATM   29  C20 UNL     1      -8.514  44.987 -26.997  1.00  0.00     0.043 C 
HETATM   30  C21 UNL     1      -7.863  43.134 -25.383  1.00  0.00     0.043 C 
ENDBRANCH  25  27
ENDBRANCH  24  25
ENDBRANCH  22  24
ENDBRANCH  10  22
BRANCH   1  31
HETATM   31  C2  UNL     1       0.813  53.482 -22.274  1.00  0.00    -0.059 C 
HETATM   32  C1  UNL     1       1.415  54.458 -22.976  1.00  0.00     0.017 C 
BRANCH  31  33
HETATM   33  C3  UNL     1       1.438  53.039 -20.965  1.00  0.00     0.198 C 
BRANCH  33  34
HETATM   34  O1  UNL     1       1.448  54.129 -20.055  1.00  0.00    -0.397 OA
HETATM   35  H5  UNL     1       1.670  54.923 -20.574  1.00  0.00     0.209 HD
ENDBRANCH  33  34
ENDBRANCH  31  33
ENDBRANCH   1  31
TORSDOF 7
ENDMDL
MODEL 5
REMARK minimizedAffinity -9.06434155
REMARK  7 active torsions:
REMARK  status: ('A' for Active; 'I' for Inactive)
REMARK    1  A    between atoms: C2_2  and  C3_3 
REMARK    2  A    between atoms: C2_2  and  C4_5 
REMARK    3  A    between atoms: C3_3  and  O1_4 
REMARK    4  A    between atoms: C13_14  and  C14_15 
REMARK    5  A    between atoms: C14_15  and  C16_17 
REMARK    6  A    between atoms: C16_17  and  C17_18 
REMARK    7  A    between atoms: C17_18  and  C18_20 
ROOT
HETATM    1  C4  UNL     1      -7.199  46.693 -24.070  1.00  0.00     0.051 C 
HETATM    2  C5  UNL     1      -6.362  47.426 -22.989  1.00  0.00     0.012 C 
HETATM    3  C6  UNL     1      -5.917  48.869 -23.218  1.00  0.00     0.006 C 
HETATM    4  C7  UNL     1      -5.050  49.199 -24.459  1.00  0.00    -0.001 C 
HETATM    5  C8  UNL     1      -5.053  48.115 -25.576  1.00  0.00    -0.007 C 
HETATM    6  C9  UNL     1      -4.051  48.391 -26.734  1.00  0.00     0.006 C 
HETATM    7  C10 UNL     1      -2.671  48.932 -26.329  1.00  0.00     0.011 C 
HETATM    8  C11 UNL     1      -2.796  50.102 -25.344  1.00  0.00    -0.032 C 
HETATM    9  C12 UNL     1      -3.496  51.291 -26.075  1.00  0.00     0.016 C 
HETATM   10  C13 UNL     1      -1.474  50.621 -24.693  1.00  0.00    -0.002 C 
HETATM   11  C22 UNL     1      -1.990  51.299 -23.390  1.00  0.00     0.006 C 
HETATM   12  C23 UNL     1      -3.413  50.770 -23.120  1.00  0.00     0.011 C 
HETATM   13  C24 UNL     1      -3.579  49.576 -24.076  1.00  0.00    -0.032 C 
HETATM   14  C25 UNL     1      -2.904  48.349 -23.373  1.00  0.00     0.016 C 
HETATM   15  C26 UNL     1      -6.441  47.893 -26.220  1.00  0.00     0.044 C 
HETATM   16  C27 UNL     1      -7.645  47.548 -25.298  1.00  0.00     0.079 C 
HETATM   17  C28 UNL     1      -8.495  48.787 -25.017  1.00  0.00     0.049 C 
HETATM   18  C29 UNL     1      -9.478  48.849 -26.165  1.00  0.00     0.114 C 
HETATM   19  C30 UNL     1      -9.553  47.432 -26.624  1.00  0.00     0.259 C 
HETATM   20  O3  UNL     1     -10.404  46.974 -27.368  1.00  0.00    -0.265 OA
HETATM   21  O4  UNL     1      -8.514  46.715 -26.116  1.00  0.00    -0.309 OA
ENDROOT
BRANCH  10  22
HETATM   22  C14 UNL     1      -0.518  51.555 -25.488  1.00  0.00    -0.007 C 
HETATM   23  C15 UNL     1      -0.173  51.017 -26.881  1.00  0.00     0.011 C 
BRANCH  22  24
HETATM   24  C16 UNL     1       0.785  51.879 -24.714  1.00  0.00     0.087 C 
BRANCH  24  25
HETATM   25  C17 UNL     1       0.708  53.126 -23.845  1.00  0.00     0.149 C 
HETATM   26  O2  UNL     1       0.852  54.244 -24.330  1.00  0.00    -0.293 OA
BRANCH  25  27
HETATM   27  C18 UNL     1       0.410  52.919 -22.392  1.00  0.00     0.052 C 
HETATM   28  C19 UNL     1       0.984  53.579 -21.368  1.00  0.00    -0.084 C 
HETATM   29  C20 UNL     1       0.557  53.309 -19.948  1.00  0.00     0.043 C 
HETATM   30  C21 UNL     1       2.055  54.622 -21.529  1.00  0.00     0.043 C 
ENDBRANCH  25  27
ENDBRANCH  24  25
ENDBRANCH  22  24
ENDBRANCH  10  22
BRANCH   1  31
HETATM   31  C2  UNL     1      -8.250  45.805 -23.362  1.00  0.00    -0.059 C 
HETATM   32  C1  UNL     1      -8.392  44.473 -23.492  1.00  0.00     0.017 C 
BRANCH  31  33
HETATM   33  C3  UNL     1      -9.182  46.545 -22.422  1.00  0.00     0.198 C 
BRANCH  33  34
HETATM   34  O1  UNL     1     -10.458  46.678 -23.031  1.00  0.00    -0.397 OA
HETATM   35  H5  UNL     1     -10.298  46.869 -23.973  1.00  0.00     0.209 HD
ENDBRANCH  33  34
ENDBRANCH  31  33
ENDBRANCH   1  31
TORSDOF 7
ENDMDL
MODEL 6
REMARK minimizedAffinity -9.01491642
REMARK  7 active torsions:
REMARK  status: ('A' for Active; 'I' for Inactive)
REMARK    1  A    between atoms: C2_2  and  C3_3 
REMARK    2  A    between atoms: C2_2  and  C4_5 
REMARK    3  A    between atoms: C3_3  and  O1_4 
REMARK    4  A    between atoms: C13_14  and  C14_15 
REMARK    5  A    between atoms: C14_15  and  C16_17 
REMARK    6  A    between atoms: C16_17  and  C17_18 
REMARK    7  A    between atoms: C17_18  and  C18_20 
ROOT
HETATM    1  C4  UNL     1      -3.253  49.023 -24.465  1.00  0.00     0.051 C 
HETATM    2  C5  UNL     1      -3.951  48.287 -23.290  1.00  0.00     0.012 C 
HETATM    3  C6  UNL     1      -4.249  49.035 -21.992  1.00  0.00     0.006 C 
HETATM    4  C7  UNL     1      -3.077  49.680 -21.211  1.00  0.00    -0.001 C 
HETATM    5  C8  UNL     1      -1.762  49.863 -22.023  1.00  0.00    -0.007 C 
HETATM    6  C9  UNL     1      -0.554  50.358 -21.175  1.00  0.00     0.006 C 
HETATM    7  C10 UNL     1      -0.398  49.737 -19.779  1.00  0.00     0.011 C 
HETATM    8  C11 UNL     1      -1.727  49.753 -19.009  1.00  0.00    -0.032 C 
HETATM    9  C12 UNL     1      -2.128  51.239 -18.747  1.00  0.00     0.016 C 
HETATM   10  C13 UNL     1      -1.766  48.975 -17.655  1.00  0.00    -0.002 C 
HETATM   11  C22 UNL     1      -3.285  48.679 -17.487  1.00  0.00     0.006 C 
HETATM   12  C23 UNL     1      -3.952  48.857 -18.866  1.00  0.00     0.011 C 
HETATM   13  C24 UNL     1      -2.781  48.942 -19.862  1.00  0.00    -0.032 C 
HETATM   14  C25 UNL     1      -2.354  47.466 -20.170  1.00  0.00     0.016 C 
HETATM   15  C26 UNL     1      -1.902  50.830 -23.221  1.00  0.00     0.044 C 
HETATM   16  C27 UNL     1      -3.011  50.553 -24.277  1.00  0.00     0.079 C 
HETATM   17  C28 UNL     1      -4.237  51.431 -24.028  1.00  0.00     0.049 C 
HETATM   18  C29 UNL     1      -3.946  52.718 -24.768  1.00  0.00     0.114 C 
HETATM   19  C30 UNL     1      -2.979  52.293 -25.821  1.00  0.00     0.259 C 
HETATM   20  O3  UNL     1      -2.662  52.952 -26.798  1.00  0.00    -0.265 OA
HETATM   21  O4  UNL     1      -2.470  51.065 -25.527  1.00  0.00    -0.309 OA
ENDROOT
BRANCH  10  22
HETATM   22  C14 UNL     1      -1.156  49.601 -16.368  1.00  0.00    -0.007 C 
HETATM   23  C15 UNL     1      -1.970  50.780 -15.828  1.00  0.00     0.011 C 
BRANCH  22  24
HETATM   24  C16 UNL     1       0.324  50.025 -16.552  1.00  0.00     0.087 C 
BRANCH  24  25
HETATM   25  C17 UNL     1       0.876  50.892 -15.431  1.00  0.00     0.149 C 
HETATM   26  O2  UNL     1       0.528  50.717 -14.267  1.00  0.00    -0.293 OA
BRANCH  25  27
HETATM   27  C18 UNL     1       1.886  51.929 -15.814  1.00  0.00     0.052 C 
HETATM   28  C19 UNL     1       3.191  51.920 -15.481  1.00  0.00    -0.084 C 
HETATM   29  C20 UNL     1       4.115  53.003 -15.974  1.00  0.00     0.043 C 
HETATM   30  C21 UNL     1       3.838  50.861 -14.631  1.00  0.00     0.043 C 
ENDBRANCH  25  27
ENDBRANCH  24  25
ENDBRANCH  22  24
ENDBRANCH  10  22
BRANCH   1  31
HETATM   31  C2  UNL     1      -3.871  48.526 -25.794  1.00  0.00    -0.059 C 
HETATM   32  C1  UNL     1      -3.225  48.345 -26.960  1.00  0.00     0.017 C 
BRANCH  31  33
HETATM   33  C3  UNL     1      -5.352  48.205 -25.728  1.00  0.00     0.198 C 
BRANCH  33  34
HETATM   34  O1  UNL     1      -5.893  48.206 -27.041  1.00  0.00    -0.397 OA
HETATM   35  H5  UNL     1      -5.472  48.945 -27.515  1.00  0.00     0.209 HD
ENDBRANCH  33  34
ENDBRANCH  31  33
ENDBRANCH   1  31
TORSDOF 7
ENDMDL
MODEL 7
REMARK minimizedAffinity -8.97652626
REMARK  7 active torsions:
REMARK  status: ('A' for Active; 'I' for Inactive)
REMARK    1  A    between atoms: C2_2  and  C3_3 
REMARK    2  A    between atoms: C2_2  and  C4_5 
REMARK    3  A    between atoms: C3_3  and  O1_4 
REMARK    4  A    between atoms: C13_14  and  C14_15 
REMARK    5  A    between atoms: C14_15  and  C16_17 
REMARK    6  A    between atoms: C16_17  and  C17_18 
REMARK    7  A    between atoms: C17_18  and  C18_20 
ROOT
HETATM    1  C4  UNL     1      -6.640  48.494 -20.396  1.00  0.00     0.051 C 
HETATM    2  C5  UNL     1      -6.738  49.854 -21.136  1.00  0.00     0.012 C 
HETATM    3  C6  UNL     1      -6.333  49.953 -22.606  1.00  0.00     0.006 C 
HETATM    4  C7  UNL     1      -4.891  49.559 -23.015  1.00  0.00    -0.001 C 
HETATM    5  C8  UNL     1      -4.114  48.711 -21.966  1.00  0.00    -0.007 C 
HETATM    6  C9  UNL     1      -2.620  48.467 -22.327  1.00  0.00     0.006 C 
HETATM    7  C10 UNL     1      -1.856  49.660 -22.921  1.00  0.00     0.011 C 
HETATM    8  C11 UNL     1      -2.653  50.324 -24.054  1.00  0.00    -0.032 C 
HETATM    9  C12 UNL     1      -2.785  49.304 -25.229  1.00  0.00     0.016 C 
HETATM   10  C13 UNL     1      -2.091  51.669 -24.617  1.00  0.00    -0.002 C 
HETATM   11  C22 UNL     1      -3.361  52.328 -25.229  1.00  0.00     0.006 C 
HETATM   12  C23 UNL     1      -4.592  51.624 -24.623  1.00  0.00     0.011 C 
HETATM   13  C24 UNL     1      -4.036  50.795 -23.451  1.00  0.00    -0.032 C 
HETATM   14  C25 UNL     1      -3.902  51.778 -22.239  1.00  0.00     0.016 C 
HETATM   15  C26 UNL     1      -4.747  47.326 -21.697  1.00  0.00     0.044 C 
HETATM   16  C27 UNL     1      -6.240  47.260 -21.265  1.00  0.00     0.079 C 
HETATM   17  C28 UNL     1      -7.140  46.918 -22.451  1.00  0.00     0.049 C 
HETATM   18  C29 UNL     1      -7.157  45.406 -22.500  1.00  0.00     0.114 C 
HETATM   19  C30 UNL     1      -6.838  45.018 -21.095  1.00  0.00     0.259 C 
HETATM   20  O3  UNL     1      -6.984  43.904 -20.619  1.00  0.00    -0.265 OA
HETATM   21  O4  UNL     1      -6.330  46.082 -20.415  1.00  0.00    -0.309 OA
ENDROOT
BRANCH  10  22
HETATM   22  C14 UNL     1      -0.902  51.668 -25.620  1.00  0.00    -0.007 C 
HETATM   23  C15 UNL     1      -0.880  50.432 -26.525  1.00  0.00     0.011 C 
BRANCH  22  24
HETATM   24  C16 UNL     1       0.471  51.832 -24.922  1.00  0.00     0.087 C 
BRANCH  24  25
HETATM   25  C17 UNL     1       0.536  52.972 -23.916  1.00  0.00     0.149 C 
HETATM   26  O2  UNL     1       0.880  54.099 -24.260  1.00  0.00    -0.293 OA
BRANCH  25  27
HETATM   27  C18 UNL     1       0.121  52.658 -22.512  1.00  0.00     0.052 C 
HETATM   28  C19 UNL     1       0.645  53.198 -21.395  1.00  0.00    -0.084 C 
HETATM   29  C20 UNL     1       0.102  52.831 -20.039  1.00  0.00     0.043 C 
HETATM   30  C21 UNL     1       1.772  54.194 -21.388  1.00  0.00     0.043 C 
ENDBRANCH  25  27
ENDBRANCH  24  25
ENDBRANCH  22  24
ENDBRANCH  10  22
BRANCH   1  31
HETATM   31  C2  UNL     1      -7.847  48.367 -19.436  1.00  0.00    -0.059 C 
HETATM   32  C1  UNL     1      -9.131  48.169 -19.785  1.00  0.00     0.017 C 
BRANCH  31  33
HETATM   33  C3  UNL     1      -7.503  48.463 -17.962  1.00  0.00     0.198 C 
BRANCH  33  34
HETATM   34  O1  UNL     1      -6.095  48.563 -17.813  1.00  0.00    -0.397 OA
HETATM   35  H5  UNL     1      -5.702  47.960 -18.470  1.00  0.00     0.209 HD
ENDBRANCH  33  34
ENDBRANCH  31  33
ENDBRANCH   1  31
TORSDOF 7
ENDMDL
MODEL 8
REMARK minimizedAffinity -8.97312927
REMARK  7 active torsions:
REMARK  status: ('A' for Active; 'I' for Inactive)
REMARK    1  A    between atoms: C2_2  and  C3_3 
REMARK    2  A    between atoms: C2_2  and  C4_5 
REMARK    3  A    between atoms: C3_3  and  O1_4 
REMARK    4  A    between atoms: C13_14  and  C14_15 
REMARK    5  A    between atoms: C14_15  and  C16_17 
REMARK    6  A    between atoms: C16_17  and  C17_18 
REMARK    7  A    between atoms: C17_18  and  C18_20 
ROOT
HETATM    1  C4  UNL     1       0.247  50.482 -17.467  1.00  0.00     0.051 C 
HETATM    2  C5  UNL     1       0.175  51.591 -18.549  1.00  0.00     0.012 C 
HETATM    3  C6  UNL     1      -1.126  51.825 -19.316  1.00  0.00     0.006 C 
HETATM    4  C7  UNL     1      -1.739  50.656 -20.128  1.00  0.00    -0.001 C 
HETATM    5  C8  UNL     1      -1.203  49.242 -19.759  1.00  0.00    -0.007 C 
HETATM    6  C9  UNL     1      -1.709  48.106 -20.695  1.00  0.00     0.006 C 
HETATM    7  C10 UNL     1      -1.767  48.431 -22.196  1.00  0.00     0.011 C 
HETATM    8  C11 UNL     1      -2.458  49.778 -22.449  1.00  0.00    -0.032 C 
HETATM    9  C12 UNL     1      -3.950  49.661 -22.004  1.00  0.00     0.016 C 
HETATM   10  C13 UNL     1      -2.411  50.331 -23.909  1.00  0.00    -0.002 C 
HETATM   11  C22 UNL     1      -2.610  51.859 -23.692  1.00  0.00     0.006 C 
HETATM   12  C23 UNL     1      -2.307  52.165 -22.211  1.00  0.00     0.011 C 
HETATM   13  C24 UNL     1      -1.640  50.886 -21.673  1.00  0.00    -0.032 C 
HETATM   14  C25 UNL     1      -0.130  50.969 -22.082  1.00  0.00     0.016 C 
HETATM   15  C26 UNL     1      -1.527  48.814 -18.309  1.00  0.00     0.044 C 
HETATM   16  C27 UNL     1      -1.090  49.744 -17.142  1.00  0.00     0.079 C 
HETATM   17  C28 UNL     1      -2.260  50.598 -16.653  1.00  0.00     0.049 C 
HETATM   18  C29 UNL     1      -2.958  49.741 -15.620  1.00  0.00     0.114 C 
HETATM   19  C30 UNL     1      -1.878  48.821 -15.157  1.00  0.00     0.259 C 
HETATM   20  O3  UNL     1      -1.924  48.123 -14.158  1.00  0.00    -0.265 OA
HETATM   21  O4  UNL     1      -0.832  48.846 -16.027  1.00  0.00    -0.309 OA
ENDROOT
BRANCH  10  22
HETATM   22  C14 UNL     1      -3.375  49.773 -24.995  1.00  0.00    -0.007 C 
HETATM   23  C15 UNL     1      -2.802  48.567 -25.745  1.00  0.00     0.011 C 
BRANCH  22  24
HETATM   24  C16 UNL     1      -3.829  50.855 -26.007  1.00  0.00     0.087 C 
BRANCH  24  25
HETATM   25  C17 UNL     1      -2.949  50.972 -27.243  1.00  0.00     0.149 C 
HETATM   26  O2  UNL     1      -3.080  50.199 -28.187  1.00  0.00    -0.293 OA
BRANCH  25  27
HETATM   27  C18 UNL     1      -1.957  52.093 -27.261  1.00  0.00     0.052 C 
HETATM   28  C19 UNL     1      -0.650  51.995 -26.950  1.00  0.00    -0.084 C 
HETATM   29  C20 UNL     1       0.255  53.195 -27.056  1.00  0.00     0.043 C 
HETATM   30  C21 UNL     1       0.017  50.725 -26.498  1.00  0.00     0.043 C 
ENDBRANCH  25  27
ENDBRANCH  24  25
ENDBRANCH  22  24
ENDBRANCH  10  22
BRANCH   1  31
HETATM   31  C2  UNL     1       1.118  50.993 -16.294  1.00  0.00    -0.059 C 
HETATM   32  C1  UNL     1       1.237  50.428 -15.079  1.00  0.00     0.017 C 
BRANCH  31  33
HETATM   33  C3  UNL     1       1.913  52.250 -16.592  1.00  0.00     0.198 C 
BRANCH  33  34
HETATM   34  O1  UNL     1       1.406  53.324 -15.813  1.00  0.00    -0.397 OA
HETATM   35  H5  UNL     1       0.436  53.230 -15.807  1.00  0.00     0.209 HD
ENDBRANCH  33  34
ENDBRANCH  31  33
ENDBRANCH   1  31
TORSDOF 7
ENDMDL
MODEL 9
REMARK minimizedAffinity -8.95420265
REMARK  7 active torsions:
REMARK  status: ('A' for Active; 'I' for Inactive)
REMARK    1  A    between atoms: C2_2  and  C3_3 
REMARK    2  A    between atoms: C2_2  and  C4_5 
REMARK    3  A    between atoms: C3_3  and  O1_4 
REMARK    4  A    between atoms: C13_14  and  C14_15 
REMARK    5  A    between atoms: C14_15  and  C16_17 
REMARK    6  A    between atoms: C16_17  and  C17_18 
REMARK    7  A    between atoms: C17_18  and  C18_20 
ROOT
HETATM    1  C4  UNL     1      -0.602  52.408 -22.701  1.00  0.00     0.051 C 
HETATM    2  C5  UNL     1      -0.809  51.106 -21.883  1.00  0.00     0.012 C 
HETATM    3  C6  UNL     1      -1.455  49.887 -22.540  1.00  0.00     0.006 C 
HETATM    4  C7  UNL     1      -2.876  50.022 -23.141  1.00  0.00    -0.001 C 
HETATM    5  C8  UNL     1      -3.353  51.483 -23.388  1.00  0.00    -0.007 C 
HETATM    6  C9  UNL     1      -4.839  51.600 -23.836  1.00  0.00     0.006 C 
HETATM    7  C10 UNL     1      -5.843  50.679 -23.124  1.00  0.00     0.011 C 
HETATM    8  C11 UNL     1      -5.335  49.231 -23.078  1.00  0.00    -0.032 C 
HETATM    9  C12 UNL     1      -5.256  48.687 -24.539  1.00  0.00     0.016 C 
HETATM   10  C13 UNL     1      -6.156  48.223 -22.211  1.00  0.00    -0.002 C 
HETATM   11  C22 UNL     1      -5.102  47.124 -21.892  1.00  0.00     0.006 C 
HETATM   12  C23 UNL     1      -3.706  47.724 -22.155  1.00  0.00     0.011 C 
HETATM   13  C24 UNL     1      -3.950  49.235 -22.316  1.00  0.00    -0.032 C 
HETATM   14  C25 UNL     1      -4.019  49.829 -20.868  1.00  0.00     0.016 C 
HETATM   15  C26 UNL     1      -2.504  52.244 -24.432  1.00  0.00     0.044 C 
HETATM   16  C27 UNL     1      -0.966  52.337 -24.217  1.00  0.00     0.079 C 
HETATM   17  C28 UNL     1      -0.230  51.302 -25.067  1.00  0.00     0.049 C 
HETATM   18  C29 UNL     1      -0.017  51.978 -26.402  1.00  0.00     0.114 C 
HETATM   19  C30 UNL     1      -0.051  53.429 -26.057  1.00  0.00     0.259 C 
HETATM   20  O3  UNL     1       0.318  54.338 -26.782  1.00  0.00    -0.265 OA
HETATM   21  O4  UNL     1      -0.583  53.606 -24.816  1.00  0.00    -0.309 OA
ENDROOT
BRANCH  10  22
HETATM   22  C14 UNL     1      -7.479  47.612 -22.754  1.00  0.00    -0.007 C 
HETATM   23  C15 UNL     1      -8.680  47.866 -21.838  1.00  0.00     0.011 C 
BRANCH  22  24
HETATM   24  C16 UNL     1      -7.360  46.097 -23.056  1.00  0.00     0.087 C 
BRANCH  24  25
HETATM   25  C17 UNL     1      -7.962  45.669 -24.387  1.00  0.00     0.149 C 
HETATM   26  O2  UNL     1      -8.262  44.498 -24.597  1.00  0.00    -0.293 OA
BRANCH  25  27
HETATM   27  C18 UNL     1      -8.203  46.748 -25.397  1.00  0.00     0.052 C 
HETATM   28  C19 UNL     1      -9.382  47.352 -25.639  1.00  0.00    -0.084 C 
HETATM   29  C20 UNL     1      -9.479  48.462 -26.653  1.00  0.00     0.043 C 
HETATM   30  C21 UNL     1     -10.668  47.006 -24.940  1.00  0.00     0.043 C 
ENDBRANCH  25  27
ENDBRANCH  24  25
ENDBRANCH  22  24
ENDBRANCH  10  22
BRANCH   1  31
HETATM   31  C2  UNL     1       0.749  53.039 -22.289  1.00  0.00    -0.059 C 
HETATM   32  C1  UNL     1       1.606  52.566 -21.366  1.00  0.00     0.017 C 
BRANCH  31  33
HETATM   33  C3  UNL     1       1.115  54.306 -23.037  1.00  0.00     0.198 C 
BRANCH  33  34
HETATM   34  O1  UNL     1       1.930  55.123 -22.209  1.00  0.00    -0.397 OA
HETATM   35  H5  UNL     1       1.567  55.057 -21.307  1.00  0.00     0.209 HD
ENDBRANCH  33  34
ENDBRANCH  31  33
ENDBRANCH   1  31
TORSDOF 7
ENDMDL
