MODEL 1
REMARK minimizedAffinity -11.9824247
REMARK  5 active torsions:
REMARK  status: ('A' for Active; 'I' for Inactive)
REMARK    1  A    between atoms: N1_2  and  C2_3 
REMARK    2  A    between atoms: C4_5  and  N3_29 
REMARK    3  A    between atoms: C5_7  and  N2_12 
REMARK    4  A    between atoms: C7_9  and  O2_10 
REMARK    5  A    between atoms: C28_35  and  O4_36 
ROOT
HETATM    1  C2  UNL     1      -3.947  49.301 -19.834  1.00  0.00     0.257 C 
HETATM    2  C3  UNL     1      -3.402  50.027 -21.056  1.00  0.00     0.092 C 
HETATM    3  C4  UNL     1      -1.900  49.819 -21.163  1.00  0.00     0.234 C 
HETATM    4  O1  UNL     1      -1.257  49.418 -19.959  1.00  0.00    -0.333 OA
HETATM    5  C5  UNL     1      -1.736  49.920 -18.688  1.00  0.00     0.168 C 
HETATM    6  C6  UNL     1      -1.062  48.893 -17.745  1.00  0.00     0.074 C 
HETATM    7  C7  UNL     1      -3.309  49.919 -18.561  1.00  0.00     0.209 C 
ENDROOT
BRANCH   1   8
HETATM    8  N1  UNL     1      -5.423  49.235 -19.839  1.00  0.00     0.086 N 
HETATM    9  C1  UNL     1      -6.104  50.309 -20.547  1.00  0.00     0.307 C 
HETATM   10  H4  UNL     1      -5.745  49.198 -18.871  1.00  0.00     0.316 HD
ENDBRANCH   1   8
BRANCH   7  11
HETATM   11  O2  UNL     1      -3.741  49.167 -17.406  1.00  0.00    -0.384 OA
HETATM   12  C8  UNL     1      -4.145  47.835 -17.700  1.00  0.00     0.202 C 
ENDBRANCH   7  11
BRANCH   3  13
HETATM   13  N3  UNL     1      -1.211  50.975 -21.711  1.00  0.00    -0.316 N 
HETATM   14  C24 UNL     1      -0.360  51.822 -21.026  1.00  0.00     0.048 A 
HETATM   15  C19 UNL     1       0.122  52.762 -21.955  1.00  0.00     0.004 A 
HETATM   16  C23 UNL     1       0.033  51.839 -19.675  1.00  0.00     0.030 A 
HETATM   17  C18 UNL     1      -0.456  52.448 -23.224  1.00  0.00     0.022 A 
HETATM   18  C20 UNL     1       1.019  53.750 -21.495  1.00  0.00     0.014 A 
HETATM   19  C17 UNL     1      -0.428  52.907 -24.548  1.00  0.00     0.057 A 
HETATM   20  C25 UNL     1      -1.266  51.346 -23.016  1.00  0.00     0.077 A 
HETATM   21  C16 UNL     1      -1.145  52.314 -25.632  1.00  0.00     0.020 A 
HETATM   22  C27 UNL     1       0.338  54.032 -25.104  1.00  0.00     0.255 C 
HETATM   23  C15 UNL     1      -1.966  51.187 -25.453  1.00  0.00     0.017 A 
HETATM   24  C28 UNL     1      -0.804  53.056 -26.892  1.00  0.00     0.257 C 
HETATM   25  C14 UNL     1      -2.747  50.339 -26.282  1.00  0.00     0.004 A 
HETATM   26  C26 UNL     1      -2.071  50.685 -24.171  1.00  0.00     0.077 A 
HETATM   27  C9  UNL     1      -3.296  49.333 -25.467  1.00  0.00     0.049 A 
HETATM   28  C13 UNL     1      -3.012  50.324 -27.670  1.00  0.00     0.014 A 
HETATM   29  N2  UNL     1      -2.933  49.617 -24.147  1.00  0.00    -0.308 N 
HETATM   30  C10 UNL     1      -4.063  48.298 -26.037  1.00  0.00     0.030 A 
HETATM   31  C11 UNL     1      -4.301  48.302 -27.414  1.00  0.00     0.002 A 
HETATM   32  C12 UNL     1      -3.791  49.307 -28.223  1.00  0.00     0.001 A 
HETATM   33  N4  UNL     1       0.015  54.128 -26.439  1.00  0.00    -0.326 N 
HETATM   34  H24 UNL     1       0.531  54.740 -27.053  1.00  0.00     0.165 HD
HETATM   35  O3  UNL     1       1.125  54.755 -24.529  1.00  0.00    -0.268 OA
HETATM   36  C21 UNL     1       1.409  53.775 -20.151  1.00  0.00     0.001 A 
HETATM   37  C22 UNL     1       0.923  52.830 -19.256  1.00  0.00     0.002 A 
BRANCH  24  38
HETATM   38  O4  UNL     1      -1.926  53.641 -27.495  1.00  0.00    -0.372 OA
HETATM   39  H26 UNL     1      -2.205  54.338 -26.877  1.00  0.00     0.212 HD
ENDBRANCH  24  38
ENDBRANCH   3  13
TORSDOF 5
ENDMDL
MODEL 2
REMARK minimizedAffinity -11.8431673
REMARK  5 active torsions:
REMARK  status: ('A' for Active; 'I' for Inactive)
REMARK    1  A    between atoms: N1_2  and  C2_3 
REMARK    2  A    between atoms: C4_5  and  N3_29 
REMARK    3  A    between atoms: C5_7  and  N2_12 
REMARK    4  A    between atoms: C7_9  and  O2_10 
REMARK    5  A    between atoms: C28_35  and  O4_36 
ROOT
HETATM    1  C2  UNL     1      -4.252  48.680 -21.379  1.00  0.00     0.257 C 
HETATM    2  C3  UNL     1      -3.156  49.271 -22.255  1.00  0.00     0.092 C 
HETATM    3  C4  UNL     1      -1.956  49.655 -21.404  1.00  0.00     0.234 C 
HETATM    4  O1  UNL     1      -2.223  49.820 -20.018  1.00  0.00    -0.333 OA
HETATM    5  C5  UNL     1      -3.498  50.361 -19.592  1.00  0.00     0.168 C 
HETATM    6  C6  UNL     1      -3.471  49.923 -18.108  1.00  0.00     0.074 C 
HETATM    7  C7  UNL     1      -4.731  49.767 -20.378  1.00  0.00     0.209 C 
ENDROOT
BRANCH   1   8
HETATM    8  N1  UNL     1      -5.316  48.037 -22.177  1.00  0.00     0.086 N 
HETATM    9  C1  UNL     1      -5.611  46.652 -21.845  1.00  0.00     0.307 C 
HETATM   10  H4  UNL     1      -5.064  48.112 -23.165  1.00  0.00     0.316 HD
ENDBRANCH   1   8
BRANCH   7  11
HETATM   11  O2  UNL     1      -5.695  49.183 -19.476  1.00  0.00    -0.384 OA
HETATM   12  C8  UNL     1      -7.031  49.625 -19.690  1.00  0.00     0.202 C 
ENDBRANCH   7  11
BRANCH   3  13
HETATM   13  N3  UNL     1      -1.270  50.836 -21.904  1.00  0.00    -0.316 N 
HETATM   14  C24 UNL     1      -0.428  51.660 -21.181  1.00  0.00     0.048 A 
HETATM   15  C19 UNL     1       0.054  52.638 -22.069  1.00  0.00     0.004 A 
HETATM   16  C23 UNL     1      -0.045  51.628 -19.828  1.00  0.00     0.030 A 
HETATM   17  C18 UNL     1      -0.514  52.370 -23.354  1.00  0.00     0.022 A 
HETATM   18  C20 UNL     1       0.942  53.613 -21.566  1.00  0.00     0.014 A 
HETATM   19  C17 UNL     1      -0.480  52.879 -24.659  1.00  0.00     0.057 A 
HETATM   20  C25 UNL     1      -1.319  51.256 -23.193  1.00  0.00     0.077 A 
HETATM   21  C16 UNL     1      -1.186  52.324 -25.770  1.00  0.00     0.020 A 
HETATM   22  C27 UNL     1       0.282  54.029 -25.167  1.00  0.00     0.255 C 
HETATM   23  C15 UNL     1      -2.002  51.186 -25.640  1.00  0.00     0.017 A 
HETATM   24  C28 UNL     1      -0.841  53.116 -26.998  1.00  0.00     0.257 C 
HETATM   25  C14 UNL     1      -2.772  50.366 -26.506  1.00  0.00     0.004 A 
HETATM   26  C26 UNL     1      -2.112  50.635 -24.378  1.00  0.00     0.077 A 
HETATM   27  C9  UNL     1      -3.320  49.327 -25.734  1.00  0.00     0.049 A 
HETATM   28  C13 UNL     1      -3.027  50.403 -27.895  1.00  0.00     0.014 A 
HETATM   29  N2  UNL     1      -2.967  49.562 -24.401  1.00  0.00    -0.308 N 
HETATM   30  C10 UNL     1      -4.077  48.310 -26.348  1.00  0.00     0.030 A 
HETATM   31  C11 UNL     1      -4.306  48.365 -27.726  1.00  0.00     0.002 A 
HETATM   32  C12 UNL     1      -3.797  49.403 -28.492  1.00  0.00     0.001 A 
HETATM   33  N4  UNL     1      -0.032  54.174 -26.499  1.00  0.00    -0.326 N 
HETATM   34  H24 UNL     1       0.484  54.812 -27.086  1.00  0.00     0.165 HD
HETATM   35  O3  UNL     1       1.061  54.734 -24.559  1.00  0.00    -0.268 OA
HETATM   36  C21 UNL     1       1.323  53.589 -20.220  1.00  0.00     0.001 A 
HETATM   37  C22 UNL     1       0.836  52.608 -19.365  1.00  0.00     0.002 A 
BRANCH  24  38
HETATM   38  O4  UNL     1      -1.963  53.717 -27.586  1.00  0.00    -0.372 OA
HETATM   39  H26 UNL     1      -2.251  54.389 -26.944  1.00  0.00     0.212 HD
ENDBRANCH  24  38
ENDBRANCH   3  13
TORSDOF 5
ENDMDL
MODEL 3
REMARK minimizedAffinity -11.2404118
REMARK  5 active torsions:
REMARK  status: ('A' for Active; 'I' for Inactive)
REMARK    1  A    between atoms: N1_2  and  C2_3 
REMARK    2  A    between atoms: C4_5  and  N3_29 
REMARK    3  A    between atoms: C5_7  and  N2_12 
REMARK    4  A    between atoms: C7_9  and  O2_10 
REMARK    5  A    between atoms: C28_35  and  O4_36 
ROOT
HETATM    1  C2  UNL     1      -3.320  49.409 -18.775  1.00  0.00     0.257 C 
HETATM    2  C3  UNL     1      -2.953  50.658 -19.564  1.00  0.00     0.092 C 
HETATM    3  C4  UNL     1      -2.957  50.357 -21.054  1.00  0.00     0.234 C 
HETATM    4  O1  UNL     1      -2.848  48.981 -21.395  1.00  0.00    -0.333 OA
HETATM    5  C5  UNL     1      -2.041  48.100 -20.575  1.00  0.00     0.168 C 
HETATM    6  C6  UNL     1      -2.596  46.737 -21.054  1.00  0.00     0.074 C 
HETATM    7  C7  UNL     1      -2.236  48.325 -19.025  1.00  0.00     0.209 C 
ENDROOT
BRANCH   1   8
HETATM    8  N1  UNL     1      -3.604  49.710 -17.357  1.00  0.00     0.086 N 
HETATM    9  C1  UNL     1      -2.802  50.767 -16.759  1.00  0.00     0.307 C 
HETATM   10  H4  UNL     1      -3.500  48.848 -16.820  1.00  0.00     0.316 HD
ENDBRANCH   1   8
BRANCH   7  11
HETATM   11  O2  UNL     1      -2.632  47.103 -18.365  1.00  0.00    -0.384 OA
HETATM   12  C8  UNL     1      -4.041  46.939 -18.246  1.00  0.00     0.202 C 
ENDBRANCH   7  11
BRANCH   3  13
HETATM   13  N3  UNL     1      -1.949  51.112 -21.781  1.00  0.00    -0.316 N 
HETATM   14  C24 UNL     1      -0.930  51.863 -21.225  1.00  0.00     0.048 A 
HETATM   15  C19 UNL     1      -0.163  52.368 -22.290  1.00  0.00     0.004 A 
HETATM   16  C23 UNL     1      -0.614  52.136 -19.882  1.00  0.00     0.030 A 
HETATM   17  C18 UNL     1      -0.743  51.888 -23.505  1.00  0.00     0.022 A 
HETATM   18  C20 UNL     1       0.950  53.179 -21.980  1.00  0.00     0.014 A 
HETATM   19  C17 UNL     1      -0.525  51.957 -24.888  1.00  0.00     0.057 A 
HETATM   20  C25 UNL     1      -1.836  51.125 -23.134  1.00  0.00     0.077 A 
HETATM   21  C16 UNL     1      -1.326  51.302 -25.873  1.00  0.00     0.020 A 
HETATM   22  C27 UNL     1       0.548  52.660 -25.605  1.00  0.00     0.255 C 
HETATM   23  C15 UNL     1      -2.435  50.510 -25.525  1.00  0.00     0.017 A 
HETATM   24  C28 UNL     1      -0.732  51.571 -27.225  1.00  0.00     0.257 C 
HETATM   25  C14 UNL     1      -3.380  49.702 -26.211  1.00  0.00     0.004 A 
HETATM   26  C26 UNL     1      -2.736  50.410 -24.181  1.00  0.00     0.077 A 
HETATM   27  C9  UNL     1      -4.225  49.122 -25.248  1.00  0.00     0.049 A 
HETATM   28  C13 UNL     1      -3.571  49.388 -27.575  1.00  0.00     0.014 A 
HETATM   29  N2  UNL     1      -3.860  49.644 -24.002  1.00  0.00    -0.308 N 
HETATM   30  C10 UNL     1      -5.220  48.205 -25.637  1.00  0.00     0.030 A 
HETATM   31  C11 UNL     1      -5.381  47.905 -26.992  1.00  0.00     0.002 A 
HETATM   32  C12 UNL     1      -4.575  48.495 -27.954  1.00  0.00     0.001 A 
HETATM   33  N4  UNL     1       0.328  52.478 -26.953  1.00  0.00    -0.326 N 
HETATM   34  H24 UNL     1       1.023  52.753 -27.631  1.00  0.00     0.165 HD
HETATM   35  O3  UNL     1       1.476  53.283 -25.133  1.00  0.00    -0.268 OA
HETATM   36  C21 UNL     1       1.267  53.458 -20.646  1.00  0.00     0.001 A 
HETATM   37  C22 UNL     1       0.495  52.941 -19.613  1.00  0.00     0.002 A 
BRANCH  24  38
HETATM   38  O4  UNL     1      -1.618  52.241 -28.080  1.00  0.00    -0.372 OA
HETATM   39  H26 UNL     1      -1.723  53.125 -27.687  1.00  0.00     0.212 HD
ENDBRANCH  24  38
ENDBRANCH   3  13
TORSDOF 5
ENDMDL
MODEL 4
REMARK minimizedAffinity -11.1197481
REMARK  5 active torsions:
REMARK  status: ('A' for Active; 'I' for Inactive)
REMARK    1  A    between atoms: N1_2  and  C2_3 
REMARK    2  A    between atoms: C4_5  and  N3_29 
REMARK    3  A    between atoms: C5_7  and  N2_12 
REMARK    4  A    between atoms: C7_9  and  O2_10 
REMARK    5  A    between atoms: C28_35  and  O4_36 
ROOT
HETATM    1  C2  UNL     1      -4.346  48.802 -20.695  1.00  0.00     0.257 C 
HETATM    2  C3  UNL     1      -3.178  49.552 -21.321  1.00  0.00     0.092 C 
HETATM    3  C4  UNL     1      -1.927  49.373 -20.475  1.00  0.00     0.234 C 
HETATM    4  O1  UNL     1      -2.157  48.972 -19.131  1.00  0.00    -0.333 OA
HETATM    5  C5  UNL     1      -3.331  49.451 -18.429  1.00  0.00     0.168 C 
HETATM    6  C6  UNL     1      -3.362  48.427 -17.268  1.00  0.00     0.074 C 
HETATM    7  C7  UNL     1      -4.645  49.419 -19.302  1.00  0.00     0.209 C 
ENDROOT
BRANCH   1   8
HETATM    8  N1  UNL     1      -5.501  48.709 -21.612  1.00  0.00     0.086 N 
HETATM    9  C1  UNL     1      -5.408  47.693 -22.650  1.00  0.00     0.307 C 
HETATM   10  H4  UNL     1      -5.649  49.627 -22.035  1.00  0.00     0.316 HD
ENDBRANCH   1   8
BRANCH   7  11
HETATM   11  O2  UNL     1      -5.682  48.646 -18.659  1.00  0.00    -0.384 OA
HETATM   12  C8  UNL     1      -7.001  48.995 -19.065  1.00  0.00     0.202 C 
ENDBRANCH   7  11
BRANCH   3  13
HETATM   13  N3  UNL     1      -1.072  50.549 -20.484  1.00  0.00    -0.316 N 
HETATM   14  C24 UNL     1      -0.386  51.070 -19.403  1.00  0.00     0.048 A 
HETATM   15  C19 UNL     1       0.356  52.167 -19.877  1.00  0.00     0.004 A 
HETATM   16  C23 UNL     1      -0.348  50.670 -18.056  1.00  0.00     0.030 A 
HETATM   17  C18 UNL     1       0.106  52.284 -21.279  1.00  0.00     0.022 A 
HETATM   18  C20 UNL     1       1.150  52.880 -18.952  1.00  0.00     0.014 A 
HETATM   19  C17 UNL     1       0.488  53.083 -22.365  1.00  0.00     0.057 A 
HETATM   20  C25 UNL     1      -0.778  51.269 -21.597  1.00  0.00     0.077 A 
HETATM   21  C16 UNL     1       0.044  52.898 -23.710  1.00  0.00     0.020 A 
HETATM   22  C27 UNL     1       1.418  54.222 -22.373  1.00  0.00     0.255 C 
HETATM   23  C15 UNL     1      -0.844  51.868 -24.066  1.00  0.00     0.017 A 
HETATM   24  C28 UNL     1       0.725  53.914 -24.581  1.00  0.00     0.257 C 
HETATM   25  C14 UNL     1      -1.426  51.377 -25.265  1.00  0.00     0.004 A 
HETATM   26  C26 UNL     1      -1.292  51.048 -23.048  1.00  0.00     0.077 A 
HETATM   27  C9  UNL     1      -2.207  50.256 -24.932  1.00  0.00     0.049 A 
HETATM   28  C13 UNL     1      -1.331  51.775 -26.616  1.00  0.00     0.014 A 
HETATM   29  N2  UNL     1      -2.178  50.122 -23.540  1.00  0.00    -0.308 N 
HETATM   30  C10 UNL     1      -2.848  49.513 -25.942  1.00  0.00     0.030 A 
HETATM   31  C11 UNL     1      -2.730  49.924 -27.273  1.00  0.00     0.002 A 
HETATM   32  C12 UNL     1      -1.988  51.046 -27.609  1.00  0.00     0.001 A 
HETATM   33  N4  UNL     1       1.449  54.718 -23.657  1.00  0.00    -0.326 N 
HETATM   34  H24 UNL     1       2.130  55.411 -23.927  1.00  0.00     0.165 HD
HETATM   35  O3  UNL     1       2.065  54.662 -21.446  1.00  0.00    -0.268 OA
HETATM   36  C21 UNL     1       1.188  52.489 -17.609  1.00  0.00     0.001 A 
HETATM   37  C22 UNL     1       0.449  51.398 -17.170  1.00  0.00     0.002 A 
BRANCH  24  38
HETATM   38  O4  UNL     1      -0.181  54.767 -25.226  1.00  0.00    -0.372 OA
HETATM   39  H26 UNL     1      -0.577  55.295 -24.512  1.00  0.00     0.212 HD
ENDBRANCH  24  38
ENDBRANCH   3  13
TORSDOF 5
ENDMDL
MODEL 5
REMARK minimizedAffinity -10.9386654
REMARK  5 active torsions:
REMARK  status: ('A' for Active; 'I' for Inactive)
REMARK    1  A    between atoms: N1_2  and  C2_3 
REMARK    2  A    between atoms: C4_5  and  N3_29 
REMARK    3  A    between atoms: C5_7  and  N2_12 
REMARK    4  A    between atoms: C7_9  and  O2_10 
REMARK    5  A    between atoms: C28_35  and  O4_36 
ROOT
HETATM    1  C2  UNL     1      -4.238  48.757 -23.782  1.00  0.00     0.257 C 
HETATM    2  C3  UNL     1      -2.945  49.540 -23.602  1.00  0.00     0.092 C 
HETATM    3  C4  UNL     1      -2.181  49.018 -22.395  1.00  0.00     0.234 C 
HETATM    4  O1  UNL     1      -2.957  48.282 -21.458  1.00  0.00    -0.333 OA
HETATM    5  C5  UNL     1      -4.337  48.654 -21.219  1.00  0.00     0.168 C 
HETATM    6  C6  UNL     1      -4.829  47.355 -20.535  1.00  0.00     0.074 C 
HETATM    7  C7  UNL     1      -5.138  48.987 -22.537  1.00  0.00     0.209 C 
ENDROOT
BRANCH   1   8
HETATM    8  N1  UNL     1      -4.875  49.029 -25.087  1.00  0.00     0.086 N 
HETATM    9  C1  UNL     1      -4.166  48.531 -26.256  1.00  0.00     0.307 C 
HETATM   10  H4  UNL     1      -5.017  50.037 -25.170  1.00  0.00     0.316 HD
ENDBRANCH   1   8
BRANCH   7  11
HETATM   11  O2  UNL     1      -6.320  48.166 -22.653  1.00  0.00    -0.384 OA
HETATM   12  C8  UNL     1      -7.539  48.900 -22.655  1.00  0.00     0.202 C 
ENDBRANCH   7  11
BRANCH   3  13
HETATM   13  N3  UNL     1      -1.454  50.065 -21.696  1.00  0.00    -0.316 N 
HETATM   14  C24 UNL     1      -1.261  50.156 -20.330  1.00  0.00     0.048 A 
HETATM   15  C19 UNL     1      -0.457  51.288 -20.103  1.00  0.00     0.004 A 
HETATM   16  C23 UNL     1      -1.717  49.341 -19.279  1.00  0.00     0.030 A 
HETATM   17  C18 UNL     1      -0.160  51.869 -21.375  1.00  0.00     0.022 A 
HETATM   18  C20 UNL     1      -0.117  51.602 -18.769  1.00  0.00     0.014 A 
HETATM   19  C17 UNL     1       0.561  52.943 -21.911  1.00  0.00     0.057 A 
HETATM   20  C25 UNL     1      -0.799  51.080 -22.315  1.00  0.00     0.077 A 
HETATM   21  C16 UNL     1       0.674  53.236 -23.304  1.00  0.00     0.020 A 
HETATM   22  C27 UNL     1       1.359  53.950 -21.195  1.00  0.00     0.255 C 
HETATM   23  C15 UNL     1       0.047  52.446 -24.284  1.00  0.00     0.017 A 
HETATM   24  C28 UNL     1       1.578  54.424 -23.470  1.00  0.00     0.257 C 
HETATM   25  C14 UNL     1      -0.006  52.413 -25.703  1.00  0.00     0.004 A 
HETATM   26  C26 UNL     1      -0.708  51.379 -23.839  1.00  0.00     0.077 A 
HETATM   27  C9  UNL     1      -0.791  51.307 -26.075  1.00  0.00     0.049 A 
HETATM   28  C13 UNL     1       0.575  53.217 -26.708  1.00  0.00     0.014 A 
HETATM   29  N2  UNL     1      -1.287  50.730 -24.901  1.00  0.00    -0.308 N 
HETATM   30  C10 UNL     1      -0.957  50.981 -27.434  1.00  0.00     0.030 A 
HETATM   31  C11 UNL     1      -0.364  51.788 -28.409  1.00  0.00     0.002 A 
HETATM   32  C12 UNL     1       0.387  52.899 -28.055  1.00  0.00     0.001 A 
HETATM   33  N4  UNL     1       1.849  54.830 -22.135  1.00  0.00    -0.326 N 
HETATM   34  H24 UNL     1       2.541  55.519 -21.885  1.00  0.00     0.165 HD
HETATM   35  O3  UNL     1       1.578  54.018 -20.004  1.00  0.00    -0.268 OA
HETATM   36  C21 UNL     1      -0.571  50.798 -17.719  1.00  0.00     0.001 A 
HETATM   37  C22 UNL     1      -1.359  49.682 -17.973  1.00  0.00     0.002 A 
BRANCH  24  38
HETATM   38  O4  UNL     1       0.939  55.505 -24.093  1.00  0.00    -0.372 OA
HETATM   39  H26 UNL     1       0.272  55.804 -23.451  1.00  0.00     0.212 HD
ENDBRANCH  24  38
ENDBRANCH   3  13
TORSDOF 5
ENDMDL
MODEL 6
REMARK minimizedAffinity -10.7985392
REMARK  5 active torsions:
REMARK  status: ('A' for Active; 'I' for Inactive)
REMARK    1  A    between atoms: N1_2  and  C2_3 
REMARK    2  A    between atoms: C4_5  and  N3_29 
REMARK    3  A    between atoms: C5_7  and  N2_12 
REMARK    4  A    between atoms: C7_9  and  O2_10 
REMARK    5  A    between atoms: C28_35  and  O4_36 
ROOT
HETATM    1  C2  UNL     1      -0.566  52.765 -26.653  1.00  0.00     0.257 C 
HETATM    2  C3  UNL     1      -1.087  52.920 -25.231  1.00  0.00     0.092 C 
HETATM    3  C4  UNL     1       0.063  52.834 -24.240  1.00  0.00     0.234 C 
HETATM    4  O1  UNL     1       1.242  52.210 -24.732  1.00  0.00    -0.333 OA
HETATM    5  C5  UNL     1       1.134  51.112 -25.671  1.00  0.00     0.168 C 
HETATM    6  C6  UNL     1       2.583  51.109 -26.216  1.00  0.00     0.074 C 
HETATM    7  C7  UNL     1       0.061  51.352 -26.803  1.00  0.00     0.209 C 
ENDROOT
BRANCH   1   8
HETATM    8  N1  UNL     1      -1.588  53.119 -27.660  1.00  0.00     0.086 N 
HETATM    9  C1  UNL     1      -1.413  54.406 -28.317  1.00  0.00     0.307 C 
HETATM   10  H4  UNL     1      -2.505  53.078 -27.213  1.00  0.00     0.316 HD
ENDBRANCH   1   8
BRANCH   7  11
HETATM   11  O2  UNL     1       0.650  51.237 -28.117  1.00  0.00    -0.384 OA
HETATM   12  C8  UNL     1       1.587  52.263 -28.424  1.00  0.00     0.202 C 
ENDBRANCH   7  11
BRANCH   3  13
HETATM   13  N3  UNL     1      -0.324  52.206 -22.986  1.00  0.00    -0.316 N 
HETATM   14  C24 UNL     1       0.120  52.556 -21.725  1.00  0.00     0.048 A 
HETATM   15  C19 UNL     1      -0.553  51.729 -20.808  1.00  0.00     0.004 A 
HETATM   16  C23 UNL     1       1.047  53.530 -21.311  1.00  0.00     0.030 A 
HETATM   17  C18 UNL     1      -1.425  50.878 -21.554  1.00  0.00     0.022 A 
HETATM   18  C20 UNL     1      -0.268  51.892 -19.434  1.00  0.00     0.014 A 
HETATM   19  C17 UNL     1      -2.369  49.865 -21.334  1.00  0.00     0.057 A 
HETATM   20  C25 UNL     1      -1.242  51.212 -22.884  1.00  0.00     0.077 A 
HETATM   21  C16 UNL     1      -3.117  49.211 -22.360  1.00  0.00     0.020 A 
HETATM   22  C27 UNL     1      -2.808  49.295 -20.052  1.00  0.00     0.255 C 
HETATM   23  C15 UNL     1      -2.962  49.537 -23.718  1.00  0.00     0.017 A 
HETATM   24  C28 UNL     1      -4.060  48.237 -21.714  1.00  0.00     0.257 C 
HETATM   25  C14 UNL     1      -3.556  49.145 -24.947  1.00  0.00     0.004 A 
HETATM   26  C26 UNL     1      -2.030  50.509 -24.026  1.00  0.00     0.077 A 
HETATM   27  C9  UNL     1      -2.967  49.910 -25.969  1.00  0.00     0.049 A 
HETATM   28  C13 UNL     1      -4.572  48.221 -25.275  1.00  0.00     0.014 A 
HETATM   29  N2  UNL     1      -1.962  50.689 -25.385  1.00  0.00    -0.308 N 
HETATM   30  C10 UNL     1      -3.419  49.787 -27.297  1.00  0.00     0.030 A 
HETATM   31  C11 UNL     1      -4.432  48.871 -27.593  1.00  0.00     0.002 A 
HETATM   32  C12 UNL     1      -4.998  48.089 -26.598  1.00  0.00     0.001 A 
HETATM   33  N4  UNL     1      -3.717  48.300 -20.335  1.00  0.00    -0.326 N 
HETATM   34  H24 UNL     1      -4.257  47.870 -19.600  1.00  0.00     0.165 HD
HETATM   35  O3  UNL     1      -2.466  49.622 -18.935  1.00  0.00    -0.268 OA
HETATM   36  C21 UNL     1       0.656  52.855 -19.017  1.00  0.00     0.001 A 
HETATM   37  C22 UNL     1       1.302  53.663 -19.945  1.00  0.00     0.002 A 
BRANCH  24  38
HETATM   38  O4  UNL     1      -3.834  46.915 -22.120  1.00  0.00    -0.372 OA
HETATM   39  H26 UNL     1      -2.965  46.686 -21.746  1.00  0.00     0.212 HD
ENDBRANCH  24  38
ENDBRANCH   3  13
TORSDOF 5
ENDMDL
MODEL 7
REMARK minimizedAffinity -10.7415171
REMARK  5 active torsions:
REMARK  status: ('A' for Active; 'I' for Inactive)
REMARK    1  A    between atoms: N1_2  and  C2_3 
REMARK    2  A    between atoms: C4_5  and  N3_29 
REMARK    3  A    between atoms: C5_7  and  N2_12 
REMARK    4  A    between atoms: C7_9  and  O2_10 
REMARK    5  A    between atoms: C28_35  and  O4_36 
ROOT
HETATM    1  C2  UNL     1      -4.982  47.196 -21.445  1.00  0.00     0.257 C 
HETATM    2  C3  UNL     1      -3.799  47.622 -22.304  1.00  0.00     0.092 C 
HETATM    3  C4  UNL     1      -3.858  49.118 -22.569  1.00  0.00     0.234 C 
HETATM    4  O1  UNL     1      -5.135  49.717 -22.388  1.00  0.00    -0.333 OA
HETATM    5  C5  UNL     1      -6.331  48.970 -22.718  1.00  0.00     0.168 C 
HETATM    6  C6  UNL     1      -7.374  49.818 -21.950  1.00  0.00     0.074 C 
HETATM    7  C7  UNL     1      -6.293  47.469 -22.231  1.00  0.00     0.209 C 
ENDROOT
BRANCH   1   8
HETATM    8  N1  UNL     1      -4.824  45.821 -20.926  1.00  0.00     0.086 N 
HETATM    9  C1  UNL     1      -3.910  45.666 -19.805  1.00  0.00     0.307 C 
HETATM   10  H4  UNL     1      -4.533  45.219 -21.699  1.00  0.00     0.316 HD
ENDBRANCH   1   8
BRANCH   7  11
HETATM   11  O2  UNL     1      -7.421  47.165 -21.382  1.00  0.00    -0.384 OA
HETATM   12  C8  UNL     1      -8.229  48.292 -21.066  1.00  0.00     0.202 C 
ENDBRANCH   7  11
BRANCH   3  13
HETATM   13  N3  UNL     1      -3.344  49.475 -23.882  1.00  0.00    -0.316 N 
HETATM   14  C24 UNL     1      -3.854  49.062 -25.100  1.00  0.00     0.048 A 
HETATM   15  C19 UNL     1      -3.090  49.689 -26.100  1.00  0.00     0.004 A 
HETATM   16  C23 UNL     1      -4.921  48.199 -25.407  1.00  0.00     0.030 A 
HETATM   17  C18 UNL     1      -2.111  50.503 -25.448  1.00  0.00     0.022 A 
HETATM   18  C20 UNL     1      -3.415  49.424 -27.448  1.00  0.00     0.014 A 
HETATM   19  C17 UNL     1      -1.072  51.384 -25.775  1.00  0.00     0.057 A 
HETATM   20  C25 UNL     1      -2.312  50.331 -24.090  1.00  0.00     0.077 A 
HETATM   21  C16 UNL     1      -0.267  52.084 -24.825  1.00  0.00     0.020 A 
HETATM   22  C27 UNL     1      -0.616  51.797 -27.110  1.00  0.00     0.255 C 
HETATM   23  C15 UNL     1      -0.455  51.939 -23.439  1.00  0.00     0.017 A 
HETATM   24  C28 UNL     1       0.688  52.970 -25.570  1.00  0.00     0.257 C 
HETATM   25  C14 UNL     1       0.101  52.500 -22.259  1.00  0.00     0.004 A 
HETATM   26  C26 UNL     1      -1.445  51.066 -23.029  1.00  0.00     0.077 A 
HETATM   27  C9  UNL     1      -0.586  51.952 -21.161  1.00  0.00     0.049 A 
HETATM   28  C13 UNL     1       1.116  53.455 -22.031  1.00  0.00     0.014 A 
HETATM   29  N2  UNL     1      -1.482  51.001 -21.659  1.00  0.00    -0.308 N 
HETATM   30  C10 UNL     1      -0.294  52.386 -19.853  1.00  0.00     0.030 A 
HETATM   31  C11 UNL     1       0.709  53.339 -19.657  1.00  0.00     0.002 A 
HETATM   32  C12 UNL     1       1.414  53.864 -20.729  1.00  0.00     0.001 A 
HETATM   33  N4  UNL     1       0.457  52.641 -26.934  1.00  0.00    -0.326 N 
HETATM   34  H24 UNL     1       0.839  53.159 -27.711  1.00  0.00     0.165 HD
HETATM   35  O3  UNL     1      -1.081  51.483 -28.186  1.00  0.00    -0.268 OA
HETATM   36  C21 UNL     1      -4.472  48.564 -27.760  1.00  0.00     0.001 A 
HETATM   37  C22 UNL     1      -5.215  47.962 -26.752  1.00  0.00     0.002 A 
BRANCH  24  38
HETATM   38  O4  UNL     1       2.030  52.660 -25.308  1.00  0.00    -0.372 OA
HETATM   39  H26 UNL     1       2.164  51.782 -25.704  1.00  0.00     0.212 HD
ENDBRANCH  24  38
ENDBRANCH   3  13
TORSDOF 5
ENDMDL
MODEL 8
REMARK minimizedAffinity -10.694087
REMARK  5 active torsions:
REMARK  status: ('A' for Active; 'I' for Inactive)
REMARK    1  A    between atoms: N1_2  and  C2_3 
REMARK    2  A    between atoms: C4_5  and  N3_29 
REMARK    3  A    between atoms: C5_7  and  N2_12 
REMARK    4  A    between atoms: C7_9  and  O2_10 
REMARK    5  A    between atoms: C28_35  and  O4_36 
ROOT
HETATM    1  C2  UNL     1      -1.067  51.258 -25.961  1.00  0.00     0.257 C 
HETATM    2  C3  UNL     1      -0.194  51.010 -24.739  1.00  0.00     0.092 C 
HETATM    3  C4  UNL     1      -1.063  50.694 -23.531  1.00  0.00     0.234 C 
HETATM    4  O1  UNL     1      -2.418  51.111 -23.633  1.00  0.00    -0.333 OA
HETATM    5  C5  UNL     1      -2.742  52.333 -24.340  1.00  0.00     0.168 C 
HETATM    6  C6  UNL     1      -4.257  52.101 -24.557  1.00  0.00     0.074 C 
HETATM    7  C7  UNL     1      -1.953  52.505 -25.696  1.00  0.00     0.209 C 
ENDROOT
BRANCH   1   8
HETATM    8  N1  UNL     1      -0.278  51.291 -27.210  1.00  0.00     0.086 N 
HETATM    9  C1  UNL     1       1.024  51.935 -27.122  1.00  0.00     0.307 C 
HETATM   10  H4  UNL     1      -0.841  51.742 -27.933  1.00  0.00     0.316 HD
ENDBRANCH   1   8
BRANCH   7  11
HETATM   11  O2  UNL     1      -2.857  52.684 -26.808  1.00  0.00    -0.384 OA
HETATM   12  C8  UNL     1      -3.032  51.519 -27.607  1.00  0.00     0.202 C 
ENDBRANCH   7  11
BRANCH   3  13
HETATM   13  N3  UNL     1      -0.499  51.196 -22.289  1.00  0.00    -0.316 N 
HETATM   14  C24 UNL     1       0.222  52.365 -22.131  1.00  0.00     0.048 A 
HETATM   15  C19 UNL     1       0.518  52.485 -20.761  1.00  0.00     0.004 A 
HETATM   16  C23 UNL     1       0.633  53.328 -23.070  1.00  0.00     0.030 A 
HETATM   17  C18 UNL     1      -0.058  51.358 -20.096  1.00  0.00     0.022 A 
HETATM   18  C20 UNL     1       1.259  53.609 -20.338  1.00  0.00     0.014 A 
HETATM   19  C17 UNL     1      -0.183  50.838 -18.801  1.00  0.00     0.057 A 
HETATM   20  C25 UNL     1      -0.666  50.601 -21.081  1.00  0.00     0.077 A 
HETATM   21  C16 UNL     1      -0.883  49.637 -18.469  1.00  0.00     0.020 A 
HETATM   22  C27 UNL     1       0.325  51.400 -17.542  1.00  0.00     0.255 C 
HETATM   23  C15 UNL     1      -1.522  48.853 -19.446  1.00  0.00     0.017 A 
HETATM   24  C28 UNL     1      -0.840  49.458 -16.979  1.00  0.00     0.257 C 
HETATM   25  C14 UNL     1      -2.322  47.680 -19.465  1.00  0.00     0.004 A 
HETATM   26  C26 UNL     1      -1.424  49.282 -20.755  1.00  0.00     0.077 A 
HETATM   27  C9  UNL     1      -2.698  47.441 -20.798  1.00  0.00     0.049 A 
HETATM   28  C13 UNL     1      -2.787  46.814 -18.451  1.00  0.00     0.014 A 
HETATM   29  N2  UNL     1      -2.058  48.399 -21.593  1.00  0.00    -0.308 N 
HETATM   30  C10 UNL     1      -3.564  46.376 -21.111  1.00  0.00     0.030 A 
HETATM   31  C11 UNL     1      -4.017  45.539 -20.088  1.00  0.00     0.002 A 
HETATM   32  C12 UNL     1      -3.628  45.747 -18.773  1.00  0.00     0.001 A 
HETATM   33  N4  UNL     1      -0.005  50.520 -16.536  1.00  0.00    -0.326 N 
HETATM   34  H24 UNL     1       0.119  50.772 -15.567  1.00  0.00     0.165 HD
HETATM   35  O3  UNL     1       0.917  52.447 -17.378  1.00  0.00    -0.268 OA
HETATM   36  C21 UNL     1       1.675  54.568 -21.269  1.00  0.00     0.001 A 
HETATM   37  C22 UNL     1       1.363  54.428 -22.615  1.00  0.00     0.002 A 
BRANCH  24  38
HETATM   38  O4  UNL     1      -0.207  48.267 -16.596  1.00  0.00    -0.372 OA
HETATM   39  H26 UNL     1       0.725  48.390 -16.847  1.00  0.00     0.212 HD
ENDBRANCH  24  38
ENDBRANCH   3  13
TORSDOF 5
ENDMDL
MODEL 9
REMARK minimizedAffinity -10.4823189
REMARK  5 active torsions:
REMARK  status: ('A' for Active; 'I' for Inactive)
REMARK    1  A    between atoms: N1_2  and  C2_3 
REMARK    2  A    between atoms: C4_5  and  N3_29 
REMARK    3  A    between atoms: C5_7  and  N2_12 
REMARK    4  A    between atoms: C7_9  and  O2_10 
REMARK    5  A    between atoms: C28_35  and  O4_36 
ROOT
HETATM    1  C2  UNL     1      -4.402  48.837 -24.667  1.00  0.00     0.257 C 
HETATM    2  C3  UNL     1      -2.940  49.239 -24.527  1.00  0.00     0.092 C 
HETATM    3  C4  UNL     1      -2.569  49.361 -23.058  1.00  0.00     0.234 C 
HETATM    4  O1  UNL     1      -3.665  49.526 -22.167  1.00  0.00    -0.333 OA
HETATM    5  C5  UNL     1      -4.825  50.284 -22.590  1.00  0.00     0.168 C 
HETATM    6  C6  UNL     1      -5.840  49.798 -21.526  1.00  0.00     0.074 C 
HETATM    7  C7  UNL     1      -5.288  49.961 -24.063  1.00  0.00     0.209 C 
ENDROOT
BRANCH   1   8
HETATM    8  N1  UNL     1      -4.738  48.434 -26.049  1.00  0.00     0.086 N 
HETATM    9  C1  UNL     1      -3.650  48.503 -27.012  1.00  0.00     0.307 C 
HETATM   10  H4  UNL     1      -5.522  49.007 -26.367  1.00  0.00     0.316 HD
ENDBRANCH   1   8
BRANCH   7  11
HETATM   11  O2  UNL     1      -6.669  49.539 -24.098  1.00  0.00    -0.384 OA
HETATM   12  C8  UNL     1      -6.848  48.132 -23.994  1.00  0.00     0.202 C 
ENDBRANCH   7  11
BRANCH   3  13
HETATM   13  N3  UNL     1      -1.590  50.407 -22.812  1.00  0.00    -0.316 N 
HETATM   14  C24 UNL     1      -1.027  51.240 -23.761  1.00  0.00     0.048 A 
HETATM   15  C19 UNL     1      -0.182  52.132 -23.076  1.00  0.00     0.004 A 
HETATM   16  C23 UNL     1      -1.191  51.290 -25.157  1.00  0.00     0.030 A 
HETATM   17  C18 UNL     1      -0.264  51.820 -21.684  1.00  0.00     0.022 A 
HETATM   18  C20 UNL     1       0.520  53.095 -23.833  1.00  0.00     0.014 A 
HETATM   19  C17 UNL     1       0.253  52.269 -20.461  1.00  0.00     0.057 A 
HETATM   20  C25 UNL     1      -1.138  50.753 -21.580  1.00  0.00     0.077 A 
HETATM   21  C16 UNL     1      -0.074  51.716 -19.185  1.00  0.00     0.020 A 
HETATM   22  C27 UNL     1       1.183  53.382 -20.221  1.00  0.00     0.255 C 
HETATM   23  C15 UNL     1      -0.969  50.641 -19.047  1.00  0.00     0.017 A 
HETATM   24  C28 UNL     1       0.635  52.510 -18.126  1.00  0.00     0.257 C 
HETATM   25  C14 UNL     1      -1.542  49.908 -17.974  1.00  0.00     0.004 A 
HETATM   26  C26 UNL     1      -1.505  50.119 -20.208  1.00  0.00     0.077 A 
HETATM   27  C9  UNL     1      -2.426  48.964 -18.526  1.00  0.00     0.049 A 
HETATM   28  C13 UNL     1      -1.406  49.988 -16.570  1.00  0.00     0.014 A 
HETATM   29  N2  UNL     1      -2.323  49.056 -19.918  1.00  0.00    -0.308 N 
HETATM   30  C10 UNL     1      -3.200  48.141 -17.685  1.00  0.00     0.030 A 
HETATM   31  C11 UNL     1      -3.052  48.247 -16.300  1.00  0.00     0.002 A 
HETATM   32  C12 UNL     1      -2.160  49.152 -15.745  1.00  0.00     0.001 A 
HETATM   33  N4  UNL     1       1.438  53.419 -18.868  1.00  0.00    -0.326 N 
HETATM   34  H24 UNL     1       1.937  54.194 -18.458  1.00  0.00     0.165 HD
HETATM   35  O3  UNL     1       1.649  54.152 -21.034  1.00  0.00    -0.268 OA
HETATM   36  C21 UNL     1       0.364  53.147 -25.223  1.00  0.00     0.001 A 
HETATM   37  C22 UNL     1      -0.481  52.257 -25.873  1.00  0.00     0.002 A 
BRANCH  24  38
HETATM   38  O4  UNL     1       1.517  51.730 -17.366  1.00  0.00    -0.372 OA
HETATM   39  H26 UNL     1       2.223  51.478 -17.985  1.00  0.00     0.212 HD
ENDBRANCH  24  38
ENDBRANCH   3  13
TORSDOF 5
ENDMDL
