MODEL 1
REMARK minimizedAffinity -9.31491184
REMARK CNNscore 0.689720988
REMARK CNNaffinity 7.89206362
REMARK  9 active torsions:
REMARK  status: ('A' for Active; 'I' for Inactive)
REMARK    1  A    between atoms: O1_2  and  C2_3 
REMARK    2  A    between atoms: C2_3  and  C3_4 
REMARK    3  A    between atoms: C3_4  and  N1_5 
REMARK       I    between atoms: N1_5  and  C4_6 
REMARK    4  A    between atoms: C4_6  and  C5_8 
REMARK    5  A    between atoms: C5_8  and  C7_10 
REMARK    6  A    between atoms: C15_20  and  C16_21 
REMARK    7  A    between atoms: C16_21  and  O3_22 
REMARK    8  A    between atoms: O3_22  and  C17_23 
REMARK    9  A    between atoms: C26_34  and  O4_35 
ROOT
HETATM    1  C7  UNL     1      -6.465   5.835  13.998  1.00  0.00     0.027 C 
HETATM    2  C8  UNL     1      -5.810   5.902  15.382  1.00  0.00     0.009 C 
HETATM    3  C9  UNL     1      -4.437   6.576  15.329  1.00  0.00     0.010 C 
HETATM    4  C10 UNL     1      -3.597   6.274  14.053  1.00  0.00    -0.033 C 
HETATM    5  C11 UNL     1      -3.691   7.482  13.082  1.00  0.00     0.016 C 
HETATM    6  C12 UNL     1      -2.103   6.119  14.496  1.00  0.00     0.058 C 
HETATM    7  C13 UNL     1      -1.286   5.523  13.401  1.00  0.00     0.008 A 
HETATM    8  C14 UNL     1      -1.778   4.814  12.328  1.00  0.00     0.027 A 
HETATM    9  N2  UNL     1      -0.826   4.399  11.420  1.00  0.00    -0.354 N 
ATOM     10  H2  UNL     1      -1.022   3.905  10.549  1.00  0.00     0.166 HD
HETATM   11  C15 UNL     1       0.377   4.736  11.847  1.00  0.00     0.076 A 
HETATM   12  S1  UNL     1       0.410   5.625  13.326  1.00  0.00    -0.077 SA
HETATM   13  C23 UNL     1      -3.247   4.565  12.096  1.00  0.00     0.040 C 
HETATM   14  C24 UNL     1      -3.488   3.120  11.640  1.00  0.00     0.017 C 
HETATM   15  C25 UNL     1      -4.085   4.942  13.376  1.00  0.00     0.033 C 
HETATM   16  C26 UNL     1      -5.611   4.918  13.084  1.00  0.00     0.128 C 
ENDROOT
BRANCH   1  17
HETATM   17  C5  UNL     1      -7.962   5.421  14.089  1.00  0.00     0.080 C 
HETATM   18  C6  UNL     1      -8.462   4.708  12.827  1.00  0.00     0.020 C 
BRANCH  17  19
HETATM   19  C4  UNL     1      -8.866   6.623  14.368  1.00  0.00     0.222 C 
HETATM   20  N1  UNL     1     -10.167   6.507  13.934  1.00  0.00    -0.359 N 
HETATM   21  H8  UNL     1     -10.512   5.625  13.583  1.00  0.00     0.162 HD
HETATM   22  O2  UNL     1      -8.449   7.627  14.938  1.00  0.00    -0.273 OA
BRANCH  20  23
HETATM   23  C3  UNL     1     -11.130   7.579  14.130  1.00  0.00     0.148 C 
BRANCH  23  24
HETATM   24  C2  UNL     1     -12.021   7.849  12.911  1.00  0.00     0.186 C 
BRANCH  24  25
HETATM   25  O1  UNL     1     -13.185   7.012  12.916  1.00  0.00    -0.394 OA
HETATM   26  C1  UNL     1     -13.457   6.444  14.189  1.00  0.00     0.201 C 
ENDBRANCH  24  25
ENDBRANCH  23  24
ENDBRANCH  20  23
ENDBRANCH  17  19
ENDBRANCH   1  17
BRANCH  16  27
HETATM   27  O4  UNL     1      -6.042   3.567  13.271  1.00  0.00    -0.395 OA
HETATM   28  H35 UNL     1      -6.387   3.233  12.425  1.00  0.00     0.210 HD
ENDBRANCH  16  27
BRANCH  11  29
HETATM   29  C16 UNL     1       1.656   4.430  11.125  1.00  0.00     0.240 C 
BRANCH  29  30
HETATM   30  O3  UNL     1       2.335   5.672  10.917  1.00  0.00    -0.345 OA
BRANCH  30  31
HETATM   31  C17 UNL     1       2.035   6.361   9.773  1.00  0.00     0.070 A 
HETATM   32  C18 UNL     1       2.702   6.252   8.550  1.00  0.00     0.037 A 
HETATM   33  C19 UNL     1       2.290   7.018   7.455  1.00  0.00     0.004 A 
HETATM   34  C20 UNL     1       1.210   7.891   7.577  1.00  0.00     0.024 A 
HETATM   35  C21 UNL     1       0.546   7.998   8.797  1.00  0.00     0.036 A 
HETATM   36 CL1  UNL     1      -0.785   9.079   8.952  1.00  0.00    -0.084 Cl
HETATM   37  C22 UNL     1       0.955   7.239   9.891  1.00  0.00     0.060 A 
ENDBRANCH  30  31
ENDBRANCH  29  30
ENDBRANCH  11  29
TORSDOF 9
ENDMDL
MODEL 2
REMARK minimizedAffinity -8.56870651
REMARK CNNscore 0.612834811
REMARK CNNaffinity 7.57317019
REMARK  9 active torsions:
REMARK  status: ('A' for Active; 'I' for Inactive)
REMARK    1  A    between atoms: O1_2  and  C2_3 
REMARK    2  A    between atoms: C2_3  and  C3_4 
REMARK    3  A    between atoms: C3_4  and  N1_5 
REMARK       I    between atoms: N1_5  and  C4_6 
REMARK    4  A    between atoms: C4_6  and  C5_8 
REMARK    5  A    between atoms: C5_8  and  C7_10 
REMARK    6  A    between atoms: C15_20  and  C16_21 
REMARK    7  A    between atoms: C16_21  and  O3_22 
REMARK    8  A    between atoms: O3_22  and  C17_23 
REMARK    9  A    between atoms: C26_34  and  O4_35 
ROOT
HETATM    1  C7  UNL     1      -7.988   7.088  14.558  1.00  0.00     0.027 C 
HETATM    2  C8  UNL     1      -7.299   7.293  15.912  1.00  0.00     0.009 C 
HETATM    3  C9  UNL     1      -5.847   7.748  15.748  1.00  0.00     0.010 C 
HETATM    4  C10 UNL     1      -5.086   7.122  14.542  1.00  0.00    -0.033 C 
HETATM    5  C11 UNL     1      -5.032   8.150  13.381  1.00  0.00     0.016 C 
HETATM    6  C12 UNL     1      -3.619   6.834  15.008  1.00  0.00     0.058 C 
HETATM    7  C13 UNL     1      -2.917   5.954  14.031  1.00  0.00     0.008 A 
HETATM    8  C14 UNL     1      -3.527   5.151  13.093  1.00  0.00     0.027 A 
HETATM    9  N2  UNL     1      -2.662   4.459  12.270  1.00  0.00    -0.354 N 
ATOM     10  H2  UNL     1      -2.945   3.859  11.495  1.00  0.00     0.166 HD
HETATM   11  C15 UNL     1      -1.415   4.690  12.635  1.00  0.00     0.076 A 
HETATM   12  S1  UNL     1      -1.226   5.802  13.942  1.00  0.00    -0.077 SA
HETATM   13  C23 UNL     1      -5.021   5.076  12.904  1.00  0.00     0.040 C 
HETATM   14  C24 UNL     1      -5.471   3.624  12.699  1.00  0.00     0.017 C 
HETATM   15  C25 UNL     1      -5.770   5.777  14.101  1.00  0.00     0.033 C 
HETATM   16  C26 UNL     1      -7.291   5.920  13.814  1.00  0.00     0.128 C 
ENDROOT
BRANCH   1  17
HETATM   17  C5  UNL     1      -9.525   6.910  14.715  1.00  0.00     0.080 C 
HETATM   18  C6  UNL     1     -10.242   6.703  13.376  1.00  0.00     0.020 C 
BRANCH  17  19
HETATM   19  C4  UNL     1     -10.162   8.099  15.437  1.00  0.00     0.222 C 
HETATM   20  N1  UNL     1     -11.260   8.656  14.821  1.00  0.00    -0.359 N 
HETATM   21  H8  UNL     1     -11.680   8.204  14.021  1.00  0.00     0.162 HD
HETATM   22  O2  UNL     1      -9.713   8.529  16.496  1.00  0.00    -0.273 OA
BRANCH  20  23
HETATM   23  C3  UNL     1     -11.956   9.794  15.398  1.00  0.00     0.148 C 
BRANCH  23  24
HETATM   24  C2  UNL     1     -12.612  10.715  14.362  1.00  0.00     0.186 C 
BRANCH  24  25
HETATM   25  O1  UNL     1     -12.854  10.028  13.127  1.00  0.00    -0.394 OA
HETATM   26  C1  UNL     1     -13.699  10.751  12.244  1.00  0.00     0.201 C 
ENDBRANCH  24  25
ENDBRANCH  23  24
ENDBRANCH  20  23
ENDBRANCH  17  19
ENDBRANCH   1  17
BRANCH  16  27
HETATM   27  O4  UNL     1      -7.901   4.693  14.227  1.00  0.00    -0.395 OA
HETATM   28  H35 UNL     1      -8.308   4.274  13.449  1.00  0.00     0.210 HD
ENDBRANCH  16  27
BRANCH  11  29
HETATM   29  C16 UNL     1      -0.208   4.091  11.978  1.00  0.00     0.240 C 
BRANCH  29  30
HETATM   30  O3  UNL     1       0.869   5.019  12.136  1.00  0.00    -0.345 OA
BRANCH  30  31
HETATM   31  C17 UNL     1       1.358   5.604  11.000  1.00  0.00     0.070 A 
HETATM   32  C18 UNL     1       2.549   5.271  10.351  1.00  0.00     0.037 A 
HETATM   33  C19 UNL     1       2.932   5.952   9.190  1.00  0.00     0.004 A 
HETATM   34  C20 UNL     1       2.125   6.965   8.674  1.00  0.00     0.024 A 
HETATM   35  C21 UNL     1       0.938   7.297   9.323  1.00  0.00     0.036 A 
HETATM   36 CL1  UNL     1      -0.057   8.551   8.691  1.00  0.00    -0.084 Cl
HETATM   37  C22 UNL     1       0.554   6.622  10.480  1.00  0.00     0.060 A 
ENDBRANCH  30  31
ENDBRANCH  29  30
ENDBRANCH  11  29
TORSDOF 9
ENDMDL
MODEL 3
REMARK minimizedAffinity -8.75409508
REMARK CNNscore 0.592612565
REMARK CNNaffinity 7.43931913
REMARK  9 active torsions:
REMARK  status: ('A' for Active; 'I' for Inactive)
REMARK    1  A    between atoms: O1_2  and  C2_3 
REMARK    2  A    between atoms: C2_3  and  C3_4 
REMARK    3  A    between atoms: C3_4  and  N1_5 
REMARK       I    between atoms: N1_5  and  C4_6 
REMARK    4  A    between atoms: C4_6  and  C5_8 
REMARK    5  A    between atoms: C5_8  and  C7_10 
REMARK    6  A    between atoms: C15_20  and  C16_21 
REMARK    7  A    between atoms: C16_21  and  O3_22 
REMARK    8  A    between atoms: O3_22  and  C17_23 
REMARK    9  A    between atoms: C26_34  and  O4_35 
ROOT
HETATM    1  C7  UNL     1      -7.924   7.271  14.581  1.00  0.00     0.027 C 
HETATM    2  C8  UNL     1      -7.194   7.542  15.902  1.00  0.00     0.009 C 
HETATM    3  C9  UNL     1      -5.747   7.984  15.672  1.00  0.00     0.010 C 
HETATM    4  C10 UNL     1      -5.024   7.295  14.478  1.00  0.00    -0.033 C 
HETATM    5  C11 UNL     1      -5.003   8.264  13.265  1.00  0.00     0.016 C 
HETATM    6  C12 UNL     1      -3.543   7.027  14.914  1.00  0.00     0.058 C 
HETATM    7  C13 UNL     1      -2.872   6.097  13.962  1.00  0.00     0.008 A 
HETATM    8  C14 UNL     1      -3.512   5.250  13.084  1.00  0.00     0.027 A 
HETATM    9  N2  UNL     1      -2.673   4.515  12.271  1.00  0.00    -0.354 N 
ATOM     10  H2  UNL     1      -2.979   3.877  11.536  1.00  0.00     0.166 HD
HETATM   11  C15 UNL     1      -1.415   4.760  12.587  1.00  0.00     0.076 A 
HETATM   12  S1  UNL     1      -1.185   5.935  13.830  1.00  0.00    -0.077 SA
HETATM   13  C23 UNL     1      -5.010   5.170  12.943  1.00  0.00     0.040 C 
HETATM   14  C24 UNL     1      -5.469   3.710  12.825  1.00  0.00     0.017 C 
HETATM   15  C25 UNL     1      -5.722   5.932  14.125  1.00  0.00     0.033 C 
HETATM   16  C26 UNL     1      -7.251   6.065  13.877  1.00  0.00     0.128 C 
ENDROOT
BRANCH   1  17
HETATM   17  C5  UNL     1      -9.456   7.106  14.793  1.00  0.00     0.080 C 
HETATM   18  C6  UNL     1     -10.196   6.703  13.512  1.00  0.00     0.020 C 
BRANCH  17  19
HETATM   19  C4  UNL     1     -10.092   8.381  15.349  1.00  0.00     0.222 C 
HETATM   20  N1  UNL     1     -10.227   8.436  16.718  1.00  0.00    -0.359 N 
HETATM   21  H8  UNL     1      -9.800   7.730  17.302  1.00  0.00     0.162 HD
HETATM   22  O2  UNL     1     -10.463   9.293  14.615  1.00  0.00    -0.273 OA
BRANCH  20  23
HETATM   23  C3  UNL     1     -10.820   9.588  17.376  1.00  0.00     0.148 C 
BRANCH  23  24
HETATM   24  C2  UNL     1     -11.274   9.320  18.816  1.00  0.00     0.186 C 
BRANCH  24  25
HETATM   25  O1  UNL     1     -11.268  10.520  19.601  1.00  0.00    -0.394 OA
HETATM   26  C1  UNL     1     -11.124  10.275  20.992  1.00  0.00     0.201 C 
ENDBRANCH  24  25
ENDBRANCH  23  24
ENDBRANCH  20  23
ENDBRANCH  17  19
ENDBRANCH   1  17
BRANCH  16  27
HETATM   27  O4  UNL     1      -7.850   4.863  14.369  1.00  0.00    -0.395 OA
HETATM   28  H35 UNL     1      -8.281   4.406  13.625  1.00  0.00     0.210 HD
ENDBRANCH  16  27
BRANCH  11  29
HETATM   29  C16 UNL     1      -0.229   4.125  11.925  1.00  0.00     0.240 C 
BRANCH  29  30
HETATM   30  O3  UNL     1       0.879   5.014  12.092  1.00  0.00    -0.345 OA
BRANCH  30  31
HETATM   31  C17 UNL     1       1.394   5.586  10.960  1.00  0.00     0.070 A 
HETATM   32  C18 UNL     1       2.592   5.235  10.333  1.00  0.00     0.037 A 
HETATM   33  C19 UNL     1       3.001   5.904   9.175  1.00  0.00     0.004 A 
HETATM   34  C20 UNL     1       2.215   6.923   8.639  1.00  0.00     0.024 A 
HETATM   35  C21 UNL     1       1.021   7.273   9.266  1.00  0.00     0.036 A 
HETATM   36 CL1  UNL     1       0.051   8.534   8.610  1.00  0.00    -0.084 Cl
HETATM   37  C22 UNL     1       0.610   6.610  10.421  1.00  0.00     0.060 A 
ENDBRANCH  30  31
ENDBRANCH  29  30
ENDBRANCH  11  29
TORSDOF 9
ENDMDL
MODEL 4
REMARK minimizedAffinity -8.78996944
REMARK CNNscore 0.546122611
REMARK CNNaffinity 7.10974646
REMARK  9 active torsions:
REMARK  status: ('A' for Active; 'I' for Inactive)
REMARK    1  A    between atoms: O1_2  and  C2_3 
REMARK    2  A    between atoms: C2_3  and  C3_4 
REMARK    3  A    between atoms: C3_4  and  N1_5 
REMARK       I    between atoms: N1_5  and  C4_6 
REMARK    4  A    between atoms: C4_6  and  C5_8 
REMARK    5  A    between atoms: C5_8  and  C7_10 
REMARK    6  A    between atoms: C15_20  and  C16_21 
REMARK    7  A    between atoms: C16_21  and  O3_22 
REMARK    8  A    between atoms: O3_22  and  C17_23 
REMARK    9  A    between atoms: C26_34  and  O4_35 
ROOT
HETATM    1  C7  UNL     1      -5.673   6.591  14.366  1.00  0.00     0.027 C 
HETATM    2  C8  UNL     1      -5.836   5.519  13.283  1.00  0.00     0.009 C 
HETATM    3  C9  UNL     1      -4.585   4.646  13.154  1.00  0.00     0.010 C 
HETATM    4  C10 UNL     1      -3.233   5.391  13.354  1.00  0.00    -0.033 C 
HETATM    5  C11 UNL     1      -2.697   5.102  14.782  1.00  0.00     0.016 C 
HETATM    6  C12 UNL     1      -2.212   4.803  12.322  1.00  0.00     0.058 C 
HETATM    7  C13 UNL     1      -0.999   5.663  12.228  1.00  0.00     0.008 A 
HETATM    8  C14 UNL     1      -0.918   6.980  12.625  1.00  0.00     0.027 A 
HETATM    9  N2  UNL     1       0.328   7.555  12.478  1.00  0.00    -0.354 N 
ATOM     10  H2  UNL     1       0.574   8.503  12.765  1.00  0.00     0.166 HD
HETATM   11  C15 UNL     1       1.154   6.696  11.911  1.00  0.00     0.076 A 
HETATM   12  S1  UNL     1       0.486   5.137  11.591  1.00  0.00    -0.077 SA
HETATM   13  C23 UNL     1      -2.063   7.735  13.251  1.00  0.00     0.040 C 
HETATM   14  C24 UNL     1      -2.157   9.155  12.677  1.00  0.00     0.017 C 
HETATM   15  C25 UNL     1      -3.410   6.931  13.097  1.00  0.00     0.033 C 
HETATM   16  C26 UNL     1      -4.553   7.572  13.934  1.00  0.00     0.128 C 
ENDROOT
BRANCH   1  17
HETATM   17  C5  UNL     1      -7.026   7.283  14.699  1.00  0.00     0.080 C 
HETATM   18  C6  UNL     1      -7.280   7.402  16.206  1.00  0.00     0.020 C 
BRANCH  17  19
HETATM   19  C4  UNL     1      -8.208   6.557  14.055  1.00  0.00     0.222 C 
HETATM   20  N1  UNL     1      -9.451   7.087  14.317  1.00  0.00    -0.359 N 
HETATM   21  H8  UNL     1      -9.539   7.976  14.790  1.00  0.00     0.162 HD
HETATM   22  O2  UNL     1      -8.052   5.560  13.356  1.00  0.00    -0.273 OA
BRANCH  20  23
HETATM   23  C3  UNL     1     -10.660   6.490  13.772  1.00  0.00     0.148 C 
BRANCH  23  24
HETATM   24  C2  UNL     1     -11.796   7.492  13.529  1.00  0.00     0.186 C 
BRANCH  24  25
HETATM   25  O1  UNL     1     -11.535   8.314  12.384  1.00  0.00    -0.394 OA
HETATM   26  C1  UNL     1     -12.282   9.522  12.383  1.00  0.00     0.201 C 
ENDBRANCH  24  25
ENDBRANCH  23  24
ENDBRANCH  20  23
ENDBRANCH  17  19
ENDBRANCH   1  17
BRANCH  16  27
HETATM   27  O4  UNL     1      -5.135   8.591  13.116  1.00  0.00    -0.395 OA
HETATM   28  H35 UNL     1      -5.014   9.449  13.560  1.00  0.00     0.210 HD
ENDBRANCH  16  27
BRANCH  11  29
HETATM   29  C16 UNL     1       2.588   6.981  11.579  1.00  0.00     0.240 C 
BRANCH  29  30
HETATM   30  O3  UNL     1       3.030   5.960  10.680  1.00  0.00    -0.345 OA
BRANCH  30  31
HETATM   31  C17 UNL     1       2.784   6.155   9.349  1.00  0.00     0.070 A 
HETATM   32  C18 UNL     1       2.192   7.285   8.778  1.00  0.00     0.037 A 
HETATM   33  C19 UNL     1       1.999   7.355   7.395  1.00  0.00     0.004 A 
HETATM   34  C20 UNL     1       2.398   6.298   6.578  1.00  0.00     0.024 A 
HETATM   35  C21 UNL     1       2.987   5.172   7.147  1.00  0.00     0.036 A 
HETATM   36 CL1  UNL     1       3.477   3.864   6.141  1.00  0.00    -0.084 Cl
HETATM   37  C22 UNL     1       3.180   5.098   8.525  1.00  0.00     0.060 A 
ENDBRANCH  30  31
ENDBRANCH  29  30
ENDBRANCH  11  29
TORSDOF 9
ENDMDL
MODEL 5
REMARK minimizedAffinity -8.21084309
REMARK CNNscore 0.466279417
REMARK CNNaffinity 7.02968597
REMARK  9 active torsions:
REMARK  status: ('A' for Active; 'I' for Inactive)
REMARK    1  A    between atoms: O1_2  and  C2_3 
REMARK    2  A    between atoms: C2_3  and  C3_4 
REMARK    3  A    between atoms: C3_4  and  N1_5 
REMARK       I    between atoms: N1_5  and  C4_6 
REMARK    4  A    between atoms: C4_6  and  C5_8 
REMARK    5  A    between atoms: C5_8  and  C7_10 
REMARK    6  A    between atoms: C15_20  and  C16_21 
REMARK    7  A    between atoms: C16_21  and  O3_22 
REMARK    8  A    between atoms: O3_22  and  C17_23 
REMARK    9  A    between atoms: C26_34  and  O4_35 
ROOT
HETATM    1  C7  UNL     1      -6.181   3.509  12.858  1.00  0.00     0.027 C 
HETATM    2  C8  UNL     1      -6.059   3.409  11.333  1.00  0.00     0.009 C 
HETATM    3  C9  UNL     1      -4.645   3.011  10.901  1.00  0.00     0.010 C 
HETATM    4  C10 UNL     1      -3.494   3.605  11.766  1.00  0.00    -0.033 C 
HETATM    5  C11 UNL     1      -2.979   2.518  12.747  1.00  0.00     0.016 C 
HETATM    6  C12 UNL     1      -2.323   3.984  10.798  1.00  0.00     0.058 C 
HETATM    7  C13 UNL     1      -1.319   4.840  11.491  1.00  0.00     0.008 A 
HETATM    8  C14 UNL     1      -1.541   5.562  12.643  1.00  0.00     0.027 A 
HETATM    9  N2  UNL     1      -0.442   6.247  13.120  1.00  0.00    -0.354 N 
ATOM     10  H2  UNL     1      -0.419   6.790  13.984  1.00  0.00     0.166 HD
HETATM   11  C15 UNL     1       0.575   6.093  12.293  1.00  0.00     0.076 A 
HETATM   12  S1  UNL     1       0.273   5.064  10.941  1.00  0.00    -0.077 SA
HETATM   13  C23 UNL     1      -2.850   5.559  13.391  1.00  0.00     0.040 C 
HETATM   14  C24 UNL     1      -3.218   6.976  13.850  1.00  0.00     0.017 C 
HETATM   15  C25 UNL     1      -3.985   4.891  12.525  1.00  0.00     0.033 C 
HETATM   16  C26 UNL     1      -5.277   4.664  13.358  1.00  0.00     0.128 C 
ENDROOT
BRANCH   1  17
HETATM   17  C5  UNL     1      -7.665   3.624  13.310  1.00  0.00     0.080 C 
HETATM   18  C6  UNL     1      -8.567   2.559  12.678  1.00  0.00     0.020 C 
BRANCH  17  19
HETATM   19  C4  UNL     1      -8.245   5.006  13.004  1.00  0.00     0.222 C 
HETATM   20  N1  UNL     1      -8.732   5.705  14.085  1.00  0.00    -0.359 N 
HETATM   21  H8  UNL     1      -8.578   5.365  15.024  1.00  0.00     0.162 HD
HETATM   22  O2  UNL     1      -8.277   5.456  11.862  1.00  0.00    -0.273 OA
BRANCH  20  23
HETATM   23  C3  UNL     1      -9.316   7.028  13.933  1.00  0.00     0.148 C 
BRANCH  23  24
HETATM   24  C2  UNL     1     -10.028   7.545  15.190  1.00  0.00     0.186 C 
BRANCH  24  25
HETATM   25  O1  UNL     1     -11.339   8.036  14.885  1.00  0.00    -0.394 OA
HETATM   26  C1  UNL     1     -11.505   8.370  13.515  1.00  0.00     0.201 C 
ENDBRANCH  24  25
ENDBRANCH  23  24
ENDBRANCH  20  23
ENDBRANCH  17  19
ENDBRANCH   1  17
BRANCH  16  27
HETATM   27  O4  UNL     1      -6.024   5.883  13.293  1.00  0.00    -0.395 OA
HETATM   28  H35 UNL     1      -6.111   6.240  14.194  1.00  0.00     0.210 HD
ENDBRANCH  16  27
BRANCH  11  29
HETATM   29  C16 UNL     1       1.929   6.709  12.481  1.00  0.00     0.240 C 
BRANCH  29  30
HETATM   30  O3  UNL     1       2.719   6.359  11.341  1.00  0.00    -0.345 OA
BRANCH  30  31
HETATM   31  C17 UNL     1       2.344   6.891  10.137  1.00  0.00     0.070 A 
HETATM   32  C18 UNL     1       3.022   6.741   8.925  1.00  0.00     0.037 A 
HETATM   33  C19 UNL     1       2.526   7.341   7.763  1.00  0.00     0.004 A 
HETATM   34  C20 UNL     1       1.351   8.091   7.808  1.00  0.00     0.024 A 
HETATM   35  C21 UNL     1       0.677   8.240   9.018  1.00  0.00     0.036 A 
HETATM   36 CL1  UNL     1      -0.771   9.169   9.077  1.00  0.00    -0.084 Cl
HETATM   37  C22 UNL     1       1.169   7.646  10.178  1.00  0.00     0.060 A 
ENDBRANCH  30  31
ENDBRANCH  29  30
ENDBRANCH  11  29
TORSDOF 9
ENDMDL
MODEL 6
REMARK minimizedAffinity -9.23211861
REMARK CNNscore 0.459831238
REMARK CNNaffinity 7.14876318
REMARK  9 active torsions:
REMARK  status: ('A' for Active; 'I' for Inactive)
REMARK    1  A    between atoms: O1_2  and  C2_3 
REMARK    2  A    between atoms: C2_3  and  C3_4 
REMARK    3  A    between atoms: C3_4  and  N1_5 
REMARK       I    between atoms: N1_5  and  C4_6 
REMARK    4  A    between atoms: C4_6  and  C5_8 
REMARK    5  A    between atoms: C5_8  and  C7_10 
REMARK    6  A    between atoms: C15_20  and  C16_21 
REMARK    7  A    between atoms: C16_21  and  O3_22 
REMARK    8  A    between atoms: O3_22  and  C17_23 
REMARK    9  A    between atoms: C26_34  and  O4_35 
ROOT
HETATM    1  C7  UNL     1      -6.422   5.613  13.723  1.00  0.00     0.027 C 
HETATM    2  C8  UNL     1      -5.899   5.813  15.150  1.00  0.00     0.009 C 
HETATM    3  C9  UNL     1      -4.681   6.739  15.185  1.00  0.00     0.010 C 
HETATM    4  C10 UNL     1      -3.705   6.599  13.980  1.00  0.00    -0.033 C 
HETATM    5  C11 UNL     1      -3.955   7.761  12.982  1.00  0.00     0.016 C 
HETATM    6  C12 UNL     1      -2.247   6.738  14.535  1.00  0.00     0.058 C 
HETATM    7  C13 UNL     1      -1.249   6.306  13.515  1.00  0.00     0.008 A 
HETATM    8  C14 UNL     1      -1.514   5.509  12.423  1.00  0.00     0.027 A 
HETATM    9  N2  UNL     1      -0.433   5.281  11.595  1.00  0.00    -0.354 N 
ATOM     10  H2  UNL     1      -0.464   4.754  10.722  1.00  0.00     0.166 HD
HETATM   11  C15 UNL     1       0.647   5.847  12.103  1.00  0.00     0.076 A 
HETATM   12  S1  UNL     1       0.395   6.733  13.562  1.00  0.00    -0.077 SA
HETATM   13  C23 UNL     1      -2.885   4.980  12.088  1.00  0.00     0.040 C 
HETATM   14  C24 UNL     1      -2.808   3.513  11.644  1.00  0.00     0.017 C 
HETATM   15  C25 UNL     1      -3.874   5.194  13.296  1.00  0.00     0.033 C 
HETATM   16  C26 UNL     1      -5.341   4.874  12.893  1.00  0.00     0.128 C 
ENDROOT
BRANCH   1  17
HETATM   17  C5  UNL     1      -7.813   4.919  13.712  1.00  0.00     0.080 C 
HETATM   18  C6  UNL     1      -7.846   3.661  12.836  1.00  0.00     0.020 C 
BRANCH  17  19
HETATM   19  C4  UNL     1      -8.918   5.870  13.250  1.00  0.00     0.222 C 
HETATM   20  N1  UNL     1      -9.721   6.383  14.244  1.00  0.00    -0.359 N 
HETATM   21  H8  UNL     1      -9.488   6.236  15.216  1.00  0.00     0.162 HD
HETATM   22  O2  UNL     1      -9.079   6.149  12.065  1.00  0.00    -0.273 OA
BRANCH  20  23
HETATM   23  C3  UNL     1     -10.812   7.295  13.941  1.00  0.00     0.148 C 
BRANCH  23  24
HETATM   24  C2  UNL     1     -12.204   6.656  14.036  1.00  0.00     0.186 C 
BRANCH  24  25
HETATM   25  O1  UNL     1     -13.029   7.026  12.923  1.00  0.00    -0.394 OA
HETATM   26  C1  UNL     1     -14.361   7.341  13.298  1.00  0.00     0.201 C 
ENDBRANCH  24  25
ENDBRANCH  23  24
ENDBRANCH  20  23
ENDBRANCH  17  19
ENDBRANCH   1  17
BRANCH  16  27
HETATM   27  O4  UNL     1      -5.517   3.466  13.074  1.00  0.00    -0.395 OA
HETATM   28  H35 UNL     1      -5.726   3.067  12.211  1.00  0.00     0.210 HD
ENDBRANCH  16  27
BRANCH  11  29
HETATM   29  C16 UNL     1       2.011   5.790  11.483  1.00  0.00     0.240 C 
BRANCH  29  30
HETATM   30  O3  UNL     1       2.220   7.029  10.799  1.00  0.00    -0.345 OA
BRANCH  30  31
HETATM   31  C17 UNL     1       2.126   7.010   9.434  1.00  0.00     0.070 A 
HETATM   32  C18 UNL     1       1.505   7.976   8.639  1.00  0.00     0.037 A 
HETATM   33  C19 UNL     1       1.482   7.833   7.248  1.00  0.00     0.004 A 
HETATM   34  C20 UNL     1       2.081   6.726   6.647  1.00  0.00     0.024 A 
HETATM   35  C21 UNL     1       2.698   5.763   7.441  1.00  0.00     0.036 A 
HETATM   36 CL1  UNL     1       3.433   4.392   6.703  1.00  0.00    -0.084 Cl
HETATM   37  C22 UNL     1       2.722   5.901   8.828  1.00  0.00     0.060 A 
ENDBRANCH  30  31
ENDBRANCH  29  30
ENDBRANCH  11  29
TORSDOF 9
ENDMDL
MODEL 7
REMARK minimizedAffinity -8.53259563
REMARK CNNscore 0.414934546
REMARK CNNaffinity 7.197824
REMARK  9 active torsions:
REMARK  status: ('A' for Active; 'I' for Inactive)
REMARK    1  A    between atoms: O1_2  and  C2_3 
REMARK    2  A    between atoms: C2_3  and  C3_4 
REMARK    3  A    between atoms: C3_4  and  N1_5 
REMARK       I    between atoms: N1_5  and  C4_6 
REMARK    4  A    between atoms: C4_6  and  C5_8 
REMARK    5  A    between atoms: C5_8  and  C7_10 
REMARK    6  A    between atoms: C15_20  and  C16_21 
REMARK    7  A    between atoms: C16_21  and  O3_22 
REMARK    8  A    between atoms: O3_22  and  C17_23 
REMARK    9  A    between atoms: C26_34  and  O4_35 
ROOT
HETATM    1  C7  UNL     1       0.299   6.974  11.788  1.00  0.00     0.027 C 
HETATM    2  C8  UNL     1      -0.335   8.186  11.096  1.00  0.00     0.009 C 
HETATM    3  C9  UNL     1      -1.132   9.048  12.078  1.00  0.00     0.010 C 
HETATM    4  C10 UNL     1      -1.892   8.262  13.186  1.00  0.00    -0.033 C 
HETATM    5  C11 UNL     1      -1.092   8.346  14.514  1.00  0.00     0.016 C 
HETATM    6  C12 UNL     1      -3.273   8.969  13.404  1.00  0.00     0.058 C 
HETATM    7  C13 UNL     1      -4.186   8.110  14.210  1.00  0.00     0.008 A 
HETATM    8  C14 UNL     1      -4.056   6.751  14.391  1.00  0.00     0.027 A 
HETATM    9  N2  UNL     1      -5.003   6.182  15.218  1.00  0.00    -0.354 N 
ATOM     10  H2  UNL     1      -5.025   5.200  15.495  1.00  0.00     0.166 HD
HETATM   11  C15 UNL     1      -5.875   7.097  15.596  1.00  0.00     0.076 A 
HETATM   12  S1  UNL     1      -5.557   8.695  15.028  1.00  0.00    -0.077 SA
HETATM   13  C23 UNL     1      -2.929   5.936  13.810  1.00  0.00     0.040 C 
HETATM   14  C24 UNL     1      -3.452   4.609  13.245  1.00  0.00     0.017 C 
HETATM   15  C25 UNL     1      -2.129   6.774  12.740  1.00  0.00     0.033 C 
HETATM   16  C26 UNL     1      -0.829   6.044  12.302  1.00  0.00     0.128 C 
ENDROOT
BRANCH   1  17
HETATM   17  C5  UNL     1       1.336   6.264  10.871  1.00  0.00     0.080 C 
HETATM   18  C6  UNL     1       1.577   4.802  11.261  1.00  0.00     0.020 C 
BRANCH  17  19
HETATM   19  C4  UNL     1       2.678   6.999  10.857  1.00  0.00     0.222 C 
HETATM   20  N1  UNL     1       3.530   6.709  11.898  1.00  0.00    -0.359 N 
HETATM   21  H8  UNL     1       3.318   5.955  12.537  1.00  0.00     0.162 HD
HETATM   22  O2  UNL     1       2.967   7.801   9.974  1.00  0.00    -0.273 OA
BRANCH  20  23
HETATM   23  C3  UNL     1       4.834   7.341  12.008  1.00  0.00     0.148 C 
BRANCH  23  24
HETATM   24  C2  UNL     1       5.905   6.728  11.096  1.00  0.00     0.186 C 
BRANCH  24  25
HETATM   25  O1  UNL     1       6.957   7.661  10.821  1.00  0.00    -0.394 OA
HETATM   26  C1  UNL     1       6.501   9.001  10.714  1.00  0.00     0.201 C 
ENDBRANCH  24  25
ENDBRANCH  23  24
ENDBRANCH  20  23
ENDBRANCH  17  19
ENDBRANCH   1  17
BRANCH  16  27
HETATM   27  O4  UNL     1      -1.198   5.154  11.244  1.00  0.00    -0.395 OA
HETATM   28  H35 UNL     1      -1.012   4.242  11.529  1.00  0.00     0.210 HD
ENDBRANCH  16  27
BRANCH  11  29
HETATM   29  C16 UNL     1      -7.056   6.837  16.484  1.00  0.00     0.240 C 
BRANCH  29  30
HETATM   30  O3  UNL     1      -7.553   5.535  16.161  1.00  0.00    -0.345 OA
BRANCH  30  31
HETATM   31  C17 UNL     1      -7.883   5.301  14.854  1.00  0.00     0.070 A 
HETATM   32  C18 UNL     1      -8.544   6.189  14.002  1.00  0.00     0.037 A 
HETATM   33  C19 UNL     1      -8.820   5.822  12.681  1.00  0.00     0.004 A 
HETATM   34  C20 UNL     1      -8.434   4.568  12.207  1.00  0.00     0.024 A 
HETATM   35  C21 UNL     1      -7.775   3.684  13.058  1.00  0.00     0.036 A 
HETATM   36 CL1  UNL     1      -7.302   2.134  12.477  1.00  0.00    -0.084 Cl
HETATM   37  C22 UNL     1      -7.500   4.046  14.375  1.00  0.00     0.060 A 
ENDBRANCH  30  31
ENDBRANCH  29  30
ENDBRANCH  11  29
TORSDOF 9
ENDMDL
MODEL 8
REMARK minimizedAffinity -7.99365377
REMARK CNNscore 0.324060798
REMARK CNNaffinity 6.91776419
REMARK  9 active torsions:
REMARK  status: ('A' for Active; 'I' for Inactive)
REMARK    1  A    between atoms: O1_2  and  C2_3 
REMARK    2  A    between atoms: C2_3  and  C3_4 
REMARK    3  A    between atoms: C3_4  and  N1_5 
REMARK       I    between atoms: N1_5  and  C4_6 
REMARK    4  A    between atoms: C4_6  and  C5_8 
REMARK    5  A    between atoms: C5_8  and  C7_10 
REMARK    6  A    between atoms: C15_20  and  C16_21 
REMARK    7  A    between atoms: C16_21  and  O3_22 
REMARK    8  A    between atoms: O3_22  and  C17_23 
REMARK    9  A    between atoms: C26_34  and  O4_35 
ROOT
HETATM    1  C7  UNL     1       0.358   6.877  11.635  1.00  0.00     0.027 C 
HETATM    2  C8  UNL     1      -0.303   8.077  10.946  1.00  0.00     0.009 C 
HETATM    3  C9  UNL     1      -1.140   8.904  11.925  1.00  0.00     0.010 C 
HETATM    4  C10 UNL     1      -1.891   8.084  13.015  1.00  0.00    -0.033 C 
HETATM    5  C11 UNL     1      -1.112   8.179  14.354  1.00  0.00     0.016 C 
HETATM    6  C12 UNL     1      -3.296   8.747  13.220  1.00  0.00     0.058 C 
HETATM    7  C13 UNL     1      -4.193   7.852  14.005  1.00  0.00     0.008 A 
HETATM    8  C14 UNL     1      -4.023   6.496  14.175  1.00  0.00     0.027 A 
HETATM    9  N2  UNL     1      -4.964   5.889  14.983  1.00  0.00    -0.354 N 
ATOM     10  H2  UNL     1      -4.960   4.905  15.250  1.00  0.00     0.166 HD
HETATM   11  C15 UNL     1      -5.869   6.774  15.357  1.00  0.00     0.076 A 
HETATM   12  S1  UNL     1      -5.592   8.387  14.809  1.00  0.00    -0.077 SA
HETATM   13  C23 UNL     1      -2.864   5.721  13.601  1.00  0.00     0.040 C 
HETATM   14  C24 UNL     1      -3.338   4.384  13.016  1.00  0.00     0.017 C 
HETATM   15  C25 UNL     1      -2.076   6.594  12.551  1.00  0.00     0.033 C 
HETATM   16  C26 UNL     1      -0.748   5.908  12.124  1.00  0.00     0.128 C 
ENDROOT
BRANCH   1  17
HETATM   17  C5  UNL     1       1.428   6.209  10.725  1.00  0.00     0.080 C 
HETATM   18  C6  UNL     1       1.632   4.722  11.036  1.00  0.00     0.020 C 
BRANCH  17  19
HETATM   19  C4  UNL     1       2.778   6.922  10.820  1.00  0.00     0.222 C 
HETATM   20  N1  UNL     1       3.643   6.443  11.779  1.00  0.00    -0.359 N 
HETATM   21  H8  UNL     1       3.431   5.590  12.277  1.00  0.00     0.162 HD
HETATM   22  O2  UNL     1       3.064   7.866  10.089  1.00  0.00    -0.273 OA
BRANCH  20  23
HETATM   23  C3  UNL     1       4.956   7.034  11.978  1.00  0.00     0.148 C 
BRANCH  23  24
HETATM   24  C2  UNL     1       6.080   6.332  11.206  1.00  0.00     0.186 C 
BRANCH  24  25
HETATM   25  O1  UNL     1       6.837   7.261  10.420  1.00  0.00    -0.394 OA
HETATM   26  C1  UNL     1       6.511   8.616  10.691  1.00  0.00     0.201 C 
ENDBRANCH  24  25
ENDBRANCH  23  24
ENDBRANCH  20  23
ENDBRANCH  17  19
ENDBRANCH   1  17
BRANCH  16  27
HETATM   27  O4  UNL     1      -1.075   5.018  11.053  1.00  0.00    -0.395 OA
HETATM   28  H35 UNL     1      -0.865   4.109  11.332  1.00  0.00     0.210 HD
ENDBRANCH  16  27
BRANCH  11  29
HETATM   29  C16 UNL     1      -7.052   6.469  16.226  1.00  0.00     0.240 C 
BRANCH  29  30
HETATM   30  O3  UNL     1      -8.068   5.915  15.385  1.00  0.00    -0.345 OA
BRANCH  30  31
HETATM   31  C17 UNL     1      -9.089   6.746  15.012  1.00  0.00     0.070 A 
HETATM   32  C18 UNL     1      -9.823   6.665  13.826  1.00  0.00     0.037 A 
HETATM   33  C19 UNL     1     -10.847   7.582  13.569  1.00  0.00     0.004 A 
HETATM   34  C20 UNL     1     -11.141   8.582  14.497  1.00  0.00     0.024 A 
HETATM   35  C21 UNL     1     -10.407   8.662  15.678  1.00  0.00     0.036 A 
HETATM   36 CL1  UNL     1     -10.765   9.897  16.822  1.00  0.00    -0.084 Cl
HETATM   37  C22 UNL     1      -9.385   7.750  15.937  1.00  0.00     0.060 A 
ENDBRANCH  30  31
ENDBRANCH  29  30
ENDBRANCH  11  29
TORSDOF 9
ENDMDL
MODEL 9
REMARK minimizedAffinity -9.12243271
REMARK CNNscore 0.306193799
REMARK CNNaffinity 6.95532751
REMARK  9 active torsions:
REMARK  status: ('A' for Active; 'I' for Inactive)
REMARK    1  A    between atoms: O1_2  and  C2_3 
REMARK    2  A    between atoms: C2_3  and  C3_4 
REMARK    3  A    between atoms: C3_4  and  N1_5 
REMARK       I    between atoms: N1_5  and  C4_6 
REMARK    4  A    between atoms: C4_6  and  C5_8 
REMARK    5  A    between atoms: C5_8  and  C7_10 
REMARK    6  A    between atoms: C15_20  and  C16_21 
REMARK    7  A    between atoms: C16_21  and  O3_22 
REMARK    8  A    between atoms: O3_22  and  C17_23 
REMARK    9  A    between atoms: C26_34  and  O4_35 
ROOT
HETATM    1  C7  UNL     1      -6.558   6.044  13.902  1.00  0.00     0.027 C 
HETATM    2  C8  UNL     1      -5.972   6.173  15.313  1.00  0.00     0.009 C 
HETATM    3  C9  UNL     1      -4.656   6.954  15.312  1.00  0.00     0.010 C 
HETATM    4  C10 UNL     1      -3.740   6.711  14.077  1.00  0.00    -0.033 C 
HETATM    5  C11 UNL     1      -3.885   7.900  13.091  1.00  0.00     0.016 C 
HETATM    6  C12 UNL     1      -2.259   6.677  14.587  1.00  0.00     0.058 C 
HETATM    7  C13 UNL     1      -1.349   6.140  13.535  1.00  0.00     0.008 A 
HETATM    8  C14 UNL     1      -1.737   5.386  12.449  1.00  0.00     0.027 A 
HETATM    9  N2  UNL     1      -0.716   5.041  11.587  1.00  0.00    -0.354 N 
ATOM     10  H2  UNL     1      -0.834   4.527  10.714  1.00  0.00     0.166 HD
HETATM   11  C15 UNL     1       0.437   5.476  12.062  1.00  0.00     0.076 A 
HETATM   12  S1  UNL     1       0.334   6.376  13.531  1.00  0.00    -0.077 SA
HETATM   13  C23 UNL     1      -3.169   5.020  12.156  1.00  0.00     0.040 C 
HETATM   14  C24 UNL     1      -3.276   3.557  11.705  1.00  0.00     0.017 C 
HETATM   15  C25 UNL     1      -4.090   5.339  13.395  1.00  0.00     0.033 C 
HETATM   16  C26 UNL     1      -5.596   5.192  13.037  1.00  0.00     0.128 C 
ENDROOT
BRANCH   1  17
HETATM   17  C5  UNL     1      -8.020   5.514  13.933  1.00  0.00     0.080 C 
HETATM   18  C6  UNL     1      -8.433   4.825  12.627  1.00  0.00     0.020 C 
BRANCH  17  19
HETATM   19  C4  UNL     1      -9.022   6.629  14.240  1.00  0.00     0.222 C 
HETATM   20  N1  UNL     1     -10.336   6.356  13.932  1.00  0.00    -0.359 N 
HETATM   21  H8  UNL     1     -10.612   5.425  13.654  1.00  0.00     0.162 HD
HETATM   22  O2  UNL     1      -8.668   7.701  14.724  1.00  0.00    -0.273 OA
BRANCH  20  23
HETATM   23  C3  UNL     1     -11.387   7.331  14.168  1.00  0.00     0.148 C 
BRANCH  23  24
HETATM   24  C2  UNL     1     -12.544   7.258  13.162  1.00  0.00     0.186 C 
BRANCH  24  25
HETATM   25  O1  UNL     1     -12.712   8.498  12.464  1.00  0.00    -0.394 OA
HETATM   26  C1  UNL     1     -13.587   9.398  13.130  1.00  0.00     0.201 C 
ENDBRANCH  24  25
ENDBRANCH  23  24
ENDBRANCH  20  23
ENDBRANCH  17  19
ENDBRANCH   1  17
BRANCH  16  27
HETATM   27  O4  UNL     1      -5.926   3.812  13.220  1.00  0.00    -0.395 OA
HETATM   28  H35 UNL     1      -6.206   3.445  12.362  1.00  0.00     0.210 HD
ENDBRANCH  16  27
BRANCH  11  29
HETATM   29  C16 UNL     1       1.766   5.268  11.400  1.00  0.00     0.240 C 
BRANCH  29  30
HETATM   30  O3  UNL     1       1.554   5.335   9.987  1.00  0.00    -0.345 OA
BRANCH  30  31
HETATM   31  C17 UNL     1       2.078   6.414   9.330  1.00  0.00     0.070 A 
HETATM   32  C18 UNL     1       1.656   6.908   8.093  1.00  0.00     0.037 A 
HETATM   33  C19 UNL     1       2.282   8.026   7.531  1.00  0.00     0.004 A 
HETATM   34  C20 UNL     1       3.329   8.654   8.205  1.00  0.00     0.024 A 
HETATM   35  C21 UNL     1       3.749   8.160   9.437  1.00  0.00     0.036 A 
HETATM   36 CL1  UNL     1       5.045   8.931  10.269  1.00  0.00    -0.084 Cl
HETATM   37  C22 UNL     1       3.129   7.046   9.999  1.00  0.00     0.060 A 
ENDBRANCH  30  31
ENDBRANCH  29  30
ENDBRANCH  11  29
TORSDOF 9
ENDMDL
