MODEL 1
REMARK minimizedAffinity -7.85270786
REMARK CNNscore 0.658251762
REMARK CNNaffinity 6.83678865
REMARK  6 active torsions:
REMARK  status: ('A' for Active; 'I' for Inactive)
REMARK    1  A    between atoms: C3_3  and  C4_4 
REMARK    2  A    between atoms: C4_4  and  O2_6 
REMARK    3  A    between atoms: O2_6  and  C5_7 
REMARK    4  A    between atoms: C5_7  and  C6_8 
REMARK    5  A    between atoms: C6_8  and  C7_9 
REMARK    6  A    between atoms: C13_15  and  C14_16 
ROOT
HETATM    1  C1  UNL     1      -1.465  55.508 -10.199  1.00  0.00     0.069 C 
HETATM    2  C2  UNL     1      -1.242  54.057 -10.540  1.00  0.00     0.018 C 
HETATM    3  C3  UNL     1      -0.065  53.406 -10.397  1.00  0.00     0.052 C 
HETATM    4  C13 UNL     1       0.102  51.937 -10.773  1.00  0.00     0.104 C 
HETATM    5  C23 UNL     1      -1.242  51.277 -11.085  1.00  0.00     0.024 C 
HETATM    6  C24 UNL     1      -2.380  51.995 -11.194  1.00  0.00     0.020 C 
HETATM    7  C25 UNL     1      -3.724  51.371 -11.484  1.00  0.00     0.058 C 
HETATM    8  C26 UNL     1      -3.764  49.891 -11.125  1.00  0.00     0.014 C 
HETATM    9  C27 UNL     1      -2.570  49.155 -11.708  1.00  0.00     0.084 C 
HETATM   10  C28 UNL     1      -1.271  49.799 -11.279  1.00  0.00     0.158 C 
HETATM   11  O5  UNL     1      -0.244  49.134 -11.155  1.00  0.00    -0.293 OA
HETATM   12  N1  UNL     1      -2.353  53.364 -11.001  1.00  0.00    -0.362 N 
HETATM   13  H24 UNL     1      -3.240  53.863 -11.009  1.00  0.00     0.165 HD
ENDROOT
BRANCH   4  14
HETATM   14  C14 UNL     1       1.079  51.802 -11.933  1.00  0.00     0.029 A 
HETATM   15  C15 UNL     1       2.355  51.397 -11.836  1.00  0.00     0.154 A 
HETATM   16  O3  UNL     1       3.268  51.289 -12.858  1.00  0.00    -0.321 OA
HETATM   17  C16 UNL     1       2.869  51.680 -14.109  1.00  0.00     0.089 A 
HETATM   18  C17 UNL     1       3.817  51.624 -15.130  1.00  0.00     0.040 A 
HETATM   19  C21 UNL     1       1.572  52.113 -14.385  1.00  0.00     0.050 A 
HETATM   20  C18 UNL     1       3.462  52.003 -16.428  1.00  0.00     0.026 A 
HETATM   21  C19 UNL     1       2.161  52.436 -16.697  1.00  0.00     0.035 A 
HETATM   22 CL1  UNL     1       1.730  52.897 -18.298  1.00  0.00    -0.084 Cl
HETATM   23  C20 UNL     1       1.210  52.493 -15.681  1.00  0.00     0.042 A 
HETATM   24  C22 UNL     1       0.588  52.148 -13.291  1.00  0.00     0.194 A 
HETATM   25  O4  UNL     1      -0.583  52.422 -13.515  1.00  0.00    -0.287 OA
ENDBRANCH   4  14
BRANCH   3  26
HETATM   26  C4  UNL     1       1.131  54.097  -9.883  1.00  0.00     0.292 C 
HETATM   27  O1  UNL     1       1.504  54.045  -8.723  1.00  0.00    -0.259 OA
BRANCH  26  28
HETATM   28  O2  UNL     1       1.712  54.775 -10.902  1.00  0.00    -0.317 OA
BRANCH  28  29
HETATM   29  C5  UNL     1       2.591  55.832 -10.493  1.00  0.00     0.183 C 
BRANCH  29  30
HETATM   30  C6  UNL     1       4.023  55.415 -10.818  1.00  0.00     0.065 C 
BRANCH  30  31
HETATM   31  C7  UNL     1       4.937  55.543  -9.627  1.00  0.00    -0.056 A 
HETATM   32  C8  UNL     1       4.520  56.242  -8.485  1.00  0.00     0.007 A 
HETATM   33  C9  UNL     1       5.356  56.345  -7.373  1.00  0.00     0.001 A 
HETATM   34  C10 UNL     1       6.618  55.751  -7.393  1.00  0.00     0.000 A 
HETATM   35  C11 UNL     1       7.043  55.056  -8.524  1.00  0.00     0.001 A 
HETATM   36  C12 UNL     1       6.206  54.950  -9.637  1.00  0.00     0.007 A 
ENDBRANCH  30  31
ENDBRANCH  29  30
ENDBRANCH  28  29
ENDBRANCH  26  28
ENDBRANCH   3  26
TORSDOF 6
ENDMDL
MODEL 2
REMARK minimizedAffinity -7.09518909
REMARK CNNscore 0.429069132
REMARK CNNaffinity 6.35912561
REMARK  6 active torsions:
REMARK  status: ('A' for Active; 'I' for Inactive)
REMARK    1  A    between atoms: C3_3  and  C4_4 
REMARK    2  A    between atoms: C4_4  and  O2_6 
REMARK    3  A    between atoms: O2_6  and  C5_7 
REMARK    4  A    between atoms: C5_7  and  C6_8 
REMARK    5  A    between atoms: C6_8  and  C7_9 
REMARK    6  A    between atoms: C13_15  and  C14_16 
ROOT
HETATM    1  C1  UNL     1       1.650  53.973  -4.751  1.00  0.00     0.069 C 
HETATM    2  C2  UNL     1       1.827  53.753  -6.231  1.00  0.00     0.018 C 
HETATM    3  C3  UNL     1       1.380  54.595  -7.192  1.00  0.00     0.052 C 
HETATM    4  C13 UNL     1       1.578  54.311  -8.678  1.00  0.00     0.104 C 
HETATM    5  C23 UNL     1       2.521  53.128  -8.906  1.00  0.00     0.024 C 
HETATM    6  C24 UNL     1       2.940  52.344  -7.890  1.00  0.00     0.020 C 
HETATM    7  C25 UNL     1       3.883  51.181  -8.081  1.00  0.00     0.058 C 
HETATM    8  C26 UNL     1       4.697  51.301  -9.363  1.00  0.00     0.014 C 
HETATM    9  C27 UNL     1       3.803  51.609 -10.551  1.00  0.00     0.084 C 
HETATM   10  C28 UNL     1       2.971  52.847 -10.299  1.00  0.00     0.158 C 
HETATM   11  O5  UNL     1       2.616  53.572 -11.227  1.00  0.00    -0.293 OA
HETATM   12  N1  UNL     1       2.531  52.614  -6.596  1.00  0.00    -0.362 N 
HETATM   13  H24 UNL     1       2.930  52.055  -5.845  1.00  0.00     0.165 HD
ENDROOT
BRANCH   4  14
HETATM   14  C14 UNL     1       0.231  54.096  -9.354  1.00  0.00     0.029 A 
HETATM   15  C15 UNL     1      -0.390  54.976 -10.155  1.00  0.00     0.154 A 
HETATM   16  O3  UNL     1      -1.615  54.823 -10.759  1.00  0.00    -0.321 OA
HETATM   17  C16 UNL     1      -2.318  53.678 -10.485  1.00  0.00     0.089 A 
HETATM   18  C17 UNL     1      -3.585  53.555 -11.054  1.00  0.00     0.040 A 
HETATM   19  C21 UNL     1      -1.811  52.656  -9.684  1.00  0.00     0.050 A 
HETATM   20  C18 UNL     1      -4.343  52.405 -10.816  1.00  0.00     0.026 A 
HETATM   21  C19 UNL     1      -3.829  51.384 -10.012  1.00  0.00     0.035 A 
HETATM   22 CL1  UNL     1      -4.767  49.970  -9.727  1.00  0.00    -0.084 Cl
HETATM   23  C20 UNL     1      -2.563  51.502  -9.443  1.00  0.00     0.042 A 
HETATM   24  C22 UNL     1      -0.464  52.807  -9.109  1.00  0.00     0.194 A 
HETATM   25  O4  UNL     1       0.055  51.889  -8.488  1.00  0.00    -0.287 OA
ENDBRANCH   4  14
BRANCH   3  26
HETATM   26  C4  UNL     1       0.653  55.830  -6.846  1.00  0.00     0.292 C 
HETATM   27  O1  UNL     1      -0.389  55.854  -6.213  1.00  0.00    -0.259 OA
BRANCH  26  28
HETATM   28  O2  UNL     1       1.334  56.888  -7.346  1.00  0.00    -0.317 OA
BRANCH  28  29
HETATM   29  C5  UNL     1       2.586  57.156  -6.698  1.00  0.00     0.183 C 
BRANCH  29  30
HETATM   30  C6  UNL     1       3.554  57.710  -7.740  1.00  0.00     0.065 C 
BRANCH  30  31
HETATM   31  C7  UNL     1       4.665  56.743  -8.055  1.00  0.00    -0.056 A 
HETATM   32  C8  UNL     1       5.719  56.555  -7.149  1.00  0.00     0.007 A 
HETATM   33  C9  UNL     1       6.739  55.644  -7.429  1.00  0.00     0.001 A 
HETATM   34  C10 UNL     1       6.715  54.915  -8.617  1.00  0.00     0.000 A 
HETATM   35  C11 UNL     1       5.674  55.096  -9.525  1.00  0.00     0.001 A 
HETATM   36  C12 UNL     1       4.651  56.005  -9.246  1.00  0.00     0.007 A 
ENDBRANCH  30  31
ENDBRANCH  29  30
ENDBRANCH  28  29
ENDBRANCH  26  28
ENDBRANCH   3  26
TORSDOF 6
ENDMDL
MODEL 3
REMARK minimizedAffinity -7.23524094
REMARK CNNscore 0.377969295
REMARK CNNaffinity 6.58505869
REMARK  6 active torsions:
REMARK  status: ('A' for Active; 'I' for Inactive)
REMARK    1  A    between atoms: C3_3  and  C4_4 
REMARK    2  A    between atoms: C4_4  and  O2_6 
REMARK    3  A    between atoms: O2_6  and  C5_7 
REMARK    4  A    between atoms: C5_7  and  C6_8 
REMARK    5  A    between atoms: C6_8  and  C7_9 
REMARK    6  A    between atoms: C13_15  and  C14_16 
ROOT
HETATM    1  C1  UNL     1      -0.505  49.253 -12.339  1.00  0.00     0.069 C 
HETATM    2  C2  UNL     1      -0.103  49.962 -13.606  1.00  0.00     0.018 C 
HETATM    3  C3  UNL     1      -0.972  50.431 -14.532  1.00  0.00     0.052 C 
HETATM    4  C13 UNL     1      -0.504  51.130 -15.805  1.00  0.00     0.104 C 
HETATM    5  C23 UNL     1       0.996  51.429 -15.767  1.00  0.00     0.024 C 
HETATM    6  C24 UNL     1       1.795  50.939 -14.796  1.00  0.00     0.020 C 
HETATM    7  C25 UNL     1       3.275  51.229 -14.721  1.00  0.00     0.058 C 
HETATM    8  C26 UNL     1       3.655  52.492 -15.485  1.00  0.00     0.014 C 
HETATM    9  C27 UNL     1       3.069  52.481 -16.886  1.00  0.00     0.084 C 
HETATM   10  C28 UNL     1       1.570  52.281 -16.847  1.00  0.00     0.158 C 
HETATM   11  O5  UNL     1       0.844  52.754 -17.720  1.00  0.00    -0.293 OA
HETATM   12  N1  UNL     1       1.258  50.159 -13.788  1.00  0.00    -0.362 N 
HETATM   13  H24 UNL     1       1.873  49.874 -13.028  1.00  0.00     0.165 HD
ENDROOT
BRANCH   4  14
HETATM   14  C14 UNL     1      -0.883  50.303 -17.026  1.00  0.00     0.029 A 
HETATM   15  C15 UNL     1      -0.399  49.087 -17.326  1.00  0.00     0.154 A 
HETATM   16  O3  UNL     1      -0.700  48.328 -18.431  1.00  0.00    -0.321 OA
HETATM   17  C16 UNL     1      -1.542  48.873 -19.365  1.00  0.00     0.089 A 
HETATM   18  C17 UNL     1      -1.798  48.121 -20.512  1.00  0.00     0.040 A 
HETATM   19  C21 UNL     1      -2.143  50.120 -19.200  1.00  0.00     0.050 A 
HETATM   20  C18 UNL     1      -2.657  48.624 -21.493  1.00  0.00     0.026 A 
HETATM   21  C19 UNL     1      -3.255  49.875 -21.322  1.00  0.00     0.035 A 
HETATM   22 CL1  UNL     1      -4.314  50.486 -22.533  1.00  0.00    -0.084 Cl
HETATM   23  C20 UNL     1      -3.004  50.629 -20.178  1.00  0.00     0.042 A 
HETATM   24  C22 UNL     1      -1.867  50.885 -17.973  1.00  0.00     0.194 A 
HETATM   25  O4  UNL     1      -2.456  51.933 -17.746  1.00  0.00    -0.287 OA
ENDBRANCH   4  14
BRANCH   3  26
HETATM   26  C4  UNL     1      -2.427  50.269 -14.363  1.00  0.00     0.292 C 
HETATM   27  O1  UNL     1      -2.956  49.260 -13.927  1.00  0.00    -0.259 OA
BRANCH  26  28
HETATM   28  O2  UNL     1      -3.040  51.405 -14.771  1.00  0.00    -0.317 OA
BRANCH  28  29
HETATM   29  C5  UNL     1      -3.434  52.287 -13.709  1.00  0.00     0.183 C 
BRANCH  29  30
HETATM   30  C6  UNL     1      -2.831  51.764 -12.408  1.00  0.00     0.065 C 
BRANCH  30  31
HETATM   31  C7  UNL     1      -2.105  52.842 -11.644  1.00  0.00    -0.056 A 
HETATM   32  C8  UNL     1      -0.716  52.989 -11.772  1.00  0.00     0.007 A 
HETATM   33  C9  UNL     1      -0.045  53.999 -11.081  1.00  0.00     0.001 A 
HETATM   34  C10 UNL     1      -0.756  54.871 -10.257  1.00  0.00     0.000 A 
HETATM   35  C11 UNL     1      -2.136  54.732 -10.121  1.00  0.00     0.001 A 
HETATM   36  C12 UNL     1      -2.810  53.723 -10.813  1.00  0.00     0.007 A 
ENDBRANCH  30  31
ENDBRANCH  29  30
ENDBRANCH  28  29
ENDBRANCH  26  28
ENDBRANCH   3  26
TORSDOF 6
ENDMDL
MODEL 4
REMARK minimizedAffinity -9.14942646
REMARK CNNscore 0.265066743
REMARK CNNaffinity 6.61750984
REMARK  6 active torsions:
REMARK  status: ('A' for Active; 'I' for Inactive)
REMARK    1  A    between atoms: C3_3  and  C4_4 
REMARK    2  A    between atoms: C4_4  and  O2_6 
REMARK    3  A    between atoms: O2_6  and  C5_7 
REMARK    4  A    between atoms: C5_7  and  C6_8 
REMARK    5  A    between atoms: C6_8  and  C7_9 
REMARK    6  A    between atoms: C13_15  and  C14_16 
ROOT
HETATM    1  C1  UNL     1      -4.131  48.024 -27.912  1.00  0.00     0.069 C 
HETATM    2  C2  UNL     1      -4.577  48.537 -26.566  1.00  0.00     0.018 C 
HETATM    3  C3  UNL     1      -4.021  49.589 -25.923  1.00  0.00     0.052 C 
HETATM    4  C13 UNL     1      -4.508  50.054 -24.553  1.00  0.00     0.104 C 
HETATM    5  C23 UNL     1      -5.805  49.352 -24.147  1.00  0.00     0.024 C 
HETATM    6  C24 UNL     1      -6.307  48.318 -24.854  1.00  0.00     0.020 C 
HETATM    7  C25 UNL     1      -7.593  47.616 -24.488  1.00  0.00     0.058 C 
HETATM    8  C26 UNL     1      -8.497  48.482 -23.618  1.00  0.00     0.014 C 
HETATM    9  C27 UNL     1      -7.728  49.072 -22.449  1.00  0.00     0.084 C 
HETATM   10  C28 UNL     1      -6.513  49.836 -22.928  1.00  0.00     0.158 C 
HETATM   11  O5  UNL     1      -6.077  50.796 -22.293  1.00  0.00    -0.293 OA
HETATM   12  N1  UNL     1      -5.656  47.879 -25.992  1.00  0.00    -0.362 N 
HETATM   13  H24 UNL     1      -6.104  47.152 -26.546  1.00  0.00     0.165 HD
ENDROOT
BRANCH   4  14
HETATM   14  C14 UNL     1      -3.413  49.858 -23.515  1.00  0.00     0.029 A 
HETATM   15  C15 UNL     1      -2.931  48.676 -23.100  1.00  0.00     0.154 A 
HETATM   16  O3  UNL     1      -1.963  48.465 -22.148  1.00  0.00    -0.321 OA
HETATM   17  C16 UNL     1      -1.459  49.564 -21.502  1.00  0.00     0.089 A 
HETATM   18  C17 UNL     1      -0.520  49.339 -20.496  1.00  0.00     0.040 A 
HETATM   19  C21 UNL     1      -1.840  50.866 -21.822  1.00  0.00     0.050 A 
HETATM   20  C18 UNL     1       0.035  50.424 -19.811  1.00  0.00     0.026 A 
HETATM   21  C19 UNL     1      -0.352  51.727 -20.136  1.00  0.00     0.035 A 
HETATM   22 CL1  UNL     1       0.337  53.057 -19.290  1.00  0.00    -0.084 Cl
HETATM   23  C20 UNL     1      -1.289  51.956 -21.141  1.00  0.00     0.042 A 
HETATM   24  C22 UNL     1      -2.823  51.074 -22.899  1.00  0.00     0.194 A 
HETATM   25  O4  UNL     1      -3.103  52.203 -23.277  1.00  0.00    -0.287 OA
ENDBRANCH   4  14
BRANCH   3  26
HETATM   26  C4  UNL     1      -2.893  50.334 -26.511  1.00  0.00     0.292 C 
HETATM   27  O1  UNL     1      -1.770  49.879 -26.643  1.00  0.00    -0.259 OA
BRANCH  26  28
HETATM   28  O2  UNL     1      -3.324  51.569 -26.861  1.00  0.00    -0.317 OA
BRANCH  28  29
HETATM   29  C5  UNL     1      -2.285  52.475 -27.257  1.00  0.00     0.183 C 
BRANCH  29  30
HETATM   30  C6  UNL     1      -1.282  52.581 -26.111  1.00  0.00     0.065 C 
BRANCH  30  31
HETATM   31  C7  UNL     1       0.122  52.258 -26.551  1.00  0.00    -0.056 A 
HETATM   32  C8  UNL     1       1.090  51.873 -25.611  1.00  0.00     0.007 A 
HETATM   33  C9  UNL     1       2.385  51.553 -26.020  1.00  0.00     0.001 A 
HETATM   34  C10 UNL     1       2.726  51.615 -27.371  1.00  0.00     0.000 A 
HETATM   35  C11 UNL     1       1.772  51.998 -28.313  1.00  0.00     0.001 A 
HETATM   36  C12 UNL     1       0.475  52.316 -27.906  1.00  0.00     0.007 A 
ENDBRANCH  30  31
ENDBRANCH  29  30
ENDBRANCH  28  29
ENDBRANCH  26  28
ENDBRANCH   3  26
TORSDOF 6
ENDMDL
MODEL 5
REMARK minimizedAffinity -7.62526274
REMARK CNNscore 0.263681293
REMARK CNNaffinity 5.99076796
REMARK  6 active torsions:
REMARK  status: ('A' for Active; 'I' for Inactive)
REMARK    1  A    between atoms: C3_3  and  C4_4 
REMARK    2  A    between atoms: C4_4  and  O2_6 
REMARK    3  A    between atoms: O2_6  and  C5_7 
REMARK    4  A    between atoms: C5_7  and  C6_8 
REMARK    5  A    between atoms: C6_8  and  C7_9 
REMARK    6  A    between atoms: C13_15  and  C14_16 
ROOT
HETATM    1  C1  UNL     1       4.710  55.415 -10.633  1.00  0.00     0.069 C 
HETATM    2  C2  UNL     1       3.575  55.396  -9.642  1.00  0.00     0.018 C 
HETATM    3  C3  UNL     1       2.762  54.336  -9.424  1.00  0.00     0.052 C 
HETATM    4  C13 UNL     1       1.619  54.382  -8.415  1.00  0.00     0.104 C 
HETATM    5  C23 UNL     1       1.676  55.645  -7.553  1.00  0.00     0.024 C 
HETATM    6  C24 UNL     1       2.531  56.654  -7.824  1.00  0.00     0.020 C 
HETATM    7  C25 UNL     1       2.623  57.905  -6.984  1.00  0.00     0.058 C 
HETATM    8  C26 UNL     1       2.080  57.696  -5.575  1.00  0.00     0.014 C 
HETATM    9  C27 UNL     1       0.711  57.040  -5.609  1.00  0.00     0.084 C 
HETATM   10  C28 UNL     1       0.747  55.746  -6.392  1.00  0.00     0.158 C 
HETATM   11  O5  UNL     1      -0.016  54.820  -6.121  1.00  0.00    -0.293 OA
HETATM   12  N1  UNL     1       3.401  56.553  -8.895  1.00  0.00    -0.362 N 
HETATM   13  H24 UNL     1       4.088  57.294  -9.021  1.00  0.00     0.165 HD
ENDROOT
BRANCH   4  14
HETATM   14  C14 UNL     1       0.282  54.249  -9.131  1.00  0.00     0.029 A 
HETATM   15  C15 UNL     1      -0.320  55.214  -9.844  1.00  0.00     0.154 A 
HETATM   16  O3  UNL     1      -1.536  55.134 -10.480  1.00  0.00    -0.321 OA
HETATM   17  C16 UNL     1      -2.250  53.972 -10.340  1.00  0.00     0.089 A 
HETATM   18  C17 UNL     1      -3.509  53.919 -10.939  1.00  0.00     0.040 A 
HETATM   19  C21 UNL     1      -1.762  52.868  -9.644  1.00  0.00     0.050 A 
HETATM   20  C18 UNL     1      -4.277  52.756 -10.836  1.00  0.00     0.026 A 
HETATM   21  C19 UNL     1      -3.782  51.652 -10.136  1.00  0.00     0.035 A 
HETATM   22 CL1  UNL     1      -4.732  50.222 -10.017  1.00  0.00    -0.084 Cl
HETATM   23  C20 UNL     1      -2.525  51.700  -9.538  1.00  0.00     0.042 A 
HETATM   24  C22 UNL     1      -0.424  52.947  -9.035  1.00  0.00     0.194 A 
HETATM   25  O4  UNL     1       0.079  51.965  -8.507  1.00  0.00    -0.287 OA
ENDBRANCH   4  14
BRANCH   3  26
HETATM   26  C4  UNL     1       2.931  53.079 -10.175  1.00  0.00     0.292 C 
HETATM   27  O1  UNL     1       3.548  52.113  -9.759  1.00  0.00    -0.259 OA
BRANCH  26  28
HETATM   28  O2  UNL     1       2.298  53.197 -11.366  1.00  0.00    -0.317 OA
BRANCH  28  29
HETATM   29  C5  UNL     1       2.714  52.249 -12.361  1.00  0.00     0.183 C 
BRANCH  29  30
HETATM   30  C6  UNL     1       1.561  51.278 -12.605  1.00  0.00     0.065 C 
BRANCH  30  31
HETATM   31  C7  UNL     1       1.229  51.147 -14.069  1.00  0.00    -0.056 A 
HETATM   32  C8  UNL     1       1.879  51.949 -15.018  1.00  0.00     0.007 A 
HETATM   33  C9  UNL     1       1.587  51.815 -16.376  1.00  0.00     0.001 A 
HETATM   34  C10 UNL     1       0.643  50.879 -16.798  1.00  0.00     0.000 A 
HETATM   35  C11 UNL     1      -0.010  50.079 -15.862  1.00  0.00     0.001 A 
HETATM   36  C12 UNL     1       0.282  50.210 -14.503  1.00  0.00     0.007 A 
ENDBRANCH  30  31
ENDBRANCH  29  30
ENDBRANCH  28  29
ENDBRANCH  26  28
ENDBRANCH   3  26
TORSDOF 6
ENDMDL
MODEL 6
REMARK minimizedAffinity -8.95716953
REMARK CNNscore 0.238009959
REMARK CNNaffinity 6.57032537
REMARK  6 active torsions:
REMARK  status: ('A' for Active; 'I' for Inactive)
REMARK    1  A    between atoms: C3_3  and  C4_4 
REMARK    2  A    between atoms: C4_4  and  O2_6 
REMARK    3  A    between atoms: O2_6  and  C5_7 
REMARK    4  A    between atoms: C5_7  and  C6_8 
REMARK    5  A    between atoms: C6_8  and  C7_9 
REMARK    6  A    between atoms: C13_15  and  C14_16 
ROOT
HETATM    1  C1  UNL     1      -6.027  50.793 -20.805  1.00  0.00     0.069 C 
HETATM    2  C2  UNL     1      -5.639  50.229 -22.148  1.00  0.00     0.018 C 
HETATM    3  C3  UNL     1      -4.366  50.087 -22.583  1.00  0.00     0.052 C 
HETATM    4  C13 UNL     1      -4.036  49.522 -23.961  1.00  0.00     0.104 C 
HETATM    5  C23 UNL     1      -5.275  48.940 -24.645  1.00  0.00     0.024 C 
HETATM    6  C24 UNL     1      -6.514  49.109 -24.136  1.00  0.00     0.020 C 
HETATM    7  C25 UNL     1      -7.754  48.533 -24.778  1.00  0.00     0.058 C 
HETATM    8  C26 UNL     1      -7.438  47.358 -25.695  1.00  0.00     0.014 C 
HETATM    9  C27 UNL     1      -6.313  47.702 -26.656  1.00  0.00     0.084 C 
HETATM   10  C28 UNL     1      -5.086  48.176 -25.910  1.00  0.00     0.158 C 
HETATM   11  O5  UNL     1      -3.958  47.994 -26.366  1.00  0.00    -0.293 OA
HETATM   12  N1  UNL     1      -6.687  49.808 -22.955  1.00  0.00    -0.362 N 
HETATM   13  H24 UNL     1      -7.623  49.846 -22.558  1.00  0.00     0.165 HD
ENDROOT
BRANCH   4  14
HETATM   14  C14 UNL     1      -3.369  50.588 -24.819  1.00  0.00     0.029 A 
HETATM   15  C15 UNL     1      -3.929  51.747 -25.200  1.00  0.00     0.154 A 
HETATM   16  O3  UNL     1      -3.365  52.717 -25.993  1.00  0.00    -0.321 OA
HETATM   17  C16 UNL     1      -2.116  52.471 -26.503  1.00  0.00     0.089 A 
HETATM   18  C17 UNL     1      -1.572  53.433 -27.354  1.00  0.00     0.040 A 
HETATM   19  C21 UNL     1      -1.389  51.323 -26.194  1.00  0.00     0.050 A 
HETATM   20  C18 UNL     1      -0.298  53.239 -27.896  1.00  0.00     0.026 A 
HETATM   21  C19 UNL     1       0.425  52.085 -27.582  1.00  0.00     0.035 A 
HETATM   22 CL1  UNL     1       1.995  51.855 -28.249  1.00  0.00    -0.084 Cl
HETATM   23  C20 UNL     1      -0.113  51.122 -26.731  1.00  0.00     0.042 A 
HETATM   24  C22 UNL     1      -1.981  50.331 -25.280  1.00  0.00     0.194 A 
HETATM   25  O4  UNL     1      -1.333  49.364 -24.905  1.00  0.00    -0.287 OA
ENDBRANCH   4  14
BRANCH   3  26
HETATM   26  C4  UNL     1      -3.224  50.495 -21.745  1.00  0.00     0.292 C 
HETATM   27  O1  UNL     1      -2.919  51.655 -21.524  1.00  0.00    -0.259 OA
BRANCH  26  28
HETATM   28  O2  UNL     1      -2.602  49.383 -21.289  1.00  0.00    -0.317 OA
BRANCH  28  29
HETATM   29  C5  UNL     1      -1.187  49.347 -21.528  1.00  0.00     0.183 C 
BRANCH  29  30
HETATM   30  C6  UNL     1      -0.477  49.790 -20.251  1.00  0.00     0.065 C 
BRANCH  30  31
HETATM   31  C7  UNL     1      -0.031  51.228 -20.317  1.00  0.00    -0.056 A 
HETATM   32  C8  UNL     1      -0.220  52.079 -19.218  1.00  0.00     0.007 A 
HETATM   33  C9  UNL     1       0.210  53.405 -19.269  1.00  0.00     0.001 A 
HETATM   34  C10 UNL     1       0.832  53.893 -20.418  1.00  0.00     0.000 A 
HETATM   35  C11 UNL     1       1.022  53.056 -21.516  1.00  0.00     0.001 A 
HETATM   36  C12 UNL     1       0.595  51.728 -21.466  1.00  0.00     0.007 A 
ENDBRANCH  30  31
ENDBRANCH  29  30
ENDBRANCH  28  29
ENDBRANCH  26  28
ENDBRANCH   3  26
TORSDOF 6
ENDMDL
MODEL 7
REMARK minimizedAffinity -7.60911465
REMARK CNNscore 0.169999897
REMARK CNNaffinity 6.03843164
REMARK  6 active torsions:
REMARK  status: ('A' for Active; 'I' for Inactive)
REMARK    1  A    between atoms: C3_3  and  C4_4 
REMARK    2  A    between atoms: C4_4  and  O2_6 
REMARK    3  A    between atoms: O2_6  and  C5_7 
REMARK    4  A    between atoms: C5_7  and  C6_8 
REMARK    5  A    between atoms: C6_8  and  C7_9 
REMARK    6  A    between atoms: C13_15  and  C14_16 
ROOT
HETATM    1  C1  UNL     1      -1.948  48.593 -12.592  1.00  0.00     0.069 C 
HETATM    2  C2  UNL     1      -0.765  49.241 -13.265  1.00  0.00     0.018 C 
HETATM    3  C3  UNL     1      -0.828  50.370 -14.009  1.00  0.00     0.052 C 
HETATM    4  C13 UNL     1       0.404  50.972 -14.678  1.00  0.00     0.104 C 
HETATM    5  C23 UNL     1       1.691  50.291 -14.209  1.00  0.00     0.024 C 
HETATM    6  C24 UNL     1       1.671  49.175 -13.450  1.00  0.00     0.020 C 
HETATM    7  C25 UNL     1       2.923  48.490 -12.958  1.00  0.00     0.058 C 
HETATM    8  C26 UNL     1       4.125  49.427 -12.941  1.00  0.00     0.014 C 
HETATM    9  C27 UNL     1       4.267  50.159 -14.264  1.00  0.00     0.084 C 
HETATM   10  C28 UNL     1       2.992  50.891 -14.620  1.00  0.00     0.158 C 
HETATM   11  O5  UNL     1       3.020  51.924 -15.288  1.00  0.00    -0.293 OA
HETATM   12  N1  UNL     1       0.462  48.627 -13.060  1.00  0.00    -0.362 N 
HETATM   13  H24 UNL     1       0.484  47.834 -12.422  1.00  0.00     0.165 HD
ENDROOT
BRANCH   4  14
HETATM   14  C14 UNL     1       0.257  50.915 -16.192  1.00  0.00     0.029 A 
HETATM   15  C15 UNL     1      -0.177  49.857 -16.896  1.00  0.00     0.154 A 
HETATM   16  O3  UNL     1      -0.296  49.766 -18.262  1.00  0.00    -0.321 OA
HETATM   17  C16 UNL     1       0.115  50.840 -19.008  1.00  0.00     0.089 A 
HETATM   18  C17 UNL     1       0.046  50.719 -20.396  1.00  0.00     0.040 A 
HETATM   19  C21 UNL     1       0.578  52.023 -18.433  1.00  0.00     0.050 A 
HETATM   20  C18 UNL     1       0.444  51.787 -21.205  1.00  0.00     0.026 A 
HETATM   21  C19 UNL     1       0.907  52.970 -20.623  1.00  0.00     0.035 A 
HETATM   22 CL1  UNL     1       1.391  54.281 -21.626  1.00  0.00    -0.084 Cl
HETATM   23  C20 UNL     1       0.976  53.096 -19.237  1.00  0.00     0.042 A 
HETATM   24  C22 UNL     1       0.625  52.128 -16.965  1.00  0.00     0.194 A 
HETATM   25  O4  UNL     1       0.926  53.185 -16.426  1.00  0.00    -0.287 OA
ENDBRANCH   4  14
BRANCH   3  26
HETATM   26  C4  UNL     1      -2.107  51.069 -14.227  1.00  0.00     0.292 C 
HETATM   27  O1  UNL     1      -2.943  50.724 -15.045  1.00  0.00    -0.259 OA
BRANCH  26  28
HETATM   28  O2  UNL     1      -2.174  52.126 -13.383  1.00  0.00    -0.317 OA
BRANCH  28  29
HETATM   29  C5  UNL     1      -2.834  51.857 -12.138  1.00  0.00     0.183 C 
BRANCH  29  30
HETATM   30  C6  UNL     1      -3.234  53.191 -11.512  1.00  0.00     0.065 C 
BRANCH  30  31
HETATM   31  C7  UNL     1      -2.374  53.543 -10.326  1.00  0.00    -0.056 A 
HETATM   32  C8  UNL     1      -1.590  54.706 -10.340  1.00  0.00     0.007 A 
HETATM   33  C9  UNL     1      -0.809  55.046  -9.235  1.00  0.00     0.001 A 
HETATM   34  C10 UNL     1      -0.804  54.227  -8.106  1.00  0.00     0.000 A 
HETATM   35  C11 UNL     1      -1.578  53.068  -8.084  1.00  0.00     0.001 A 
HETATM   36  C12 UNL     1      -2.362  52.727  -9.188  1.00  0.00     0.007 A 
ENDBRANCH  30  31
ENDBRANCH  29  30
ENDBRANCH  28  29
ENDBRANCH  26  28
ENDBRANCH   3  26
TORSDOF 6
ENDMDL
MODEL 8
REMARK minimizedAffinity -7.14252043
REMARK CNNscore 0.133891478
REMARK CNNaffinity 3.99780583
REMARK  6 active torsions:
REMARK  status: ('A' for Active; 'I' for Inactive)
REMARK    1  A    between atoms: C3_3  and  C4_4 
REMARK    2  A    between atoms: C4_4  and  O2_6 
REMARK    3  A    between atoms: O2_6  and  C5_7 
REMARK    4  A    between atoms: C5_7  and  C6_8 
REMARK    5  A    between atoms: C6_8  and  C7_9 
REMARK    6  A    between atoms: C13_15  and  C14_16 
ROOT
HETATM    1  C1  UNL     1     -17.921  42.905 -23.419  1.00  0.00     0.069 C 
HETATM    2  C2  UNL     1     -18.441  43.431 -22.105  1.00  0.00     0.018 C 
HETATM    3  C3  UNL     1     -18.682  44.736 -21.842  1.00  0.00     0.052 C 
HETATM    4  C13 UNL     1     -19.196  45.210 -20.486  1.00  0.00     0.104 C 
HETATM    5  C23 UNL     1     -19.612  44.036 -19.598  1.00  0.00     0.024 C 
HETATM    6  C24 UNL     1     -19.351  42.757 -19.940  1.00  0.00     0.020 C 
HETATM    7  C25 UNL     1     -19.764  41.577 -19.093  1.00  0.00     0.058 C 
HETATM    8  C26 UNL     1     -20.909  41.916 -18.146  1.00  0.00     0.014 C 
HETATM    9  C27 UNL     1     -20.621  43.194 -17.378  1.00  0.00     0.084 C 
HETATM   10  C28 UNL     1     -20.316  44.338 -18.319  1.00  0.00     0.158 C 
HETATM   11  O5  UNL     1     -20.581  45.500 -18.012  1.00  0.00    -0.293 OA
HETATM   12  N1  UNL     1     -18.709  42.478 -21.133  1.00  0.00    -0.362 N 
HETATM   13  H24 UNL     1     -18.602  41.501 -21.398  1.00  0.00     0.165 HD
ENDROOT
BRANCH   4  14
HETATM   14  C14 UNL     1     -18.152  46.087 -19.809  1.00  0.00     0.029 A 
HETATM   15  C15 UNL     1     -18.318  47.375 -19.466  1.00  0.00     0.154 A 
HETATM   16  O3  UNL     1     -17.389  48.199 -18.878  1.00  0.00    -0.321 OA
HETATM   17  C16 UNL     1     -16.137  47.688 -18.656  1.00  0.00     0.089 A 
HETATM   18  C17 UNL     1     -15.182  48.547 -18.113  1.00  0.00     0.040 A 
HETATM   19  C21 UNL     1     -15.803  46.365 -18.941  1.00  0.00     0.050 A 
HETATM   20  C18 UNL     1     -13.891  48.077 -17.857  1.00  0.00     0.026 A 
HETATM   21  C19 UNL     1     -13.563  46.749 -18.146  1.00  0.00     0.035 A 
HETATM   22 CL1  UNL     1     -11.972  46.176 -17.826  1.00  0.00    -0.084 Cl
HETATM   23  C20 UNL     1     -14.513  45.887 -18.688  1.00  0.00     0.042 A 
HETATM   24  C22 UNL     1     -16.835  45.476 -19.500  1.00  0.00     0.194 A 
HETATM   25  O4  UNL     1     -16.608  44.285 -19.665  1.00  0.00    -0.287 OA
ENDBRANCH   4  14
BRANCH   3  26
HETATM   26  C4  UNL     1     -18.438  45.776 -22.858  1.00  0.00     0.292 C 
HETATM   27  O1  UNL     1     -17.383  46.376 -22.981  1.00  0.00    -0.259 OA
BRANCH  26  28
HETATM   28  O2  UNL     1     -19.563  45.935 -23.595  1.00  0.00    -0.317 OA
BRANCH  28  29
HETATM   29  C5  UNL     1     -19.334  46.260 -24.974  1.00  0.00     0.183 C 
BRANCH  29  30
HETATM   30  C6  UNL     1     -19.812  45.087 -25.825  1.00  0.00     0.065 C 
BRANCH  30  31
HETATM   31  C7  UNL     1     -18.786  44.671 -26.848  1.00  0.00    -0.056 A 
HETATM   32  C8  UNL     1     -19.152  43.855 -27.928  1.00  0.00     0.007 A 
HETATM   33  C9  UNL     1     -18.208  43.486 -28.888  1.00  0.00     0.001 A 
HETATM   34  C10 UNL     1     -16.891  43.928 -28.776  1.00  0.00     0.000 A 
HETATM   35  C11 UNL     1     -16.516  44.737 -27.705  1.00  0.00     0.001 A 
HETATM   36  C12 UNL     1     -17.459  45.110 -26.745  1.00  0.00     0.007 A 
ENDBRANCH  30  31
ENDBRANCH  29  30
ENDBRANCH  28  29
ENDBRANCH  26  28
ENDBRANCH   3  26
TORSDOF 6
ENDMDL
MODEL 9
REMARK minimizedAffinity -7.53087854
REMARK CNNscore 0.133833244
REMARK CNNaffinity 5.69800615
REMARK  6 active torsions:
REMARK  status: ('A' for Active; 'I' for Inactive)
REMARK    1  A    between atoms: C3_3  and  C4_4 
REMARK    2  A    between atoms: C4_4  and  O2_6 
REMARK    3  A    between atoms: O2_6  and  C5_7 
REMARK    4  A    between atoms: C5_7  and  C6_8 
REMARK    5  A    between atoms: C6_8  and  C7_9 
REMARK    6  A    between atoms: C13_15  and  C14_16 
ROOT
HETATM    1  C1  UNL     1      -3.019  50.615 -16.164  1.00  0.00     0.069 C 
HETATM    2  C2  UNL     1      -2.873  49.823 -17.438  1.00  0.00     0.018 C 
HETATM    3  C3  UNL     1      -1.952  50.073 -18.397  1.00  0.00     0.052 C 
HETATM    4  C13 UNL     1      -1.862  49.244 -19.674  1.00  0.00     0.104 C 
HETATM    5  C23 UNL     1      -2.752  48.002 -19.605  1.00  0.00     0.024 C 
HETATM    6  C24 UNL     1      -3.637  47.814 -18.603  1.00  0.00     0.020 C 
HETATM    7  C25 UNL     1      -4.517  46.592 -18.498  1.00  0.00     0.058 C 
HETATM    8  C26 UNL     1      -3.961  45.410 -19.283  1.00  0.00     0.014 C 
HETATM    9  C27 UNL     1      -3.589  45.819 -20.697  1.00  0.00     0.084 C 
HETATM   10  C28 UNL     1      -2.629  46.988 -20.691  1.00  0.00     0.158 C 
HETATM   11  O5  UNL     1      -1.807  47.137 -21.594  1.00  0.00    -0.293 OA
HETATM   12  N1  UNL     1      -3.741  48.750 -17.590  1.00  0.00    -0.362 N 
HETATM   13  H24 UNL     1      -4.357  48.538 -16.808  1.00  0.00     0.165 HD
ENDROOT
BRANCH   4  14
HETATM   14  C14 UNL     1      -2.192  50.107 -20.884  1.00  0.00     0.029 A 
HETATM   15  C15 UNL     1      -3.424  50.486 -21.259  1.00  0.00     0.154 A 
HETATM   16  O3  UNL     1      -3.757  51.242 -22.358  1.00  0.00    -0.321 OA
HETATM   17  C16 UNL     1      -2.743  51.616 -23.202  1.00  0.00     0.089 A 
HETATM   18  C17 UNL     1      -3.094  52.332 -24.345  1.00  0.00     0.040 A 
HETATM   19  C21 UNL     1      -1.405  51.316 -22.951  1.00  0.00     0.050 A 
HETATM   20  C18 UNL     1      -2.100  52.746 -25.237  1.00  0.00     0.026 A 
HETATM   21  C19 UNL     1      -0.761  52.442 -24.979  1.00  0.00     0.035 A 
HETATM   22 CL1  UNL     1       0.457  52.958 -26.079  1.00  0.00    -0.084 Cl
HETATM   23  C20 UNL     1      -0.405  51.727 -23.837  1.00  0.00     0.042 A 
HETATM   24  C22 UNL     1      -1.061  50.571 -21.728  1.00  0.00     0.194 A 
HETATM   25  O4  UNL     1       0.108  50.380 -21.422  1.00  0.00    -0.287 OA
ENDBRANCH   4  14
BRANCH   3  26
HETATM   26  C4  UNL     1      -0.993  51.184 -18.261  1.00  0.00     0.292 C 
HETATM   27  O1  UNL     1      -1.219  52.329 -18.617  1.00  0.00    -0.259 OA
BRANCH  26  28
HETATM   28  O2  UNL     1       0.141  50.712 -17.692  1.00  0.00    -0.317 OA
BRANCH  28  29
HETATM   29  C5  UNL     1       0.964  51.713 -17.077  1.00  0.00     0.183 C 
BRANCH  29  30
HETATM   30  C6  UNL     1       0.731  51.662 -15.569  1.00  0.00     0.065 C 
BRANCH  30  31
HETATM   31  C7  UNL     1       1.672  50.708 -14.880  1.00  0.00    -0.056 A 
HETATM   32  C8  UNL     1       2.955  51.128 -14.501  1.00  0.00     0.007 A 
HETATM   33  C9  UNL     1       3.821  50.253 -13.844  1.00  0.00     0.001 A 
HETATM   34  C10 UNL     1       3.412  48.951 -13.559  1.00  0.00     0.000 A 
HETATM   35  C11 UNL     1       2.139  48.523 -13.933  1.00  0.00     0.001 A 
HETATM   36  C12 UNL     1       1.271  49.398 -14.589  1.00  0.00     0.007 A 
ENDBRANCH  30  31
ENDBRANCH  29  30
ENDBRANCH  28  29
ENDBRANCH  26  28
ENDBRANCH   3  26
TORSDOF 6
ENDMDL
