MODEL 1
REMARK minimizedAffinity -9.08348656
REMARK CNNscore 0.625998735
REMARK CNNaffinity 7.29604769
REMARK  11 active torsions:
REMARK  status: ('A' for Active; 'I' for Inactive)
REMARK    1  A    between atoms: O1_2  and  C2_3 
REMARK    2  A    between atoms: C2_3  and  C3_4 
REMARK    3  A    between atoms: C3_4  and  C4_5 
REMARK    4  A    between atoms: C4_5  and  O2_6 
REMARK    5  A    between atoms: O2_6  and  C5_7 
REMARK    6  A    between atoms: C20_23  and  C21_24 
REMARK    7  A    between atoms: C21_24  and  O4_26 
REMARK    8  A    between atoms: C21_24  and  C23_27 
REMARK    9  A    between atoms: C23_27  and  O5_28 
REMARK   10  A    between atoms: C23_27  and  C24_29 
REMARK   11  A    between atoms: C34_40  and  O7_41 
ROOT
HETATM    1  C5  UNL     1      -4.804   7.271  15.507  1.00  0.00     0.122 C 
HETATM    2  C6  UNL     1      -3.977   6.215  14.761  1.00  0.00     0.033 C 
HETATM    3  C7  UNL     1      -3.561   6.714  13.377  1.00  0.00     0.013 C 
HETATM    4  C8  UNL     1      -2.577   7.921  13.470  1.00  0.00    -0.026 C 
HETATM    5  C9  UNL     1      -2.770   8.750  12.172  1.00  0.00     0.016 C 
HETATM    6  C10 UNL     1      -2.984   8.869  14.652  1.00  0.00     0.071 C 
HETATM    7  C11 UNL     1      -4.457   8.698  15.057  1.00  0.00     0.045 C 
HETATM    8  C12 UNL     1      -2.076   8.836  15.874  1.00  0.00     0.161 C 
HETATM    9  O3  UNL     1      -2.501   8.916  17.026  1.00  0.00    -0.292 OA
HETATM   10  C13 UNL     1      -0.615   8.795  15.632  1.00  0.00    -0.006 C 
HETATM   11  C14 UNL     1      -0.201   8.123  14.543  1.00  0.00    -0.030 C 
HETATM   12  C15 UNL     1      -1.099   7.351  13.590  1.00  0.00     0.027 C 
HETATM   13  C16 UNL     1      -0.429   7.010  12.209  1.00  0.00     0.011 C 
HETATM   14  C17 UNL     1       1.092   6.725  12.231  1.00  0.00     0.014 C 
HETATM   15  C18 UNL     1       1.840   7.842  12.985  1.00  0.00    -0.002 C 
HETATM   16  C19 UNL     1       1.632   9.179  12.236  1.00  0.00     0.019 C 
HETATM   17  C20 UNL     1       3.352   7.571  13.351  1.00  0.00     0.034 C 
HETATM   18  C30 UNL     1       3.573   8.341  14.711  1.00  0.00     0.016 C 
HETATM   19  C31 UNL     1       2.175   8.842  15.122  1.00  0.00     0.026 C 
HETATM   20  C32 UNL     1       1.800   8.944  16.591  1.00  0.00     0.013 C 
HETATM   21  C33 UNL     1       0.307   9.355  16.705  1.00  0.00     0.043 C 
HETATM   22  C34 UNL     1       1.256   7.855  14.412  1.00  0.00     0.094 C 
ENDROOT
BRANCH  17  23
HETATM   23  C21 UNL     1       4.492   7.698  12.293  1.00  0.00     0.087 C 
HETATM   24  C22 UNL     1       5.879   7.254  12.801  1.00  0.00     0.049 C 
BRANCH  23  25
HETATM   25  O4  UNL     1       4.614   9.088  11.964  1.00  0.00    -0.387 OA
HETATM   26  H33 UNL     1       5.188   9.143  11.179  1.00  0.00     0.210 HD
ENDBRANCH  23  25
BRANCH  23  27
HETATM   27  C23 UNL     1       4.154   6.881  10.982  1.00  0.00     0.181 C 
BRANCH  27  28
HETATM   28  O5  UNL     1       5.382   6.668  10.247  1.00  0.00    -0.390 OA
HETATM   29  H35 UNL     1       5.399   7.379   9.571  1.00  0.00     0.210 HD
ENDBRANCH  27  28
BRANCH  27  30
HETATM   30  C24 UNL     1       3.154   7.545  10.004  1.00  0.00     0.157 C 
HETATM   31  O6  UNL     1       3.874   8.408   9.091  1.00  0.00    -0.382 OA
HETATM   32  C25 UNL     1       3.103   8.528   7.883  1.00  0.00     0.172 C 
HETATM   33  C26 UNL     1       1.929   7.553   7.971  1.00  0.00     0.012 C 
HETATM   34  C27 UNL     1       0.621   8.277   8.297  1.00  0.00     0.012 C 
HETATM   35  C28 UNL     1       2.354   6.601   9.090  1.00  0.00     0.019 C 
HETATM   36  C29 UNL     1       3.146   5.427   8.509  1.00  0.00     0.013 C 
ENDBRANCH  27  30
ENDBRANCH  23  27
ENDBRANCH  17  23
BRANCH  22  37
HETATM   37  O7  UNL     1       1.438   6.552  15.014  1.00  0.00    -0.384 OA
HETATM   38  H54 UNL     1       0.887   6.498  15.814  1.00  0.00     0.211 HD
ENDBRANCH  22  37
BRANCH   1  39
HETATM   39  O2  UNL     1      -6.182   6.987  15.228  1.00  0.00    -0.386 OA
BRANCH  39  40
HETATM   40  C4  UNL     1      -6.448   5.700  14.669  1.00  0.00     0.170 C 
BRANCH  40  41
HETATM   41  C3  UNL     1      -7.715   5.708  13.816  1.00  0.00     0.052 C 
BRANCH  41  42
HETATM   42  C2  UNL     1      -7.690   4.620  12.748  1.00  0.00     0.169 C 
BRANCH  42  43
HETATM   43  O1  UNL     1      -8.216   3.379  13.211  1.00  0.00    -0.396 OA
HETATM   44  C1  UNL     1      -7.491   2.249  12.742  1.00  0.00     0.201 C 
ENDBRANCH  42  43
ENDBRANCH  41  42
ENDBRANCH  40  41
ENDBRANCH  39  40
ENDBRANCH   1  39
TORSDOF 11
ENDMDL
MODEL 2
REMARK minimizedAffinity -7.26921463
REMARK CNNscore 0.576608181
REMARK CNNaffinity 6.43955564
REMARK  11 active torsions:
REMARK  status: ('A' for Active; 'I' for Inactive)
REMARK    1  A    between atoms: O1_2  and  C2_3 
REMARK    2  A    between atoms: C2_3  and  C3_4 
REMARK    3  A    between atoms: C3_4  and  C4_5 
REMARK    4  A    between atoms: C4_5  and  O2_6 
REMARK    5  A    between atoms: O2_6  and  C5_7 
REMARK    6  A    between atoms: C20_23  and  C21_24 
REMARK    7  A    between atoms: C21_24  and  O4_26 
REMARK    8  A    between atoms: C21_24  and  C23_27 
REMARK    9  A    between atoms: C23_27  and  O5_28 
REMARK   10  A    between atoms: C23_27  and  C24_29 
REMARK   11  A    between atoms: C34_40  and  O7_41 
ROOT
HETATM    1  C5  UNL     1       0.202  11.077  17.976  1.00  0.00     0.122 C 
HETATM    2  C6  UNL     1       1.569  11.452  17.387  1.00  0.00     0.033 C 
HETATM    3  C7  UNL     1       1.921  12.909  17.688  1.00  0.00     0.013 C 
HETATM    4  C8  UNL     1       2.125  13.148  19.216  1.00  0.00    -0.026 C 
HETATM    5  C9  UNL     1       1.781  14.639  19.480  1.00  0.00     0.016 C 
HETATM    6  C10 UNL     1       1.088  12.312  20.045  1.00  0.00     0.071 C 
HETATM    7  C11 UNL     1      -0.143  11.918  19.213  1.00  0.00     0.045 C 
HETATM    8  C12 UNL     1       1.649  11.109  20.792  1.00  0.00     0.161 C 
HETATM    9  O3  UNL     1       1.040  10.046  20.901  1.00  0.00    -0.292 OA
HETATM   10  C13 UNL     1       2.947  11.286  21.485  1.00  0.00    -0.006 C 
HETATM   11  C14 UNL     1       3.834  12.114  20.904  1.00  0.00    -0.030 C 
HETATM   12  C15 UNL     1       3.638  12.822  19.574  1.00  0.00     0.027 C 
HETATM   13  C16 UNL     1       4.627  14.020  19.330  1.00  0.00     0.011 C 
HETATM   14  C17 UNL     1       6.051  13.870  19.919  1.00  0.00     0.014 C 
HETATM   15  C18 UNL     1       5.982  13.459  21.403  1.00  0.00    -0.002 C 
HETATM   16  C19 UNL     1       5.269  14.576  22.200  1.00  0.00     0.019 C 
HETATM   17  C20 UNL     1       7.328  12.986  22.078  1.00  0.00     0.034 C 
HETATM   18  C30 UNL     1       6.879  11.909  23.141  1.00  0.00     0.016 C 
HETATM   19  C31 UNL     1       5.371  11.705  22.897  1.00  0.00     0.026 C 
HETATM   20  C32 UNL     1       4.735  10.344  23.124  1.00  0.00     0.013 C 
HETATM   21  C33 UNL     1       3.248  10.401  22.684  1.00  0.00     0.043 C 
HETATM   22  C34 UNL     1       5.222  12.118  21.436  1.00  0.00     0.094 C 
ENDROOT
BRANCH  17  23
HETATM   23  C21 UNL     1       8.419  14.000  22.543  1.00  0.00     0.087 C 
HETATM   24  C22 UNL     1       9.503  14.293  21.485  1.00  0.00     0.049 C 
BRANCH  23  25
HETATM   25  O4  UNL     1       9.100  13.412  23.659  1.00  0.00    -0.387 OA
HETATM   26  H33 UNL     1       9.645  14.113  24.060  1.00  0.00     0.210 HD
ENDBRANCH  23  25
BRANCH  23  27
HETATM   27  C23 UNL     1       7.775  15.372  22.992  1.00  0.00     0.181 C 
BRANCH  27  28
HETATM   28  O5  UNL     1       8.175  16.396  22.052  1.00  0.00    -0.390 OA
HETATM   29  H35 UNL     1       8.944  16.838  22.470  1.00  0.00     0.210 HD
ENDBRANCH  27  28
BRANCH  27  30
HETATM   30  C24 UNL     1       8.165  15.880  24.402  1.00  0.00     0.157 C 
HETATM   31  O6  UNL     1       9.454  16.536  24.337  1.00  0.00    -0.382 OA
HETATM   32  C25 UNL     1       9.531  17.484  25.416  1.00  0.00     0.172 C 
HETATM   33  C26 UNL     1       8.159  17.554  26.085  1.00  0.00     0.012 C 
HETATM   34  C27 UNL     1       8.139  16.787  27.410  1.00  0.00     0.012 C 
HETATM   35  C28 UNL     1       7.234  16.923  25.042  1.00  0.00     0.019 C 
HETATM   36  C29 UNL     1       6.706  17.999  24.090  1.00  0.00     0.013 C 
ENDBRANCH  27  30
ENDBRANCH  23  27
ENDBRANCH  17  23
BRANCH  22  37
HETATM   37  O7  UNL     1       5.923  11.152  20.618  1.00  0.00    -0.384 OA
HETATM   38  H54 UNL     1       5.340  10.389  20.467  1.00  0.00     0.211 HD
ENDBRANCH  22  37
BRANCH   1  39
HETATM   39  O2  UNL     1      -0.768  11.298  16.942  1.00  0.00    -0.386 OA
BRANCH  39  40
HETATM   40  C4  UNL     1      -0.339  10.987  15.615  1.00  0.00     0.170 C 
BRANCH  40  41
HETATM   41  C3  UNL     1      -1.458  11.201  14.599  1.00  0.00     0.052 C 
BRANCH  41  42
HETATM   42  C2  UNL     1      -2.340   9.965  14.455  1.00  0.00     0.169 C 
BRANCH  42  43
HETATM   43  O1  UNL     1      -3.467   9.986  15.328  1.00  0.00    -0.396 OA
HETATM   44  C1  UNL     1      -4.579   9.251  14.831  1.00  0.00     0.201 C 
ENDBRANCH  42  43
ENDBRANCH  41  42
ENDBRANCH  40  41
ENDBRANCH  39  40
ENDBRANCH   1  39
TORSDOF 11
ENDMDL
MODEL 3
REMARK minimizedAffinity -7.88249588
REMARK CNNscore 0.513221264
REMARK CNNaffinity 6.93527842
REMARK  11 active torsions:
REMARK  status: ('A' for Active; 'I' for Inactive)
REMARK    1  A    between atoms: O1_2  and  C2_3 
REMARK    2  A    between atoms: C2_3  and  C3_4 
REMARK    3  A    between atoms: C3_4  and  C4_5 
REMARK    4  A    between atoms: C4_5  and  O2_6 
REMARK    5  A    between atoms: O2_6  and  C5_7 
REMARK    6  A    between atoms: C20_23  and  C21_24 
REMARK    7  A    between atoms: C21_24  and  O4_26 
REMARK    8  A    between atoms: C21_24  and  C23_27 
REMARK    9  A    between atoms: C23_27  and  O5_28 
REMARK   10  A    between atoms: C23_27  and  C24_29 
REMARK   11  A    between atoms: C34_40  and  O7_41 
ROOT
HETATM    1  C5  UNL     1      -4.775   7.139  14.024  1.00  0.00     0.122 C 
HETATM    2  C6  UNL     1      -3.641   6.106  13.990  1.00  0.00     0.033 C 
HETATM    3  C7  UNL     1      -2.677   6.379  12.836  1.00  0.00     0.013 C 
HETATM    4  C8  UNL     1      -1.913   7.726  13.029  1.00  0.00    -0.026 C 
HETATM    5  C9  UNL     1      -1.549   8.236  11.608  1.00  0.00     0.016 C 
HETATM    6  C10 UNL     1      -2.863   8.811  13.647  1.00  0.00     0.071 C 
HETATM    7  C11 UNL     1      -4.348   8.485  13.420  1.00  0.00     0.045 C 
HETATM    8  C12 UNL     1      -2.602   9.172  15.103  1.00  0.00     0.161 C 
HETATM    9  O3  UNL     1      -3.503   9.409  15.906  1.00  0.00    -0.292 OA
HETATM   10  C13 UNL     1      -1.188   9.325  15.520  1.00  0.00    -0.006 C 
HETATM   11  C14 UNL     1      -0.290   8.525  14.917  1.00  0.00    -0.030 C 
HETATM   12  C15 UNL     1      -0.616   7.443  13.902  1.00  0.00     0.027 C 
HETATM   13  C16 UNL     1       0.622   6.947  13.069  1.00  0.00     0.011 C 
HETATM   14  C17 UNL     1       1.984   6.927  13.803  1.00  0.00     0.014 C 
HETATM   15  C18 UNL     1       2.246   8.279  14.494  1.00  0.00    -0.002 C 
HETATM   16  C19 UNL     1       2.320   9.386  13.418  1.00  0.00     0.019 C 
HETATM   17  C20 UNL     1       3.445   8.338  15.520  1.00  0.00     0.034 C 
HETATM   18  C30 UNL     1       2.985   9.390  16.604  1.00  0.00     0.016 C 
HETATM   19  C31 UNL     1       1.525   9.727  16.245  1.00  0.00     0.026 C 
HETATM   20  C32 UNL     1       0.524  10.057  17.339  1.00  0.00     0.013 C 
HETATM   21  C33 UNL     1      -0.881  10.231  16.703  1.00  0.00     0.043 C 
HETATM   22  C34 UNL     1       1.083   8.480  15.486  1.00  0.00     0.094 C 
ENDROOT
BRANCH  17  23
HETATM   23  C21 UNL     1       4.929   8.437  15.050  1.00  0.00     0.087 C 
HETATM   24  C22 UNL     1       5.132   8.195  13.540  1.00  0.00     0.049 C 
BRANCH  23  25
HETATM   25  O4  UNL     1       5.660   7.402  15.721  1.00  0.00    -0.387 OA
HETATM   26  H33 UNL     1       6.605   7.581  15.573  1.00  0.00     0.210 HD
ENDBRANCH  23  25
BRANCH  23  27
HETATM   27  C23 UNL     1       5.557   9.840  15.420  1.00  0.00     0.181 C 
BRANCH  27  28
HETATM   28  O5  UNL     1       5.593  10.655  14.226  1.00  0.00    -0.390 OA
HETATM   29  H35 UNL     1       6.504  10.554  13.876  1.00  0.00     0.210 HD
ENDBRANCH  27  28
BRANCH  27  30
HETATM   30  C24 UNL     1       6.997   9.814  15.989  1.00  0.00     0.157 C 
HETATM   31  O6  UNL     1       7.277   8.500  16.530  1.00  0.00    -0.382 OA
HETATM   32  C25 UNL     1       8.700   8.292  16.493  1.00  0.00     0.172 C 
HETATM   33  C26 UNL     1       9.329   9.457  15.730  1.00  0.00     0.012 C 
HETATM   34  C27 UNL     1       9.994  10.457  16.680  1.00  0.00     0.012 C 
HETATM   35  C28 UNL     1       8.139  10.070  14.991  1.00  0.00     0.019 C 
HETATM   36  C29 UNL     1       7.971   9.405  13.622  1.00  0.00     0.013 C 
ENDBRANCH  27  30
ENDBRANCH  23  27
ENDBRANCH  17  23
BRANCH  22  37
HETATM   37  O7  UNL     1       1.051   7.371  16.416  1.00  0.00    -0.384 OA
HETATM   38  H54 UNL     1       0.203   7.388  16.892  1.00  0.00     0.211 HD
ENDBRANCH  22  37
BRANCH   1  39
HETATM   39  O2  UNL     1      -5.862   6.583  13.270  1.00  0.00    -0.386 OA
BRANCH  39  40
HETATM   40  C4  UNL     1      -7.165   6.792  13.819  1.00  0.00     0.170 C 
BRANCH  40  41
HETATM   41  C3  UNL     1      -7.901   5.471  14.037  1.00  0.00     0.052 C 
BRANCH  41  42
HETATM   42  C2  UNL     1      -7.235   4.319  13.293  1.00  0.00     0.169 C 
BRANCH  42  43
HETATM   43  O1  UNL     1      -8.061   3.160  13.217  1.00  0.00    -0.396 OA
HETATM   44  C1  UNL     1      -7.426   2.054  12.587  1.00  0.00     0.201 C 
ENDBRANCH  42  43
ENDBRANCH  41  42
ENDBRANCH  40  41
ENDBRANCH  39  40
ENDBRANCH   1  39
TORSDOF 11
ENDMDL
MODEL 4
REMARK minimizedAffinity -8.85107899
REMARK CNNscore 0.470178008
REMARK CNNaffinity 7.12311411
REMARK  11 active torsions:
REMARK  status: ('A' for Active; 'I' for Inactive)
REMARK    1  A    between atoms: O1_2  and  C2_3 
REMARK    2  A    between atoms: C2_3  and  C3_4 
REMARK    3  A    between atoms: C3_4  and  C4_5 
REMARK    4  A    between atoms: C4_5  and  O2_6 
REMARK    5  A    between atoms: O2_6  and  C5_7 
REMARK    6  A    between atoms: C20_23  and  C21_24 
REMARK    7  A    between atoms: C21_24  and  O4_26 
REMARK    8  A    between atoms: C21_24  and  C23_27 
REMARK    9  A    between atoms: C23_27  and  O5_28 
REMARK   10  A    between atoms: C23_27  and  C24_29 
REMARK   11  A    between atoms: C34_40  and  O7_41 
ROOT
HETATM    1  C5  UNL     1       2.717   6.729  11.722  1.00  0.00     0.122 C 
HETATM    2  C6  UNL     1       2.210   7.323  13.043  1.00  0.00     0.033 C 
HETATM    3  C7  UNL     1       1.201   8.444  12.795  1.00  0.00     0.013 C 
HETATM    4  C8  UNL     1      -0.106   7.907  12.133  1.00  0.00    -0.026 C 
HETATM    5  C9  UNL     1      -0.708   9.086  11.321  1.00  0.00     0.016 C 
HETATM    6  C10 UNL     1       0.230   6.788  11.085  1.00  0.00     0.071 C 
HETATM    7  C11 UNL     1       1.685   6.867  10.594  1.00  0.00     0.045 C 
HETATM    8  C12 UNL     1      -0.132   5.366  11.491  1.00  0.00     0.161 C 
HETATM    9  O3  UNL     1       0.570   4.393  11.219  1.00  0.00    -0.292 OA
HETATM   10  C13 UNL     1      -1.435   5.165  12.166  1.00  0.00    -0.006 C 
HETATM   11  C14 UNL     1      -1.861   6.157  12.967  1.00  0.00    -0.030 C 
HETATM   12  C15 UNL     1      -1.087   7.426  13.286  1.00  0.00     0.027 C 
HETATM   13  C16 UNL     1      -1.963   8.576  13.905  1.00  0.00     0.011 C 
HETATM   14  C17 UNL     1      -3.131   8.138  14.821  1.00  0.00     0.014 C 
HETATM   15  C18 UNL     1      -3.986   7.058  14.129  1.00  0.00    -0.002 C 
HETATM   16  C19 UNL     1      -4.606   7.657  12.845  1.00  0.00     0.019 C 
HETATM   17  C20 UNL     1      -5.039   6.297  15.024  1.00  0.00     0.034 C 
HETATM   18  C30 UNL     1      -5.105   4.845  14.407  1.00  0.00     0.016 C 
HETATM   19  C31 UNL     1      -3.992   4.808  13.342  1.00  0.00     0.026 C 
HETATM   20  C32 UNL     1      -3.239   3.518  13.066  1.00  0.00     0.013 C 
HETATM   21  C33 UNL     1      -2.104   3.803  12.047  1.00  0.00     0.043 C 
HETATM   22  C34 UNL     1      -3.031   5.881  13.843  1.00  0.00     0.094 C 
ENDROOT
BRANCH  17  23
HETATM   23  C21 UNL     1      -6.404   6.940  15.420  1.00  0.00     0.087 C 
HETATM   24  C22 UNL     1      -6.468   8.468  15.214  1.00  0.00     0.049 C 
BRANCH  23  25
HETATM   25  O4  UNL     1      -6.589   6.720  16.825  1.00  0.00    -0.387 OA
HETATM   26  H33 UNL     1      -7.512   6.953  17.029  1.00  0.00     0.210 HD
ENDBRANCH  23  25
BRANCH  23  27
HETATM   27  C23 UNL     1      -7.603   6.279  14.629  1.00  0.00     0.181 C 
BRANCH  27  28
HETATM   28  O5  UNL     1      -8.568   5.787  15.588  1.00  0.00    -0.390 OA
HETATM   29  H35 UNL     1      -8.360   4.834  15.691  1.00  0.00     0.210 HD
ENDBRANCH  27  28
BRANCH  27  30
HETATM   30  C24 UNL     1      -7.238   5.088  13.708  1.00  0.00     0.157 C 
HETATM   31  O6  UNL     1      -7.956   3.908  14.140  1.00  0.00    -0.382 OA
HETATM   32  C25 UNL     1      -8.100   3.030  13.010  1.00  0.00     0.172 C 
HETATM   33  C26 UNL     1      -7.606   3.771  11.769  1.00  0.00     0.012 C 
HETATM   34  C27 UNL     1      -6.216   3.290  11.344  1.00  0.00     0.012 C 
HETATM   35  C28 UNL     1      -7.595   5.232  12.219  1.00  0.00     0.019 C 
HETATM   36  C29 UNL     1      -8.953   5.880  11.933  1.00  0.00     0.013 C 
ENDBRANCH  27  30
ENDBRANCH  23  27
ENDBRANCH  17  23
BRANCH  22  37
HETATM   37  O7  UNL     1      -2.450   5.425  15.087  1.00  0.00    -0.384 OA
HETATM   38  H54 UNL     1      -1.700   4.840  14.885  1.00  0.00     0.211 HD
ENDBRANCH  22  37
BRANCH   1  39
HETATM   39  O2  UNL     1       3.916   7.440  11.383  1.00  0.00    -0.386 OA
BRANCH  39  40
HETATM   40  C4  UNL     1       4.738   7.828  12.487  1.00  0.00     0.170 C 
BRANCH  40  41
HETATM   41  C3  UNL     1       6.209   7.511  12.230  1.00  0.00     0.052 C 
BRANCH  41  42
HETATM   42  C2  UNL     1       7.098   7.956  13.386  1.00  0.00     0.169 C 
BRANCH  42  43
HETATM   43  O1  UNL     1       8.371   8.428  12.954  1.00  0.00    -0.396 OA
HETATM   44  C1  UNL     1       9.452   7.930  13.733  1.00  0.00     0.201 C 
ENDBRANCH  42  43
ENDBRANCH  41  42
ENDBRANCH  40  41
ENDBRANCH  39  40
ENDBRANCH   1  39
TORSDOF 11
ENDMDL
MODEL 5
REMARK minimizedAffinity -9.60531139
REMARK CNNscore 0.462296546
REMARK CNNaffinity 7.46734619
REMARK  11 active torsions:
REMARK  status: ('A' for Active; 'I' for Inactive)
REMARK    1  A    between atoms: O1_2  and  C2_3 
REMARK    2  A    between atoms: C2_3  and  C3_4 
REMARK    3  A    between atoms: C3_4  and  C4_5 
REMARK    4  A    between atoms: C4_5  and  O2_6 
REMARK    5  A    between atoms: O2_6  and  C5_7 
REMARK    6  A    between atoms: C20_23  and  C21_24 
REMARK    7  A    between atoms: C21_24  and  O4_26 
REMARK    8  A    between atoms: C21_24  and  C23_27 
REMARK    9  A    between atoms: C23_27  and  O5_28 
REMARK   10  A    between atoms: C23_27  and  C24_29 
REMARK   11  A    between atoms: C34_40  and  O7_41 
ROOT
HETATM    1  C5  UNL     1       1.753   6.323  12.067  1.00  0.00     0.122 C 
HETATM    2  C6  UNL     1       1.278   6.512  13.514  1.00  0.00     0.033 C 
HETATM    3  C7  UNL     1       0.414   7.766  13.654  1.00  0.00     0.013 C 
HETATM    4  C8  UNL     1      -0.924   7.635  12.864  1.00  0.00    -0.026 C 
HETATM    5  C9  UNL     1      -1.359   9.077  12.487  1.00  0.00     0.016 C 
HETATM    6  C10 UNL     1      -0.689   6.886  11.506  1.00  0.00     0.071 C 
HETATM    7  C11 UNL     1       0.779   6.944  11.054  1.00  0.00     0.045 C 
HETATM    8  C12 UNL     1      -1.227   5.463  11.429  1.00  0.00     0.161 C 
HETATM    9  O3  UNL     1      -0.636   4.555  10.847  1.00  0.00    -0.292 OA
HETATM   10  C13 UNL     1      -2.566   5.212  12.012  1.00  0.00    -0.006 C 
HETATM   11  C14 UNL     1      -2.897   5.935  13.097  1.00  0.00    -0.030 C 
HETATM   12  C15 UNL     1      -1.991   6.928  13.806  1.00  0.00     0.027 C 
HETATM   13  C16 UNL     1      -2.745   7.911  14.773  1.00  0.00     0.011 C 
HETATM   14  C17 UNL     1      -3.984   7.343  15.507  1.00  0.00     0.014 C 
HETATM   15  C18 UNL     1      -4.937   6.658  14.507  1.00  0.00    -0.002 C 
HETATM   16  C19 UNL     1      -5.443   7.712  13.495  1.00  0.00     0.019 C 
HETATM   17  C20 UNL     1      -6.100   5.780  15.114  1.00  0.00     0.034 C 
HETATM   18  C30 UNL     1      -6.316   4.628  14.058  1.00  0.00     0.016 C 
HETATM   19  C31 UNL     1      -5.182   4.804  13.030  1.00  0.00     0.026 C 
HETATM   20  C32 UNL     1      -4.576   3.593  12.341  1.00  0.00     0.013 C 
HETATM   21  C33 UNL     1      -3.384   4.055  11.461  1.00  0.00     0.043 C 
HETATM   22  C34 UNL     1      -4.118   5.532  13.845  1.00  0.00     0.094 C 
ENDROOT
BRANCH  17  23
HETATM   23  C21 UNL     1      -7.392   6.420  15.710  1.00  0.00     0.087 C 
HETATM   24  C22 UNL     1      -7.176   7.152  17.051  1.00  0.00     0.049 C 
BRANCH  23  25
HETATM   25  O4  UNL     1      -8.311   5.353  15.982  1.00  0.00    -0.387 OA
HETATM   26  H33 UNL     1      -9.173   5.763  16.175  1.00  0.00     0.210 HD
ENDBRANCH  23  25
BRANCH  23  27
HETATM   27  C23 UNL     1      -8.057   7.430  14.691  1.00  0.00     0.181 C 
BRANCH  27  28
HETATM   28  O5  UNL     1      -7.722   8.777  15.097  1.00  0.00    -0.390 OA
HETATM   29  H35 UNL     1      -8.497   9.086  15.614  1.00  0.00     0.210 HD
ENDBRANCH  27  28
BRANCH  27  30
HETATM   30  C24 UNL     1      -9.600   7.365  14.575  1.00  0.00     0.157 C 
HETATM   31  O6  UNL     1     -10.115   8.684  14.272  1.00  0.00    -0.382 OA
HETATM   32  C25 UNL     1     -11.375   8.530  13.596  1.00  0.00     0.172 C 
HETATM   33  C26 UNL     1     -11.577   7.044  13.302  1.00  0.00     0.012 C 
HETATM   34  C27 UNL     1     -12.577   6.410  14.272  1.00  0.00     0.012 C 
HETATM   35  C28 UNL     1     -10.171   6.465  13.466  1.00  0.00     0.019 C 
HETATM   36  C29 UNL     1      -9.423   6.517  12.131  1.00  0.00     0.013 C 
ENDBRANCH  27  30
ENDBRANCH  23  27
ENDBRANCH  17  23
BRANCH  22  37
HETATM   37  O7  UNL     1      -3.634   4.630  14.867  1.00  0.00    -0.384 OA
HETATM   38  H54 UNL     1      -2.951   4.057  14.478  1.00  0.00     0.211 HD
ENDBRANCH  22  37
BRANCH   1  39
HETATM   39  O2  UNL     1       3.037   6.955  11.968  1.00  0.00    -0.386 OA
BRANCH  39  40
HETATM   40  C4  UNL     1       3.956   6.347  11.058  1.00  0.00     0.170 C 
BRANCH  40  41
HETATM   41  C3  UNL     1       3.622   6.693   9.609  1.00  0.00     0.052 C 
BRANCH  41  42
HETATM   42  C2  UNL     1       3.226   5.458   8.806  1.00  0.00     0.169 C 
BRANCH  42  43
HETATM   43  O1  UNL     1       2.610   5.782   7.562  1.00  0.00    -0.396 OA
HETATM   44  C1  UNL     1       2.080   7.102   7.521  1.00  0.00     0.201 C 
ENDBRANCH  42  43
ENDBRANCH  41  42
ENDBRANCH  40  41
ENDBRANCH  39  40
ENDBRANCH   1  39
TORSDOF 11
ENDMDL
MODEL 6
REMARK minimizedAffinity -8.61131001
REMARK CNNscore 0.45144248
REMARK CNNaffinity 6.95889664
REMARK  11 active torsions:
REMARK  status: ('A' for Active; 'I' for Inactive)
REMARK    1  A    between atoms: O1_2  and  C2_3 
REMARK    2  A    between atoms: C2_3  and  C3_4 
REMARK    3  A    between atoms: C3_4  and  C4_5 
REMARK    4  A    between atoms: C4_5  and  O2_6 
REMARK    5  A    between atoms: O2_6  and  C5_7 
REMARK    6  A    between atoms: C20_23  and  C21_24 
REMARK    7  A    between atoms: C21_24  and  O4_26 
REMARK    8  A    between atoms: C21_24  and  C23_27 
REMARK    9  A    between atoms: C23_27  and  O5_28 
REMARK   10  A    between atoms: C23_27  and  C24_29 
REMARK   11  A    between atoms: C34_40  and  O7_41 
ROOT
HETATM    1  C5  UNL     1      -5.494   6.676  13.439  1.00  0.00     0.122 C 
HETATM    2  C6  UNL     1      -4.792   8.008  13.140  1.00  0.00     0.033 C 
HETATM    3  C7  UNL     1      -3.954   8.471  14.331  1.00  0.00     0.013 C 
HETATM    4  C8  UNL     1      -2.760   7.506  14.608  1.00  0.00    -0.026 C 
HETATM    5  C9  UNL     1      -2.436   7.624  16.121  1.00  0.00     0.016 C 
HETATM    6  C10 UNL     1      -3.195   6.016  14.375  1.00  0.00     0.071 C 
HETATM    7  C11 UNL     1      -4.719   5.833  14.462  1.00  0.00     0.045 C 
HETATM    8  C12 UNL     1      -2.637   5.347  13.126  1.00  0.00     0.161 C 
HETATM    9  O3  UNL     1      -3.290   4.565  12.437  1.00  0.00    -0.292 OA
HETATM   10  C13 UNL     1      -1.213   5.600  12.801  1.00  0.00    -0.006 C 
HETATM   11  C14 UNL     1      -0.728   6.814  13.114  1.00  0.00    -0.030 C 
HETATM   12  C15 UNL     1      -1.533   7.959  13.706  1.00  0.00     0.027 C 
HETATM   13  C16 UNL     1      -0.658   9.101  14.342  1.00  0.00     0.011 C 
HETATM   14  C17 UNL     1       0.701   9.390  13.659  1.00  0.00     0.014 C 
HETATM   15  C18 UNL     1       1.495   8.083  13.462  1.00  0.00    -0.002 C 
HETATM   16  C19 UNL     1       1.797   7.466  14.847  1.00  0.00     0.019 C 
HETATM   17  C20 UNL     1       2.767   8.153  12.530  1.00  0.00     0.034 C 
HETATM   18  C30 UNL     1       2.839   6.729  11.853  1.00  0.00     0.016 C 
HETATM   19  C31 UNL     1       1.546   6.011  12.286  1.00  0.00     0.026 C 
HETATM   20  C32 UNL     1       0.870   5.021  11.352  1.00  0.00     0.013 C 
HETATM   21  C33 UNL     1      -0.464   4.552  11.992  1.00  0.00     0.043 C 
HETATM   22  C34 UNL     1       0.611   7.180  12.579  1.00  0.00     0.094 C 
ENDROOT
BRANCH  17  23
HETATM   23  C21 UNL     1       4.121   8.750  13.024  1.00  0.00     0.087 C 
HETATM   24  C22 UNL     1       3.983   9.754  14.188  1.00  0.00     0.049 C 
BRANCH  23  25
HETATM   25  O4  UNL     1       4.689   9.483  11.931  1.00  0.00    -0.387 OA
HETATM   26  H33 UNL     1       5.607   9.694  12.178  1.00  0.00     0.210 HD
ENDBRANCH  23  25
BRANCH  23  27
HETATM   27  C23 UNL     1       5.126   7.611  13.463  1.00  0.00     0.181 C 
BRANCH  27  28
HETATM   28  O5  UNL     1       4.869   7.283  14.849  1.00  0.00    -0.390 OA
HETATM   29  H35 UNL     1       5.530   7.799  15.358  1.00  0.00     0.210 HD
ENDBRANCH  27  28
BRANCH  27  30
HETATM   30  C24 UNL     1       6.632   7.951  13.353  1.00  0.00     0.157 C 
HETATM   31  O6  UNL     1       6.790   9.240  12.714  1.00  0.00    -0.382 OA
HETATM   32  C25 UNL     1       8.043   9.803  13.140  1.00  0.00     0.172 C 
HETATM   33  C26 UNL     1       8.618   8.907  14.235  1.00  0.00     0.012 C 
HETATM   34  C27 UNL     1       9.753   8.028  13.704  1.00  0.00     0.012 C 
HETATM   35  C28 UNL     1       7.409   8.079  14.675  1.00  0.00     0.019 C 
HETATM   36  C29 UNL     1       6.664   8.797  15.803  1.00  0.00     0.013 C 
ENDBRANCH  27  30
ENDBRANCH  23  27
ENDBRANCH  17  23
BRANCH  22  37
HETATM   37  O7  UNL     1       0.328   7.858  11.333  1.00  0.00    -0.384 OA
HETATM   38  H54 UNL     1      -0.393   7.389  10.880  1.00  0.00     0.211 HD
ENDBRANCH  22  37
BRANCH   1  39
HETATM   39  O2  UNL     1      -6.794   7.001  13.950  1.00  0.00    -0.386 OA
BRANCH  39  40
HETATM   40  C4  UNL     1      -7.886   6.294  13.357  1.00  0.00     0.170 C 
BRANCH  40  41
HETATM   41  C3  UNL     1      -7.432   4.968  12.750  1.00  0.00     0.052 C 
BRANCH  41  42
HETATM   42  C2  UNL     1      -7.783   3.783  13.642  1.00  0.00     0.169 C 
BRANCH  42  43
HETATM   43  O1  UNL     1      -8.132   2.617  12.900  1.00  0.00    -0.396 OA
HETATM   44  C1  UNL     1      -7.023   2.009  12.249  1.00  0.00     0.201 C 
ENDBRANCH  42  43
ENDBRANCH  41  42
ENDBRANCH  40  41
ENDBRANCH  39  40
ENDBRANCH   1  39
TORSDOF 11
ENDMDL
MODEL 7
REMARK minimizedAffinity -6.75138521
REMARK CNNscore 0.439408511
REMARK CNNaffinity 6.82346916
REMARK  11 active torsions:
REMARK  status: ('A' for Active; 'I' for Inactive)
REMARK    1  A    between atoms: O1_2  and  C2_3 
REMARK    2  A    between atoms: C2_3  and  C3_4 
REMARK    3  A    between atoms: C3_4  and  C4_5 
REMARK    4  A    between atoms: C4_5  and  O2_6 
REMARK    5  A    between atoms: O2_6  and  C5_7 
REMARK    6  A    between atoms: C20_23  and  C21_24 
REMARK    7  A    between atoms: C21_24  and  O4_26 
REMARK    8  A    between atoms: C21_24  and  C23_27 
REMARK    9  A    between atoms: C23_27  and  O5_28 
REMARK   10  A    between atoms: C23_27  and  C24_29 
REMARK   11  A    between atoms: C34_40  and  O7_41 
ROOT
HETATM    1  C5  UNL     1      -2.609 -11.825   1.837  1.00  0.00     0.122 C 
HETATM    2  C6  UNL     1      -2.870 -12.587   3.144  1.00  0.00     0.033 C 
HETATM    3  C7  UNL     1      -2.472 -11.752   4.361  1.00  0.00     0.013 C 
HETATM    4  C8  UNL     1      -3.372 -10.488   4.512  1.00  0.00    -0.026 C 
HETATM    5  C9  UNL     1      -2.519  -9.423   5.253  1.00  0.00     0.016 C 
HETATM    6  C10 UNL     1      -3.700  -9.876   3.105  1.00  0.00     0.071 C 
HETATM    7  C11 UNL     1      -2.685 -10.304   2.032  1.00  0.00     0.045 C 
HETATM    8  C12 UNL     1      -5.127 -10.069   2.611  1.00  0.00     0.161 C 
HETATM    9  O3  UNL     1      -5.404 -10.294   1.434  1.00  0.00    -0.292 OA
HETATM   10  C13 UNL     1      -6.216  -9.883   3.599  1.00  0.00    -0.006 C 
HETATM   11  C14 UNL     1      -5.952 -10.248   4.866  1.00  0.00    -0.030 C 
HETATM   12  C15 UNL     1      -4.662 -10.891   5.347  1.00  0.00     0.027 C 
HETATM   13  C16 UNL     1      -4.459 -10.841   6.905  1.00  0.00     0.011 C 
HETATM   14  C17 UNL     1      -5.738 -10.943   7.772  1.00  0.00     0.014 C 
HETATM   15  C18 UNL     1      -6.801  -9.937   7.286  1.00  0.00    -0.002 C 
HETATM   16  C19 UNL     1      -6.247  -8.504   7.449  1.00  0.00     0.019 C 
HETATM   17  C20 UNL     1      -8.260 -10.103   7.867  1.00  0.00     0.034 C 
HETATM   18  C30 UNL     1      -9.206  -9.629   6.695  1.00  0.00     0.016 C 
HETATM   19  C31 UNL     1      -8.273  -9.397   5.491  1.00  0.00     0.026 C 
HETATM   20  C32 UNL     1      -8.765  -9.664   4.079  1.00  0.00     0.013 C 
HETATM   21  C33 UNL     1      -7.587  -9.468   3.087  1.00  0.00     0.043 C 
HETATM   22  C34 UNL     1      -7.093 -10.307   5.818  1.00  0.00     0.094 C 
ENDROOT
BRANCH  17  23
HETATM   23  C21 UNL     1      -8.638  -9.614   9.299  1.00  0.00     0.087 C 
HETATM   24  C22 UNL     1      -9.561  -8.378   9.323  1.00  0.00     0.049 C 
BRANCH  23  25
HETATM   25  O4  UNL     1      -7.423  -9.216   9.948  1.00  0.00    -0.387 OA
HETATM   26  H33 UNL     1      -7.634  -9.090  10.891  1.00  0.00     0.210 HD
ENDBRANCH  23  25
BRANCH  23  27
HETATM   27  C23 UNL     1      -9.322 -10.766  10.138  1.00  0.00     0.181 C 
BRANCH  27  28
HETATM   28  O5  UNL     1     -10.302 -10.170  11.019  1.00  0.00    -0.390 OA
HETATM   29  H35 UNL     1      -9.844 -10.074  11.881  1.00  0.00     0.210 HD
ENDBRANCH  27  28
BRANCH  27  30
HETATM   30  C24 UNL     1      -8.379 -11.616  11.024  1.00  0.00     0.157 C 
HETATM   31  O6  UNL     1      -7.010 -11.421  10.597  1.00  0.00    -0.382 OA
HETATM   32  C25 UNL     1      -6.147 -11.687  11.715  1.00  0.00     0.172 C 
HETATM   33  C26 UNL     1      -7.021 -11.887  12.952  1.00  0.00     0.012 C 
HETATM   34  C27 UNL     1      -7.143 -13.368  13.321  1.00  0.00     0.012 C 
HETATM   35  C28 UNL     1      -8.363 -11.288  12.527  1.00  0.00     0.019 C 
HETATM   36  C29 UNL     1      -8.405  -9.797  12.871  1.00  0.00     0.013 C 
ENDBRANCH  27  30
ENDBRANCH  23  27
ENDBRANCH  17  23
BRANCH  22  37
HETATM   37  O7  UNL     1      -7.546 -11.679   5.751  1.00  0.00    -0.384 OA
HETATM   38  H54 UNL     1      -7.521 -11.971   4.824  1.00  0.00     0.211 HD
ENDBRANCH  22  37
BRANCH   1  39
HETATM   39  O2  UNL     1      -1.297 -12.201   1.395  1.00  0.00    -0.386 OA
BRANCH  39  40
HETATM   40  C4  UNL     1      -0.215 -11.486   1.994  1.00  0.00     0.170 C 
BRANCH  40  41
HETATM   41  C3  UNL     1       1.119 -12.193   1.765  1.00  0.00     0.052 C 
BRANCH  41  42
HETATM   42  C2  UNL     1       2.265 -11.203   1.584  1.00  0.00     0.169 C 
BRANCH  42  43
HETATM   43  O1  UNL     1       3.539 -11.774   1.873  1.00  0.00    -0.396 OA
HETATM   44  C1  UNL     1       4.222 -12.244   0.717  1.00  0.00     0.201 C 
ENDBRANCH  42  43
ENDBRANCH  41  42
ENDBRANCH  40  41
ENDBRANCH  39  40
ENDBRANCH   1  39
TORSDOF 11
ENDMDL
MODEL 8
REMARK minimizedAffinity -9.10520554
REMARK CNNscore 0.419359028
REMARK CNNaffinity 6.93035269
REMARK  11 active torsions:
REMARK  status: ('A' for Active; 'I' for Inactive)
REMARK    1  A    between atoms: O1_2  and  C2_3 
REMARK    2  A    between atoms: C2_3  and  C3_4 
REMARK    3  A    between atoms: C3_4  and  C4_5 
REMARK    4  A    between atoms: C4_5  and  O2_6 
REMARK    5  A    between atoms: O2_6  and  C5_7 
REMARK    6  A    between atoms: C20_23  and  C21_24 
REMARK    7  A    between atoms: C21_24  and  O4_26 
REMARK    8  A    between atoms: C21_24  and  C23_27 
REMARK    9  A    between atoms: C23_27  and  O5_28 
REMARK   10  A    between atoms: C23_27  and  C24_29 
REMARK   11  A    between atoms: C34_40  and  O7_41 
ROOT
HETATM    1  C5  UNL     1      -5.781   6.960  13.771  1.00  0.00     0.122 C 
HETATM    2  C6  UNL     1      -4.987   8.089  13.101  1.00  0.00     0.033 C 
HETATM    3  C7  UNL     1      -3.906   8.636  14.033  1.00  0.00     0.013 C 
HETATM    4  C8  UNL     1      -2.808   7.570  14.331  1.00  0.00    -0.026 C 
HETATM    5  C9  UNL     1      -2.215   7.921  15.722  1.00  0.00     0.016 C 
HETATM    6  C10 UNL     1      -3.452   6.147  14.482  1.00  0.00     0.071 C 
HETATM    7  C11 UNL     1      -4.948   6.217  14.826  1.00  0.00     0.045 C 
HETATM    8  C12 UNL     1      -3.201   5.177  13.335  1.00  0.00     0.161 C 
HETATM    9  O3  UNL     1      -4.052   4.387  12.928  1.00  0.00    -0.292 OA
HETATM   10  C13 UNL     1      -1.835   5.144  12.762  1.00  0.00    -0.006 C 
HETATM   11  C14 UNL     1      -1.161   6.308  12.739  1.00  0.00    -0.030 C 
HETATM   12  C15 UNL     1      -1.709   7.653  13.186  1.00  0.00     0.027 C 
HETATM   13  C16 UNL     1      -0.607   8.747  13.433  1.00  0.00     0.011 C 
HETATM   14  C17 UNL     1       0.638   8.692  12.516  1.00  0.00     0.014 C 
HETATM   15  C18 UNL     1       1.224   7.267  12.485  1.00  0.00    -0.002 C 
HETATM   16  C19 UNL     1       1.684   6.883  13.911  1.00  0.00     0.019 C 
HETATM   17  C20 UNL     1       2.316   6.965  11.385  1.00  0.00     0.034 C 
HETATM   18  C30 UNL     1       2.098   5.445  11.021  1.00  0.00     0.016 C 
HETATM   19  C31 UNL     1       0.823   5.027  11.777  1.00  0.00     0.026 C 
HETATM   20  C32 UNL     1      -0.118   3.993  11.181  1.00  0.00     0.013 C 
HETATM   21  C33 UNL     1      -1.368   3.861  12.092  1.00  0.00     0.043 C 
HETATM   22  C34 UNL     1       0.099   6.358  11.950  1.00  0.00     0.094 C 
ENDROOT
BRANCH  17  23
HETATM   23  C21 UNL     1       3.796   7.432  11.542  1.00  0.00     0.087 C 
HETATM   24  C22 UNL     1       4.363   8.164  10.308  1.00  0.00     0.049 C 
BRANCH  23  25
HETATM   25  O4  UNL     1       4.598   6.255  11.710  1.00  0.00    -0.387 OA
HETATM   26  H33 UNL     1       5.482   6.553  11.991  1.00  0.00     0.210 HD
ENDBRANCH  23  25
BRANCH  23  27
HETATM   27  C23 UNL     1       3.974   8.366  12.804  1.00  0.00     0.181 C 
BRANCH  27  28
HETATM   28  O5  UNL     1       3.935   9.743  12.364  1.00  0.00    -0.390 OA
HETATM   29  H35 UNL     1       4.875  10.008  12.273  1.00  0.00     0.210 HD
ENDBRANCH  27  28
BRANCH  27  30
HETATM   30  C24 UNL     1       5.287   8.188  13.605  1.00  0.00     0.157 C 
HETATM   31  O6  UNL     1       6.213   7.381  12.838  1.00  0.00    -0.382 OA
HETATM   32  C25 UNL     1       7.549   7.708  13.258  1.00  0.00     0.172 C 
HETATM   33  C26 UNL     1       7.469   8.903  14.207  1.00  0.00     0.012 C 
HETATM   34  C27 UNL     1       7.640   8.474  15.667  1.00  0.00     0.012 C 
HETATM   35  C28 UNL     1       6.074   9.468  13.935  1.00  0.00     0.019 C 
HETATM   36  C29 UNL     1       6.138  10.503  12.809  1.00  0.00     0.013 C 
ENDBRANCH  27  30
ENDBRANCH  23  27
ENDBRANCH  17  23
BRANCH  22  37
HETATM   37  O7  UNL     1      -0.312   6.824  10.644  1.00  0.00    -0.384 OA
HETATM   38  H54 UNL     1      -1.150   6.393  10.409  1.00  0.00     0.211 HD
ENDBRANCH  22  37
BRANCH   1  39
HETATM   39  O2  UNL     1      -6.926   7.569  14.386  1.00  0.00    -0.386 OA
BRANCH  39  40
HETATM   40  C4  UNL     1      -8.095   6.751  14.462  1.00  0.00     0.170 C 
BRANCH  40  41
HETATM   41  C3  UNL     1      -8.129   5.715  13.341  1.00  0.00     0.052 C 
BRANCH  41  42
HETATM   42  C2  UNL     1      -7.987   4.294  13.874  1.00  0.00     0.169 C 
BRANCH  42  43
HETATM   43  O1  UNL     1      -8.459   3.310  12.957  1.00  0.00    -0.396 OA
HETATM   44  C1  UNL     1      -7.490   2.317  12.646  1.00  0.00     0.201 C 
ENDBRANCH  42  43
ENDBRANCH  41  42
ENDBRANCH  40  41
ENDBRANCH  39  40
ENDBRANCH   1  39
TORSDOF 11
ENDMDL
MODEL 9
REMARK minimizedAffinity -9.46771622
REMARK CNNscore 0.406541407
REMARK CNNaffinity 7.22944117
REMARK  11 active torsions:
REMARK  status: ('A' for Active; 'I' for Inactive)
REMARK    1  A    between atoms: O1_2  and  C2_3 
REMARK    2  A    between atoms: C2_3  and  C3_4 
REMARK    3  A    between atoms: C3_4  and  C4_5 
REMARK    4  A    between atoms: C4_5  and  O2_6 
REMARK    5  A    between atoms: O2_6  and  C5_7 
REMARK    6  A    between atoms: C20_23  and  C21_24 
REMARK    7  A    between atoms: C21_24  and  O4_26 
REMARK    8  A    between atoms: C21_24  and  C23_27 
REMARK    9  A    between atoms: C23_27  and  O5_28 
REMARK   10  A    between atoms: C23_27  and  C24_29 
REMARK   11  A    between atoms: C34_40  and  O7_41 
ROOT
HETATM    1  C5  UNL     1       2.056   6.140  11.809  1.00  0.00     0.122 C 
HETATM    2  C6  UNL     1       1.634   6.636  13.198  1.00  0.00     0.033 C 
HETATM    3  C7  UNL     1       0.822   7.927  13.103  1.00  0.00     0.013 C 
HETATM    4  C8  UNL     1      -0.545   7.697  12.388  1.00  0.00    -0.026 C 
HETATM    5  C9  UNL     1      -0.938   9.051  11.738  1.00  0.00     0.016 C 
HETATM    6  C10 UNL     1      -0.380   6.681  11.203  1.00  0.00     0.071 C 
HETATM    7  C11 UNL     1       1.075   6.585  10.715  1.00  0.00     0.045 C 
HETATM    8  C12 UNL     1      -0.972   5.296  11.427  1.00  0.00     0.161 C 
HETATM    9  O3  UNL     1      -0.433   4.265  11.027  1.00  0.00    -0.292 OA
HETATM   10  C13 UNL     1      -2.300   5.224  12.080  1.00  0.00    -0.006 C 
HETATM   11  C14 UNL     1      -2.571   6.163  13.005  1.00  0.00    -0.030 C 
HETATM   12  C15 UNL     1      -1.607   7.238  13.477  1.00  0.00     0.027 C 
HETATM   13  C16 UNL     1      -2.294   8.427  14.244  1.00  0.00     0.011 C 
HETATM   14  C17 UNL     1      -3.529   8.070  15.105  1.00  0.00     0.014 C 
HETATM   15  C18 UNL     1      -4.537   7.240  14.287  1.00  0.00    -0.002 C 
HETATM   16  C19 UNL     1      -5.036   8.089  13.096  1.00  0.00     0.019 C 
HETATM   17  C20 UNL     1      -5.712   6.551  15.086  1.00  0.00     0.034 C 
HETATM   18  C30 UNL     1      -6.003   5.220  14.289  1.00  0.00     0.016 C 
HETATM   19  C31 UNL     1      -4.896   5.139  13.220  1.00  0.00     0.026 C 
HETATM   20  C32 UNL     1      -4.357   3.790  12.776  1.00  0.00     0.013 C 
HETATM   21  C33 UNL     1      -3.177   4.015  11.793  1.00  0.00     0.043 C 
HETATM   22  C34 UNL     1      -3.781   5.970  13.847  1.00  0.00     0.094 C 
ENDROOT
BRANCH  17  23
HETATM   23  C21 UNL     1      -6.961   7.351  15.571  1.00  0.00     0.087 C 
HETATM   24  C22 UNL     1      -6.829   8.881  15.423  1.00  0.00     0.049 C 
BRANCH  23  25
HETATM   25  O4  UNL     1      -7.111   7.099  16.974  1.00  0.00    -0.387 OA
HETATM   26  H33 UNL     1      -7.985   7.443  17.232  1.00  0.00     0.210 HD
ENDBRANCH  23  25
BRANCH  23  27
HETATM   27  C23 UNL     1      -8.270   6.887  14.816  1.00  0.00     0.181 C 
BRANCH  27  28
HETATM   28  O5  UNL     1      -8.042   7.001  13.392  1.00  0.00    -0.390 OA
HETATM   29  H35 UNL     1      -8.434   7.865  13.141  1.00  0.00     0.210 HD
ENDBRANCH  27  28
BRANCH  27  30
HETATM   30  C24 UNL     1      -9.558   7.686  15.131  1.00  0.00     0.157 C 
HETATM   31  O6  UNL     1      -9.413   9.043  14.648  1.00  0.00    -0.382 OA
HETATM   32  C25 UNL     1     -10.726   9.572  14.391  1.00  0.00     0.172 C 
HETATM   33  C26 UNL     1     -11.734   8.435  14.550  1.00  0.00     0.012 C 
HETATM   34  C27 UNL     1     -12.489   8.535  15.878  1.00  0.00     0.012 C 
HETATM   35  C28 UNL     1     -10.858   7.183  14.480  1.00  0.00     0.019 C 
HETATM   36  C29 UNL     1     -10.724   6.717  13.028  1.00  0.00     0.013 C 
ENDBRANCH  27  30
ENDBRANCH  23  27
ENDBRANCH  17  23
BRANCH  22  37
HETATM   37  O7  UNL     1      -3.298   5.271  15.018  1.00  0.00    -0.384 OA
HETATM   38  H54 UNL     1      -2.649   4.604  14.737  1.00  0.00     0.211 HD
ENDBRANCH  22  37
BRANCH   1  39
HETATM   39  O2  UNL     1       3.359   6.684  11.554  1.00  0.00    -0.386 OA
BRANCH  39  40
HETATM   40  C4  UNL     1       3.571   7.188  10.234  1.00  0.00     0.170 C 
BRANCH  40  41
HETATM   41  C3  UNL     1       4.768   8.134  10.179  1.00  0.00     0.052 C 
BRANCH  41  42
HETATM   42  C2  UNL     1       5.867   7.717  11.151  1.00  0.00     0.169 C 
BRANCH  42  43
HETATM   43  O1  UNL     1       6.883   6.931  10.533  1.00  0.00    -0.396 OA
HETATM   44  C1  UNL     1       6.881   5.573  10.955  1.00  0.00     0.201 C 
ENDBRANCH  42  43
ENDBRANCH  41  42
ENDBRANCH  40  41
ENDBRANCH  39  40
ENDBRANCH   1  39
TORSDOF 11
ENDMDL
