MODEL 1
REMARK minimizedAffinity -6.96571445
REMARK  5 active torsions:
REMARK  status: ('A' for Active; 'I' for Inactive)
REMARK    1  A    between atoms: C4_4  and  C5_5 
REMARK    2  A    between atoms: C5_5  and  N1_6 
REMARK    3  A    between atoms: N1_6  and  C6_7 
REMARK    4  A    between atoms: N1_6  and  C10_14 
REMARK    5  A    between atoms: C6_7  and  C7_8 
ROOT
HETATM    1  N1  UNL     1      -7.788   6.201  14.468  1.00  0.00    -0.273 NA
ENDROOT
BRANCH   1   2
HETATM    2  C5  UNL     1      -7.321   4.876  14.934  1.00  0.00     0.134 C 
BRANCH   2   3
HETATM    3  C4  UNL     1      -6.881   4.003  13.777  1.00  0.00    -0.045 A 
HETATM    4  C3  UNL     1      -7.682   2.939  13.334  1.00  0.00     0.008 A 
HETATM    5  C2  UNL     1      -7.262   2.122  12.284  1.00  0.00     0.001 A 
HETATM    6  C1  UNL     1      -6.033   2.352  11.671  1.00  0.00     0.000 A 
HETATM    7  C17 UNL     1      -5.222   3.397  12.108  1.00  0.00     0.001 A 
HETATM    8  C16 UNL     1      -5.641   4.217  13.158  1.00  0.00     0.008 A 
ENDBRANCH   2   3
ENDBRANCH   1   2
BRANCH   1   9
HETATM    9  C6  UNL     1      -8.680   6.126  13.278  1.00  0.00     0.165 C 
BRANCH   9  10
HETATM   10  C7  UNL     1     -10.066   6.673  13.602  1.00  0.00     0.065 C 
HETATM   11  N2  UNL     1     -10.598   6.564  14.795  1.00  0.00    -0.382 N 
HETATM   12  C8  UNL     1     -11.950   7.176  14.628  1.00  0.00     0.135 C 
ATOM     13  H2  UNL     1     -10.186   6.158  15.636  1.00  0.00     0.160 HD
HETATM   14  C9  UNL     1     -12.188   7.295  13.118  1.00  0.00     0.113 C 
HETATM   15  N3  UNL     1     -10.832   7.280  12.629  1.00  0.00    -0.280 NA
HETATM   16  H12 UNL     1     -10.662   6.886  11.706  1.00  0.00     0.128 HD
ENDBRANCH   9  10
ENDBRANCH   1   9
BRANCH   1  17
HETATM   17  C10 UNL     1      -6.759   7.165  14.469  1.00  0.00     0.011 A 
HETATM   18  C11 UNL     1      -6.017   7.369  13.291  1.00  0.00     0.024 A 
HETATM   19  C12 UNL     1      -4.970   8.294  13.230  1.00  0.00     0.002 A 
HETATM   20  C13 UNL     1      -4.635   9.036  14.357  1.00  0.00     0.000 A 
HETATM   21  C14 UNL     1      -5.344   8.845  15.538  1.00  0.00     0.002 A 
HETATM   22  C15 UNL     1      -6.391   7.917  15.593  1.00  0.00     0.024 A 
ENDBRANCH   1  17
TORSDOF 5
ENDMDL
MODEL 2
REMARK minimizedAffinity -6.80373621
REMARK  5 active torsions:
REMARK  status: ('A' for Active; 'I' for Inactive)
REMARK    1  A    between atoms: C4_4  and  C5_5 
REMARK    2  A    between atoms: C5_5  and  N1_6 
REMARK    3  A    between atoms: N1_6  and  C6_7 
REMARK    4  A    between atoms: N1_6  and  C10_14 
REMARK    5  A    between atoms: C6_7  and  C7_8 
ROOT
HETATM    1  N1  UNL     1      -7.069   5.159  13.076  1.00  0.00    -0.273 NA
ENDROOT
BRANCH   1   2
HETATM    2  C5  UNL     1      -6.204   5.522  14.220  1.00  0.00     0.134 C 
BRANCH   2   3
HETATM    3  C4  UNL     1      -5.043   6.393  13.784  1.00  0.00    -0.045 A 
HETATM    4  C3  UNL     1      -5.248   7.731  13.413  1.00  0.00     0.008 A 
HETATM    5  C2  UNL     1      -4.180   8.523  12.989  1.00  0.00     0.001 A 
HETATM    6  C1  UNL     1      -2.898   7.984  12.921  1.00  0.00     0.000 A 
HETATM    7  C17 UNL     1      -2.681   6.653  13.275  1.00  0.00     0.001 A 
HETATM    8  C16 UNL     1      -3.749   5.860  13.701  1.00  0.00     0.008 A 
ENDBRANCH   2   3
ENDBRANCH   1   2
BRANCH   1   9
HETATM    9  C6  UNL     1      -8.496   5.539  13.271  1.00  0.00     0.165 C 
BRANCH   9  10
HETATM   10  C7  UNL     1      -8.651   6.469  14.469  1.00  0.00     0.065 C 
HETATM   11  N2  UNL     1      -8.688   7.774  14.340  1.00  0.00    -0.382 N 
HETATM   12  C8  UNL     1      -8.788   8.257  15.749  1.00  0.00     0.135 C 
ATOM     13  H2  UNL     1      -8.655   8.325  13.483  1.00  0.00     0.160 HD
HETATM   14  C9  UNL     1      -8.443   7.061  16.644  1.00  0.00     0.113 C 
HETATM   15  N3  UNL     1      -8.725   5.966  15.751  1.00  0.00    -0.280 NA
HETATM   16  H12 UNL     1      -8.183   5.110  15.859  1.00  0.00     0.128 HD
ENDBRANCH   9  10
ENDBRANCH   1   9
BRANCH   1  17
HETATM   17  C10 UNL     1      -6.786   3.872  12.574  1.00  0.00     0.011 A 
HETATM   18  C11 UNL     1      -5.757   3.723  11.626  1.00  0.00     0.024 A 
HETATM   19  C12 UNL     1      -5.439   2.478  11.073  1.00  0.00     0.002 A 
HETATM   20  C13 UNL     1      -6.155   1.349  11.452  1.00  0.00     0.000 A 
HETATM   21  C14 UNL     1      -7.186   1.470  12.377  1.00  0.00     0.002 A 
HETATM   22  C15 UNL     1      -7.500   2.718  12.927  1.00  0.00     0.024 A 
ENDBRANCH   1  17
TORSDOF 5
ENDMDL
MODEL 3
REMARK minimizedAffinity -6.80239534
REMARK  5 active torsions:
REMARK  status: ('A' for Active; 'I' for Inactive)
REMARK    1  A    between atoms: C4_4  and  C5_5 
REMARK    2  A    between atoms: C5_5  and  N1_6 
REMARK    3  A    between atoms: N1_6  and  C6_7 
REMARK    4  A    between atoms: N1_6  and  C10_14 
REMARK    5  A    between atoms: C6_7  and  C7_8 
ROOT
HETATM    1  N1  UNL     1      -6.385   5.556  14.786  1.00  0.00    -0.273 NA
ENDROOT
BRANCH   1   2
HETATM    2  C5  UNL     1      -7.177   5.309  13.561  1.00  0.00     0.134 C 
BRANCH   2   3
HETATM    3  C4  UNL     1      -6.805   3.989  12.915  1.00  0.00    -0.045 A 
HETATM    4  C3  UNL     1      -5.618   3.859  12.178  1.00  0.00     0.008 A 
HETATM    5  C2  UNL     1      -5.291   2.649  11.565  1.00  0.00     0.001 A 
HETATM    6  C1  UNL     1      -6.150   1.559  11.672  1.00  0.00     0.000 A 
HETATM    7  C17 UNL     1      -7.338   1.677  12.391  1.00  0.00     0.001 A 
HETATM    8  C16 UNL     1      -7.667   2.887  13.007  1.00  0.00     0.008 A 
ENDBRANCH   2   3
ENDBRANCH   1   2
BRANCH   1   9
HETATM    9  C6  UNL     1      -7.222   5.704  16.009  1.00  0.00     0.165 C 
BRANCH   9  10
HETATM   10  C7  UNL     1      -8.318   6.742  15.796  1.00  0.00     0.065 C 
HETATM   11  N2  UNL     1      -9.560   6.404  15.549  1.00  0.00    -0.382 N 
HETATM   12  C8  UNL     1     -10.244   7.718  15.359  1.00  0.00     0.135 C 
ATOM     13  H2  UNL     1      -9.963   5.468  15.498  1.00  0.00     0.160 HD
HETATM   14  C9  UNL     1      -9.135   8.763  15.187  1.00  0.00     0.113 C 
HETATM   15  N3  UNL     1      -8.030   8.090  15.823  1.00  0.00    -0.280 NA
HETATM   16  H12 UNL     1      -7.091   8.288  15.482  1.00  0.00     0.128 HD
ENDBRANCH   9  10
ENDBRANCH   1   9
BRANCH   1  17
HETATM   17  C10 UNL     1      -5.344   6.484  14.576  1.00  0.00     0.011 A 
HETATM   18  C11 UNL     1      -5.421   7.354  13.473  1.00  0.00     0.024 A 
HETATM   19  C12 UNL     1      -4.413   8.283  13.195  1.00  0.00     0.002 A 
HETATM   20  C13 UNL     1      -3.294   8.357  14.016  1.00  0.00     0.000 A 
HETATM   21  C14 UNL     1      -3.186   7.499  15.106  1.00  0.00     0.002 A 
HETATM   22  C15 UNL     1      -4.198   6.572  15.378  1.00  0.00     0.024 A 
ENDBRANCH   1  17
TORSDOF 5
ENDMDL
MODEL 4
REMARK minimizedAffinity -6.73903799
REMARK  5 active torsions:
REMARK  status: ('A' for Active; 'I' for Inactive)
REMARK    1  A    between atoms: C4_4  and  C5_5 
REMARK    2  A    between atoms: C5_5  and  N1_6 
REMARK    3  A    between atoms: N1_6  and  C6_7 
REMARK    4  A    between atoms: N1_6  and  C10_14 
REMARK    5  A    between atoms: C6_7  and  C7_8 
ROOT
HETATM    1  N1  UNL     1      -3.385   5.203  13.940  1.00  0.00    -0.273 NA
ENDROOT
BRANCH   1   2
HETATM    2  C5  UNL     1      -4.522   5.557  13.060  1.00  0.00     0.134 C 
BRANCH   2   3
HETATM    3  C4  UNL     1      -5.478   4.394  12.892  1.00  0.00    -0.045 A 
HETATM    4  C3  UNL     1      -5.221   3.382  11.954  1.00  0.00     0.008 A 
HETATM    5  C2  UNL     1      -6.116   2.325  11.785  1.00  0.00     0.001 A 
HETATM    6  C1  UNL     1      -7.282   2.272  12.544  1.00  0.00     0.000 A 
HETATM    7  C17 UNL     1      -7.556   3.276  13.471  1.00  0.00     0.001 A 
HETATM    8  C16 UNL     1      -6.661   4.333  13.643  1.00  0.00     0.008 A 
ENDBRANCH   2   3
ENDBRANCH   1   2
BRANCH   1   9
HETATM    9  C6  UNL     1      -3.397   5.931  15.239  1.00  0.00     0.165 C 
BRANCH   9  10
HETATM   10  C7  UNL     1      -4.594   6.870  15.326  1.00  0.00     0.065 C 
HETATM   11  N2  UNL     1      -5.696   6.539  15.956  1.00  0.00    -0.382 N 
HETATM   12  C8  UNL     1      -6.589   7.715  15.732  1.00  0.00     0.135 C 
ATOM     13  H2  UNL     1      -5.896   5.683  16.474  1.00  0.00     0.160 HD
HETATM   14  C9  UNL     1      -5.943   8.542  14.613  1.00  0.00     0.113 C 
HETATM   15  N3  UNL     1      -4.574   8.103  14.709  1.00  0.00    -0.280 NA
HETATM   16  H12 UNL     1      -4.015   8.096  13.858  1.00  0.00     0.128 HD
ENDBRANCH   9  10
ENDBRANCH   1   9
BRANCH   1  17
HETATM   17  C10 UNL     1      -2.167   5.116  13.236  1.00  0.00     0.011 A 
HETATM   18  C11 UNL     1      -0.970   5.425  13.908  1.00  0.00     0.024 A 
HETATM   19  C12 UNL     1       0.270   5.380  13.263  1.00  0.00     0.002 A 
HETATM   20  C13 UNL     1       0.340   5.030  11.920  1.00  0.00     0.000 A 
HETATM   21  C14 UNL     1      -0.829   4.733  11.228  1.00  0.00     0.002 A 
HETATM   22  C15 UNL     1      -2.067   4.780  11.879  1.00  0.00     0.024 A 
ENDBRANCH   1  17
TORSDOF 5
ENDMDL
MODEL 5
REMARK minimizedAffinity -6.72472858
REMARK  5 active torsions:
REMARK  status: ('A' for Active; 'I' for Inactive)
REMARK    1  A    between atoms: C4_4  and  C5_5 
REMARK    2  A    between atoms: C5_5  and  N1_6 
REMARK    3  A    between atoms: N1_6  and  C6_7 
REMARK    4  A    between atoms: N1_6  and  C10_14 
REMARK    5  A    between atoms: C6_7  and  C7_8 
ROOT
HETATM    1  N1  UNL     1      -3.772   5.464  14.160  1.00  0.00    -0.273 NA
ENDROOT
BRANCH   1   2
HETATM    2  C5  UNL     1      -4.802   5.714  13.128  1.00  0.00     0.134 C 
BRANCH   2   3
HETATM    3  C4  UNL     1      -5.649   4.482  12.879  1.00  0.00    -0.045 A 
HETATM    4  C3  UNL     1      -6.856   4.289  13.568  1.00  0.00     0.008 A 
HETATM    5  C2  UNL     1      -7.621   3.141  13.355  1.00  0.00     0.001 A 
HETATM    6  C1  UNL     1      -7.184   2.170  12.458  1.00  0.00     0.000 A 
HETATM    7  C17 UNL     1      -5.981   2.343  11.775  1.00  0.00     0.001 A 
HETATM    8  C16 UNL     1      -5.215   3.491  11.987  1.00  0.00     0.008 A 
ENDBRANCH   2   3
ENDBRANCH   1   2
BRANCH   1   9
HETATM    9  C6  UNL     1      -3.951   6.293  15.385  1.00  0.00     0.165 C 
BRANCH   9  10
HETATM   10  C7  UNL     1      -5.397   6.757  15.520  1.00  0.00     0.065 C 
HETATM   11  N2  UNL     1      -5.848   7.824  14.906  1.00  0.00    -0.382 N 
HETATM   12  C8  UNL     1      -7.265   7.916  15.370  1.00  0.00     0.135 C 
ATOM     13  H2  UNL     1      -5.351   8.442  14.265  1.00  0.00     0.160 HD
HETATM   14  C9  UNL     1      -7.389   6.973  16.573  1.00  0.00     0.113 C 
HETATM   15  N3  UNL     1      -6.285   6.080  16.331  1.00  0.00    -0.280 NA
HETATM   16  H12 UNL     1      -5.824   5.662  17.137  1.00  0.00     0.128 HD
ENDBRANCH   9  10
ENDBRANCH   1   9
BRANCH   1  17
HETATM   17  C10 UNL     1      -2.476   5.356  13.614  1.00  0.00     0.011 A 
HETATM   18  C11 UNL     1      -2.339   5.045  12.248  1.00  0.00     0.024 A 
HETATM   19  C12 UNL     1      -1.084   4.902  11.648  1.00  0.00     0.002 A 
HETATM   20  C13 UNL     1       0.069   5.061  12.407  1.00  0.00     0.000 A 
HETATM   21  C14 UNL     1      -0.038   5.357  13.762  1.00  0.00     0.002 A 
HETATM   22  C15 UNL     1      -1.297   5.498  14.357  1.00  0.00     0.024 A 
ENDBRANCH   1  17
TORSDOF 5
ENDMDL
MODEL 6
REMARK minimizedAffinity -6.70233202
REMARK  5 active torsions:
REMARK  status: ('A' for Active; 'I' for Inactive)
REMARK    1  A    between atoms: C4_4  and  C5_5 
REMARK    2  A    between atoms: C5_5  and  N1_6 
REMARK    3  A    between atoms: N1_6  and  C6_7 
REMARK    4  A    between atoms: N1_6  and  C10_14 
REMARK    5  A    between atoms: C6_7  and  C7_8 
ROOT
HETATM    1  N1  UNL     1      -4.674   5.254  13.783  1.00  0.00    -0.273 NA
ENDROOT
BRANCH   1   2
HETATM    2  C5  UNL     1      -5.441   6.485  13.488  1.00  0.00     0.134 C 
BRANCH   2   3
HETATM    3  C4  UNL     1      -6.649   6.618  14.393  1.00  0.00    -0.045 A 
HETATM    4  C3  UNL     1      -7.939   6.741  13.856  1.00  0.00     0.008 A 
HETATM    5  C2  UNL     1      -9.046   6.889  14.693  1.00  0.00     0.001 A 
HETATM    6  C1  UNL     1      -8.876   6.924  16.074  1.00  0.00     0.000 A 
HETATM    7  C17 UNL     1      -7.599   6.814  16.621  1.00  0.00     0.001 A 
HETATM    8  C16 UNL     1      -6.490   6.665  15.786  1.00  0.00     0.008 A 
ENDBRANCH   2   3
ENDBRANCH   1   2
BRANCH   1   9
HETATM    9  C6  UNL     1      -3.212   5.492  13.931  1.00  0.00     0.165 C 
BRANCH   9  10
HETATM   10  C7  UNL     1      -2.946   6.784  14.695  1.00  0.00     0.065 C 
HETATM   11  N2  UNL     1      -2.654   7.908  14.086  1.00  0.00    -0.382 N 
HETATM   12  C8  UNL     1      -2.424   8.862  15.212  1.00  0.00     0.135 C 
ATOM     13  H2  UNL     1      -2.597   8.087  13.083  1.00  0.00     0.160 HD
HETATM   14  C9  UNL     1      -2.285   8.011  16.480  1.00  0.00     0.113 C 
HETATM   15  N3  UNL     1      -2.970   6.809  16.074  1.00  0.00    -0.280 NA
HETATM   16  H12 UNL     1      -2.664   5.926  16.478  1.00  0.00     0.128 HD
ENDBRANCH   9  10
ENDBRANCH   1   9
BRANCH   1  17
HETATM   17  C10 UNL     1      -5.095   4.157  13.003  1.00  0.00     0.011 A 
HETATM   18  C11 UNL     1      -6.406   3.673  13.161  1.00  0.00     0.024 A 
HETATM   19  C12 UNL     1      -6.880   2.576  12.434  1.00  0.00     0.002 A 
HETATM   20  C13 UNL     1      -6.043   1.930  11.532  1.00  0.00     0.000 A 
HETATM   21  C14 UNL     1      -4.738   2.380  11.365  1.00  0.00     0.002 A 
HETATM   22  C15 UNL     1      -4.269   3.478  12.096  1.00  0.00     0.024 A 
ENDBRANCH   1  17
TORSDOF 5
ENDMDL
MODEL 7
REMARK minimizedAffinity -6.69889402
REMARK  5 active torsions:
REMARK  status: ('A' for Active; 'I' for Inactive)
REMARK    1  A    between atoms: C4_4  and  C5_5 
REMARK    2  A    between atoms: C5_5  and  N1_6 
REMARK    3  A    between atoms: N1_6  and  C6_7 
REMARK    4  A    between atoms: N1_6  and  C10_14 
REMARK    5  A    between atoms: C6_7  and  C7_8 
ROOT
HETATM    1  N1  UNL     1      -7.219   5.682  14.692  1.00  0.00    -0.273 NA
ENDROOT
BRANCH   1   2
HETATM    2  C5  UNL     1      -7.479   4.232  14.555  1.00  0.00     0.134 C 
BRANCH   2   3
HETATM    3  C4  UNL     1      -6.707   3.636  13.395  1.00  0.00    -0.045 A 
HETATM    4  C3  UNL     1      -5.543   4.253  12.914  1.00  0.00     0.008 A 
HETATM    5  C2  UNL     1      -4.849   3.715  11.830  1.00  0.00     0.001 A 
HETATM    6  C1  UNL     1      -5.315   2.559  11.208  1.00  0.00     0.000 A 
HETATM    7  C17 UNL     1      -6.477   1.941  11.668  1.00  0.00     0.001 A 
HETATM    8  C16 UNL     1      -7.172   2.478  12.754  1.00  0.00     0.008 A 
ENDBRANCH   2   3
ENDBRANCH   1   2
BRANCH   1   9
HETATM    9  C6  UNL     1      -6.407   6.024  15.892  1.00  0.00     0.165 C 
BRANCH   9  10
HETATM   10  C7  UNL     1      -5.027   6.530  15.489  1.00  0.00     0.065 C 
HETATM   11  N2  UNL     1      -3.932   6.124  16.086  1.00  0.00    -0.382 N 
HETATM   12  C8  UNL     1      -2.858   6.912  15.412  1.00  0.00     0.135 C 
ATOM     13  H2  UNL     1      -3.838   5.434  16.832  1.00  0.00     0.160 HD
HETATM   14  C9  UNL     1      -3.563   8.034  14.639  1.00  0.00     0.113 C 
HETATM   15  N3  UNL     1      -4.881   7.471  14.491  1.00  0.00    -0.280 NA
HETATM   16  H12 UNL     1      -5.672   8.111  14.450  1.00  0.00     0.128 HD
ENDBRANCH   9  10
ENDBRANCH   1   9
BRANCH   1  17
HETATM   17  C10 UNL     1      -8.361   6.462  14.416  1.00  0.00     0.011 A 
HETATM   18  C11 UNL     1      -8.590   7.624  15.176  1.00  0.00     0.024 A 
HETATM   19  C12 UNL     1      -9.714   8.430  14.969  1.00  0.00     0.002 A 
HETATM   20  C13 UNL     1     -10.643   8.086  13.994  1.00  0.00     0.000 A 
HETATM   21  C14 UNL     1     -10.447   6.936  13.237  1.00  0.00     0.002 A 
HETATM   22  C15 UNL     1      -9.321   6.133  13.449  1.00  0.00     0.024 A 
ENDBRANCH   1  17
TORSDOF 5
ENDMDL
MODEL 8
REMARK minimizedAffinity -6.62751389
REMARK  5 active torsions:
REMARK  status: ('A' for Active; 'I' for Inactive)
REMARK    1  A    between atoms: C4_4  and  C5_5 
REMARK    2  A    between atoms: C5_5  and  N1_6 
REMARK    3  A    between atoms: N1_6  and  C6_7 
REMARK    4  A    between atoms: N1_6  and  C10_14 
REMARK    5  A    between atoms: C6_7  and  C7_8 
ROOT
HETATM    1  N1  UNL     1      -6.643   5.820  14.732  1.00  0.00    -0.273 NA
ENDROOT
BRANCH   1   2
HETATM    2  C5  UNL     1      -7.755   5.642  15.691  1.00  0.00     0.134 C 
BRANCH   2   3
HETATM    3  C4  UNL     1      -8.809   6.718  15.527  1.00  0.00    -0.045 A 
HETATM    4  C3  UNL     1      -9.616   6.763  14.380  1.00  0.00     0.008 A 
HETATM    5  C2  UNL     1     -10.569   7.770  14.220  1.00  0.00     0.001 A 
HETATM    6  C1  UNL     1     -10.719   8.749  15.200  1.00  0.00     0.000 A 
HETATM    7  C17 UNL     1      -9.916   8.723  16.338  1.00  0.00     0.001 A 
HETATM    8  C16 UNL     1      -8.963   7.715  16.501  1.00  0.00     0.008 A 
ENDBRANCH   2   3
ENDBRANCH   1   2
BRANCH   1   9
HETATM    9  C6  UNL     1      -6.534   7.209  14.207  1.00  0.00     0.165 C 
BRANCH   9  10
HETATM   10  C7  UNL     1      -5.460   7.991  14.954  1.00  0.00     0.065 C 
HETATM   11  N2  UNL     1      -5.476   9.300  15.030  1.00  0.00    -0.382 N 
HETATM   12  C8  UNL     1      -4.229   9.617  15.789  1.00  0.00     0.135 C 
ATOM     13  H2  UNL     1      -6.172   9.947  14.660  1.00  0.00     0.160 HD
HETATM   14  C9  UNL     1      -3.385   8.337  15.790  1.00  0.00     0.113 C 
HETATM   15  N3  UNL     1      -4.402   7.343  15.556  1.00  0.00    -0.280 NA
HETATM   16  H12 UNL     1      -4.137   6.497  15.055  1.00  0.00     0.128 HD
ENDBRANCH   9  10
ENDBRANCH   1   9
BRANCH   1  17
HETATM   17  C10 UNL     1      -6.545   4.752  13.816  1.00  0.00     0.011 A 
HETATM   18  C11 UNL     1      -7.539   3.756  13.825  1.00  0.00     0.024 A 
HETATM   19  C12 UNL     1      -7.491   2.660  12.958  1.00  0.00     0.002 A 
HETATM   20  C13 UNL     1      -6.436   2.531  12.063  1.00  0.00     0.000 A 
HETATM   21  C14 UNL     1      -5.433   3.494  12.042  1.00  0.00     0.002 A 
HETATM   22  C15 UNL     1      -5.487   4.589  12.912  1.00  0.00     0.024 A 
ENDBRANCH   1  17
TORSDOF 5
ENDMDL
MODEL 9
REMARK minimizedAffinity -6.59922791
REMARK  5 active torsions:
REMARK  status: ('A' for Active; 'I' for Inactive)
REMARK    1  A    between atoms: C4_4  and  C5_5 
REMARK    2  A    between atoms: C5_5  and  N1_6 
REMARK    3  A    between atoms: N1_6  and  C6_7 
REMARK    4  A    between atoms: N1_6  and  C10_14 
REMARK    5  A    between atoms: C6_7  and  C7_8 
ROOT
HETATM    1  N1  UNL     1      -3.707   6.426  13.929  1.00  0.00    -0.273 NA
ENDROOT
BRANCH   1   2
HETATM    2  C5  UNL     1      -5.063   6.953  13.657  1.00  0.00     0.134 C 
BRANCH   2   3
HETATM    3  C4  UNL     1      -6.040   5.838  13.342  1.00  0.00    -0.045 A 
HETATM    4  C3  UNL     1      -7.424   6.047  13.437  1.00  0.00     0.008 A 
HETATM    5  C2  UNL     1      -8.320   5.011  13.169  1.00  0.00     0.001 A 
HETATM    6  C1  UNL     1      -7.842   3.752  12.814  1.00  0.00     0.000 A 
HETATM    7  C17 UNL     1      -6.470   3.526  12.727  1.00  0.00     0.001 A 
HETATM    8  C16 UNL     1      -5.572   4.562  12.993  1.00  0.00     0.008 A 
ENDBRANCH   2   3
ENDBRANCH   1   2
BRANCH   1   9
HETATM    9  C6  UNL     1      -3.433   6.224  15.379  1.00  0.00     0.165 C 
BRANCH   9  10
HETATM   10  C7  UNL     1      -2.746   7.446  15.977  1.00  0.00     0.065 C 
HETATM   11  N2  UNL     1      -3.414   8.516  16.337  1.00  0.00    -0.382 N 
HETATM   12  C8  UNL     1      -2.346   9.450  16.801  1.00  0.00     0.135 C 
ATOM     13  H2  UNL     1      -4.422   8.672  16.306  1.00  0.00     0.160 HD
HETATM   14  C9  UNL     1      -1.016   8.868  16.308  1.00  0.00     0.113 C 
HETATM   15  N3  UNL     1      -1.376   7.484  16.133  1.00  0.00    -0.280 NA
HETATM   16  H12 UNL     1      -0.894   6.953  15.409  1.00  0.00     0.128 HD
ENDBRANCH   9  10
ENDBRANCH   1   9
BRANCH   1  17
HETATM   17  C10 UNL     1      -2.718   7.055  13.145  1.00  0.00     0.011 A 
HETATM   18  C11 UNL     1      -1.622   6.296  12.696  1.00  0.00     0.024 A 
HETATM   19  C12 UNL     1      -0.596   6.863  11.934  1.00  0.00     0.002 A 
HETATM   20  C13 UNL     1      -0.640   8.213  11.608  1.00  0.00     0.000 A 
HETATM   21  C14 UNL     1      -1.706   8.990  12.051  1.00  0.00     0.002 A 
HETATM   22  C15 UNL     1      -2.729   8.417  12.814  1.00  0.00     0.024 A 
ENDBRANCH   1  17
TORSDOF 5
ENDMDL
