MODEL 1
REMARK minimizedAffinity -8.6616497
REMARK CNNscore 0.366962194
REMARK CNNaffinity 6.79250288
REMARK  2 active torsions:
REMARK  status: ('A' for Active; 'I' for Inactive)
REMARK    1  A    between atoms: C3_4  and  C4_5 
REMARK       I    between atoms: N3_16  and  C13_17 
REMARK       I    between atoms: C13_17  and  N4_19 
REMARK    2  A    between atoms: N4_19  and  C14_20 
ROOT
HETATM    1  C4  UNL     1      -8.131   5.500  12.755  1.00  0.00    -0.020 A 
HETATM    2  C5  UNL     1      -8.921   5.776  11.627  1.00  0.00     0.015 A 
HETATM    3  C6  UNL     1     -10.046   6.606  11.717  1.00  0.00     0.033 A 
HETATM    4  C7  UNL     1     -10.408   7.159  12.943  1.00  0.00     0.068 A 
HETATM    5  N2  UNL     1     -11.556   7.974  13.001  1.00  0.00    -0.325 N 
HETATM    6  C8  UNL     1     -12.318   8.080  14.146  1.00  0.00     0.222 C 
HETATM    7  O1  UNL     1     -12.648   7.132  14.850  1.00  0.00    -0.273 OA
HETATM    8  C9  UNL     1     -12.696   9.511  14.461  1.00  0.00     0.108 C 
HETATM    9  C10 UNL     1     -12.782   9.750  15.976  1.00  0.00     0.001 C 
HETATM   10  C11 UNL     1     -13.289  11.177  16.280  1.00  0.00     0.025 C 
HETATM   11  C12 UNL     1     -12.373  12.010  17.165  1.00  0.00     0.128 C 
HETATM   12  N3  UNL     1     -11.905  11.304  18.351  1.00  0.00    -0.334 N 
HETATM   13  C13 UNL     1     -11.415  12.081  19.402  1.00  0.00     0.322 C 
HETATM   14  O2  UNL     1     -11.271  13.296  19.279  1.00  0.00    -0.247 OA
HETATM   15  N4  UNL     1     -11.140  11.373  20.549  1.00  0.00    -0.309 N 
HETATM   16  C20 UNL     1     -11.782   9.845  18.270  1.00  0.00     0.132 C 
HETATM   17  C21 UNL     1     -11.549   9.332  16.832  1.00  0.00     0.010 C 
HETATM   18  C22 UNL     1     -10.126   9.739  16.365  1.00  0.00     0.033 C 
HETATM   19  C23 UNL     1      -9.505   8.987  15.182  1.00  0.00     0.176 C 
HETATM   20  O3  UNL     1      -9.770   7.583  15.268  1.00  0.00    -0.349 OA
HETATM   21  C24 UNL     1      -9.577   6.953  14.060  1.00  0.00     0.096 A 
HETATM   22  C25 UNL     1      -8.473   6.100  13.974  1.00  0.00     0.051 A 
HETATM   23  H7  UNL     1     -11.940   8.348  12.145  1.00  0.00     0.169 HD
HETATM   24  H15 UNL     1     -11.616  10.489  20.629  1.00  0.00     0.170 HD
ENDROOT
BRANCH  15  25
HETATM   25  C14 UNL     1     -10.492  11.836  21.712  1.00  0.00     0.037 A 
HETATM   26  C15 UNL     1     -11.052  11.770  22.989  1.00  0.00     0.029 A 
HETATM   27  C16 UNL     1     -10.360  12.271  24.097  1.00  0.00     0.004 A 
HETATM   28  C17 UNL     1      -9.101  12.844  23.936  1.00  0.00     0.024 A 
HETATM   29  C18 UNL     1      -8.541  12.918  22.664  1.00  0.00     0.036 A 
HETATM   30 CL1  UNL     1      -6.992  13.639  22.455  1.00  0.00    -0.084 Cl
HETATM   31  C19 UNL     1      -9.228  12.421  21.557  1.00  0.00     0.053 A 
ENDBRANCH  15  25
BRANCH   1  32
HETATM   32  C3  UNL     1      -6.981   4.615  12.642  1.00  0.00     0.008 A 
HETATM   33  C2  UNL     1      -5.685   4.927  13.000  1.00  0.00     0.123 A 
HETATM   34  N1  UNL     1      -4.930   3.823  12.729  1.00  0.00    -0.307 N 
HETATM   35  C1  UNL     1      -3.513   3.666  12.945  1.00  0.00     0.177 C 
HETATM   36  N5  UNL     1      -5.634   2.809  12.201  1.00  0.00    -0.310 N 
HETATM   37  C26 UNL     1      -6.880   3.287  12.157  1.00  0.00     0.120 A 
ATOM     38  H5  UNL     1      -5.298   1.893  11.905  1.00  0.00     0.186 HD
ENDBRANCH   1  32
TORSDOF 2
ENDMDL
MODEL 2
REMARK minimizedAffinity -8.53584194
REMARK CNNscore 0.218343139
REMARK CNNaffinity 6.65288019
REMARK  2 active torsions:
REMARK  status: ('A' for Active; 'I' for Inactive)
REMARK    1  A    between atoms: C3_4  and  C4_5 
REMARK       I    between atoms: N3_16  and  C13_17 
REMARK       I    between atoms: C13_17  and  N4_19 
REMARK    2  A    between atoms: N4_19  and  C14_20 
ROOT
HETATM    1  C4  UNL     1      -7.956   5.236  13.987  1.00  0.00    -0.020 A 
HETATM    2  C5  UNL     1      -7.520   5.627  15.263  1.00  0.00     0.015 A 
HETATM    3  C6  UNL     1      -8.195   6.618  15.987  1.00  0.00     0.033 A 
HETATM    4  C7  UNL     1      -9.309   7.247  15.436  1.00  0.00     0.068 A 
HETATM    5  N2  UNL     1      -9.953   8.252  16.184  1.00  0.00    -0.325 N 
HETATM    6  C8  UNL     1     -10.626   9.293  15.580  1.00  0.00     0.222 C 
HETATM    7  O1  UNL     1     -10.204   9.927  14.618  1.00  0.00    -0.273 OA
HETATM    8  C9  UNL     1     -11.970   9.565  16.220  1.00  0.00     0.108 C 
HETATM    9  C10 UNL     1     -12.997  10.054  15.188  1.00  0.00     0.001 C 
HETATM   10  C11 UNL     1     -14.324  10.447  15.875  1.00  0.00     0.025 C 
HETATM   11  C12 UNL     1     -15.558   9.730  15.347  1.00  0.00     0.128 C 
HETATM   12  N3  UNL     1     -15.649   9.715  13.893  1.00  0.00    -0.334 N 
HETATM   13  C13 UNL     1     -16.903   9.457  13.337  1.00  0.00     0.322 C 
HETATM   14  O2  UNL     1     -17.856   9.134  14.043  1.00  0.00    -0.247 OA
HETATM   15  N4  UNL     1     -16.959   9.615  11.971  1.00  0.00    -0.309 N 
HETATM   16  C20 UNL     1     -14.396   9.756  13.133  1.00  0.00     0.132 C 
HETATM   17  C21 UNL     1     -13.191   9.183  13.911  1.00  0.00     0.010 C 
HETATM   18  C22 UNL     1     -13.357   7.647  14.057  1.00  0.00     0.033 C 
HETATM   19  C23 UNL     1     -12.116   6.809  14.388  1.00  0.00     0.176 C 
HETATM   20  O3  UNL     1     -10.979   7.260  13.645  1.00  0.00    -0.349 OA
HETATM   21  C24 UNL     1      -9.800   6.805  14.193  1.00  0.00     0.096 A 
HETATM   22  C25 UNL     1      -9.106   5.838  13.460  1.00  0.00     0.051 A 
HETATM   23  H7  UNL     1      -9.771   8.323  17.175  1.00  0.00     0.169 HD
HETATM   24  H15 UNL     1     -16.239  10.200  11.579  1.00  0.00     0.170 HD
ENDROOT
BRANCH  15  25
HETATM   25  C14 UNL     1     -18.023   9.278  11.110  1.00  0.00     0.037 A 
HETATM   26  C15 UNL     1     -18.311   9.965   9.928  1.00  0.00     0.029 A 
HETATM   27  C16 UNL     1     -19.397   9.588   9.132  1.00  0.00     0.004 A 
HETATM   28  C17 UNL     1     -20.208   8.522   9.512  1.00  0.00     0.024 A 
HETATM   29  C18 UNL     1     -19.929   7.837  10.691  1.00  0.00     0.036 A 
HETATM   30 CL1  UNL     1     -20.935   6.527  11.175  1.00  0.00    -0.084 Cl
HETATM   31  C19 UNL     1     -18.847   8.210  11.489  1.00  0.00     0.053 A 
ENDBRANCH  15  25
BRANCH   1  32
HETATM   32  C3  UNL     1      -7.223   4.222  13.243  1.00  0.00     0.008 A 
HETATM   33  C2  UNL     1      -5.931   4.344  12.772  1.00  0.00     0.123 A 
HETATM   34  N1  UNL     1      -5.638   3.173  12.135  1.00  0.00    -0.307 N 
HETATM   35  C1  UNL     1      -4.398   2.825  11.488  1.00  0.00     0.177 C 
HETATM   36  N5  UNL     1      -6.652   2.293  12.137  1.00  0.00    -0.310 N 
HETATM   37  C26 UNL     1      -7.611   2.927  12.818  1.00  0.00     0.120 A 
ATOM     38  H5  UNL     1      -6.682   1.363  11.719  1.00  0.00     0.186 HD
ENDBRANCH   1  32
TORSDOF 2
ENDMDL
MODEL 3
REMARK minimizedAffinity -8.23589325
REMARK CNNscore 0.169938639
REMARK CNNaffinity 4.72692966
REMARK  2 active torsions:
REMARK  status: ('A' for Active; 'I' for Inactive)
REMARK    1  A    between atoms: C3_4  and  C4_5 
REMARK       I    between atoms: N3_16  and  C13_17 
REMARK       I    between atoms: C13_17  and  N4_19 
REMARK    2  A    between atoms: N4_19  and  C14_20 
ROOT
HETATM    1  C4  UNL     1     -10.397  -9.109  17.330  1.00  0.00    -0.020 A 
HETATM    2  C5  UNL     1     -10.003 -10.031  16.347  1.00  0.00     0.015 A 
HETATM    3  C6  UNL     1     -10.482  -9.937  15.033  1.00  0.00     0.033 A 
HETATM    4  C7  UNL     1     -11.379  -8.928  14.689  1.00  0.00     0.068 A 
HETATM    5  N2  UNL     1     -11.854  -8.874  13.364  1.00  0.00    -0.325 N 
HETATM    6  C8  UNL     1     -13.097  -8.361  13.055  1.00  0.00     0.222 C 
HETATM    7  O1  UNL     1     -14.123  -8.604  13.681  1.00  0.00    -0.273 OA
HETATM    8  C9  UNL     1     -13.061  -7.435  11.859  1.00  0.00     0.108 C 
HETATM    9  C10 UNL     1     -14.097  -6.307  11.989  1.00  0.00     0.001 C 
HETATM   10  C11 UNL     1     -14.136  -5.445  10.707  1.00  0.00     0.025 C 
HETATM   11  C12 UNL     1     -13.900  -3.958  10.926  1.00  0.00     0.128 C 
HETATM   12  N3  UNL     1     -14.683  -3.395  12.018  1.00  0.00    -0.334 N 
HETATM   13  C13 UNL     1     -14.847  -2.009  12.034  1.00  0.00     0.322 C 
HETATM   14  O2  UNL     1     -14.254  -1.290  11.233  1.00  0.00    -0.247 OA
HETATM   15  N4  UNL     1     -15.725  -1.555  12.992  1.00  0.00    -0.309 N 
HETATM   16  C20 UNL     1     -15.051  -4.288  13.122  1.00  0.00     0.132 C 
HETATM   17  C21 UNL     1     -14.073  -5.469  13.303  1.00  0.00     0.010 C 
HETATM   18  C22 UNL     1     -12.718  -4.936  13.840  1.00  0.00     0.033 C 
HETATM   19  C23 UNL     1     -11.759  -5.929  14.507  1.00  0.00     0.176 C 
HETATM   20  O3  UNL     1     -12.467  -6.838  15.355  1.00  0.00    -0.349 OA
HETATM   21  C24 UNL     1     -11.715  -7.954  15.648  1.00  0.00     0.096 A 
HETATM   22  C25 UNL     1     -11.259  -8.068  16.964  1.00  0.00     0.051 A 
HETATM   23  H7  UNL     1     -11.364  -9.383  12.642  1.00  0.00     0.169 HD
HETATM   24  H15 UNL     1     -16.383  -2.240  13.327  1.00  0.00     0.170 HD
ENDROOT
BRANCH  15  25
HETATM   25  C14 UNL     1     -15.979  -0.219  13.362  1.00  0.00     0.037 A 
HETATM   26  C15 UNL     1     -15.317   0.436  14.402  1.00  0.00     0.029 A 
HETATM   27  C16 UNL     1     -15.636   1.758  14.729  1.00  0.00     0.004 A 
HETATM   28  C17 UNL     1     -16.621   2.437  14.018  1.00  0.00     0.024 A 
HETATM   29  C18 UNL     1     -17.288   1.788  12.984  1.00  0.00     0.036 A 
HETATM   30 CL1  UNL     1     -18.519   2.616  12.109  1.00  0.00    -0.084 Cl
HETATM   31  C19 UNL     1     -16.974   0.469  12.655  1.00  0.00     0.053 A 
ENDBRANCH  15  25
BRANCH   1  32
HETATM   32  C3  UNL     1      -9.905  -9.242  18.694  1.00  0.00     0.008 A 
HETATM   33  C2  UNL     1     -10.232 -10.256  19.573  1.00  0.00     0.123 A 
HETATM   34  N1  UNL     1      -9.559  -9.996  20.732  1.00  0.00    -0.307 N 
HETATM   35  C1  UNL     1      -9.576 -10.782  21.940  1.00  0.00     0.177 C 
HETATM   36  N5  UNL     1      -8.824  -8.873  20.685  1.00  0.00    -0.310 N 
HETATM   37  C26 UNL     1      -9.027  -8.421  19.444  1.00  0.00     0.120 A 
ATOM     38  H5  UNL     1      -8.249  -8.463  21.420  1.00  0.00     0.186 HD
ENDBRANCH   1  32
TORSDOF 2
ENDMDL
MODEL 4
REMARK minimizedAffinity -8.80447578
REMARK CNNscore 0.154039428
REMARK CNNaffinity 6.2531662
REMARK  2 active torsions:
REMARK  status: ('A' for Active; 'I' for Inactive)
REMARK    1  A    between atoms: C3_4  and  C4_5 
REMARK       I    between atoms: N3_16  and  C13_17 
REMARK       I    between atoms: C13_17  and  N4_19 
REMARK    2  A    between atoms: N4_19  and  C14_20 
ROOT
HETATM    1  C4  UNL     1     -17.068   9.807  11.988  1.00  0.00    -0.020 A 
HETATM    2  C5  UNL     1     -17.145  11.020  12.692  1.00  0.00     0.015 A 
HETATM    3  C6  UNL     1     -16.179  11.365  13.647  1.00  0.00     0.033 A 
HETATM    4  C7  UNL     1     -15.130  10.492  13.924  1.00  0.00     0.068 A 
HETATM    5  N2  UNL     1     -14.187  10.864  14.902  1.00  0.00    -0.325 N 
HETATM    6  C8  UNL     1     -13.509   9.927  15.655  1.00  0.00     0.222 C 
HETATM    7  O1  UNL     1     -14.028   8.940  16.167  1.00  0.00    -0.273 OA
HETATM    8  C9  UNL     1     -12.031  10.233  15.768  1.00  0.00     0.108 C 
HETATM    9  C10 UNL     1     -11.193   8.947  15.838  1.00  0.00     0.001 C 
HETATM   10  C11 UNL     1      -9.703   9.274  16.079  1.00  0.00     0.025 C 
HETATM   11  C12 UNL     1      -8.745   8.705  15.043  1.00  0.00     0.128 C 
HETATM   12  N3  UNL     1      -8.980   7.301  14.736  1.00  0.00    -0.334 N 
HETATM   13  C13 UNL     1      -7.936   6.598  14.131  1.00  0.00     0.322 C 
HETATM   14  O2  UNL     1      -6.914   7.173  13.764  1.00  0.00    -0.247 OA
HETATM   15  N4  UNL     1      -8.159   5.245  14.014  1.00  0.00    -0.309 N 
HETATM   16  C20 UNL     1     -10.348   6.793  14.882  1.00  0.00     0.132 C 
HETATM   17  C21 UNL     1     -11.425   7.887  14.720  1.00  0.00     0.010 C 
HETATM   18  C22 UNL     1     -11.475   8.344  13.237  1.00  0.00     0.033 C 
HETATM   19  C23 UNL     1     -12.728   9.076  12.743  1.00  0.00     0.176 C 
HETATM   20  O3  UNL     1     -13.916   8.471  13.263  1.00  0.00    -0.349 OA
HETATM   21  C24 UNL     1     -15.001   9.313  13.166  1.00  0.00     0.096 A 
HETATM   22  C25 UNL     1     -15.983   8.957  12.237  1.00  0.00     0.051 A 
HETATM   23  H7  UNL     1     -14.132  11.829  15.195  1.00  0.00     0.169 HD
HETATM   24  H15 UNL     1      -8.846   4.869  14.646  1.00  0.00     0.170 HD
ENDROOT
BRANCH  15  25
HETATM   25  C14 UNL     1      -7.378   4.303  13.314  1.00  0.00     0.037 A 
HETATM   26  C15 UNL     1      -7.837   3.036  12.947  1.00  0.00     0.029 A 
HETATM   27  C16 UNL     1      -6.998   2.143  12.272  1.00  0.00     0.004 A 
HETATM   28  C17 UNL     1      -5.691   2.509  11.961  1.00  0.00     0.024 A 
HETATM   29  C18 UNL     1      -5.227   3.767  12.330  1.00  0.00     0.036 A 
HETATM   30 CL1  UNL     1      -3.607   4.221  11.961  1.00  0.00    -0.084 Cl
HETATM   31  C19 UNL     1      -6.060   4.661  13.004  1.00  0.00     0.053 A 
ENDBRANCH  15  25
BRANCH   1  32
HETATM   32  C3  UNL     1     -18.097   9.459  11.019  1.00  0.00     0.008 A 
HETATM   33  C2  UNL     1     -18.345  10.122   9.833  1.00  0.00     0.123 A 
HETATM   34  N1  UNL     1     -19.387   9.472   9.236  1.00  0.00    -0.307 N 
HETATM   35  C1  UNL     1     -19.998   9.793   7.971  1.00  0.00     0.177 C 
HETATM   36  N5  UNL     1     -19.854   8.438   9.953  1.00  0.00    -0.310 N 
HETATM   37  C26 UNL     1     -19.065   8.424  11.030  1.00  0.00     0.120 A 
ATOM     38  H5  UNL     1     -20.628   7.812   9.728  1.00  0.00     0.186 HD
ENDBRANCH   1  32
TORSDOF 2
ENDMDL
MODEL 5
REMARK minimizedAffinity -9.01680279
REMARK CNNscore 0.148147449
REMARK CNNaffinity 6.19195509
REMARK  2 active torsions:
REMARK  status: ('A' for Active; 'I' for Inactive)
REMARK    1  A    between atoms: C3_4  and  C4_5 
REMARK       I    between atoms: N3_16  and  C13_17 
REMARK       I    between atoms: C13_17  and  N4_19 
REMARK    2  A    between atoms: N4_19  and  C14_20 
ROOT
HETATM    1  C4  UNL     1      -3.532   4.747  12.368  1.00  0.00    -0.020 A 
HETATM    2  C5  UNL     1      -2.272   4.474  11.811  1.00  0.00     0.015 A 
HETATM    3  C6  UNL     1      -1.209   5.376  11.950  1.00  0.00     0.033 A 
HETATM    4  C7  UNL     1      -1.396   6.574  12.635  1.00  0.00     0.068 A 
HETATM    5  N2  UNL     1      -0.310   7.465  12.740  1.00  0.00    -0.325 N 
HETATM    6  C8  UNL     1      -0.493   8.829  12.843  1.00  0.00     0.222 C 
HETATM    7  O1  UNL     1      -1.284   9.476  12.165  1.00  0.00    -0.273 OA
HETATM    8  C9  UNL     1       0.381   9.453  13.909  1.00  0.00     0.108 C 
HETATM    9  C10 UNL     1      -0.314  10.648  14.578  1.00  0.00     0.001 C 
HETATM   10  C11 UNL     1       0.636  11.351  15.573  1.00  0.00     0.025 C 
HETATM   11  C12 UNL     1       0.105  11.469  16.994  1.00  0.00     0.128 C 
HETATM   12  N3  UNL     1      -1.266  11.958  17.068  1.00  0.00    -0.334 N 
HETATM   13  C13 UNL     1      -1.690  12.478  18.293  1.00  0.00     0.322 C 
HETATM   14  O2  UNL     1      -0.977  12.410  19.292  1.00  0.00    -0.247 OA
HETATM   15  N4  UNL     1      -2.932  13.069  18.256  1.00  0.00    -0.309 N 
HETATM   16  C20 UNL     1      -2.152  11.674  15.935  1.00  0.00     0.132 C 
HETATM   17  C21 UNL     1      -1.746  10.411  15.146  1.00  0.00     0.010 C 
HETATM   18  C22 UNL     1      -2.021   9.152  16.012  1.00  0.00     0.033 C 
HETATM   19  C23 UNL     1      -2.119   7.793  15.311  1.00  0.00     0.176 C 
HETATM   20  O3  UNL     1      -2.856   7.897  14.088  1.00  0.00    -0.349 OA
HETATM   21  C24 UNL     1      -2.631   6.818  13.264  1.00  0.00     0.096 A 
HETATM   22  C25 UNL     1      -3.699   5.931  13.097  1.00  0.00     0.051 A 
HETATM   23  H7  UNL     1       0.625   7.129  12.555  1.00  0.00     0.169 HD
HETATM   24  H15 UNL     1      -3.239  13.361  17.343  1.00  0.00     0.170 HD
ENDROOT
BRANCH  15  25
HETATM   25  C14 UNL     1      -3.695  13.535  19.346  1.00  0.00     0.037 A 
HETATM   26  C15 UNL     1      -4.815  12.869  19.849  1.00  0.00     0.029 A 
HETATM   27  C16 UNL     1      -5.538  13.403  20.921  1.00  0.00     0.004 A 
HETATM   28  C17 UNL     1      -5.149  14.609  21.498  1.00  0.00     0.024 A 
HETATM   29  C18 UNL     1      -4.037  15.279  20.996  1.00  0.00     0.036 A 
HETATM   30 CL1  UNL     1      -3.558  16.778  21.695  1.00  0.00    -0.084 Cl
HETATM   31  C19 UNL     1      -3.314  14.751  19.927  1.00  0.00     0.053 A 
ENDBRANCH  15  25
BRANCH   1  32
HETATM   32  C3  UNL     1      -4.629   3.806  12.188  1.00  0.00     0.008 A 
HETATM   33  C2  UNL     1      -5.855   3.868  12.820  1.00  0.00     0.123 A 
HETATM   34  N1  UNL     1      -6.577   2.801  12.370  1.00  0.00    -0.307 N 
HETATM   35  C1  UNL     1      -7.925   2.448  12.740  1.00  0.00     0.177 C 
HETATM   36  N5  UNL     1      -5.908   2.030  11.498  1.00  0.00    -0.310 N 
HETATM   37  C26 UNL     1      -4.729   2.646  11.381  1.00  0.00     0.120 A 
ATOM     38  H5  UNL     1      -6.225   1.178  11.036  1.00  0.00     0.186 HD
ENDBRANCH   1  32
TORSDOF 2
ENDMDL
MODEL 6
REMARK minimizedAffinity -7.85065794
REMARK CNNscore 0.139664814
REMARK CNNaffinity 5.82380295
REMARK  2 active torsions:
REMARK  status: ('A' for Active; 'I' for Inactive)
REMARK    1  A    between atoms: C3_4  and  C4_5 
REMARK       I    between atoms: N3_16  and  C13_17 
REMARK       I    between atoms: C13_17  and  N4_19 
REMARK    2  A    between atoms: N4_19  and  C14_20 
ROOT
HETATM    1  C4  UNL     1      -2.602  14.841  15.483  1.00  0.00    -0.020 A 
HETATM    2  C5  UNL     1      -1.271  15.186  15.764  1.00  0.00     0.015 A 
HETATM    3  C6  UNL     1      -0.289  14.202  15.940  1.00  0.00     0.033 A 
HETATM    4  C7  UNL     1      -0.630  12.854  15.856  1.00  0.00     0.068 A 
HETATM    5  N2  UNL     1       0.378  11.892  16.056  1.00  0.00    -0.325 N 
HETATM    6  C8  UNL     1       0.101  10.640  16.566  1.00  0.00     0.222 C 
HETATM    7  O1  UNL     1      -0.642  10.428  17.519  1.00  0.00    -0.273 OA
HETATM    8  C9  UNL     1       0.801   9.535  15.805  1.00  0.00     0.108 C 
HETATM    9  C10 UNL     1      -0.042   8.251  15.775  1.00  0.00     0.001 C 
HETATM   10  C11 UNL     1       0.738   7.097  15.106  1.00  0.00     0.025 C 
HETATM   11  C12 UNL     1       0.034   6.448  13.923  1.00  0.00     0.128 C 
HETATM   12  N3  UNL     1      -1.363   6.123  14.179  1.00  0.00    -0.334 N 
HETATM   13  C13 UNL     1      -1.961   5.184  13.337  1.00  0.00     0.322 C 
HETATM   14  O2  UNL     1      -1.370   4.748  12.351  1.00  0.00    -0.247 OA
HETATM   15  N4  UNL     1      -3.225   4.800  13.726  1.00  0.00    -0.309 N 
HETATM   16  C20 UNL     1      -2.088   6.951  15.147  1.00  0.00     0.132 C 
HETATM   17  C21 UNL     1      -1.513   8.378  15.280  1.00  0.00     0.010 C 
HETATM   18  C22 UNL     1      -1.812   9.175  13.981  1.00  0.00     0.033 C 
HETATM   19  C23 UNL     1      -1.742  10.706  14.035  1.00  0.00     0.176 C 
HETATM   20  O3  UNL     1      -2.332  11.206  15.238  1.00  0.00    -0.349 OA
HETATM   21  C24 UNL     1      -1.944  12.502  15.496  1.00  0.00     0.096 A 
HETATM   22  C25 UNL     1      -2.928  13.485  15.351  1.00  0.00     0.051 A 
HETATM   23  H7  UNL     1       1.347  12.172  16.001  1.00  0.00     0.169 HD
HETATM   24  H15 UNL     1      -3.437   4.955  14.698  1.00  0.00     0.170 HD
ENDROOT
BRANCH  15  25
HETATM   25  C14 UNL     1      -4.140   4.003  13.009  1.00  0.00     0.037 A 
HETATM   26  C15 UNL     1      -3.760   2.977  12.142  1.00  0.00     0.029 A 
HETATM   27  C16 UNL     1      -4.723   2.239  11.446  1.00  0.00     0.004 A 
HETATM   28  C17 UNL     1      -6.076   2.523  11.611  1.00  0.00     0.024 A 
HETATM   29  C18 UNL     1      -6.461   3.548  12.470  1.00  0.00     0.036 A 
HETATM   30 CL1  UNL     1      -8.131   3.915  12.668  1.00  0.00    -0.084 Cl
HETATM   31  C19 UNL     1      -5.503   4.287  13.165  1.00  0.00     0.053 A 
ENDBRANCH  15  25
BRANCH   1  32
HETATM   32  C3  UNL     1      -3.610  15.881  15.329  1.00  0.00     0.008 A 
HETATM   33  C2  UNL     1      -4.708  15.821  14.494  1.00  0.00     0.123 A 
HETATM   34  N1  UNL     1      -5.382  16.997  14.656  1.00  0.00    -0.307 N 
HETATM   35  C1  UNL     1      -6.602  17.395  13.999  1.00  0.00     0.177 C 
HETATM   36  N5  UNL     1      -4.796  17.835  15.526  1.00  0.00    -0.310 N 
HETATM   37  C26 UNL     1      -3.726  17.153  15.941  1.00  0.00     0.120 A 
ATOM     38  H5  UNL     1      -5.098  18.769  15.804  1.00  0.00     0.186 HD
ENDBRANCH   1  32
TORSDOF 2
ENDMDL
MODEL 7
REMARK minimizedAffinity -7.18090916
REMARK CNNscore 0.135413617
REMARK CNNaffinity 4.80414295
REMARK  2 active torsions:
REMARK  status: ('A' for Active; 'I' for Inactive)
REMARK    1  A    between atoms: C3_4  and  C4_5 
REMARK       I    between atoms: N3_16  and  C13_17 
REMARK       I    between atoms: C13_17  and  N4_19 
REMARK    2  A    between atoms: N4_19  and  C14_20 
ROOT
HETATM    1  C4  UNL     1     -11.323  -8.543  16.526  1.00  0.00    -0.020 A 
HETATM    2  C5  UNL     1     -10.766  -9.019  15.328  1.00  0.00     0.015 A 
HETATM    3  C6  UNL     1     -11.146  -8.483  14.090  1.00  0.00     0.033 A 
HETATM    4  C7  UNL     1     -12.103  -7.473  14.032  1.00  0.00     0.068 A 
HETATM    5  N2  UNL     1     -12.474  -6.970  12.770  1.00  0.00    -0.325 N 
HETATM    6  C8  UNL     1     -13.731  -6.454  12.530  1.00  0.00     0.222 C 
HETATM    7  O1  UNL     1     -14.777  -6.969  12.913  1.00  0.00    -0.273 OA
HETATM    8  C9  UNL     1     -13.688  -5.157  11.753  1.00  0.00     0.108 C 
HETATM    9  C10 UNL     1     -14.833  -4.217  12.163  1.00  0.00     0.001 C 
HETATM   10  C11 UNL     1     -14.850  -2.952  11.275  1.00  0.00     0.025 C 
HETATM   11  C12 UNL     1     -14.775  -1.635  12.033  1.00  0.00     0.128 C 
HETATM   12  N3  UNL     1     -15.693  -1.556  13.162  1.00  0.00    -0.334 N 
HETATM   13  C13 UNL     1     -15.989  -0.282  13.652  1.00  0.00     0.322 C 
HETATM   14  O2  UNL     1     -15.404   0.712  13.229  1.00  0.00    -0.247 OA
HETATM   15  N4  UNL     1     -16.980  -0.260  14.607  1.00  0.00    -0.309 N 
HETATM   16  C20 UNL     1     -16.062  -2.808  13.828  1.00  0.00     0.132 C 
HETATM   17  C21 UNL     1     -14.994  -3.914  13.683  1.00  0.00     0.010 C 
HETATM   18  C22 UNL     1     -13.743  -3.534  14.519  1.00  0.00     0.033 C 
HETATM   19  C23 UNL     1     -12.750  -4.642  14.889  1.00  0.00     0.176 C 
HETATM   20  O3  UNL     1     -13.435  -5.837  15.275  1.00  0.00    -0.349 OA
HETATM   21  C24 UNL     1     -12.606  -6.936  15.232  1.00  0.00     0.096 A 
HETATM   22  C25 UNL     1     -12.249  -7.494  16.462  1.00  0.00     0.051 A 
HETATM   23  H7  UNL     1     -11.882  -7.151  11.972  1.00  0.00     0.169 HD
HETATM   24  H15 UNL     1     -17.594  -1.059  14.603  1.00  0.00     0.170 HD
ENDROOT
BRANCH  15  25
HETATM   25  C14 UNL     1     -17.388   0.832  15.398  1.00  0.00     0.037 A 
HETATM   26  C15 UNL     1     -16.618   1.981  15.589  1.00  0.00     0.029 A 
HETATM   27  C16 UNL     1     -17.077   3.019  16.407  1.00  0.00     0.004 A 
HETATM   28  C17 UNL     1     -18.310   2.915  17.044  1.00  0.00     0.024 A 
HETATM   29  C18 UNL     1     -19.080   1.770  16.863  1.00  0.00     0.036 A 
HETATM   30 CL1  UNL     1     -20.600   1.627  17.659  1.00  0.00    -0.084 Cl
HETATM   31  C19 UNL     1     -18.625   0.732  16.048  1.00  0.00     0.053 A 
ENDBRANCH  15  25
BRANCH   1  32
HETATM   32  C3  UNL     1     -10.932  -9.133  17.798  1.00  0.00     0.008 A 
HETATM   33  C2  UNL     1      -9.720  -8.949  18.433  1.00  0.00     0.123 A 
HETATM   34  N1  UNL     1      -9.770  -9.678  19.585  1.00  0.00    -0.307 N 
HETATM   35  C1  UNL     1      -8.740  -9.792  20.586  1.00  0.00     0.177 C 
HETATM   36  N5  UNL     1     -10.925 -10.344  19.748  1.00  0.00    -0.310 N 
HETATM   37  C26 UNL     1     -11.633 -10.006  18.667  1.00  0.00     0.120 A 
ATOM     38  H5  UNL     1     -11.196 -10.961  20.513  1.00  0.00     0.186 HD
ENDBRANCH   1  32
TORSDOF 2
ENDMDL
MODEL 8
REMARK minimizedAffinity -9.5636034
REMARK CNNscore 0.135345638
REMARK CNNaffinity 5.18787384
REMARK  2 active torsions:
REMARK  status: ('A' for Active; 'I' for Inactive)
REMARK    1  A    between atoms: C3_4  and  C4_5 
REMARK       I    between atoms: N3_16  and  C13_17 
REMARK       I    between atoms: C13_17  and  N4_19 
REMARK    2  A    between atoms: N4_19  and  C14_20 
ROOT
HETATM    1  C4  UNL     1       9.124  11.860  20.116  1.00  0.00    -0.020 A 
HETATM    2  C5  UNL     1      10.462  11.647  19.746  1.00  0.00     0.015 A 
HETATM    3  C6  UNL     1      10.788  10.857  18.636  1.00  0.00     0.033 A 
HETATM    4  C7  UNL     1       9.779  10.252  17.889  1.00  0.00     0.068 A 
HETATM    5  N2  UNL     1      10.145   9.450  16.791  1.00  0.00    -0.325 N 
HETATM    6  C8  UNL     1       9.367   8.390  16.371  1.00  0.00     0.222 C 
HETATM    7  O1  UNL     1       8.850   7.570  17.121  1.00  0.00    -0.273 OA
HETATM    8  C9  UNL     1       9.197   8.355  14.868  1.00  0.00     0.108 C 
HETATM    9  C10 UNL     1       7.821   7.800  14.469  1.00  0.00     0.001 C 
HETATM   10  C11 UNL     1       7.710   7.652  12.935  1.00  0.00     0.025 C 
HETATM   11  C12 UNL     1       6.536   8.384  12.303  1.00  0.00     0.128 C 
HETATM   12  N3  UNL     1       5.271   8.166  12.992  1.00  0.00    -0.334 N 
HETATM   13  C13 UNL     1       4.103   8.445  12.280  1.00  0.00     0.322 C 
HETATM   14  O2  UNL     1       4.147   8.968  11.168  1.00  0.00    -0.247 OA
HETATM   15  N4  UNL     1       2.945   8.069  12.923  1.00  0.00    -0.309 N 
HETATM   16  C20 UNL     1       5.319   7.883  14.430  1.00  0.00     0.132 C 
HETATM   17  C21 UNL     1       6.571   8.462  15.123  1.00  0.00     0.010 C 
HETATM   18  C22 UNL     1       6.467  10.010  15.167  1.00  0.00     0.033 C 
HETATM   19  C23 UNL     1       7.342  10.771  16.170  1.00  0.00     0.176 C 
HETATM   20  O3  UNL     1       7.379  10.100  17.433  1.00  0.00    -0.349 OA
HETATM   21  C24 UNL     1       8.435  10.526  18.206  1.00  0.00     0.096 A 
HETATM   22  C25 UNL     1       8.114  11.289  19.331  1.00  0.00     0.051 A 
HETATM   23  H7  UNL     1      11.077   9.527  16.411  1.00  0.00     0.169 HD
HETATM   24  H15 UNL     1       3.061   7.363  13.631  1.00  0.00     0.170 HD
ENDROOT
BRANCH  15  25
HETATM   25  C14 UNL     1       1.619   8.357  12.544  1.00  0.00     0.037 A 
HETATM   26  C15 UNL     1       0.595   8.635  13.452  1.00  0.00     0.029 A 
HETATM   27  C16 UNL     1      -0.705   8.890  13.004  1.00  0.00     0.004 A 
HETATM   28  C17 UNL     1      -0.994   8.867  11.643  1.00  0.00     0.024 A 
HETATM   29  C18 UNL     1       0.020   8.584  10.733  1.00  0.00     0.036 A 
HETATM   30 CL1  UNL     1      -0.332   8.539   9.048  1.00  0.00    -0.084 Cl
HETATM   31  C19 UNL     1       1.318   8.328  11.175  1.00  0.00     0.053 A 
ENDBRANCH  15  25
BRANCH   1  32
HETATM   32  C3  UNL     1       8.810  12.665  21.288  1.00  0.00     0.008 A 
HETATM   33  C2  UNL     1       8.908  14.039  21.372  1.00  0.00     0.123 A 
HETATM   34  N1  UNL     1       8.524  14.379  22.637  1.00  0.00    -0.307 N 
HETATM   35  C1  UNL     1       8.452  15.706  23.195  1.00  0.00     0.177 C 
HETATM   36  N5  UNL     1       8.196  13.324  23.399  1.00  0.00    -0.310 N 
HETATM   37  C26 UNL     1       8.361  12.284  22.577  1.00  0.00     0.120 A 
ATOM     38  H5  UNL     1       7.893  13.318  24.373  1.00  0.00     0.186 HD
ENDBRANCH   1  32
TORSDOF 2
ENDMDL
MODEL 9
REMARK minimizedAffinity -7.23071814
REMARK CNNscore 0.123782441
REMARK CNNaffinity 5.06889439
REMARK  2 active torsions:
REMARK  status: ('A' for Active; 'I' for Inactive)
REMARK    1  A    between atoms: C3_4  and  C4_5 
REMARK       I    between atoms: N3_16  and  C13_17 
REMARK       I    between atoms: C13_17  and  N4_19 
REMARK    2  A    between atoms: N4_19  and  C14_20 
ROOT
HETATM    1  C4  UNL     1      -6.355 -10.293  10.984  1.00  0.00    -0.020 A 
HETATM    2  C5  UNL     1      -5.101  -9.731  11.269  1.00  0.00     0.015 A 
HETATM    3  C6  UNL     1      -4.111  -9.630  10.282  1.00  0.00     0.033 A 
HETATM    4  C7  UNL     1      -4.358 -10.107   8.997  1.00  0.00     0.068 A 
HETATM    5  N2  UNL     1      -3.334 -10.005   8.034  1.00  0.00    -0.325 N 
HETATM    6  C8  UNL     1      -3.220 -10.903   6.993  1.00  0.00     0.222 C 
HETATM    7  O1  UNL     1      -3.336 -12.119   7.110  1.00  0.00    -0.273 OA
HETATM    8  C9  UNL     1      -2.954 -10.224   5.668  1.00  0.00     0.108 C 
HETATM    9  C10 UNL     1      -3.601 -10.990   4.503  1.00  0.00     0.001 C 
HETATM   10  C11 UNL     1      -3.216 -10.356   3.147  1.00  0.00     0.025 C 
HETATM   11  C12 UNL     1      -4.392  -9.944   2.274  1.00  0.00     0.128 C 
HETATM   12  N3  UNL     1      -5.422 -10.968   2.157  1.00  0.00    -0.334 N 
HETATM   13  C13 UNL     1      -6.311 -10.855   1.086  1.00  0.00     0.322 C 
HETATM   14  O2  UNL     1      -6.300  -9.869   0.353  1.00  0.00    -0.247 OA
HETATM   15  N4  UNL     1      -7.154 -11.933   0.936  1.00  0.00    -0.309 N 
HETATM   16  C20 UNL     1      -5.582 -11.903   3.274  1.00  0.00     0.132 C 
HETATM   17  C21 UNL     1      -5.118 -11.322   4.627  1.00  0.00     0.010 C 
HETATM   18  C22 UNL     1      -6.105 -10.210   5.075  1.00  0.00     0.033 C 
HETATM   19  C23 UNL     1      -6.118  -9.800   6.552  1.00  0.00     0.176 C 
HETATM   20  O3  UNL     1      -6.018 -10.945   7.405  1.00  0.00    -0.349 OA
HETATM   21  C24 UNL     1      -5.639 -10.597   8.682  1.00  0.00     0.096 A 
HETATM   22  C25 UNL     1      -6.613 -10.725   9.676  1.00  0.00     0.051 A 
HETATM   23  H7  UNL     1      -2.559  -9.379   8.201  1.00  0.00     0.169 HD
HETATM   24  H15 UNL     1      -6.834 -12.788   1.361  1.00  0.00     0.170 HD
ENDROOT
BRANCH  15  25
HETATM   25  C14 UNL     1      -8.255 -12.048   0.063  1.00  0.00     0.037 A 
HETATM   26  C15 UNL     1      -9.015 -13.211  -0.077  1.00  0.00     0.029 A 
HETATM   27  C16 UNL     1     -10.081 -13.261  -0.980  1.00  0.00     0.004 A 
HETATM   28  C17 UNL     1     -10.397 -12.147  -1.754  1.00  0.00     0.024 A 
HETATM   29  C18 UNL     1      -9.639 -10.987  -1.623  1.00  0.00     0.036 A 
HETATM   30 CL1  UNL     1     -10.013  -9.610  -2.587  1.00  0.00    -0.084 Cl
HETATM   31  C19 UNL     1      -8.574 -10.934  -0.724  1.00  0.00     0.053 A 
ENDBRANCH  15  25
BRANCH   1  32
HETATM   32  C3  UNL     1      -7.359 -10.411  12.032  1.00  0.00     0.008 A 
HETATM   33  C2  UNL     1      -8.424  -9.555  12.227  1.00  0.00     0.123 A 
HETATM   34  N1  UNL     1      -9.107 -10.026  13.311  1.00  0.00    -0.307 N 
HETATM   35  C1  UNL     1     -10.302  -9.469  13.894  1.00  0.00     0.177 C 
HETATM   36  N5  UNL     1      -8.556 -11.123  13.856  1.00  0.00    -0.310 N 
HETATM   37  C26 UNL     1      -7.500 -11.361  13.073  1.00  0.00     0.120 A 
ATOM     38  H5  UNL     1      -8.870 -11.648  14.672  1.00  0.00     0.186 HD
ENDBRANCH   1  32
TORSDOF 2
ENDMDL
