MODEL 1
REMARK minimizedAffinity -8.53291035
REMARK CNNscore 0.616634309
REMARK CNNaffinity 7.627388
REMARK  15 active torsions:
REMARK  status: ('A' for Active; 'I' for Inactive)
REMARK    1  A    between atoms: C19_20  and  O2_21 
REMARK    2  A    between atoms: C19_20  and  C20_22 
REMARK    3  A    between atoms: C20_22  and  C21_24 
REMARK    4  A    between atoms: C21_24  and  O4_25 
REMARK    5  A    between atoms: O4_25  and  C22_26 
REMARK    6  A    between atoms: C22_26  and  C23_28 
REMARK    7  A    between atoms: C23_28  and  C24_29 
REMARK    8  A    between atoms: C24_29  and  C25_30 
REMARK       I    between atoms: C25_30  and  N1_32 
REMARK    9  A    between atoms: N1_32  and  C26_33 
REMARK   10  A    between atoms: C26_33  and  C27_34 
REMARK   11  A    between atoms: C27_34  and  C28_35 
REMARK   12  A    between atoms: C28_35  and  C29_36 
REMARK   13  A    between atoms: C29_36  and  C30_37 
REMARK   14  A    between atoms: C30_37  and  C31_38 
REMARK   15  A    between atoms: C31_38  and  O8_40 
ROOT
HETATM    1  C1  UNL     1       1.707   7.656  11.363  1.00  0.00     0.020 C 
HETATM    2  C2  UNL     1       0.779   7.868  12.594  1.00  0.00    -0.016 C 
HETATM    3  C3  UNL     1       1.183   9.220  13.252  1.00  0.00     0.022 C 
HETATM    4  C4  UNL     1       2.535   9.200  13.952  1.00  0.00     0.084 C 
HETATM    5  C5  UNL     1       2.578   8.091  14.967  1.00  0.00     0.149 C 
HETATM    6  O1  UNL     1       3.254   8.158  15.989  1.00  0.00    -0.293 OA
HETATM    7  C6  UNL     1       1.847   6.842  14.657  1.00  0.00     0.053 C 
HETATM    8  C7  UNL     1       1.075   6.715  13.562  1.00  0.00    -0.068 C 
HETATM    9  C8  UNL     1       0.496   5.351  13.270  1.00  0.00     0.035 C 
HETATM   10  C9  UNL     1      -0.688   5.355  12.315  1.00  0.00     0.010 C 
HETATM   11  C10 UNL     1      -1.556   6.606  12.434  1.00  0.00    -0.004 C 
HETATM   12  C11 UNL     1      -0.734   7.879  12.064  1.00  0.00     0.002 C 
HETATM   13  C12 UNL     1      -1.576   9.165  12.297  1.00  0.00     0.007 C 
HETATM   14  C13 UNL     1      -2.352   9.236  13.623  1.00  0.00     0.013 C 
HETATM   15  C14 UNL     1      -3.197   7.972  13.878  1.00  0.00    -0.002 C 
HETATM   16  C15 UNL     1      -4.348   7.886  12.841  1.00  0.00     0.019 C 
HETATM   17  C16 UNL     1      -2.214   6.775  13.812  1.00  0.00     0.002 C 
HETATM   18  C17 UNL     1      -3.029   5.611  14.360  1.00  0.00     0.009 C 
HETATM   19  C18 UNL     1      -3.902   6.240  15.459  1.00  0.00     0.047 C 
HETATM   20  C19 UNL     1      -3.760   7.783  15.323  1.00  0.00     0.128 C 
ENDROOT
BRANCH  20  21
HETATM   21  O2  UNL     1      -2.791   8.216  16.282  1.00  0.00    -0.381 OA
HETATM   22  H27 UNL     1      -3.098   7.949  17.170  1.00  0.00     0.211 HD
ENDBRANCH  20  21
BRANCH  20  23
HETATM   23  C20 UNL     1      -5.088   8.521  15.603  1.00  0.00     0.185 C 
HETATM   24  O3  UNL     1      -5.166   9.754  15.608  1.00  0.00    -0.292 OA
BRANCH  23  25
HETATM   25  C21 UNL     1      -6.316   7.655  15.890  1.00  0.00     0.260 C 
BRANCH  25  26
HETATM   26  O4  UNL     1      -7.413   7.972  15.032  1.00  0.00    -0.314 OA
BRANCH  26  27
HETATM   27  C22 UNL     1      -8.341   6.980  14.934  1.00  0.00     0.259 C 
HETATM   28  O5  UNL     1      -9.189   6.729  15.780  1.00  0.00    -0.265 OA
BRANCH  27  29
HETATM   29  C23 UNL     1      -8.150   6.199  13.668  1.00  0.00     0.120 C 
BRANCH  29  30
HETATM   30  C24 UNL     1      -7.093   5.128  13.883  1.00  0.00     0.112 C 
BRANCH  30  31
HETATM   31  C25 UNL     1      -7.432   3.862  13.129  1.00  0.00     0.217 C 
HETATM   32  O6  UNL     1      -8.574   3.435  13.005  1.00  0.00    -0.274 OA
HETATM   33  N1  UNL     1      -6.324   3.232  12.601  1.00  0.00    -0.361 N 
HETATM   34  H34 UNL     1      -5.470   3.772  12.529  1.00  0.00     0.162 HD
BRANCH  33  35
HETATM   35  C26 UNL     1      -6.475   2.071  11.747  1.00  0.00     0.122 C 
BRANCH  35  36
HETATM   36  C27 UNL     1      -5.119   1.532  11.297  1.00  0.00     0.020 C 
BRANCH  36  37
HETATM   37  C28 UNL     1      -3.988   2.558  11.427  1.00  0.00     0.002 C 
BRANCH  37  38
HETATM   38  C29 UNL     1      -2.604   1.984  11.741  1.00  0.00     0.010 C 
BRANCH  38  39
HETATM   39  C30 UNL     1      -1.594   2.182  10.613  1.00  0.00     0.110 C 
BRANCH  39  40
HETATM   40  C31 UNL     1      -0.807   0.927  10.343  1.00  0.00     0.139 C 
HETATM   41  O7  UNL     1      -0.286   0.185  11.158  1.00  0.00    -0.650 OA
BRANCH  40  42
HETATM   42  O8  UNL     1      -0.723   0.663   9.023  1.00  0.00    -0.776 OA
HETATM   43  H45 UNL     1      -0.199  -0.165   8.980  1.00  0.00     0.167 HD
ENDBRANCH  40  42
ENDBRANCH  39  40
ENDBRANCH  38  39
ENDBRANCH  37  38
ENDBRANCH  36  37
ENDBRANCH  35  36
ENDBRANCH  33  35
ENDBRANCH  30  31
ENDBRANCH  29  30
ENDBRANCH  27  29
ENDBRANCH  26  27
ENDBRANCH  25  26
ENDBRANCH  23  25
ENDBRANCH  20  23
TORSDOF 15
ENDMDL
MODEL 2
REMARK minimizedAffinity -7.55055857
REMARK CNNscore 0.503184795
REMARK CNNaffinity 7.49695635
REMARK  15 active torsions:
REMARK  status: ('A' for Active; 'I' for Inactive)
REMARK    1  A    between atoms: C19_20  and  O2_21 
REMARK    2  A    between atoms: C19_20  and  C20_22 
REMARK    3  A    between atoms: C20_22  and  C21_24 
REMARK    4  A    between atoms: C21_24  and  O4_25 
REMARK    5  A    between atoms: O4_25  and  C22_26 
REMARK    6  A    between atoms: C22_26  and  C23_28 
REMARK    7  A    between atoms: C23_28  and  C24_29 
REMARK    8  A    between atoms: C24_29  and  C25_30 
REMARK       I    between atoms: C25_30  and  N1_32 
REMARK    9  A    between atoms: N1_32  and  C26_33 
REMARK   10  A    between atoms: C26_33  and  C27_34 
REMARK   11  A    between atoms: C27_34  and  C28_35 
REMARK   12  A    between atoms: C28_35  and  C29_36 
REMARK   13  A    between atoms: C29_36  and  C30_37 
REMARK   14  A    between atoms: C30_37  and  C31_38 
REMARK   15  A    between atoms: C31_38  and  O8_40 
ROOT
HETATM    1  C1  UNL     1       1.901   6.413  12.826  1.00  0.00     0.020 C 
HETATM    2  C2  UNL     1       0.408   6.832  12.699  1.00  0.00    -0.016 C 
HETATM    3  C3  UNL     1      -0.151   6.171  11.405  1.00  0.00     0.022 C 
HETATM    4  C4  UNL     1       0.391   6.763  10.111  1.00  0.00     0.084 C 
HETATM    5  C5  UNL     1       0.159   8.248  10.082  1.00  0.00     0.149 C 
HETATM    6  O1  UNL     1      -0.009   8.869   9.036  1.00  0.00    -0.293 OA
HETATM    7  C6  UNL     1       0.236   8.986  11.362  1.00  0.00     0.053 C 
HETATM    8  C7  UNL     1       0.401   8.359  12.543  1.00  0.00    -0.068 C 
HETATM    9  C8  UNL     1       0.613   9.218  13.766  1.00  0.00     0.035 C 
HETATM   10  C9  UNL     1       0.353   8.515  15.089  1.00  0.00     0.010 C 
HETATM   11  C10 UNL     1      -0.751   7.463  15.007  1.00  0.00    -0.004 C 
HETATM   12  C11 UNL     1      -0.351   6.326  14.017  1.00  0.00     0.002 C 
HETATM   13  C12 UNL     1      -1.519   5.315  13.839  1.00  0.00     0.007 C 
HETATM   14  C13 UNL     1      -2.916   5.923  13.626  1.00  0.00     0.013 C 
HETATM   15  C14 UNL     1      -3.263   6.983  14.689  1.00  0.00    -0.002 C 
HETATM   16  C15 UNL     1      -3.420   6.309  16.078  1.00  0.00     0.019 C 
HETATM   17  C16 UNL     1      -2.128   8.036  14.638  1.00  0.00     0.002 C 
HETATM   18  C17 UNL     1      -2.667   9.188  15.475  1.00  0.00     0.009 C 
HETATM   19  C18 UNL     1      -4.176   9.203  15.176  1.00  0.00     0.047 C 
HETATM   20  C19 UNL     1      -4.496   7.896  14.394  1.00  0.00     0.128 C 
ENDROOT
BRANCH  20  21
HETATM   21  O2  UNL     1      -4.536   8.223  13.002  1.00  0.00    -0.381 OA
HETATM   22  H27 UNL     1      -5.216   8.911  12.867  1.00  0.00     0.211 HD
ENDBRANCH  20  21
BRANCH  20  23
HETATM   23  C20 UNL     1      -5.861   7.293  14.794  1.00  0.00     0.185 C 
HETATM   24  O3  UNL     1      -6.194   6.149  14.467  1.00  0.00    -0.292 OA
BRANCH  23  25
HETATM   25  C21 UNL     1      -6.801   8.183  15.609  1.00  0.00     0.260 C 
BRANCH  25  26
HETATM   26  O4  UNL     1      -7.861   8.719  14.815  1.00  0.00    -0.314 OA
BRANCH  26  27
HETATM   27  C22 UNL     1      -9.105   8.416  15.279  1.00  0.00     0.259 C 
HETATM   28  O5  UNL     1      -9.541   8.742  16.374  1.00  0.00    -0.265 OA
BRANCH  27  29
HETATM   29  C23 UNL     1      -9.853   7.581  14.282  1.00  0.00     0.120 C 
BRANCH  29  30
HETATM   30  C24 UNL     1      -9.452   6.123  14.436  1.00  0.00     0.112 C 
BRANCH  30  31
HETATM   31  C25 UNL     1      -8.936   5.554  13.133  1.00  0.00     0.217 C 
HETATM   32  O6  UNL     1      -9.126   6.083  12.043  1.00  0.00    -0.274 OA
HETATM   33  N1  UNL     1      -8.234   4.378  13.294  1.00  0.00    -0.361 N 
HETATM   34  H34 UNL     1      -7.909   4.153  14.226  1.00  0.00     0.162 HD
BRANCH  33  35
HETATM   35  C26 UNL     1      -7.567   3.758  12.167  1.00  0.00     0.122 C 
BRANCH  35  36
HETATM   36  C27 UNL     1      -6.081   3.550  12.448  1.00  0.00     0.020 C 
BRANCH  36  37
HETATM   37  C28 UNL     1      -5.410   2.585  11.465  1.00  0.00     0.002 C 
BRANCH  37  38
HETATM   38  C29 UNL     1      -3.990   2.143  11.833  1.00  0.00     0.010 C 
BRANCH  38  39
HETATM   39  C30 UNL     1      -2.902   3.014  11.208  1.00  0.00     0.110 C 
BRANCH  39  40
HETATM   40  C31 UNL     1      -1.611   2.257  11.042  1.00  0.00     0.139 C 
HETATM   41  O7  UNL     1      -0.476   2.681  11.178  1.00  0.00    -0.650 OA
BRANCH  40  42
HETATM   42  O8  UNL     1      -1.826   0.968  10.710  1.00  0.00    -0.776 OA
HETATM   43  H45 UNL     1      -0.925   0.589  10.634  1.00  0.00     0.167 HD
ENDBRANCH  40  42
ENDBRANCH  39  40
ENDBRANCH  38  39
ENDBRANCH  37  38
ENDBRANCH  36  37
ENDBRANCH  35  36
ENDBRANCH  33  35
ENDBRANCH  30  31
ENDBRANCH  29  30
ENDBRANCH  27  29
ENDBRANCH  26  27
ENDBRANCH  25  26
ENDBRANCH  23  25
ENDBRANCH  20  23
TORSDOF 15
ENDMDL
MODEL 3
REMARK minimizedAffinity -7.35643578
REMARK CNNscore 0.399945766
REMARK CNNaffinity 7.14218521
REMARK  15 active torsions:
REMARK  status: ('A' for Active; 'I' for Inactive)
REMARK    1  A    between atoms: C19_20  and  O2_21 
REMARK    2  A    between atoms: C19_20  and  C20_22 
REMARK    3  A    between atoms: C20_22  and  C21_24 
REMARK    4  A    between atoms: C21_24  and  O4_25 
REMARK    5  A    between atoms: O4_25  and  C22_26 
REMARK    6  A    between atoms: C22_26  and  C23_28 
REMARK    7  A    between atoms: C23_28  and  C24_29 
REMARK    8  A    between atoms: C24_29  and  C25_30 
REMARK       I    between atoms: C25_30  and  N1_32 
REMARK    9  A    between atoms: N1_32  and  C26_33 
REMARK   10  A    between atoms: C26_33  and  C27_34 
REMARK   11  A    between atoms: C27_34  and  C28_35 
REMARK   12  A    between atoms: C28_35  and  C29_36 
REMARK   13  A    between atoms: C29_36  and  C30_37 
REMARK   14  A    between atoms: C30_37  and  C31_38 
REMARK   15  A    between atoms: C31_38  and  O8_40 
ROOT
HETATM    1  C1  UNL     1      -9.116   6.910  14.307  1.00  0.00     0.020 C 
HETATM    2  C2  UNL     1      -7.712   6.337  13.959  1.00  0.00    -0.016 C 
HETATM    3  C3  UNL     1      -7.729   5.949  12.452  1.00  0.00     0.022 C 
HETATM    4  C4  UNL     1      -8.589   4.735  12.124  1.00  0.00     0.084 C 
HETATM    5  C5  UNL     1      -8.168   3.560  12.962  1.00  0.00     0.149 C 
HETATM    6  O1  UNL     1      -8.277   2.400  12.575  1.00  0.00    -0.293 OA
HETATM    7  C6  UNL     1      -7.696   3.825  14.339  1.00  0.00     0.053 C 
HETATM    8  C7  UNL     1      -7.537   5.075  14.815  1.00  0.00    -0.068 C 
HETATM    9  C8  UNL     1      -7.193   5.227  16.277  1.00  0.00     0.035 C 
HETATM   10  C9  UNL     1      -6.603   6.578  16.653  1.00  0.00     0.010 C 
HETATM   11  C10 UNL     1      -5.757   7.197  15.543  1.00  0.00    -0.004 C 
HETATM   12  C11 UNL     1      -6.631   7.476  14.281  1.00  0.00     0.002 C 
HETATM   13  C12 UNL     1      -5.753   7.996  13.108  1.00  0.00     0.007 C 
HETATM   14  C13 UNL     1      -4.440   7.236  12.854  1.00  0.00     0.013 C 
HETATM   15  C14 UNL     1      -3.601   7.069  14.136  1.00  0.00    -0.002 C 
HETATM   16  C15 UNL     1      -3.081   8.450  14.613  1.00  0.00     0.019 C 
HETATM   17  C16 UNL     1      -4.521   6.366  15.167  1.00  0.00     0.002 C 
HETATM   18  C17 UNL     1      -3.568   5.962  16.283  1.00  0.00     0.009 C 
HETATM   19  C18 UNL     1      -2.266   5.585  15.556  1.00  0.00     0.047 C 
HETATM   20  C19 UNL     1      -2.425   6.043  14.077  1.00  0.00     0.128 C 
ENDROOT
BRANCH  20  21
HETATM   21  O2  UNL     1      -2.815   4.900  13.309  1.00  0.00    -0.381 OA
HETATM   22  H27 UNL     1      -2.130   4.212  13.413  1.00  0.00     0.211 HD
ENDBRANCH  20  21
BRANCH  20  23
HETATM   23  C20 UNL     1      -1.108   6.599  13.491  1.00  0.00     0.185 C 
HETATM   24  O3  UNL     1      -0.478   7.508  14.040  1.00  0.00    -0.292 OA
BRANCH  23  25
HETATM   25  C21 UNL     1      -0.616   5.981  12.181  1.00  0.00     0.260 C 
BRANCH  25  26
HETATM   26  O4  UNL     1       0.499   5.111  12.379  1.00  0.00    -0.314 OA
BRANCH  26  27
HETATM   27  C22 UNL     1       1.433   5.177  11.391  1.00  0.00     0.259 C 
HETATM   28  O5  UNL     1       1.777   4.236  10.689  1.00  0.00    -0.265 OA
BRANCH  27  29
HETATM   29  C23 UNL     1       2.023   6.553  11.312  1.00  0.00     0.120 C 
BRANCH  29  30
HETATM   30  C24 UNL     1       2.888   6.666  10.067  1.00  0.00     0.112 C 
BRANCH  30  31
HETATM   31  C25 UNL     1       4.325   6.978  10.422  1.00  0.00     0.217 C 
HETATM   32  O6  UNL     1       5.019   7.769   9.793  1.00  0.00    -0.274 OA
HETATM   33  N1  UNL     1       4.777   6.279  11.522  1.00  0.00    -0.361 N 
HETATM   34  H34 UNL     1       4.081   5.854  12.122  1.00  0.00     0.162 HD
BRANCH  33  35
HETATM   35  C26 UNL     1       6.090   6.544  12.074  1.00  0.00     0.122 C 
BRANCH  35  36
HETATM   36  C27 UNL     1       6.085   7.801  12.940  1.00  0.00     0.020 C 
BRANCH  36  37
HETATM   37  C28 UNL     1       6.391   7.521  14.415  1.00  0.00     0.002 C 
BRANCH  37  38
HETATM   38  C29 UNL     1       7.756   8.002  14.913  1.00  0.00     0.010 C 
BRANCH  38  39
HETATM   39  C30 UNL     1       8.742   8.305  13.787  1.00  0.00     0.110 C 
BRANCH  39  40
HETATM   40  C31 UNL     1      10.170   8.135  14.235  1.00  0.00     0.139 C 
HETATM   41  O7  UNL     1      11.175   8.169  13.548  1.00  0.00    -0.650 OA
BRANCH  40  42
HETATM   42  O8  UNL     1      10.254   7.934  15.566  1.00  0.00    -0.776 OA
HETATM   43  H45 UNL     1      11.217   7.843  15.730  1.00  0.00     0.167 HD
ENDBRANCH  40  42
ENDBRANCH  39  40
ENDBRANCH  38  39
ENDBRANCH  37  38
ENDBRANCH  36  37
ENDBRANCH  35  36
ENDBRANCH  33  35
ENDBRANCH  30  31
ENDBRANCH  29  30
ENDBRANCH  27  29
ENDBRANCH  26  27
ENDBRANCH  25  26
ENDBRANCH  23  25
ENDBRANCH  20  23
TORSDOF 15
ENDMDL
MODEL 4
REMARK minimizedAffinity -7.47578049
REMARK CNNscore 0.362321407
REMARK CNNaffinity 6.67030144
REMARK  15 active torsions:
REMARK  status: ('A' for Active; 'I' for Inactive)
REMARK    1  A    between atoms: C19_20  and  O2_21 
REMARK    2  A    between atoms: C19_20  and  C20_22 
REMARK    3  A    between atoms: C20_22  and  C21_24 
REMARK    4  A    between atoms: C21_24  and  O4_25 
REMARK    5  A    between atoms: O4_25  and  C22_26 
REMARK    6  A    between atoms: C22_26  and  C23_28 
REMARK    7  A    between atoms: C23_28  and  C24_29 
REMARK    8  A    between atoms: C24_29  and  C25_30 
REMARK       I    between atoms: C25_30  and  N1_32 
REMARK    9  A    between atoms: N1_32  and  C26_33 
REMARK   10  A    between atoms: C26_33  and  C27_34 
REMARK   11  A    between atoms: C27_34  and  C28_35 
REMARK   12  A    between atoms: C28_35  and  C29_36 
REMARK   13  A    between atoms: C29_36  and  C30_37 
REMARK   14  A    between atoms: C30_37  and  C31_38 
REMARK   15  A    between atoms: C31_38  and  O8_40 
ROOT
HETATM    1  C1  UNL     1      -0.587  13.412  18.893  1.00  0.00     0.020 C 
HETATM    2  C2  UNL     1      -0.646  11.943  18.381  1.00  0.00    -0.016 C 
HETATM    3  C3  UNL     1      -0.455  11.013  19.615  1.00  0.00     0.022 C 
HETATM    4  C4  UNL     1       0.951  11.024  20.200  1.00  0.00     0.084 C 
HETATM    5  C5  UNL     1       1.959  10.691  19.134  1.00  0.00     0.149 C 
HETATM    6  O1  UNL     1       3.018  10.123  19.382  1.00  0.00    -0.293 OA
HETATM    7  C6  UNL     1       1.689  11.161  17.757  1.00  0.00     0.053 C 
HETATM    8  C7  UNL     1       0.538  11.773  17.420  1.00  0.00    -0.068 C 
HETATM    9  C8  UNL     1       0.432  12.340  16.024  1.00  0.00     0.035 C 
HETATM   10  C9  UNL     1      -0.990  12.612  15.556  1.00  0.00     0.010 C 
HETATM   11  C10 UNL     1      -2.010  11.627  16.121  1.00  0.00    -0.004 C 
HETATM   12  C11 UNL     1      -2.070  11.733  17.676  1.00  0.00     0.002 C 
HETATM   13  C12 UNL     1      -3.019  10.652  18.266  1.00  0.00     0.007 C 
HETATM   14  C13 UNL     1      -2.861   9.229  17.701  1.00  0.00     0.013 C 
HETATM   15  C14 UNL     1      -2.887   9.203  16.160  1.00  0.00    -0.002 C 
HETATM   16  C15 UNL     1      -4.299   9.593  15.647  1.00  0.00     0.019 C 
HETATM   17  C16 UNL     1      -1.771  10.171  15.692  1.00  0.00     0.002 C 
HETATM   18  C17 UNL     1      -1.643   9.880  14.203  1.00  0.00     0.009 C 
HETATM   19  C18 UNL     1      -1.886   8.365  14.088  1.00  0.00     0.047 C 
HETATM   20  C19 UNL     1      -2.411   7.884  15.472  1.00  0.00     0.128 C 
ENDROOT
BRANCH  20  21
HETATM   21  O2  UNL     1      -1.302   7.335  16.190  1.00  0.00    -0.381 OA
HETATM   22  H27 UNL     1      -0.926   6.605  15.661  1.00  0.00     0.211 HD
ENDBRANCH  20  21
BRANCH  20  23
HETATM   23  C20 UNL     1      -3.497   6.793  15.340  1.00  0.00     0.185 C 
HETATM   24  O3  UNL     1      -3.747   6.003  16.255  1.00  0.00    -0.292 OA
BRANCH  23  25
HETATM   25  C21 UNL     1      -4.249   6.720  14.010  1.00  0.00     0.260 C 
BRANCH  25  26
HETATM   26  O4  UNL     1      -5.239   5.691  14.005  1.00  0.00    -0.314 OA
BRANCH  26  27
HETATM   27  C22 UNL     1      -6.516   6.154  14.101  1.00  0.00     0.259 C 
HETATM   28  O5  UNL     1      -6.960   6.792  15.046  1.00  0.00    -0.265 OA
BRANCH  27  29
HETATM   29  C23 UNL     1      -7.323   5.732  12.910  1.00  0.00     0.120 C 
BRANCH  29  30
HETATM   30  C24 UNL     1      -8.106   4.472  13.245  1.00  0.00     0.112 C 
BRANCH  30  31
HETATM   31  C25 UNL     1      -7.448   3.243  12.658  1.00  0.00     0.217 C 
HETATM   32  O6  UNL     1      -7.824   2.100  12.892  1.00  0.00    -0.274 OA
HETATM   33  N1  UNL     1      -6.378   3.539  11.839  1.00  0.00    -0.361 N 
HETATM   34  H34 UNL     1      -6.298   4.491  11.502  1.00  0.00     0.162 HD
BRANCH  33  35
HETATM   35  C26 UNL     1      -5.706   2.490  11.098  1.00  0.00     0.122 C 
BRANCH  35  36
HETATM   36  C27 UNL     1      -4.388   2.100  11.761  1.00  0.00     0.020 C 
BRANCH  36  37
HETATM   37  C28 UNL     1      -3.632   3.293  12.354  1.00  0.00     0.002 C 
BRANCH  37  38
HETATM   38  C29 UNL     1      -2.691   4.026  11.394  1.00  0.00     0.010 C 
BRANCH  38  39
HETATM   39  C30 UNL     1      -1.742   4.996  12.095  1.00  0.00     0.110 C 
BRANCH  39  40
HETATM   40  C31 UNL     1      -0.443   5.144  11.347  1.00  0.00     0.139 C 
HETATM   41  O7  UNL     1       0.330   4.261  11.017  1.00  0.00    -0.650 OA
BRANCH  40  42
HETATM   42  O8  UNL     1      -0.186   6.431  11.042  1.00  0.00    -0.776 OA
HETATM   43  H45 UNL     1       0.669   6.395  10.563  1.00  0.00     0.167 HD
ENDBRANCH  40  42
ENDBRANCH  39  40
ENDBRANCH  38  39
ENDBRANCH  37  38
ENDBRANCH  36  37
ENDBRANCH  35  36
ENDBRANCH  33  35
ENDBRANCH  30  31
ENDBRANCH  29  30
ENDBRANCH  27  29
ENDBRANCH  26  27
ENDBRANCH  25  26
ENDBRANCH  23  25
ENDBRANCH  20  23
TORSDOF 15
ENDMDL
MODEL 5
REMARK minimizedAffinity -7.40461206
REMARK CNNscore 0.362075329
REMARK CNNaffinity 5.90485907
REMARK  15 active torsions:
REMARK  status: ('A' for Active; 'I' for Inactive)
REMARK    1  A    between atoms: C19_20  and  O2_21 
REMARK    2  A    between atoms: C19_20  and  C20_22 
REMARK    3  A    between atoms: C20_22  and  C21_24 
REMARK    4  A    between atoms: C21_24  and  O4_25 
REMARK    5  A    between atoms: O4_25  and  C22_26 
REMARK    6  A    between atoms: C22_26  and  C23_28 
REMARK    7  A    between atoms: C23_28  and  C24_29 
REMARK    8  A    between atoms: C24_29  and  C25_30 
REMARK       I    between atoms: C25_30  and  N1_32 
REMARK    9  A    between atoms: N1_32  and  C26_33 
REMARK   10  A    between atoms: C26_33  and  C27_34 
REMARK   11  A    between atoms: C27_34  and  C28_35 
REMARK   12  A    between atoms: C28_35  and  C29_36 
REMARK   13  A    between atoms: C29_36  and  C30_37 
REMARK   14  A    between atoms: C30_37  and  C31_38 
REMARK   15  A    between atoms: C31_38  and  O8_40 
ROOT
HETATM    1  C1  UNL     1       7.553  14.846  23.758  1.00  0.00     0.020 C 
HETATM    2  C2  UNL     1       7.101  13.817  22.681  1.00  0.00    -0.016 C 
HETATM    3  C3  UNL     1       7.615  12.418  23.130  1.00  0.00     0.022 C 
HETATM    4  C4  UNL     1       9.124  12.242  23.034  1.00  0.00     0.084 C 
HETATM    5  C5  UNL     1       9.595  12.549  21.639  1.00  0.00     0.149 C 
HETATM    6  O1  UNL     1      10.579  12.010  21.140  1.00  0.00    -0.293 OA
HETATM    7  C6  UNL     1       8.890  13.612  20.889  1.00  0.00     0.053 C 
HETATM    8  C7  UNL     1       7.794  14.227  21.374  1.00  0.00    -0.068 C 
HETATM    9  C8  UNL     1       7.245  15.396  20.593  1.00  0.00     0.035 C 
HETATM   10  C9  UNL     1       5.805  15.759  20.921  1.00  0.00     0.010 C 
HETATM   11  C10 UNL     1       4.950  14.553  21.301  1.00  0.00    -0.004 C 
HETATM   12  C11 UNL     1       5.501  13.878  22.595  1.00  0.00     0.002 C 
HETATM   13  C12 UNL     1       4.707  12.581  22.921  1.00  0.00     0.007 C 
HETATM   14  C13 UNL     1       4.440  11.635  21.737  1.00  0.00     0.013 C 
HETATM   15  C14 UNL     1       3.826  12.366  20.528  1.00  0.00    -0.002 C 
HETATM   16  C15 UNL     1       2.395  12.854  20.873  1.00  0.00     0.019 C 
HETATM   17  C16 UNL     1       4.803  13.517  20.177  1.00  0.00     0.002 C 
HETATM   18  C17 UNL     1       4.314  14.004  18.820  1.00  0.00     0.009 C 
HETATM   19  C18 UNL     1       3.838  12.727  18.105  1.00  0.00     0.047 C 
HETATM   20  C19 UNL     1       3.817  11.593  19.170  1.00  0.00     0.128 C 
ENDROOT
BRANCH  20  21
HETATM   21  O2  UNL     1       5.028  10.844  19.030  1.00  0.00    -0.381 OA
HETATM   22  H27 UNL     1       5.070  10.496  18.118  1.00  0.00     0.211 HD
ENDBRANCH  20  21
BRANCH  20  23
HETATM   23  C20 UNL     1       2.623  10.632  18.979  1.00  0.00     0.185 C 
HETATM   24  O3  UNL     1       2.485   9.612  19.662  1.00  0.00    -0.292 OA
BRANCH  23  25
HETATM   25  C21 UNL     1       1.612  10.990  17.889  1.00  0.00     0.260 C 
BRANCH  25  26
HETATM   26  O4  UNL     1       0.960   9.835  17.356  1.00  0.00    -0.314 OA
BRANCH  26  27
HETATM   27  C22 UNL     1      -0.347  10.039  17.035  1.00  0.00     0.259 C 
HETATM   28  O5  UNL     1      -0.995  11.033  17.335  1.00  0.00    -0.265 OA
BRANCH  27  29
HETATM   29  C23 UNL     1      -0.904   8.853  16.304  1.00  0.00     0.120 C 
BRANCH  29  30
HETATM   30  C24 UNL     1      -2.322   8.582  16.779  1.00  0.00     0.112 C 
BRANCH  30  31
HETATM   31  C25 UNL     1      -3.186   8.053  15.656  1.00  0.00     0.217 C 
HETATM   32  O6  UNL     1      -3.498   8.717  14.674  1.00  0.00    -0.274 OA
HETATM   33  N1  UNL     1      -3.593   6.749  15.853  1.00  0.00    -0.361 N 
HETATM   34  H34 UNL     1      -3.092   6.203  16.543  1.00  0.00     0.162 HD
BRANCH  33  35
HETATM   35  C26 UNL     1      -4.326   6.043  14.821  1.00  0.00     0.122 C 
BRANCH  35  36
HETATM   36  C27 UNL     1      -3.402   5.591  13.694  1.00  0.00     0.020 C 
BRANCH  36  37
HETATM   37  C28 UNL     1      -4.137   4.857  12.567  1.00  0.00     0.002 C 
BRANCH  37  38
HETATM   38  C29 UNL     1      -5.319   3.985  13.002  1.00  0.00     0.010 C 
BRANCH  38  39
HETATM   39  C30 UNL     1      -6.631   4.758  13.124  1.00  0.00     0.110 C 
BRANCH  39  40
HETATM   40  C31 UNL     1      -7.818   3.833  13.187  1.00  0.00     0.139 C 
HETATM   41  O7  UNL     1      -7.811   2.618  13.288  1.00  0.00    -0.650 OA
BRANCH  40  42
HETATM   42  O8  UNL     1      -8.982   4.510  13.124  1.00  0.00    -0.776 OA
HETATM   43  H45 UNL     1      -9.666   3.809  13.176  1.00  0.00     0.167 HD
ENDBRANCH  40  42
ENDBRANCH  39  40
ENDBRANCH  38  39
ENDBRANCH  37  38
ENDBRANCH  36  37
ENDBRANCH  35  36
ENDBRANCH  33  35
ENDBRANCH  30  31
ENDBRANCH  29  30
ENDBRANCH  27  29
ENDBRANCH  26  27
ENDBRANCH  25  26
ENDBRANCH  23  25
ENDBRANCH  20  23
TORSDOF 15
ENDMDL
MODEL 6
REMARK minimizedAffinity -6.42319775
REMARK CNNscore 0.359063119
REMARK CNNaffinity 6.83419037
REMARK  15 active torsions:
REMARK  status: ('A' for Active; 'I' for Inactive)
REMARK    1  A    between atoms: C19_20  and  O2_21 
REMARK    2  A    between atoms: C19_20  and  C20_22 
REMARK    3  A    between atoms: C20_22  and  C21_24 
REMARK    4  A    between atoms: C21_24  and  O4_25 
REMARK    5  A    between atoms: O4_25  and  C22_26 
REMARK    6  A    between atoms: C22_26  and  C23_28 
REMARK    7  A    between atoms: C23_28  and  C24_29 
REMARK    8  A    between atoms: C24_29  and  C25_30 
REMARK       I    between atoms: C25_30  and  N1_32 
REMARK    9  A    between atoms: N1_32  and  C26_33 
REMARK   10  A    between atoms: C26_33  and  C27_34 
REMARK   11  A    between atoms: C27_34  and  C28_35 
REMARK   12  A    between atoms: C28_35  and  C29_36 
REMARK   13  A    between atoms: C29_36  and  C30_37 
REMARK   14  A    between atoms: C30_37  and  C31_38 
REMARK   15  A    between atoms: C31_38  and  O8_40 
ROOT
HETATM    1  C1  UNL     1      -9.027   6.906  14.391  1.00  0.00     0.020 C 
HETATM    2  C2  UNL     1      -7.628   6.356  13.988  1.00  0.00    -0.016 C 
HETATM    3  C3  UNL     1      -7.708   5.932  12.493  1.00  0.00     0.022 C 
HETATM    4  C4  UNL     1      -8.554   4.692  12.235  1.00  0.00     0.084 C 
HETATM    5  C5  UNL     1      -8.065   3.546  13.079  1.00  0.00     0.149 C 
HETATM    6  O1  UNL     1      -8.165   2.376  12.723  1.00  0.00    -0.293 OA
HETATM    7  C6  UNL     1      -7.533   3.856  14.425  1.00  0.00     0.053 C 
HETATM    8  C7  UNL     1      -7.382   5.120  14.863  1.00  0.00    -0.068 C 
HETATM    9  C8  UNL     1      -6.971   5.315  16.303  1.00  0.00     0.035 C 
HETATM   10  C9  UNL     1      -6.396   6.687  16.619  1.00  0.00     0.010 C 
HETATM   11  C10 UNL     1      -5.620   7.299  15.455  1.00  0.00    -0.004 C 
HETATM   12  C11 UNL     1      -6.560   7.527  14.231  1.00  0.00     0.002 C 
HETATM   13  C12 UNL     1      -5.753   8.039  13.005  1.00  0.00     0.007 C 
HETATM   14  C13 UNL     1      -4.436   7.303  12.705  1.00  0.00     0.013 C 
HETATM   15  C14 UNL     1      -3.532   7.186  13.947  1.00  0.00    -0.002 C 
HETATM   16  C15 UNL     1      -3.022   8.590  14.367  1.00  0.00     0.019 C 
HETATM   17  C16 UNL     1      -4.384   6.487  15.037  1.00  0.00     0.002 C 
HETATM   18  C17 UNL     1      -3.369   6.132  16.115  1.00  0.00     0.009 C 
HETATM   19  C18 UNL     1      -2.095   5.768  15.333  1.00  0.00     0.047 C 
HETATM   20  C19 UNL     1      -2.336   6.186  13.854  1.00  0.00     0.128 C 
ENDROOT
BRANCH  20  21
HETATM   21  O2  UNL     1      -2.735   5.017  13.132  1.00  0.00    -0.381 OA
HETATM   22  H27 UNL     1      -2.029   4.347  13.218  1.00  0.00     0.211 HD
ENDBRANCH  20  21
BRANCH  20  23
HETATM   23  C20 UNL     1      -1.063   6.758  13.192  1.00  0.00     0.185 C 
HETATM   24  O3  UNL     1      -1.109   7.449  12.169  1.00  0.00    -0.292 OA
BRANCH  23  25
HETATM   25  C21 UNL     1       0.275   6.419  13.853  1.00  0.00     0.260 C 
BRANCH  25  26
HETATM   26  O4  UNL     1       1.370   6.533  12.943  1.00  0.00    -0.314 OA
BRANCH  26  27
HETATM   27  C22 UNL     1       2.299   7.458  13.311  1.00  0.00     0.259 C 
HETATM   28  O5  UNL     1       3.027   8.065  12.536  1.00  0.00    -0.265 OA
BRANCH  27  29
HETATM   29  C23 UNL     1       2.346   7.597  14.803  1.00  0.00     0.120 C 
BRANCH  29  30
HETATM   30  C24 UNL     1       2.051   9.037  15.191  1.00  0.00     0.112 C 
BRANCH  30  31
HETATM   31  C25 UNL     1       3.278   9.716  15.759  1.00  0.00     0.217 C 
HETATM   32  O6  UNL     1       3.498   9.816  16.960  1.00  0.00    -0.274 OA
HETATM   33  N1  UNL     1       4.119  10.217  14.787  1.00  0.00    -0.361 N 
HETATM   34  H34 UNL     1       3.998   9.874  13.842  1.00  0.00     0.162 HD
BRANCH  33  35
HETATM   35  C26 UNL     1       5.400  10.793  15.148  1.00  0.00     0.122 C 
BRANCH  35  36
HETATM   36  C27 UNL     1       6.556   9.938  14.639  1.00  0.00     0.020 C 
BRANCH  36  37
HETATM   37  C28 UNL     1       6.173   9.047  13.453  1.00  0.00     0.002 C 
BRANCH  37  38
HETATM   38  C29 UNL     1       7.034   7.796  13.255  1.00  0.00     0.010 C 
BRANCH  38  39
HETATM   39  C30 UNL     1       6.264   6.615  12.670  1.00  0.00     0.110 C 
BRANCH  39  40
HETATM   40  C31 UNL     1       6.287   6.625  11.164  1.00  0.00     0.139 C 
HETATM   41  O7  UNL     1       5.556   6.014  10.404  1.00  0.00    -0.650 OA
BRANCH  40  42
HETATM   42  O8  UNL     1       7.252   7.436  10.686  1.00  0.00    -0.776 OA
HETATM   43  H45 UNL     1       7.163   7.360   9.712  1.00  0.00     0.167 HD
ENDBRANCH  40  42
ENDBRANCH  39  40
ENDBRANCH  38  39
ENDBRANCH  37  38
ENDBRANCH  36  37
ENDBRANCH  35  36
ENDBRANCH  33  35
ENDBRANCH  30  31
ENDBRANCH  29  30
ENDBRANCH  27  29
ENDBRANCH  26  27
ENDBRANCH  25  26
ENDBRANCH  23  25
ENDBRANCH  20  23
TORSDOF 15
ENDMDL
MODEL 7
REMARK minimizedAffinity -6.53998852
REMARK CNNscore 0.310036004
REMARK CNNaffinity 5.90707016
REMARK  15 active torsions:
REMARK  status: ('A' for Active; 'I' for Inactive)
REMARK    1  A    between atoms: C19_20  and  O2_21 
REMARK    2  A    between atoms: C19_20  and  C20_22 
REMARK    3  A    between atoms: C20_22  and  C21_24 
REMARK    4  A    between atoms: C21_24  and  O4_25 
REMARK    5  A    between atoms: O4_25  and  C22_26 
REMARK    6  A    between atoms: C22_26  and  C23_28 
REMARK    7  A    between atoms: C23_28  and  C24_29 
REMARK    8  A    between atoms: C24_29  and  C25_30 
REMARK       I    between atoms: C25_30  and  N1_32 
REMARK    9  A    between atoms: N1_32  and  C26_33 
REMARK   10  A    between atoms: C26_33  and  C27_34 
REMARK   11  A    between atoms: C27_34  and  C28_35 
REMARK   12  A    between atoms: C28_35  and  C29_36 
REMARK   13  A    between atoms: C29_36  and  C30_37 
REMARK   14  A    between atoms: C30_37  and  C31_38 
REMARK   15  A    between atoms: C31_38  and  O8_40 
ROOT
HETATM    1  C1  UNL     1      -1.402   5.255  11.072  1.00  0.00     0.020 C 
HETATM    2  C2  UNL     1      -0.665   6.467  11.713  1.00  0.00    -0.016 C 
HETATM    3  C3  UNL     1      -0.172   7.378  10.551  1.00  0.00     0.022 C 
HETATM    4  C4  UNL     1       0.970   6.790   9.732  1.00  0.00     0.084 C 
HETATM    5  C5  UNL     1       2.117   6.421  10.632  1.00  0.00     0.149 C 
HETATM    6  O1  UNL     1       3.285   6.444  10.254  1.00  0.00    -0.293 OA
HETATM    7  C6  UNL     1       1.800   5.922  11.988  1.00  0.00     0.053 C 
HETATM    8  C7  UNL     1       0.542   5.891  12.466  1.00  0.00    -0.068 C 
HETATM    9  C8  UNL     1       0.318   5.227  13.803  1.00  0.00     0.035 C 
HETATM   10  C9  UNL     1      -0.990   5.598  14.485  1.00  0.00     0.010 C 
HETATM   11  C10 UNL     1      -1.438   7.028  14.195  1.00  0.00    -0.004 C 
HETATM   12  C11 UNL     1      -1.710   7.217  12.670  1.00  0.00     0.002 C 
HETATM   13  C12 UNL     1      -2.052   8.700  12.352  1.00  0.00     0.007 C 
HETATM   14  C13 UNL     1      -1.146   9.759  13.003  1.00  0.00     0.013 C 
HETATM   15  C14 UNL     1      -0.990   9.545  14.521  1.00  0.00    -0.002 C 
HETATM   16  C15 UNL     1      -2.343   9.802  15.235  1.00  0.00     0.019 C 
HETATM   17  C16 UNL     1      -0.461   8.100  14.702  1.00  0.00     0.002 C 
HETATM   18  C17 UNL     1      -0.046   8.049  16.166  1.00  0.00     0.009 C 
HETATM   19  C18 UNL     1       0.512   9.453  16.453  1.00  0.00     0.047 C 
HETATM   20  C19 UNL     1       0.151  10.344  15.229  1.00  0.00     0.128 C 
ENDROOT
BRANCH  20  21
HETATM   21  O2  UNL     1       1.301  10.402  14.380  1.00  0.00    -0.381 OA
HETATM   22  H27 UNL     1       2.046  10.767  14.897  1.00  0.00     0.211 HD
ENDBRANCH  20  21
BRANCH  20  23
HETATM   23  C20 UNL     1      -0.225  11.784  15.643  1.00  0.00     0.185 C 
HETATM   24  O3  UNL     1      -0.659  12.608  14.831  1.00  0.00    -0.292 OA
BRANCH  23  25
HETATM   25  C21 UNL     1      -0.025  12.158  17.112  1.00  0.00     0.260 C 
BRANCH  25  26
HETATM   26  O4  UNL     1       1.354  12.334  17.441  1.00  0.00    -0.314 OA
BRANCH  26  27
HETATM   27  C22 UNL     1       1.562  12.886  18.669  1.00  0.00     0.259 C 
HETATM   28  O5  UNL     1       2.040  13.995  18.865  1.00  0.00    -0.265 OA
BRANCH  27  29
HETATM   29  C23 UNL     1       1.172  11.927  19.754  1.00  0.00     0.120 C 
BRANCH  29  30
HETATM   30  C24 UNL     1       2.074  10.705  19.702  1.00  0.00     0.112 C 
BRANCH  30  31
HETATM   31  C25 UNL     1       2.889  10.569  20.968  1.00  0.00     0.217 C 
HETATM   32  O6  UNL     1       3.220   9.489  21.445  1.00  0.00    -0.274 OA
HETATM   33  N1  UNL     1       3.218  11.783  21.535  1.00  0.00    -0.361 N 
HETATM   34  H34 UNL     1       3.130  12.608  20.955  1.00  0.00     0.162 HD
BRANCH  33  35
HETATM   35  C26 UNL     1       4.097  11.844  22.686  1.00  0.00     0.122 C 
BRANCH  35  36
HETATM   36  C27 UNL     1       4.796  13.198  22.779  1.00  0.00     0.020 C 
BRANCH  36  37
HETATM   37  C28 UNL     1       6.252  13.160  22.303  1.00  0.00     0.002 C 
BRANCH  37  38
HETATM   38  C29 UNL     1       7.112  12.035  22.886  1.00  0.00     0.010 C 
BRANCH  38  39
HETATM   39  C30 UNL     1       8.527  12.480  23.252  1.00  0.00     0.110 C 
BRANCH  39  40
HETATM   40  C31 UNL     1       9.372  12.712  22.027  1.00  0.00     0.139 C 
HETATM   41  O7  UNL     1       9.916  13.747  21.683  1.00  0.00    -0.650 OA
BRANCH  40  42
HETATM   42  O8  UNL     1       9.493  11.594  21.284  1.00  0.00    -0.776 OA
HETATM   43  H45 UNL     1      10.057  11.870  20.531  1.00  0.00     0.167 HD
ENDBRANCH  40  42
ENDBRANCH  39  40
ENDBRANCH  38  39
ENDBRANCH  37  38
ENDBRANCH  36  37
ENDBRANCH  35  36
ENDBRANCH  33  35
ENDBRANCH  30  31
ENDBRANCH  29  30
ENDBRANCH  27  29
ENDBRANCH  26  27
ENDBRANCH  25  26
ENDBRANCH  23  25
ENDBRANCH  20  23
TORSDOF 15
ENDMDL
MODEL 8
REMARK minimizedAffinity -7.22319651
REMARK CNNscore 0.303885251
REMARK CNNaffinity 6.72181463
REMARK  15 active torsions:
REMARK  status: ('A' for Active; 'I' for Inactive)
REMARK    1  A    between atoms: C19_20  and  O2_21 
REMARK    2  A    between atoms: C19_20  and  C20_22 
REMARK    3  A    between atoms: C20_22  and  C21_24 
REMARK    4  A    between atoms: C21_24  and  O4_25 
REMARK    5  A    between atoms: O4_25  and  C22_26 
REMARK    6  A    between atoms: C22_26  and  C23_28 
REMARK    7  A    between atoms: C23_28  and  C24_29 
REMARK    8  A    between atoms: C24_29  and  C25_30 
REMARK       I    between atoms: C25_30  and  N1_32 
REMARK    9  A    between atoms: N1_32  and  C26_33 
REMARK   10  A    between atoms: C26_33  and  C27_34 
REMARK   11  A    between atoms: C27_34  and  C28_35 
REMARK   12  A    between atoms: C28_35  and  C29_36 
REMARK   13  A    between atoms: C29_36  and  C30_37 
REMARK   14  A    between atoms: C30_37  and  C31_38 
REMARK   15  A    between atoms: C31_38  and  O8_40 
ROOT
HETATM    1  C1  UNL     1       1.720   7.657  11.457  1.00  0.00     0.020 C 
HETATM    2  C2  UNL     1       0.777   7.897  12.671  1.00  0.00    -0.016 C 
HETATM    3  C3  UNL     1       1.117   9.299  13.255  1.00  0.00     0.022 C 
HETATM    4  C4  UNL     1       2.466   9.378  13.959  1.00  0.00     0.084 C 
HETATM    5  C5  UNL     1       2.551   8.329  15.034  1.00  0.00     0.149 C 
HETATM    6  O1  UNL     1       3.218   8.482  16.053  1.00  0.00    -0.293 OA
HETATM    7  C6  UNL     1       1.878   7.034  14.792  1.00  0.00     0.053 C 
HETATM    8  C7  UNL     1       1.118   6.812  13.703  1.00  0.00    -0.068 C 
HETATM    9  C8  UNL     1       0.601   5.410  13.485  1.00  0.00     0.035 C 
HETATM   10  C9  UNL     1      -0.577   5.310  12.528  1.00  0.00     0.010 C 
HETATM   11  C10 UNL     1      -1.499   6.525  12.575  1.00  0.00    -0.004 C 
HETATM   12  C11 UNL     1      -0.732   7.811  12.137  1.00  0.00     0.002 C 
HETATM   13  C12 UNL     1      -1.631   9.070  12.295  1.00  0.00     0.007 C 
HETATM   14  C13 UNL     1      -2.417   9.180  13.614  1.00  0.00     0.013 C 
HETATM   15  C14 UNL     1      -3.206   7.896  13.935  1.00  0.00    -0.002 C 
HETATM   16  C15 UNL     1      -4.347   7.702  12.901  1.00  0.00     0.019 C 
HETATM   17  C16 UNL     1      -2.172   6.742  13.939  1.00  0.00     0.002 C 
HETATM   18  C17 UNL     1      -2.938   5.574  14.547  1.00  0.00     0.009 C 
HETATM   19  C18 UNL     1      -3.844   6.224  15.607  1.00  0.00     0.047 C 
HETATM   20  C19 UNL     1      -3.769   7.762  15.387  1.00  0.00     0.128 C 
ENDROOT
BRANCH  20  21
HETATM   21  O2  UNL     1      -2.825   8.290  16.323  1.00  0.00    -0.381 OA
HETATM   22  H27 UNL     1      -3.125   8.059  17.224  1.00  0.00     0.211 HD
ENDBRANCH  20  21
BRANCH  20  23
HETATM   23  C20 UNL     1      -5.130   8.455  15.621  1.00  0.00     0.185 C 
HETATM   24  O3  UNL     1      -5.255   9.684  15.590  1.00  0.00    -0.292 OA
BRANCH  23  25
HETATM   25  C21 UNL     1      -6.329   7.550  15.910  1.00  0.00     0.260 C 
BRANCH  25  26
HETATM   26  O4  UNL     1      -6.859   6.961  14.721  1.00  0.00    -0.314 OA
BRANCH  26  27
HETATM   27  C22 UNL     1      -7.127   5.631  14.838  1.00  0.00     0.259 C 
HETATM   28  O5  UNL     1      -7.568   5.092  15.844  1.00  0.00    -0.265 OA
BRANCH  27  29
HETATM   29  C23 UNL     1      -6.760   4.904  13.579  1.00  0.00     0.120 C 
BRANCH  29  30
HETATM   30  C24 UNL     1      -8.020   4.391  12.900  1.00  0.00     0.112 C 
BRANCH  30  31
HETATM   31  C25 UNL     1      -8.935   5.529  12.507  1.00  0.00     0.217 C 
HETATM   32  O6  UNL     1      -8.978   6.002  11.377  1.00  0.00    -0.274 OA
HETATM   33  N1  UNL     1      -9.713   5.985  13.552  1.00  0.00    -0.361 N 
HETATM   34  H34 UNL     1      -9.802   5.386  14.363  1.00  0.00     0.162 HD
BRANCH  33  35
HETATM   35  C26 UNL     1     -10.732   6.991  13.326  1.00  0.00     0.122 C 
BRANCH  35  36
HETATM   36  C27 UNL     1     -10.560   8.177  14.270  1.00  0.00     0.020 C 
BRANCH  36  37
HETATM   37  C28 UNL     1     -11.553   9.313  14.001  1.00  0.00     0.002 C 
BRANCH  37  38
HETATM   38  C29 UNL     1     -12.779   9.356  14.918  1.00  0.00     0.010 C 
BRANCH  38  39
HETATM   39  C30 UNL     1     -13.892   8.403  14.488  1.00  0.00     0.110 C 
BRANCH  39  40
HETATM   40  C31 UNL     1     -14.550   8.855  13.211  1.00  0.00     0.139 C 
HETATM   41  O7  UNL     1     -14.617   8.253  12.154  1.00  0.00    -0.650 OA
BRANCH  40  42
HETATM   42  O8  UNL     1     -15.111  10.074  13.344  1.00  0.00    -0.776 OA
HETATM   43  H45 UNL     1     -15.502  10.252  12.462  1.00  0.00     0.167 HD
ENDBRANCH  40  42
ENDBRANCH  39  40
ENDBRANCH  38  39
ENDBRANCH  37  38
ENDBRANCH  36  37
ENDBRANCH  35  36
ENDBRANCH  33  35
ENDBRANCH  30  31
ENDBRANCH  29  30
ENDBRANCH  27  29
ENDBRANCH  26  27
ENDBRANCH  25  26
ENDBRANCH  23  25
ENDBRANCH  20  23
TORSDOF 15
ENDMDL
MODEL 9
REMARK minimizedAffinity -7.40566826
REMARK CNNscore 0.303150237
REMARK CNNaffinity 6.20978689
REMARK  15 active torsions:
REMARK  status: ('A' for Active; 'I' for Inactive)
REMARK    1  A    between atoms: C19_20  and  O2_21 
REMARK    2  A    between atoms: C19_20  and  C20_22 
REMARK    3  A    between atoms: C20_22  and  C21_24 
REMARK    4  A    between atoms: C21_24  and  O4_25 
REMARK    5  A    between atoms: O4_25  and  C22_26 
REMARK    6  A    between atoms: C22_26  and  C23_28 
REMARK    7  A    between atoms: C23_28  and  C24_29 
REMARK    8  A    between atoms: C24_29  and  C25_30 
REMARK       I    between atoms: C25_30  and  N1_32 
REMARK    9  A    between atoms: N1_32  and  C26_33 
REMARK   10  A    between atoms: C26_33  and  C27_34 
REMARK   11  A    between atoms: C27_34  and  C28_35 
REMARK   12  A    between atoms: C28_35  and  C29_36 
REMARK   13  A    between atoms: C29_36  and  C30_37 
REMARK   14  A    between atoms: C30_37  and  C31_38 
REMARK   15  A    between atoms: C31_38  and  O8_40 
ROOT
HETATM    1  C1  UNL     1      -1.729   8.050  16.201  1.00  0.00     0.020 C 
HETATM    2  C2  UNL     1      -0.611   8.178  15.127  1.00  0.00    -0.016 C 
HETATM    3  C3  UNL     1       0.756   8.072  15.864  1.00  0.00     0.022 C 
HETATM    4  C4  UNL     1       1.097   9.275  16.733  1.00  0.00     0.084 C 
HETATM    5  C5  UNL     1       1.040  10.537  15.917  1.00  0.00     0.149 C 
HETATM    6  O1  UNL     1       1.741  11.514  16.163  1.00  0.00    -0.293 OA
HETATM    7  C6  UNL     1       0.026  10.621  14.842  1.00  0.00     0.053 C 
HETATM    8  C7  UNL     1      -0.759   9.577  14.513  1.00  0.00    -0.068 C 
HETATM    9  C8  UNL     1      -1.856   9.819  13.505  1.00  0.00     0.035 C 
HETATM   10  C9  UNL     1      -2.407   8.561  12.852  1.00  0.00     0.010 C 
HETATM   11  C10 UNL     1      -1.360   7.463  12.677  1.00  0.00    -0.004 C 
HETATM   12  C11 UNL     1      -0.822   6.995  14.065  1.00  0.00     0.002 C 
HETATM   13  C12 UNL     1       0.328   5.964  13.890  1.00  0.00     0.007 C 
HETATM   14  C13 UNL     1       1.400   6.314  12.843  1.00  0.00     0.013 C 
HETATM   15  C14 UNL     1       0.788   6.691  11.480  1.00  0.00    -0.002 C 
HETATM   16  C15 UNL     1       0.112   5.450  10.840  1.00  0.00     0.019 C 
HETATM   17  C16 UNL     1      -0.196   7.856  11.756  1.00  0.00     0.002 C 
HETATM   18  C17 UNL     1      -0.534   8.379  10.366  1.00  0.00     0.009 C 
HETATM   19  C18 UNL     1       0.776   8.227   9.573  1.00  0.00     0.047 C 
HETATM   20  C19 UNL     1       1.740   7.376  10.448  1.00  0.00     0.128 C 
ENDROOT
BRANCH  20  21
HETATM   21  O2  UNL     1       2.621   8.278  11.125  1.00  0.00    -0.381 OA
HETATM   22  H27 UNL     1       3.097   8.804  10.453  1.00  0.00     0.211 HD
ENDBRANCH  20  21
BRANCH  20  23
HETATM   23  C20 UNL     1       2.592   6.401   9.605  1.00  0.00     0.185 C 
HETATM   24  O3  UNL     1       2.231   6.011   8.490  1.00  0.00    -0.292 OA
BRANCH  23  25
HETATM   25  C21 UNL     1       3.909   5.922  10.218  1.00  0.00     0.260 C 
BRANCH  25  26
HETATM   26  O4  UNL     1       4.911   6.940  10.207  1.00  0.00    -0.314 OA
BRANCH  26  27
HETATM   27  C22 UNL     1       6.042   6.607  10.888  1.00  0.00     0.259 C 
HETATM   28  O5  UNL     1       6.723   5.614  10.671  1.00  0.00    -0.265 OA
BRANCH  27  29
HETATM   29  C23 UNL     1       6.314   7.599  11.979  1.00  0.00     0.120 C 
BRANCH  29  30
HETATM   30  C24 UNL     1       7.543   7.168  12.765  1.00  0.00     0.112 C 
BRANCH  30  31
HETATM   31  C25 UNL     1       8.141   8.329  13.529  1.00  0.00     0.217 C 
HETATM   32  O6  UNL     1       9.048   9.029  13.091  1.00  0.00    -0.274 OA
HETATM   33  N1  UNL     1       7.568   8.515  14.770  1.00  0.00    -0.361 N 
HETATM   34  H34 UNL     1       6.676   8.069  14.943  1.00  0.00     0.162 HD
BRANCH  33  35
HETATM   35  C26 UNL     1       7.937   9.654  15.587  1.00  0.00     0.122 C 
BRANCH  35  36
HETATM   36  C27 UNL     1       9.006   9.279  16.610  1.00  0.00     0.020 C 
BRANCH  36  37
HETATM   37  C28 UNL     1       8.998  10.180  17.850  1.00  0.00     0.002 C 
BRANCH  37  38
HETATM   38  C29 UNL     1      10.361  10.729  18.281  1.00  0.00     0.010 C 
BRANCH  38  39
HETATM   39  C30 UNL     1      10.283  11.684  19.471  1.00  0.00     0.110 C 
BRANCH  39  40
HETATM   40  C31 UNL     1      11.652  12.092  19.948  1.00  0.00     0.139 C 
HETATM   41  O7  UNL     1      12.147  13.206  19.923  1.00  0.00    -0.650 OA
BRANCH  40  42
HETATM   42  O8  UNL     1      12.338  11.046  20.450  1.00  0.00    -0.776 OA
HETATM   43  H45 UNL     1      13.196  11.436  20.724  1.00  0.00     0.167 HD
ENDBRANCH  40  42
ENDBRANCH  39  40
ENDBRANCH  38  39
ENDBRANCH  37  38
ENDBRANCH  36  37
ENDBRANCH  35  36
ENDBRANCH  33  35
ENDBRANCH  30  31
ENDBRANCH  29  30
ENDBRANCH  27  29
ENDBRANCH  26  27
ENDBRANCH  25  26
ENDBRANCH  23  25
ENDBRANCH  20  23
TORSDOF 15
ENDMDL
