MODEL 1
REMARK minimizedAffinity -7.74812841
REMARK CNNscore 0.401461393
REMARK CNNaffinity 5.50629807
REMARK  10 active torsions:
REMARK  status: ('A' for Active; 'I' for Inactive)
REMARK    1  A    between atoms: C3_3  and  O1_4 
REMARK    2  A    between atoms: N1_14  and  O2_16 
REMARK    3  A    between atoms: O2_16  and  C13_17 
REMARK    4  A    between atoms: C13_17  and  C14_18 
REMARK       I    between atoms: C14_18  and  N2_20 
REMARK    5  A    between atoms: N2_20  and  C15_21 
REMARK    6  A    between atoms: C15_21  and  C16_22 
REMARK    7  A    between atoms: C15_21  and  C19_29 
REMARK       I    between atoms: C16_22  and  N3_24 
REMARK    8  A    between atoms: N3_24  and  C17_25 
REMARK    9  A    between atoms: C17_25  and  C18_26 
REMARK   10  A    between atoms: C18_26  and  O6_28 
ROOT
HETATM    1  C1  UNL     1      -6.147  48.059 -24.796  1.00  0.00     0.015 C 
HETATM    2  C2  UNL     1      -6.855  47.747 -25.716  1.00  0.00    -0.078 C 
HETATM    3  C3  UNL     1      -7.728  47.418 -26.856  1.00  0.00     0.128 C 
HETATM    4  C4  UNL     1      -6.933  46.862 -28.042  1.00  0.00     0.052 C 
HETATM    5  C5  UNL     1      -8.030  46.275 -28.927  1.00  0.00     0.010 C 
HETATM    6  C6  UNL     1      -8.925  45.532 -27.931  1.00  0.00     0.002 C 
HETATM    7  C7  UNL     1     -10.355  45.184 -28.418  1.00  0.00    -0.004 C 
HETATM    8  C8  UNL     1     -11.074  46.247 -29.266  1.00  0.00     0.010 C 
HETATM    9  C9  UNL     1     -12.455  45.778 -29.725  1.00  0.00     0.035 C 
HETATM   10  C10 UNL     1     -13.318  45.215 -28.615  1.00  0.00    -0.069 C 
HETATM   11  C11 UNL     1     -14.613  45.568 -28.529  1.00  0.00     0.030 C 
HETATM   12  C12 UNL     1     -15.539  44.932 -27.554  1.00  0.00     0.032 C 
HETATM   13  N1  UNL     1     -16.763  45.373 -27.494  1.00  0.00    -0.271 N 
ATOM     14  H1  UNL     1     -17.140  46.120 -28.077  1.00  0.00     0.194 HD
HETATM   15  C22 UNL     1     -15.015  43.750 -26.757  1.00  0.00     0.060 C 
HETATM   16  C23 UNL     1     -13.544  43.945 -26.421  1.00  0.00     0.020 C 
HETATM   17  C24 UNL     1     -12.653  44.218 -27.670  1.00  0.00    -0.016 C 
HETATM   18  C25 UNL     1     -12.484  42.875 -28.427  1.00  0.00     0.020 C 
HETATM   19  C26 UNL     1     -11.240  44.756 -27.222  1.00  0.00     0.002 C 
HETATM   20  C27 UNL     1     -11.319  45.886 -26.161  1.00  0.00     0.007 C 
HETATM   21  C28 UNL     1     -10.162  46.889 -26.147  1.00  0.00     0.014 C 
HETATM   22  C29 UNL     1      -8.807  46.305 -26.574  1.00  0.00     0.003 C 
HETATM   23  C30 UNL     1      -8.329  45.305 -25.485  1.00  0.00     0.020 C 
ENDROOT
BRANCH   3  24
HETATM   24  O1  UNL     1      -8.351  48.625 -27.309  1.00  0.00    -0.377 OA
HETATM   25  H2  UNL     1      -7.747  49.354 -27.094  1.00  0.00     0.211 HD
ENDBRANCH   3  24
BRANCH  13  26
HETATM   26  O2  UNL     1     -17.491  44.680 -26.517  1.00  0.00    -0.271 OA
BRANCH  26  27
HETATM   27  C13 UNL     1     -18.814  45.199 -26.452  1.00  0.00     0.303 C 
BRANCH  27  28
HETATM   28  C14 UNL     1     -18.964  45.876 -25.095  1.00  0.00     0.244 C 
HETATM   29  O3  UNL     1     -19.357  47.031 -24.958  1.00  0.00    -0.271 OA
HETATM   30  N2  UNL     1     -18.669  45.079 -24.006  1.00  0.00    -0.346 N 
HETATM   31  H16 UNL     1     -18.695  44.076 -24.139  1.00  0.00     0.163 HD
BRANCH  30  32
HETATM   32  C15 UNL     1     -18.847  45.569 -22.629  1.00  0.00     0.180 C 
BRANCH  32  33
HETATM   33  C16 UNL     1     -19.508  44.437 -21.788  1.00  0.00     0.241 C 
HETATM   34  O4  UNL     1     -19.998  44.611 -20.675  1.00  0.00    -0.271 OA
HETATM   35  N3  UNL     1     -19.546  43.218 -22.433  1.00  0.00    -0.349 N 
HETATM   36  H18 UNL     1     -19.376  43.235 -23.441  1.00  0.00     0.163 HD
BRANCH  35  37
HETATM   37  C17 UNL     1     -20.301  42.094 -21.915  1.00  0.00     0.232 C 
BRANCH  37  38
HETATM   38  C18 UNL     1     -21.793  42.181 -22.222  1.00  0.00     0.158 C 
HETATM   39  O5  UNL     1     -22.332  41.797 -23.253  1.00  0.00    -0.649 OA
BRANCH  38  40
HETATM   40  O6  UNL     1     -22.525  42.813 -21.275  1.00  0.00    -0.775 OA
HETATM   41  H21 UNL     1     -23.433  42.817 -21.649  1.00  0.00     0.167 HD
ENDBRANCH  38  40
ENDBRANCH  37  38
ENDBRANCH  35  37
ENDBRANCH  32  33
BRANCH  32  42
HETATM   42  C19 UNL     1     -17.505  46.059 -22.031  1.00  0.00     0.009 C 
HETATM   43  C20 UNL     1     -16.508  44.901 -21.877  1.00  0.00     0.012 C 
HETATM   44  C21 UNL     1     -17.699  46.710 -20.653  1.00  0.00     0.012 C 
ENDBRANCH  32  42
ENDBRANCH  30  32
ENDBRANCH  27  28
ENDBRANCH  26  27
ENDBRANCH  13  26
TORSDOF 10
ENDMDL
MODEL 2
REMARK minimizedAffinity -7.5707798
REMARK CNNscore 0.257973939
REMARK CNNaffinity 6.38087845
REMARK  10 active torsions:
REMARK  status: ('A' for Active; 'I' for Inactive)
REMARK    1  A    between atoms: C3_3  and  O1_4 
REMARK    2  A    between atoms: N1_14  and  O2_16 
REMARK    3  A    between atoms: O2_16  and  C13_17 
REMARK    4  A    between atoms: C13_17  and  C14_18 
REMARK       I    between atoms: C14_18  and  N2_20 
REMARK    5  A    between atoms: N2_20  and  C15_21 
REMARK    6  A    between atoms: C15_21  and  C16_22 
REMARK    7  A    between atoms: C15_21  and  C19_29 
REMARK       I    between atoms: C16_22  and  N3_24 
REMARK    8  A    between atoms: N3_24  and  C17_25 
REMARK    9  A    between atoms: C17_25  and  C18_26 
REMARK   10  A    between atoms: C18_26  and  O6_28 
ROOT
HETATM    1  C1  UNL     1       0.441  50.295 -16.829  1.00  0.00     0.015 C 
HETATM    2  C2  UNL     1       0.004  50.785 -17.836  1.00  0.00    -0.078 C 
HETATM    3  C3  UNL     1      -0.558  51.421 -19.041  1.00  0.00     0.128 C 
HETATM    4  C4  UNL     1       0.479  52.287 -19.765  1.00  0.00     0.052 C 
HETATM    5  C5  UNL     1      -0.188  52.538 -21.115  1.00  0.00     0.010 C 
HETATM    6  C6  UNL     1      -0.733  51.160 -21.499  1.00  0.00     0.002 C 
HETATM    7  C7  UNL     1      -1.831  51.133 -22.594  1.00  0.00    -0.004 C 
HETATM    8  C8  UNL     1      -2.883  52.254 -22.544  1.00  0.00     0.010 C 
HETATM    9  C9  UNL     1      -3.885  52.154 -23.694  1.00  0.00     0.035 C 
HETATM   10  C10 UNL     1      -4.488  50.776 -23.870  1.00  0.00    -0.069 C 
HETATM   11  C11 UNL     1      -5.809  50.645 -24.084  1.00  0.00     0.030 C 
HETATM   12  C12 UNL     1      -6.427  49.332 -24.412  1.00  0.00     0.032 C 
HETATM   13  N1  UNL     1      -7.722  49.281 -24.545  1.00  0.00    -0.271 N 
ATOM     14  H1  UNL     1      -8.347  50.081 -24.452  1.00  0.00     0.194 HD
HETATM   15  C22 UNL     1      -5.495  48.159 -24.656  1.00  0.00     0.060 C 
HETATM   16  C23 UNL     1      -4.284  48.242 -23.739  1.00  0.00     0.020 C 
HETATM   17  C24 UNL     1      -3.519  49.596 -23.841  1.00  0.00    -0.016 C 
HETATM   18  C25 UNL     1      -2.729  49.589 -25.176  1.00  0.00     0.020 C 
HETATM   19  C26 UNL     1      -2.518  49.747 -22.632  1.00  0.00     0.002 C 
HETATM   20  C27 UNL     1      -3.155  49.408 -21.259  1.00  0.00     0.007 C 
HETATM   21  C28 UNL     1      -2.557  50.113 -20.039  1.00  0.00     0.014 C 
HETATM   22  C29 UNL     1      -1.058  50.425 -20.154  1.00  0.00     0.003 C 
HETATM   23  C30 UNL     1      -0.266  49.089 -20.126  1.00  0.00     0.020 C 
ENDROOT
BRANCH   3  24
HETATM   24  O1  UNL     1      -1.613  52.299 -18.634  1.00  0.00    -0.377 OA
HETATM   25  H2  UNL     1      -1.405  52.596 -17.733  1.00  0.00     0.211 HD
ENDBRANCH   3  24
BRANCH  13  26
HETATM   26  O2  UNL     1      -8.138  47.975 -24.835  1.00  0.00    -0.271 OA
BRANCH  26  27
HETATM   27  C13 UNL     1      -9.529  47.847 -24.564  1.00  0.00     0.303 C 
BRANCH  27  28
HETATM   28  C14 UNL     1     -10.068  46.763 -25.488  1.00  0.00     0.244 C 
HETATM   29  O3  UNL     1      -9.585  45.636 -25.559  1.00  0.00    -0.271 OA
HETATM   30  N2  UNL     1     -11.183  47.118 -26.221  1.00  0.00    -0.346 N 
HETATM   31  H16 UNL     1     -11.738  47.895 -25.884  1.00  0.00     0.163 HD
BRANCH  30  32
HETATM   32  C15 UNL     1     -11.866  46.149 -27.096  1.00  0.00     0.180 C 
BRANCH  32  33
HETATM   33  C16 UNL     1     -13.361  46.071 -26.668  1.00  0.00     0.241 C 
HETATM   34  O4  UNL     1     -14.194  45.359 -27.223  1.00  0.00    -0.271 OA
HETATM   35  N3  UNL     1     -13.662  46.842 -25.563  1.00  0.00    -0.349 N 
HETATM   36  H18 UNL     1     -12.866  47.169 -25.011  1.00  0.00     0.163 HD
BRANCH  35  37
HETATM   37  C17 UNL     1     -14.938  46.748 -24.882  1.00  0.00     0.232 C 
BRANCH  37  38
HETATM   38  C18 UNL     1     -14.807  46.735 -23.361  1.00  0.00     0.158 C 
HETATM   39  O5  UNL     1     -14.375  47.653 -22.676  1.00  0.00    -0.649 OA
BRANCH  38  40
HETATM   40  O6  UNL     1     -15.137  45.559 -22.780  1.00  0.00    -0.775 OA
HETATM   41  H21 UNL     1     -14.955  45.713 -21.827  1.00  0.00     0.167 HD
ENDBRANCH  38  40
ENDBRANCH  37  38
ENDBRANCH  35  37
ENDBRANCH  32  33
BRANCH  32  42
HETATM   42  C19 UNL     1     -11.683  46.517 -28.589  1.00  0.00     0.009 C 
HETATM   43  C20 UNL     1     -10.201  46.491 -28.992  1.00  0.00     0.012 C 
HETATM   44  C21 UNL     1     -12.240  47.913 -28.904  1.00  0.00     0.012 C 
ENDBRANCH  32  42
ENDBRANCH  30  32
ENDBRANCH  27  28
ENDBRANCH  26  27
ENDBRANCH  13  26
TORSDOF 10
ENDMDL
MODEL 3
REMARK minimizedAffinity -7.97378111
REMARK CNNscore 0.254256636
REMARK CNNaffinity 5.99070168
REMARK  10 active torsions:
REMARK  status: ('A' for Active; 'I' for Inactive)
REMARK    1  A    between atoms: C3_3  and  O1_4 
REMARK    2  A    between atoms: N1_14  and  O2_16 
REMARK    3  A    between atoms: O2_16  and  C13_17 
REMARK    4  A    between atoms: C13_17  and  C14_18 
REMARK       I    between atoms: C14_18  and  N2_20 
REMARK    5  A    between atoms: N2_20  and  C15_21 
REMARK    6  A    between atoms: C15_21  and  C16_22 
REMARK    7  A    between atoms: C15_21  and  C19_29 
REMARK       I    between atoms: C16_22  and  N3_24 
REMARK    8  A    between atoms: N3_24  and  C17_25 
REMARK    9  A    between atoms: C17_25  and  C18_26 
REMARK   10  A    between atoms: C18_26  and  O6_28 
ROOT
HETATM    1  C1  UNL     1     -14.548  46.700 -26.110  1.00  0.00     0.015 C 
HETATM    2  C2  UNL     1     -13.455  47.021 -26.497  1.00  0.00    -0.078 C 
HETATM    3  C3  UNL     1     -12.133  47.466 -26.969  1.00  0.00     0.128 C 
HETATM    4  C4  UNL     1     -11.077  47.394 -25.861  1.00  0.00     0.052 C 
HETATM    5  C5  UNL     1      -9.772  47.544 -26.640  1.00  0.00     0.010 C 
HETATM    6  C6  UNL     1      -9.974  46.621 -27.844  1.00  0.00     0.002 C 
HETATM    7  C7  UNL     1      -9.035  46.854 -29.056  1.00  0.00    -0.004 C 
HETATM    8  C8  UNL     1      -8.712  48.316 -29.408  1.00  0.00     0.010 C 
HETATM    9  C9  UNL     1      -7.744  48.423 -30.587  1.00  0.00     0.035 C 
HETATM   10  C10 UNL     1      -8.141  47.593 -31.789  1.00  0.00    -0.069 C 
HETATM   11  C11 UNL     1      -8.067  48.123 -33.023  1.00  0.00     0.030 C 
HETATM   12  C12 UNL     1      -8.299  47.307 -34.245  1.00  0.00     0.032 C 
HETATM   13  N1  UNL     1      -8.268  47.910 -35.400  1.00  0.00    -0.271 N 
ATOM     14  H1  UNL     1      -8.084  48.904 -35.530  1.00  0.00     0.194 HD
HETATM   15  C22 UNL     1      -8.469  45.809 -34.067  1.00  0.00     0.060 C 
HETATM   16  C23 UNL     1      -9.216  45.508 -32.776  1.00  0.00     0.020 C 
HETATM   17  C24 UNL     1      -8.563  46.151 -31.516  1.00  0.00    -0.016 C 
HETATM   18  C25 UNL     1      -7.291  45.332 -31.178  1.00  0.00     0.020 C 
HETATM   19  C26 UNL     1      -9.566  46.102 -30.300  1.00  0.00     0.002 C 
HETATM   20  C27 UNL     1     -10.998  46.576 -30.662  1.00  0.00     0.007 C 
HETATM   21  C28 UNL     1     -11.822  47.184 -29.524  1.00  0.00     0.014 C 
HETATM   22  C29 UNL     1     -11.513  46.607 -28.135  1.00  0.00     0.003 C 
HETATM   23  C30 UNL     1     -12.004  45.134 -28.085  1.00  0.00     0.020 C 
ENDROOT
BRANCH   3  24
HETATM   24  O1  UNL     1     -12.232  48.843 -27.351  1.00  0.00    -0.377 OA
HETATM   25  H2  UNL     1     -12.939  49.237 -26.813  1.00  0.00     0.211 HD
ENDBRANCH   3  24
BRANCH  13  26
HETATM   26  O2  UNL     1      -8.522  47.004 -36.438  1.00  0.00    -0.271 OA
BRANCH  26  27
HETATM   27  C13 UNL     1      -8.428  47.675 -37.689  1.00  0.00     0.303 C 
BRANCH  27  28
HETATM   28  C14 UNL     1      -9.605  48.638 -37.772  1.00  0.00     0.244 C 
HETATM   29  O3  UNL     1      -9.475  49.854 -37.888  1.00  0.00    -0.271 OA
HETATM   30  N2  UNL     1     -10.852  48.043 -37.753  1.00  0.00    -0.346 N 
HETATM   31  H16 UNL     1     -10.908  47.065 -38.007  1.00  0.00     0.163 HD
BRANCH  30  32
HETATM   32  C15 UNL     1     -12.082  48.839 -37.909  1.00  0.00     0.180 C 
BRANCH  32  33
HETATM   33  C16 UNL     1     -12.330  49.065 -39.430  1.00  0.00     0.241 C 
HETATM   34  O4  UNL     1     -12.625  50.152 -39.919  1.00  0.00    -0.271 OA
HETATM   35  N3  UNL     1     -12.134  47.934 -40.196  1.00  0.00    -0.349 N 
HETATM   36  H18 UNL     1     -11.627  47.167 -39.749  1.00  0.00     0.163 HD
BRANCH  35  37
HETATM   37  C17 UNL     1     -12.109  47.980 -41.646  1.00  0.00     0.232 C 
BRANCH  37  38
HETATM   38  C18 UNL     1     -13.345  48.645 -42.246  1.00  0.00     0.158 C 
HETATM   39  O5  UNL     1     -13.338  49.504 -43.118  1.00  0.00    -0.649 OA
BRANCH  38  40
HETATM   40  O6  UNL     1     -14.515  48.272 -41.677  1.00  0.00    -0.775 OA
HETATM   41  H21 UNL     1     -15.184  48.818 -42.145  1.00  0.00     0.167 HD
ENDBRANCH  38  40
ENDBRANCH  37  38
ENDBRANCH  35  37
ENDBRANCH  32  33
BRANCH  32  42
HETATM   42  C19 UNL     1     -13.279  48.163 -37.196  1.00  0.00     0.009 C 
HETATM   43  C20 UNL     1     -12.970  46.698 -36.854  1.00  0.00     0.012 C 
HETATM   44  C21 UNL     1     -14.549  48.196 -38.059  1.00  0.00     0.012 C 
ENDBRANCH  32  42
ENDBRANCH  30  32
ENDBRANCH  27  28
ENDBRANCH  26  27
ENDBRANCH  13  26
TORSDOF 10
ENDMDL
MODEL 4
REMARK minimizedAffinity -7.9481864
REMARK CNNscore 0.236273915
REMARK CNNaffinity 6.01327133
REMARK  10 active torsions:
REMARK  status: ('A' for Active; 'I' for Inactive)
REMARK    1  A    between atoms: C3_3  and  O1_4 
REMARK    2  A    between atoms: N1_14  and  O2_16 
REMARK    3  A    between atoms: O2_16  and  C13_17 
REMARK    4  A    between atoms: C13_17  and  C14_18 
REMARK       I    between atoms: C14_18  and  N2_20 
REMARK    5  A    between atoms: N2_20  and  C15_21 
REMARK    6  A    between atoms: C15_21  and  C16_22 
REMARK    7  A    between atoms: C15_21  and  C19_29 
REMARK       I    between atoms: C16_22  and  N3_24 
REMARK    8  A    between atoms: N3_24  and  C17_25 
REMARK    9  A    between atoms: C17_25  and  C18_26 
REMARK   10  A    between atoms: C18_26  and  O6_28 
ROOT
HETATM    1  C1  UNL     1       0.642  51.043 -16.808  1.00  0.00     0.015 C 
HETATM    2  C2  UNL     1       0.283  51.341 -17.916  1.00  0.00    -0.078 C 
HETATM    3  C3  UNL     1      -0.174  51.754 -19.255  1.00  0.00     0.128 C 
HETATM    4  C4  UNL     1       0.992  52.193 -20.146  1.00  0.00     0.052 C 
HETATM    5  C5  UNL     1       0.353  52.223 -21.533  1.00  0.00     0.010 C 
HETATM    6  C6  UNL     1      -0.459  50.926 -21.573  1.00  0.00     0.002 C 
HETATM    7  C7  UNL     1      -1.568  50.841 -22.653  1.00  0.00    -0.004 C 
HETATM    8  C8  UNL     1      -2.381  52.121 -22.911  1.00  0.00     0.010 C 
HETATM    9  C9  UNL     1      -3.412  51.933 -24.024  1.00  0.00     0.035 C 
HETATM   10  C10 UNL     1      -4.275  50.700 -23.865  1.00  0.00    -0.069 C 
HETATM   11  C11 UNL     1      -5.602  50.779 -24.072  1.00  0.00     0.030 C 
HETATM   12  C12 UNL     1      -6.472  49.572 -24.077  1.00  0.00     0.032 C 
HETATM   13  N1  UNL     1      -7.755  49.742 -24.225  1.00  0.00    -0.271 N 
ATOM     14  H1  UNL     1      -8.209  50.646 -24.349  1.00  0.00     0.194 HD
HETATM   15  C22 UNL     1      -5.791  48.217 -23.997  1.00  0.00     0.060 C 
HETATM   16  C23 UNL     1      -4.564  48.289 -23.101  1.00  0.00     0.020 C 
HETATM   17  C24 UNL     1      -3.554  49.399 -23.518  1.00  0.00    -0.016 C 
HETATM   18  C25 UNL     1      -2.815  48.905 -24.789  1.00  0.00     0.020 C 
HETATM   19  C26 UNL     1      -2.513  49.650 -22.362  1.00  0.00     0.002 C 
HETATM   20  C27 UNL     1      -3.168  49.795 -20.963  1.00  0.00     0.007 C 
HETATM   21  C28 UNL     1      -2.415  50.652 -19.943  1.00  0.00     0.014 C 
HETATM   22  C29 UNL     1      -0.887  50.628 -20.095  1.00  0.00     0.003 C 
HETATM   23  C30 UNL     1      -0.369  49.213 -19.715  1.00  0.00     0.020 C 
ENDROOT
BRANCH   3  24
HETATM   24  O1  UNL     1      -1.028  52.893 -19.107  1.00  0.00    -0.377 OA
HETATM   25  H2  UNL     1      -0.744  53.360 -18.303  1.00  0.00     0.211 HD
ENDBRANCH   3  24
BRANCH  13  26
HETATM   26  O2  UNL     1      -8.424  48.512 -24.188  1.00  0.00    -0.271 OA
BRANCH  26  27
HETATM   27  C13 UNL     1      -9.247  48.383 -25.342  1.00  0.00     0.303 C 
BRANCH  27  28
HETATM   28  C14 UNL     1     -10.442  47.525 -24.947  1.00  0.00     0.244 C 
HETATM   29  O3  UNL     1     -11.506  47.526 -25.562  1.00  0.00    -0.271 OA
HETATM   30  N2  UNL     1     -10.236  46.696 -23.862  1.00  0.00    -0.346 N 
HETATM   31  H16 UNL     1      -9.279  46.472 -23.618  1.00  0.00     0.163 HD
BRANCH  30  32
HETATM   32  C15 UNL     1     -11.271  45.748 -23.414  1.00  0.00     0.180 C 
BRANCH  32  33
HETATM   33  C16 UNL     1     -12.536  46.561 -23.008  1.00  0.00     0.241 C 
HETATM   34  O4  UNL     1     -13.423  46.882 -23.796  1.00  0.00    -0.271 OA
HETATM   35  N3  UNL     1     -12.602  46.845 -21.659  1.00  0.00    -0.349 N 
HETATM   36  H18 UNL     1     -11.980  46.306 -21.054  1.00  0.00     0.163 HD
BRANCH  35  37
HETATM   37  C17 UNL     1     -13.792  47.404 -21.047  1.00  0.00     0.232 C 
BRANCH  37  38
HETATM   38  C18 UNL     1     -13.483  48.500 -20.030  1.00  0.00     0.158 C 
HETATM   39  O5  UNL     1     -13.750  49.688 -20.160  1.00  0.00    -0.649 OA
BRANCH  38  40
HETATM   40  O6  UNL     1     -12.788  48.081 -18.947  1.00  0.00    -0.775 OA
HETATM   41  H21 UNL     1     -12.642  48.904 -18.433  1.00  0.00     0.167 HD
ENDBRANCH  38  40
ENDBRANCH  37  38
ENDBRANCH  35  37
ENDBRANCH  32  33
BRANCH  32  42
HETATM   42  C19 UNL     1     -11.561  44.682 -24.499  1.00  0.00     0.009 C 
HETATM   43  C20 UNL     1     -12.680  43.727 -24.056  1.00  0.00     0.012 C 
HETATM   44  C21 UNL     1     -10.315  43.843 -24.820  1.00  0.00     0.012 C 
ENDBRANCH  32  42
ENDBRANCH  30  32
ENDBRANCH  27  28
ENDBRANCH  26  27
ENDBRANCH  13  26
TORSDOF 10
ENDMDL
MODEL 5
REMARK minimizedAffinity -8.86159515
REMARK CNNscore 0.20431225
REMARK CNNaffinity 6.42880487
REMARK  10 active torsions:
REMARK  status: ('A' for Active; 'I' for Inactive)
REMARK    1  A    between atoms: C3_3  and  O1_4 
REMARK    2  A    between atoms: N1_14  and  O2_16 
REMARK    3  A    between atoms: O2_16  and  C13_17 
REMARK    4  A    between atoms: C13_17  and  C14_18 
REMARK       I    between atoms: C14_18  and  N2_20 
REMARK    5  A    between atoms: N2_20  and  C15_21 
REMARK    6  A    between atoms: C15_21  and  C16_22 
REMARK    7  A    between atoms: C15_21  and  C19_29 
REMARK       I    between atoms: C16_22  and  N3_24 
REMARK    8  A    between atoms: N3_24  and  C17_25 
REMARK    9  A    between atoms: C17_25  and  C18_26 
REMARK   10  A    between atoms: C18_26  and  O6_28 
ROOT
HETATM    1  C1  UNL     1      -0.496  53.717 -28.140  1.00  0.00     0.015 C 
HETATM    2  C2  UNL     1      -1.162  53.013 -27.429  1.00  0.00    -0.078 C 
HETATM    3  C3  UNL     1      -2.018  52.186 -26.560  1.00  0.00     0.128 C 
HETATM    4  C4  UNL     1      -2.607  50.988 -27.312  1.00  0.00     0.052 C 
HETATM    5  C5  UNL     1      -3.134  50.114 -26.176  1.00  0.00     0.010 C 
HETATM    6  C6  UNL     1      -1.999  50.149 -25.150  1.00  0.00     0.002 C 
HETATM    7  C7  UNL     1      -2.365  49.728 -23.703  1.00  0.00    -0.004 C 
HETATM    8  C8  UNL     1      -3.731  50.195 -23.173  1.00  0.00     0.010 C 
HETATM    9  C9  UNL     1      -4.003  49.685 -21.757  1.00  0.00     0.035 C 
HETATM   10  C10 UNL     1      -2.869  49.929 -20.784  1.00  0.00    -0.069 C 
HETATM   11  C11 UNL     1      -3.134  50.392 -19.549  1.00  0.00     0.030 C 
HETATM   12  C12 UNL     1      -2.078  50.506 -18.508  1.00  0.00     0.032 C 
HETATM   13  N1  UNL     1      -2.405  51.021 -17.357  1.00  0.00    -0.271 N 
ATOM     14  H1  UNL     1      -3.340  51.344 -17.111  1.00  0.00     0.194 HD
HETATM   15  C22 UNL     1      -0.710  49.931 -18.830  1.00  0.00     0.060 C 
HETATM   16  C23 UNL     1      -0.379  50.137 -20.301  1.00  0.00     0.020 C 
HETATM   17  C24 UNL     1      -1.464  49.575 -21.266  1.00  0.00    -0.016 C 
HETATM   18  C25 UNL     1      -1.332  48.030 -21.271  1.00  0.00     0.020 C 
HETATM   19  C26 UNL     1      -1.237  50.133 -22.724  1.00  0.00     0.002 C 
HETATM   20  C27 UNL     1      -0.991  51.664 -22.766  1.00  0.00     0.007 C 
HETATM   21  C28 UNL     1      -1.406  52.384 -24.052  1.00  0.00     0.014 C 
HETATM   22  C29 UNL     1      -1.289  51.535 -25.325  1.00  0.00     0.003 C 
HETATM   23  C30 UNL     1       0.215  51.277 -25.617  1.00  0.00     0.020 C 
ENDROOT
BRANCH   3  24
HETATM   24  O1  UNL     1      -3.127  52.985 -26.131  1.00  0.00    -0.377 OA
HETATM   25  H2  UNL     1      -3.286  53.647 -26.824  1.00  0.00     0.211 HD
ENDBRANCH   3  24
BRANCH  13  26
HETATM   26  O2  UNL     1      -1.295  51.070 -16.504  1.00  0.00    -0.271 OA
BRANCH  26  27
HETATM   27  C13 UNL     1      -1.602  50.404 -15.284  1.00  0.00     0.303 C 
BRANCH  27  28
HETATM   28  C14 UNL     1      -0.948  51.199 -14.161  1.00  0.00     0.244 C 
HETATM   29  O3  UNL     1      -0.397  52.283 -14.336  1.00  0.00    -0.271 OA
HETATM   30  N2  UNL     1      -1.055  50.637 -12.904  1.00  0.00    -0.346 N 
HETATM   31  H16 UNL     1      -1.791  49.958 -12.756  1.00  0.00     0.163 HD
BRANCH  30  32
HETATM   32  C15 UNL     1      -0.544  51.330 -11.709  1.00  0.00     0.180 C 
BRANCH  32  33
HETATM   33  C16 UNL     1       0.916  51.791 -11.996  1.00  0.00     0.241 C 
HETATM   34  O4  UNL     1       1.311  52.943 -11.840  1.00  0.00    -0.271 OA
HETATM   35  N3  UNL     1       1.751  50.767 -12.394  1.00  0.00    -0.349 N 
HETATM   36  H18 UNL     1       1.413  49.817 -12.225  1.00  0.00     0.163 HD
BRANCH  35  37
HETATM   37  C17 UNL     1       3.186  50.942 -12.506  1.00  0.00     0.232 C 
BRANCH  37  38
HETATM   38  C18 UNL     1       3.940  49.624 -12.664  1.00  0.00     0.158 C 
HETATM   39  O5  UNL     1       3.914  48.690 -11.873  1.00  0.00    -0.649 OA
BRANCH  38  40
HETATM   40  O6  UNL     1       4.748  49.566 -13.747  1.00  0.00    -0.775 OA
HETATM   41  H21 UNL     1       5.178  48.687 -13.669  1.00  0.00     0.167 HD
ENDBRANCH  38  40
ENDBRANCH  37  38
ENDBRANCH  35  37
ENDBRANCH  32  33
BRANCH  32  42
HETATM   42  C19 UNL     1      -1.475  52.497 -11.299  1.00  0.00     0.009 C 
HETATM   43  C20 UNL     1      -1.230  52.919  -9.842  1.00  0.00     0.012 C 
HETATM   44  C21 UNL     1      -2.957  52.122 -11.445  1.00  0.00     0.012 C 
ENDBRANCH  32  42
ENDBRANCH  30  32
ENDBRANCH  27  28
ENDBRANCH  26  27
ENDBRANCH  13  26
TORSDOF 10
ENDMDL
MODEL 6
REMARK minimizedAffinity -8.20528126
REMARK CNNscore 0.198219001
REMARK CNNaffinity 6.46945143
REMARK  10 active torsions:
REMARK  status: ('A' for Active; 'I' for Inactive)
REMARK    1  A    between atoms: C3_3  and  O1_4 
REMARK    2  A    between atoms: N1_14  and  O2_16 
REMARK    3  A    between atoms: O2_16  and  C13_17 
REMARK    4  A    between atoms: C13_17  and  C14_18 
REMARK       I    between atoms: C14_18  and  N2_20 
REMARK    5  A    between atoms: N2_20  and  C15_21 
REMARK    6  A    between atoms: C15_21  and  C16_22 
REMARK    7  A    between atoms: C15_21  and  C19_29 
REMARK       I    between atoms: C16_22  and  N3_24 
REMARK    8  A    between atoms: N3_24  and  C17_25 
REMARK    9  A    between atoms: C17_25  and  C18_26 
REMARK   10  A    between atoms: C18_26  and  O6_28 
ROOT
HETATM    1  C1  UNL     1      -0.321  53.651 -28.024  1.00  0.00     0.015 C 
HETATM    2  C2  UNL     1      -1.080  52.932 -27.431  1.00  0.00    -0.078 C 
HETATM    3  C3  UNL     1      -2.046  52.090 -26.704  1.00  0.00     0.128 C 
HETATM    4  C4  UNL     1      -2.688  51.039 -27.616  1.00  0.00     0.052 C 
HETATM    5  C5  UNL     1      -3.345  50.092 -26.615  1.00  0.00     0.010 C 
HETATM    6  C6  UNL     1      -2.268  49.912 -25.542  1.00  0.00     0.002 C 
HETATM    7  C7  UNL     1      -2.745  49.364 -24.172  1.00  0.00    -0.004 C 
HETATM    8  C8  UNL     1      -4.096  49.885 -23.652  1.00  0.00     0.010 C 
HETATM    9  C9  UNL     1      -4.484  49.244 -22.320  1.00  0.00     0.035 C 
HETATM   10  C10 UNL     1      -3.389  49.276 -21.275  1.00  0.00    -0.069 C 
HETATM   11  C11 UNL     1      -3.682  49.618 -20.008  1.00  0.00     0.030 C 
HETATM   12  C12 UNL     1      -2.678  49.522 -18.914  1.00  0.00     0.032 C 
HETATM   13  N1  UNL     1      -3.025  49.930 -17.727  1.00  0.00    -0.271 N 
ATOM     14  H1  UNL     1      -3.943  50.303 -17.486  1.00  0.00     0.194 HD
HETATM   15  C22 UNL     1      -1.346  48.870 -19.241  1.00  0.00     0.060 C 
HETATM   16  C23 UNL     1      -0.920  49.212 -20.661  1.00  0.00     0.020 C 
HETATM   17  C24 UNL     1      -1.994  48.859 -21.733  1.00  0.00    -0.016 C 
HETATM   18  C25 UNL     1      -1.987  47.319 -21.913  1.00  0.00     0.020 C 
HETATM   19  C26 UNL     1      -1.643  49.556 -23.103  1.00  0.00     0.002 C 
HETATM   20  C27 UNL     1      -1.272  51.055 -22.955  1.00  0.00     0.007 C 
HETATM   21  C28 UNL     1      -1.557  51.949 -24.164  1.00  0.00     0.014 C 
HETATM   22  C29 UNL     1      -1.441  51.242 -25.522  1.00  0.00     0.003 C 
HETATM   23  C30 UNL     1       0.052  50.890 -25.775  1.00  0.00     0.020 C 
ENDROOT
BRANCH   3  24
HETATM   24  O1  UNL     1      -3.108  52.928 -26.234  1.00  0.00    -0.377 OA
HETATM   25  H2  UNL     1      -3.175  53.675 -26.851  1.00  0.00     0.211 HD
ENDBRANCH   3  24
BRANCH  13  26
HETATM   26  O2  UNL     1      -1.962  49.785 -16.825  1.00  0.00    -0.271 OA
BRANCH  26  27
HETATM   27  C13 UNL     1      -1.835  50.969 -16.045  1.00  0.00     0.303 C 
BRANCH  27  28
HETATM   28  C14 UNL     1      -0.504  50.880 -15.309  1.00  0.00     0.244 C 
HETATM   29  O3  UNL     1       0.557  51.278 -15.783  1.00  0.00    -0.271 OA
HETATM   30  N2  UNL     1      -0.573  50.356 -14.033  1.00  0.00    -0.346 N 
HETATM   31  H16 UNL     1      -1.472  50.373 -13.568  1.00  0.00     0.163 HD
BRANCH  30  32
HETATM   32  C15 UNL     1       0.617  50.284 -13.169  1.00  0.00     0.180 C 
BRANCH  32  33
HETATM   33  C16 UNL     1       1.676  49.381 -13.868  1.00  0.00     0.241 C 
HETATM   34  O4  UNL     1       2.807  49.758 -14.162  1.00  0.00    -0.271 OA
HETATM   35  N3  UNL     1       1.246  48.087 -14.080  1.00  0.00    -0.349 N 
HETATM   36  H18 UNL     1       0.416  47.796 -13.559  1.00  0.00     0.163 HD
BRANCH  35  37
HETATM   37  C17 UNL     1       2.144  47.038 -14.522  1.00  0.00     0.232 C 
BRANCH  37  38
HETATM   38  C18 UNL     1       2.357  45.950 -13.473  1.00  0.00     0.158 C 
HETATM   39  O5  UNL     1       3.385  45.770 -12.833  1.00  0.00    -0.649 OA
BRANCH  38  40
HETATM   40  O6  UNL     1       1.318  45.094 -13.334  1.00  0.00    -0.775 OA
HETATM   41  H21 UNL     1       1.637  44.449 -12.666  1.00  0.00     0.167 HD
ENDBRANCH  38  40
ENDBRANCH  37  38
ENDBRANCH  35  37
ENDBRANCH  32  33
BRANCH  32  42
HETATM   42  C19 UNL     1       1.154  51.698 -12.838  1.00  0.00     0.009 C 
HETATM   43  C20 UNL     1       2.140  51.658 -11.660  1.00  0.00     0.012 C 
HETATM   44  C21 UNL     1       0.020  52.669 -12.478  1.00  0.00     0.012 C 
ENDBRANCH  32  42
ENDBRANCH  30  32
ENDBRANCH  27  28
ENDBRANCH  26  27
ENDBRANCH  13  26
TORSDOF 10
ENDMDL
MODEL 7
REMARK minimizedAffinity -7.74422836
REMARK CNNscore 0.197016597
REMARK CNNaffinity 6.11302948
REMARK  10 active torsions:
REMARK  status: ('A' for Active; 'I' for Inactive)
REMARK    1  A    between atoms: C3_3  and  O1_4 
REMARK    2  A    between atoms: N1_14  and  O2_16 
REMARK    3  A    between atoms: O2_16  and  C13_17 
REMARK    4  A    between atoms: C13_17  and  C14_18 
REMARK       I    between atoms: C14_18  and  N2_20 
REMARK    5  A    between atoms: N2_20  and  C15_21 
REMARK    6  A    between atoms: C15_21  and  C16_22 
REMARK    7  A    between atoms: C15_21  and  C19_29 
REMARK       I    between atoms: C16_22  and  N3_24 
REMARK    8  A    between atoms: N3_24  and  C17_25 
REMARK    9  A    between atoms: C17_25  and  C18_26 
REMARK   10  A    between atoms: C18_26  and  O6_28 
ROOT
HETATM    1  C1  UNL     1      -3.755  42.494 -16.758  1.00  0.00     0.015 C 
HETATM    2  C2  UNL     1      -4.481  43.100 -17.500  1.00  0.00    -0.078 C 
HETATM    3  C3  UNL     1      -5.383  43.795 -18.435  1.00  0.00     0.128 C 
HETATM    4  C4  UNL     1      -6.712  44.171 -17.773  1.00  0.00     0.052 C 
HETATM    5  C5  UNL     1      -7.310  45.159 -18.772  1.00  0.00     0.010 C 
HETATM    6  C6  UNL     1      -6.123  46.054 -19.134  1.00  0.00     0.002 C 
HETATM    7  C7  UNL     1      -6.259  46.887 -20.435  1.00  0.00    -0.004 C 
HETATM    8  C8  UNL     1      -6.934  46.193 -21.631  1.00  0.00     0.010 C 
HETATM    9  C9  UNL     1      -7.054  47.121 -22.840  1.00  0.00     0.035 C 
HETATM   10  C10 UNL     1      -5.767  47.827 -23.209  1.00  0.00    -0.069 C 
HETATM   11  C11 UNL     1      -5.389  47.903 -24.497  1.00  0.00     0.030 C 
HETATM   12  C12 UNL     1      -4.216  48.710 -24.927  1.00  0.00     0.032 C 
HETATM   13  N1  UNL     1      -3.881  48.682 -26.186  1.00  0.00    -0.271 N 
ATOM     14  H1  UNL     1      -4.373  48.152 -26.905  1.00  0.00     0.194 HD
HETATM   15  C22 UNL     1      -3.543  49.583 -23.882  1.00  0.00     0.060 C 
HETATM   16  C23 UNL     1      -3.560  48.896 -22.525  1.00  0.00     0.020 C 
HETATM   17  C24 UNL     1      -4.985  48.467 -22.063  1.00  0.00    -0.016 C 
HETATM   18  C25 UNL     1      -5.740  49.748 -21.622  1.00  0.00     0.020 C 
HETATM   19  C26 UNL     1      -4.885  47.465 -20.850  1.00  0.00     0.002 C 
HETATM   20  C27 UNL     1      -3.852  46.328 -21.074  1.00  0.00     0.007 C 
HETATM   21  C28 UNL     1      -4.122  45.010 -20.343  1.00  0.00     0.014 C 
HETATM   22  C29 UNL     1      -4.841  45.164 -18.995  1.00  0.00     0.003 C 
HETATM   23  C30 UNL     1      -3.877  45.854 -17.990  1.00  0.00     0.020 C 
ENDROOT
BRANCH   3  24
HETATM   24  O1  UNL     1      -5.698  42.899 -19.506  1.00  0.00    -0.377 OA
HETATM   25  H2  UNL     1      -5.640  41.997 -19.149  1.00  0.00     0.211 HD
ENDBRANCH   3  24
BRANCH  13  26
HETATM   26  O2  UNL     1      -2.752  49.479 -26.415  1.00  0.00    -0.271 OA
BRANCH  26  27
HETATM   27  C13 UNL     1      -3.128  50.638 -27.150  1.00  0.00     0.303 C 
BRANCH  27  28
HETATM   28  C14 UNL     1      -2.617  51.847 -26.376  1.00  0.00     0.244 C 
HETATM   29  O3  UNL     1      -3.251  52.892 -26.263  1.00  0.00    -0.271 OA
HETATM   30  N2  UNL     1      -1.393  51.674 -25.760  1.00  0.00    -0.346 N 
HETATM   31  H16 UNL     1      -1.085  50.725 -25.587  1.00  0.00     0.163 HD
BRANCH  30  32
HETATM   32  C15 UNL     1      -0.809  52.724 -24.909  1.00  0.00     0.180 C 
BRANCH  32  33
HETATM   33  C16 UNL     1      -0.409  52.085 -23.547  1.00  0.00     0.241 C 
HETATM   34  O4  UNL     1      -0.810  50.989 -23.162  1.00  0.00    -0.271 OA
HETATM   35  N3  UNL     1       0.491  52.841 -22.823  1.00  0.00    -0.349 N 
HETATM   36  H18 UNL     1       0.974  53.581 -23.336  1.00  0.00     0.163 HD
BRANCH  35  37
HETATM   37  C17 UNL     1       1.147  52.331 -21.635  1.00  0.00     0.232 C 
BRANCH  37  38
HETATM   38  C18 UNL     1       1.144  53.324 -20.476  1.00  0.00     0.158 C 
HETATM   39  O5  UNL     1       1.733  54.398 -20.456  1.00  0.00    -0.649 OA
BRANCH  38  40
HETATM   40  O6  UNL     1       0.482  52.900 -19.375  1.00  0.00    -0.775 OA
HETATM   41  H21 UNL     1       0.616  53.627 -18.729  1.00  0.00     0.167 HD
ENDBRANCH  38  40
ENDBRANCH  37  38
ENDBRANCH  35  37
ENDBRANCH  32  33
BRANCH  32  42
HETATM   42  C19 UNL     1       0.376  53.425 -25.618  1.00  0.00     0.009 C 
HETATM   43  C20 UNL     1       0.243  54.954 -25.544  1.00  0.00     0.012 C 
HETATM   44  C21 UNL     1       0.472  53.025 -27.097  1.00  0.00     0.012 C 
ENDBRANCH  32  42
ENDBRANCH  30  32
ENDBRANCH  27  28
ENDBRANCH  26  27
ENDBRANCH  13  26
TORSDOF 10
ENDMDL
MODEL 8
REMARK minimizedAffinity -9.41155624
REMARK CNNscore 0.193891823
REMARK CNNaffinity 6.44928169
REMARK  10 active torsions:
REMARK  status: ('A' for Active; 'I' for Inactive)
REMARK    1  A    between atoms: C3_3  and  O1_4 
REMARK    2  A    between atoms: N1_14  and  O2_16 
REMARK    3  A    between atoms: O2_16  and  C13_17 
REMARK    4  A    between atoms: C13_17  and  C14_18 
REMARK       I    between atoms: C14_18  and  N2_20 
REMARK    5  A    between atoms: N2_20  and  C15_21 
REMARK    6  A    between atoms: C15_21  and  C16_22 
REMARK    7  A    between atoms: C15_21  and  C19_29 
REMARK       I    between atoms: C16_22  and  N3_24 
REMARK    8  A    between atoms: N3_24  and  C17_25 
REMARK    9  A    between atoms: C17_25  and  C18_26 
REMARK   10  A    between atoms: C18_26  and  O6_28 
ROOT
HETATM    1  C1  UNL     1      -0.321  53.715 -28.020  1.00  0.00     0.015 C 
HETATM    2  C2  UNL     1      -1.069  52.986 -27.423  1.00  0.00    -0.078 C 
HETATM    3  C3  UNL     1      -2.022  52.132 -26.694  1.00  0.00     0.128 C 
HETATM    4  C4  UNL     1      -2.615  51.042 -27.593  1.00  0.00     0.052 C 
HETATM    5  C5  UNL     1      -3.261  50.097 -26.582  1.00  0.00     0.010 C 
HETATM    6  C6  UNL     1      -2.199  49.975 -25.487  1.00  0.00     0.002 C 
HETATM    7  C7  UNL     1      -2.684  49.444 -24.113  1.00  0.00    -0.004 C 
HETATM    8  C8  UNL     1      -4.059  49.935 -23.629  1.00  0.00     0.010 C 
HETATM    9  C9  UNL     1      -4.453  49.312 -22.289  1.00  0.00     0.035 C 
HETATM   10  C10 UNL     1      -3.379  49.402 -21.226  1.00  0.00    -0.069 C 
HETATM   11  C11 UNL     1      -3.705  49.764 -19.973  1.00  0.00     0.030 C 
HETATM   12  C12 UNL     1      -2.719  49.723 -18.860  1.00  0.00     0.032 C 
HETATM   13  N1  UNL     1      -3.100  50.147 -17.688  1.00  0.00    -0.271 N 
ATOM     14  H1  UNL     1      -4.033  50.497 -17.473  1.00  0.00     0.194 HD
HETATM   15  C22 UNL     1      -1.362  49.106 -19.147  1.00  0.00     0.060 C 
HETATM   16  C23 UNL     1      -0.920  49.428 -20.567  1.00  0.00     0.020 C 
HETATM   17  C24 UNL     1      -1.963  49.018 -21.649  1.00  0.00    -0.016 C 
HETATM   18  C25 UNL     1      -1.905  47.475 -21.793  1.00  0.00     0.020 C 
HETATM   19  C26 UNL     1      -1.608  49.694 -23.029  1.00  0.00     0.002 C 
HETATM   20  C27 UNL     1      -1.286  51.207 -22.909  1.00  0.00     0.007 C 
HETATM   21  C28 UNL     1      -1.576  52.064 -24.144  1.00  0.00     0.014 C 
HETATM   22  C29 UNL     1      -1.413  51.330 -25.483  1.00  0.00     0.003 C 
HETATM   23  C30 UNL     1       0.094  51.019 -25.701  1.00  0.00     0.020 C 
ENDROOT
BRANCH   3  24
HETATM   24  O1  UNL     1      -3.118  52.947 -26.263  1.00  0.00    -0.377 OA
HETATM   25  H2  UNL     1      -3.196  53.678 -26.898  1.00  0.00     0.211 HD
ENDBRANCH   3  24
BRANCH  13  26
HETATM   26  O2  UNL     1      -2.050  50.056 -16.765  1.00  0.00    -0.271 OA
BRANCH  26  27
HETATM   27  C13 UNL     1      -2.504  49.389 -15.592  1.00  0.00     0.303 C 
BRANCH  27  28
HETATM   28  C14 UNL     1      -2.654  50.446 -14.505  1.00  0.00     0.244 C 
HETATM   29  O3  UNL     1      -3.342  51.455 -14.637  1.00  0.00    -0.271 OA
HETATM   30  N2  UNL     1      -1.994  50.171 -13.324  1.00  0.00    -0.346 N 
HETATM   31  H16 UNL     1      -1.746  49.207 -13.139  1.00  0.00     0.163 HD
BRANCH  30  32
HETATM   32  C15 UNL     1      -2.114  51.059 -12.155  1.00  0.00     0.180 C 
BRANCH  32  33
HETATM   33  C16 UNL     1      -1.023  52.165 -12.265  1.00  0.00     0.241 C 
HETATM   34  O4  UNL     1      -0.545  52.549 -13.330  1.00  0.00    -0.271 OA
HETATM   35  N3  UNL     1      -0.675  52.722 -11.051  1.00  0.00    -0.349 N 
HETATM   36  H18 UNL     1      -1.313  52.544 -10.273  1.00  0.00     0.163 HD
BRANCH  35  37
HETATM   37  C17 UNL     1       0.161  53.903 -10.957  1.00  0.00     0.232 C 
BRANCH  37  38
HETATM   38  C18 UNL     1      -0.462  55.013 -10.114  1.00  0.00     0.158 C 
HETATM   39  O5  UNL     1      -0.018  55.438  -9.056  1.00  0.00    -0.649 OA
BRANCH  38  40
HETATM   40  O6  UNL     1      -1.642  55.478 -10.585  1.00  0.00    -0.775 OA
HETATM   41  H21 UNL     1      -1.915  56.140  -9.912  1.00  0.00     0.167 HD
ENDBRANCH  38  40
ENDBRANCH  37  38
ENDBRANCH  35  37
ENDBRANCH  32  33
BRANCH  32  42
HETATM   42  C19 UNL     1      -3.546  51.635 -12.034  1.00  0.00     0.009 C 
HETATM   43  C20 UNL     1      -3.518  53.135 -11.705  1.00  0.00     0.012 C 
HETATM   44  C21 UNL     1      -4.357  50.921 -10.942  1.00  0.00     0.012 C 
ENDBRANCH  32  42
ENDBRANCH  30  32
ENDBRANCH  27  28
ENDBRANCH  26  27
ENDBRANCH  13  26
TORSDOF 10
ENDMDL
MODEL 9
REMARK minimizedAffinity -7.79495907
REMARK CNNscore 0.184557989
REMARK CNNaffinity 5.97611475
REMARK  10 active torsions:
REMARK  status: ('A' for Active; 'I' for Inactive)
REMARK    1  A    between atoms: C3_3  and  O1_4 
REMARK    2  A    between atoms: N1_14  and  O2_16 
REMARK    3  A    between atoms: O2_16  and  C13_17 
REMARK    4  A    between atoms: C13_17  and  C14_18 
REMARK       I    between atoms: C14_18  and  N2_20 
REMARK    5  A    between atoms: N2_20  and  C15_21 
REMARK    6  A    between atoms: C15_21  and  C16_22 
REMARK    7  A    between atoms: C15_21  and  C19_29 
REMARK       I    between atoms: C16_22  and  N3_24 
REMARK    8  A    between atoms: N3_24  and  C17_25 
REMARK    9  A    between atoms: C17_25  and  C18_26 
REMARK   10  A    between atoms: C18_26  and  O6_28 
ROOT
HETATM    1  C1  UNL     1       0.407  54.932 -25.134  1.00  0.00     0.015 C 
HETATM    2  C2  UNL     1      -0.202  53.907 -25.292  1.00  0.00    -0.078 C 
HETATM    3  C3  UNL     1      -0.979  52.677 -25.522  1.00  0.00     0.128 C 
HETATM    4  C4  UNL     1      -0.214  51.672 -26.389  1.00  0.00     0.052 C 
HETATM    5  C5  UNL     1      -1.021  50.390 -26.197  1.00  0.00     0.010 C 
HETATM    6  C6  UNL     1      -1.283  50.363 -24.689  1.00  0.00     0.002 C 
HETATM    7  C7  UNL     1      -2.430  49.438 -24.206  1.00  0.00    -0.004 C 
HETATM    8  C8  UNL     1      -3.693  49.388 -25.083  1.00  0.00     0.010 C 
HETATM    9  C9  UNL     1      -4.735  48.413 -24.534  1.00  0.00     0.035 C 
HETATM   10  C10 UNL     1      -5.037  48.594 -23.062  1.00  0.00    -0.069 C 
HETATM   11  C11 UNL     1      -6.311  48.573 -22.632  1.00  0.00     0.030 C 
HETATM   12  C12 UNL     1      -6.653  48.596 -21.184  1.00  0.00     0.032 C 
HETATM   13  N1  UNL     1      -7.912  48.635 -20.853  1.00  0.00    -0.271 N 
ATOM     14  H1  UNL     1      -8.687  48.640 -21.517  1.00  0.00     0.194 HD
HETATM   15  C22 UNL     1      -5.510  48.482 -20.191  1.00  0.00     0.060 C 
HETATM   16  C23 UNL     1      -4.279  49.208 -20.711  1.00  0.00     0.020 C 
HETATM   17  C24 UNL     1      -3.836  48.742 -22.130  1.00  0.00    -0.016 C 
HETATM   18  C25 UNL     1      -3.169  47.350 -21.979  1.00  0.00     0.020 C 
HETATM   19  C26 UNL     1      -2.802  49.764 -22.739  1.00  0.00     0.002 C 
HETATM   20  C27 UNL     1      -3.242  51.245 -22.597  1.00  0.00     0.007 C 
HETATM   21  C28 UNL     1      -2.719  52.216 -23.660  1.00  0.00     0.014 C 
HETATM   22  C29 UNL     1      -1.336  51.858 -24.225  1.00  0.00     0.003 C 
HETATM   23  C30 UNL     1      -0.273  52.058 -23.109  1.00  0.00     0.020 C 
ENDROOT
BRANCH   3  24
HETATM   24  O1  UNL     1      -2.165  53.023 -26.245  1.00  0.00    -0.377 OA
HETATM   25  H2  UNL     1      -1.957  53.814 -26.771  1.00  0.00     0.211 HD
ENDBRANCH   3  24
BRANCH  13  26
HETATM   26  O2  UNL     1      -8.057  48.668 -19.460  1.00  0.00    -0.271 OA
BRANCH  26  27
HETATM   27  C13 UNL     1      -9.439  48.706 -19.125  1.00  0.00     0.303 C 
BRANCH  27  28
HETATM   28  C14 UNL     1     -10.090  47.486 -19.766  1.00  0.00     0.244 C 
HETATM   29  O3  UNL     1      -9.551  46.383 -19.815  1.00  0.00    -0.271 OA
HETATM   30  N2  UNL     1     -11.364  47.691 -20.256  1.00  0.00    -0.346 N 
HETATM   31  H16 UNL     1     -11.886  48.478 -19.892  1.00  0.00     0.163 HD
BRANCH  30  32
HETATM   32  C15 UNL     1     -12.151  46.585 -20.829  1.00  0.00     0.180 C 
BRANCH  32  33
HETATM   33  C16 UNL     1     -12.810  45.795 -19.659  1.00  0.00     0.241 C 
HETATM   34  O4  UNL     1     -12.511  44.642 -19.360  1.00  0.00    -0.271 OA
HETATM   35  N3  UNL     1     -13.733  46.532 -18.945  1.00  0.00    -0.349 N 
HETATM   36  H18 UNL     1     -13.708  47.545 -19.085  1.00  0.00     0.163 HD
BRANCH  35  37
HETATM   37  C17 UNL     1     -14.301  46.056 -17.698  1.00  0.00     0.232 C 
BRANCH  37  38
HETATM   38  C18 UNL     1     -13.534  46.535 -16.469  1.00  0.00     0.158 C 
HETATM   39  O5  UNL     1     -12.348  46.839 -16.443  1.00  0.00    -0.649 OA
BRANCH  38  40
HETATM   40  O6  UNL     1     -14.253  46.533 -15.323  1.00  0.00    -0.775 OA
HETATM   41  H21 UNL     1     -13.606  46.820 -14.642  1.00  0.00     0.167 HD
ENDBRANCH  38  40
ENDBRANCH  37  38
ENDBRANCH  35  37
ENDBRANCH  32  33
BRANCH  32  42
HETATM   42  C19 UNL     1     -13.180  47.106 -21.861  1.00  0.00     0.009 C 
HETATM   43  C20 UNL     1     -14.445  47.635 -21.168  1.00  0.00     0.012 C 
HETATM   44  C21 UNL     1     -13.600  46.010 -22.851  1.00  0.00     0.012 C 
ENDBRANCH  32  42
ENDBRANCH  30  32
ENDBRANCH  27  28
ENDBRANCH  26  27
ENDBRANCH  13  26
TORSDOF 10
ENDMDL
