MODEL 1
REMARK minimizedAffinity -8.39985943
REMARK CNNscore 0.363250971
REMARK CNNaffinity 7.12287521
REMARK  15 active torsions:
REMARK  status: ('A' for Active; 'I' for Inactive)
REMARK    1  A    between atoms: C2_2  and  C36_45 
REMARK    2  A    between atoms: C3_3  and  C4_4 
REMARK    3  A    between atoms: C4_4  and  C5_5 
REMARK    4  A    between atoms: C5_5  and  C6_6 
REMARK    5  A    between atoms: C6_6  and  C8_8 
REMARK    6  A    between atoms: C24_27  and  C26_29 
REMARK    7  A    between atoms: C26_29  and  O4_30 
REMARK    8  A    between atoms: O4_30  and  C27_31 
REMARK    9  A    between atoms: C27_31  and  C28_33 
REMARK   10  A    between atoms: C28_33  and  C29_34 
REMARK   11  A    between atoms: C29_34  and  O6_36 
REMARK   12  A    between atoms: C29_34  and  C31_37 
REMARK   13  A    between atoms: C31_37  and  C32_38 
REMARK   14  A    between atoms: C32_38  and  O8_40 
REMARK   15  A    between atoms: C36_45  and  O11_47 
ROOT
HETATM    1  C8  UNL     1      -7.728   7.661  14.839  1.00  0.00     0.006 C 
HETATM    2  C9  UNL     1      -6.940   8.815  15.501  1.00  0.00     0.085 C 
HETATM    3  C10 UNL     1      -5.522   8.621  14.965  1.00  0.00     0.141 C 
HETATM    4  O1  UNL     1      -4.557   9.196  15.446  1.00  0.00    -0.297 OA
HETATM    5  C11 UNL     1      -5.509   7.596  13.816  1.00  0.00     0.056 C 
HETATM    6  C12 UNL     1      -5.928   8.377  12.539  1.00  0.00     0.030 C 
HETATM    7  C13 UNL     1      -4.304   6.768  13.424  1.00  0.00     0.015 C 
HETATM    8  C14 UNL     1      -4.379   5.486  12.982  1.00  0.00     0.007 C 
HETATM    9  C15 UNL     1      -5.762   4.844  12.935  1.00  0.00     0.157 C 
HETATM   10  O2  UNL     1      -5.909   3.692  12.530  1.00  0.00    -0.293 OA
HETATM   11  C16 UNL     1      -6.991   5.624  13.387  1.00  0.00     0.094 C 
HETATM   12  C17 UNL     1      -6.605   6.653  14.443  1.00  0.00    -0.014 C 
HETATM   13  C18 UNL     1      -6.099   5.873  15.700  1.00  0.00     0.018 C 
HETATM   14  C19 UNL     1      -3.154   4.625  12.538  1.00  0.00    -0.007 C 
HETATM   15  C20 UNL     1      -2.918   3.605  13.679  1.00  0.00     0.021 C 
HETATM   16  C21 UNL     1      -3.393   3.895  11.185  1.00  0.00     0.022 C 
HETATM   17  C22 UNL     1      -2.162   3.254  10.537  1.00  0.00     0.080 C 
HETATM   18  C23 UNL     1      -0.893   3.439  11.330  1.00  0.00     0.137 C 
HETATM   19  O3  UNL     1      -0.133   2.482  11.501  1.00  0.00    -0.297 OA
HETATM   20  C24 UNL     1      -0.574   4.834  11.871  1.00  0.00     0.044 C 
HETATM   21  C25 UNL     1       0.420   4.685  13.044  1.00  0.00     0.026 C 
HETATM   22  C33 UNL     1      -1.914   5.552  12.277  1.00  0.00     0.023 C 
HETATM   23  C34 UNL     1      -1.746   6.564  13.408  1.00  0.00     0.090 C 
HETATM   24  C35 UNL     1      -2.971   7.440  13.417  1.00  0.00     0.158 C 
HETATM   25  O9  UNL     1      -2.871   8.663  13.368  1.00  0.00    -0.293 OA
ENDROOT
BRANCH  20  26
HETATM   26  C26 UNL     1       0.092   5.654  10.733  1.00  0.00     0.196 C 
BRANCH  26  27
HETATM   27  O4  UNL     1       1.336   6.274  11.096  1.00  0.00    -0.320 OA
BRANCH  27  28
HETATM   28  C27 UNL     1       1.432   7.615  10.905  1.00  0.00     0.261 C 
HETATM   29  O5  UNL     1       0.520   8.336  10.518  1.00  0.00    -0.265 OA
BRANCH  28  30
HETATM   30  C28 UNL     1       2.799   8.130  11.277  1.00  0.00     0.148 C 
BRANCH  30  31
HETATM   31  C29 UNL     1       3.896   7.826  10.245  1.00  0.00     0.072 C 
HETATM   32  C30 UNL     1       3.290   8.044   8.846  1.00  0.00     0.047 C 
BRANCH  31  33
HETATM   33  O6  UNL     1       4.932   8.800  10.418  1.00  0.00    -0.389 OA
HETATM   34  H41 UNL     1       5.633   8.606   9.761  1.00  0.00     0.210 HD
ENDBRANCH  31  33
BRANCH  31  35
HETATM   35  C31 UNL     1       4.460   6.399  10.401  1.00  0.00     0.147 C 
BRANCH  35  36
HETATM   36  C32 UNL     1       5.809   6.374  11.066  1.00  0.00     0.142 C 
HETATM   37  O7  UNL     1       6.892   6.448  10.506  1.00  0.00    -0.650 OA
BRANCH  36  38
HETATM   38  O8  UNL     1       5.737   6.288  12.409  1.00  0.00    -0.776 OA
HETATM   39  H44 UNL     1       6.671   6.329  12.701  1.00  0.00     0.167 HD
ENDBRANCH  36  38
ENDBRANCH  35  36
ENDBRANCH  31  35
ENDBRANCH  30  31
ENDBRANCH  28  30
ENDBRANCH  27  28
ENDBRANCH  26  27
ENDBRANCH  20  26
BRANCH   1  40
HETATM   40  C6  UNL     1      -8.981   7.152  15.614  1.00  0.00    -0.013 C 
HETATM   41  C7  UNL     1     -10.100   6.884  14.582  1.00  0.00     0.010 C 
BRANCH  40  42
HETATM   42  C5  UNL     1      -9.508   8.103  16.719  1.00  0.00     0.008 C 
BRANCH  42  43
HETATM   43  C4  UNL     1     -10.800   8.860  16.366  1.00  0.00     0.028 C 
BRANCH  43  44
HETATM   44  C3  UNL     1     -11.137   8.873  14.900  1.00  0.00    -0.013 C 
HETATM   45  C2  UNL     1     -12.259   9.365  14.343  1.00  0.00     0.008 C 
HETATM   46  C1  UNL     1     -13.372  10.035  15.098  1.00  0.00     0.055 C 
BRANCH  45  47
HETATM   47  C36 UNL     1     -12.492   9.267  12.877  1.00  0.00     0.171 C 
HETATM   48  O10 UNL     1     -13.492   8.814  12.350  1.00  0.00    -0.646 OA
BRANCH  47  49
HETATM   49  O11 UNL     1     -11.477   9.749  12.135  1.00  0.00    -0.773 OA
HETATM   50  H48 UNL     1     -11.790   9.607  11.219  1.00  0.00     0.167 HD
ENDBRANCH  47  49
ENDBRANCH  45  47
ENDBRANCH  43  44
ENDBRANCH  42  43
ENDBRANCH  40  42
ENDBRANCH   1  40
TORSDOF 15
ENDMDL
MODEL 2
REMARK minimizedAffinity -9.44554806
REMARK CNNscore 0.355625272
REMARK CNNaffinity 6.74714327
REMARK  15 active torsions:
REMARK  status: ('A' for Active; 'I' for Inactive)
REMARK    1  A    between atoms: C2_2  and  C36_45 
REMARK    2  A    between atoms: C3_3  and  C4_4 
REMARK    3  A    between atoms: C4_4  and  C5_5 
REMARK    4  A    between atoms: C5_5  and  C6_6 
REMARK    5  A    between atoms: C6_6  and  C8_8 
REMARK    6  A    between atoms: C24_27  and  C26_29 
REMARK    7  A    between atoms: C26_29  and  O4_30 
REMARK    8  A    between atoms: O4_30  and  C27_31 
REMARK    9  A    between atoms: C27_31  and  C28_33 
REMARK   10  A    between atoms: C28_33  and  C29_34 
REMARK   11  A    between atoms: C29_34  and  O6_36 
REMARK   12  A    between atoms: C29_34  and  C31_37 
REMARK   13  A    between atoms: C31_37  and  C32_38 
REMARK   14  A    between atoms: C32_38  and  O8_40 
REMARK   15  A    between atoms: C36_45  and  O11_47 
ROOT
HETATM    1  C8  UNL     1      -1.972   8.015  13.822  1.00  0.00     0.006 C 
HETATM    2  C9  UNL     1      -1.694   7.726  15.315  1.00  0.00     0.085 C 
HETATM    3  C10 UNL     1      -0.178   7.882  15.424  1.00  0.00     0.141 C 
HETATM    4  O1  UNL     1       0.451   7.498  16.399  1.00  0.00    -0.297 OA
HETATM    5  C11 UNL     1       0.398   8.518  14.145  1.00  0.00     0.056 C 
HETATM    6  C12 UNL     1       0.189  10.051  14.299  1.00  0.00     0.030 C 
HETATM    7  C13 UNL     1       1.822   8.335  13.667  1.00  0.00     0.015 C 
HETATM    8  C14 UNL     1       2.174   8.250  12.357  1.00  0.00     0.007 C 
HETATM    9  C15 UNL     1       1.049   8.289  11.328  1.00  0.00     0.157 C 
HETATM   10  O2  UNL     1       1.294   8.233  10.124  1.00  0.00    -0.293 OA
HETATM   11  C16 UNL     1      -0.403   8.404  11.776  1.00  0.00     0.094 C 
HETATM   12  C17 UNL     1      -0.581   7.781  13.155  1.00  0.00    -0.014 C 
HETATM   13  C18 UNL     1      -0.286   6.251  13.025  1.00  0.00     0.018 C 
HETATM   14  C19 UNL     1       3.639   8.097  11.838  1.00  0.00    -0.007 C 
HETATM   15  C20 UNL     1       3.772   6.627  11.370  1.00  0.00     0.021 C 
HETATM   16  C21 UNL     1       3.970   9.079  10.678  1.00  0.00     0.022 C 
HETATM   17  C22 UNL     1       5.447   9.195  10.291  1.00  0.00     0.080 C 
HETATM   18  C23 UNL     1       6.361   8.324  11.116  1.00  0.00     0.137 C 
HETATM   19  O3  UNL     1       7.241   7.661  10.561  1.00  0.00    -0.297 OA
HETATM   20  C24 UNL     1       6.181   8.320  12.636  1.00  0.00     0.044 C 
HETATM   21  C25 UNL     1       6.808   7.024  13.197  1.00  0.00     0.026 C 
HETATM   22  C33 UNL     1       4.652   8.472  12.978  1.00  0.00     0.023 C 
HETATM   23  C34 UNL     1       4.254   7.814  14.297  1.00  0.00     0.090 C 
HETATM   24  C35 UNL     1       2.909   8.366  14.689  1.00  0.00     0.158 C 
HETATM   25  O9  UNL     1       2.733   8.867  15.796  1.00  0.00    -0.293 OA
ENDROOT
BRANCH  20  26
HETATM   26  C26 UNL     1       6.934   9.549  13.215  1.00  0.00     0.196 C 
BRANCH  26  27
HETATM   27  O4  UNL     1       7.909  10.120  12.328  1.00  0.00    -0.320 OA
BRANCH  27  28
HETATM   28  C27 UNL     1       9.127  10.406  12.859  1.00  0.00     0.261 C 
HETATM   29  O5  UNL     1      10.153  10.567  12.211  1.00  0.00    -0.265 OA
BRANCH  28  30
HETATM   30  C28 UNL     1       9.056  10.554  14.357  1.00  0.00     0.148 C 
BRANCH  30  31
HETATM   31  C29 UNL     1      10.051   9.673  15.130  1.00  0.00     0.072 C 
HETATM   32  C30 UNL     1      10.162   8.332  14.381  1.00  0.00     0.047 C 
BRANCH  31  33
HETATM   33  O6  UNL     1      11.332  10.309  15.061  1.00  0.00    -0.389 OA
HETATM   34  H41 UNL     1      11.967   9.748  15.555  1.00  0.00     0.210 HD
ENDBRANCH  31  33
BRANCH  31  35
HETATM   35  C31 UNL     1       9.625   9.468  16.598  1.00  0.00     0.147 C 
BRANCH  35  36
HETATM   36  C32 UNL     1       8.534   8.442  16.752  1.00  0.00     0.142 C 
HETATM   37  O7  UNL     1       7.333   8.650  16.686  1.00  0.00    -0.650 OA
BRANCH  36  38
HETATM   38  O8  UNL     1       9.004   7.195  16.951  1.00  0.00    -0.776 OA
HETATM   39  H44 UNL     1       8.197   6.639  16.984  1.00  0.00     0.167 HD
ENDBRANCH  36  38
ENDBRANCH  35  36
ENDBRANCH  31  35
ENDBRANCH  30  31
ENDBRANCH  28  30
ENDBRANCH  27  28
ENDBRANCH  26  27
ENDBRANCH  20  26
BRANCH   1  40
HETATM   40  C6  UNL     1      -3.241   7.341  13.217  1.00  0.00    -0.013 C 
HETATM   41  C7  UNL     1      -4.355   8.409  13.141  1.00  0.00     0.010 C 
BRANCH  40  42
HETATM   42  C5  UNL     1      -3.760   6.098  13.984  1.00  0.00     0.008 C 
BRANCH  42  43
HETATM   43  C4  UNL     1      -4.164   4.907  13.099  1.00  0.00     0.028 C 
BRANCH  43  44
HETATM   44  C3  UNL     1      -5.565   4.406  13.325  1.00  0.00    -0.013 C 
HETATM   45  C2  UNL     1      -6.258   3.581  12.518  1.00  0.00     0.008 C 
HETATM   46  C1  UNL     1      -5.728   2.974  11.250  1.00  0.00     0.055 C 
BRANCH  45  47
HETATM   47  C36 UNL     1      -7.661   3.203  12.834  1.00  0.00     0.171 C 
HETATM   48  O10 UNL     1      -8.099   2.067  12.851  1.00  0.00    -0.646 OA
BRANCH  47  49
HETATM   49  O11 UNL     1      -8.452   4.254  13.126  1.00  0.00    -0.773 OA
HETATM   50  H48 UNL     1      -9.317   3.832  13.302  1.00  0.00     0.167 HD
ENDBRANCH  47  49
ENDBRANCH  45  47
ENDBRANCH  43  44
ENDBRANCH  42  43
ENDBRANCH  40  42
ENDBRANCH   1  40
TORSDOF 15
ENDMDL
MODEL 3
REMARK minimizedAffinity -9.38699245
REMARK CNNscore 0.246223539
REMARK CNNaffinity 6.73141336
REMARK  15 active torsions:
REMARK  status: ('A' for Active; 'I' for Inactive)
REMARK    1  A    between atoms: C2_2  and  C36_45 
REMARK    2  A    between atoms: C3_3  and  C4_4 
REMARK    3  A    between atoms: C4_4  and  C5_5 
REMARK    4  A    between atoms: C5_5  and  C6_6 
REMARK    5  A    between atoms: C6_6  and  C8_8 
REMARK    6  A    between atoms: C24_27  and  C26_29 
REMARK    7  A    between atoms: C26_29  and  O4_30 
REMARK    8  A    between atoms: O4_30  and  C27_31 
REMARK    9  A    between atoms: C27_31  and  C28_33 
REMARK   10  A    between atoms: C28_33  and  C29_34 
REMARK   11  A    between atoms: C29_34  and  O6_36 
REMARK   12  A    between atoms: C29_34  and  C31_37 
REMARK   13  A    between atoms: C31_37  and  C32_38 
REMARK   14  A    between atoms: C32_38  and  O8_40 
REMARK   15  A    between atoms: C36_45  and  O11_47 
ROOT
HETATM    1  C8  UNL     1      -2.132   7.741  13.689  1.00  0.00     0.006 C 
HETATM    2  C9  UNL     1      -1.836   7.479  15.184  1.00  0.00     0.085 C 
HETATM    3  C10 UNL     1      -0.321   7.658  15.276  1.00  0.00     0.141 C 
HETATM    4  O1  UNL     1       0.321   7.299  16.252  1.00  0.00    -0.297 OA
HETATM    5  C11 UNL     1       0.234   8.282  13.983  1.00  0.00     0.056 C 
HETATM    6  C12 UNL     1       0.005   9.814  14.113  1.00  0.00     0.030 C 
HETATM    7  C13 UNL     1       1.656   8.111  13.495  1.00  0.00     0.015 C 
HETATM    8  C14 UNL     1       1.998   8.010  12.184  1.00  0.00     0.007 C 
HETATM    9  C15 UNL     1       0.864   8.016  11.164  1.00  0.00     0.157 C 
HETATM   10  O2  UNL     1       1.099   7.944   9.959  1.00  0.00    -0.293 OA
HETATM   11  C16 UNL     1      -0.586   8.119  11.623  1.00  0.00     0.094 C 
HETATM   12  C17 UNL     1      -0.743   7.515  13.013  1.00  0.00    -0.014 C 
HETATM   13  C18 UNL     1      -0.428   5.988  12.905  1.00  0.00     0.018 C 
HETATM   14  C19 UNL     1       3.461   7.869  11.654  1.00  0.00    -0.007 C 
HETATM   15  C20 UNL     1       3.610   6.393  11.209  1.00  0.00     0.021 C 
HETATM   16  C21 UNL     1       3.768   8.836  10.475  1.00  0.00     0.022 C 
HETATM   17  C22 UNL     1       5.240   8.967  10.074  1.00  0.00     0.080 C 
HETATM   18  C23 UNL     1       6.173   8.122  10.905  1.00  0.00     0.137 C 
HETATM   19  O3  UNL     1       7.057   7.462  10.352  1.00  0.00    -0.297 OA
HETATM   20  C24 UNL     1       6.006   8.140  12.425  1.00  0.00     0.044 C 
HETATM   21  C25 UNL     1       6.656   6.862  13.001  1.00  0.00     0.026 C 
HETATM   22  C33 UNL     1       4.479   8.277  12.778  1.00  0.00     0.023 C 
HETATM   23  C34 UNL     1       4.101   7.634  14.111  1.00  0.00     0.090 C 
HETATM   24  C35 UNL     1       2.751   8.173  14.507  1.00  0.00     0.158 C 
HETATM   25  O9  UNL     1       2.578   8.690  15.607  1.00  0.00    -0.293 OA
ENDROOT
BRANCH  20  26
HETATM   26  C26 UNL     1       6.747   9.389  12.978  1.00  0.00     0.196 C 
BRANCH  26  27
HETATM   27  O4  UNL     1       8.140   9.454  12.634  1.00  0.00    -0.320 OA
BRANCH  27  28
HETATM   28  C27 UNL     1       8.769  10.639  12.849  1.00  0.00     0.261 C 
HETATM   29  O5  UNL     1       8.238  11.739  12.772  1.00  0.00    -0.265 OA
BRANCH  28  30
HETATM   30  C28 UNL     1      10.209  10.435  13.248  1.00  0.00     0.148 C 
BRANCH  30  31
HETATM   31  C29 UNL     1      10.403   9.592  14.518  1.00  0.00     0.072 C 
HETATM   32  C30 UNL     1      10.533   8.121  14.083  1.00  0.00     0.047 C 
BRANCH  31  33
HETATM   33  O6  UNL     1      11.653   9.976  15.102  1.00  0.00    -0.389 OA
HETATM   34  H41 UNL     1      11.778   9.440  15.913  1.00  0.00     0.210 HD
ENDBRANCH  31  33
BRANCH  31  35
HETATM   35  C31 UNL     1       9.251   9.785  15.524  1.00  0.00     0.147 C 
BRANCH  35  36
HETATM   36  C32 UNL     1       9.452   9.011  16.799  1.00  0.00     0.142 C 
HETATM   37  O7  UNL     1       8.992   7.910  17.056  1.00  0.00    -0.650 OA
BRANCH  36  38
HETATM   38  O8  UNL     1      10.250   9.643  17.682  1.00  0.00    -0.776 OA
HETATM   39  H44 UNL     1      10.327   9.012  18.428  1.00  0.00     0.167 HD
ENDBRANCH  36  38
ENDBRANCH  35  36
ENDBRANCH  31  35
ENDBRANCH  30  31
ENDBRANCH  28  30
ENDBRANCH  27  28
ENDBRANCH  26  27
ENDBRANCH  20  26
BRANCH   1  40
HETATM   40  C6  UNL     1      -3.395   7.040  13.105  1.00  0.00    -0.013 C 
HETATM   41  C7  UNL     1      -4.573   8.038  13.188  1.00  0.00     0.010 C 
BRANCH  40  42
HETATM   42  C5  UNL     1      -3.791   5.708  13.794  1.00  0.00     0.008 C 
BRANCH  42  43
HETATM   43  C4  UNL     1      -4.055   4.533  12.838  1.00  0.00     0.028 C 
BRANCH  43  44
HETATM   44  C3  UNL     1      -2.837   4.036  12.106  1.00  0.00    -0.013 C 
HETATM   45  C2  UNL     1      -2.637   2.788  11.643  1.00  0.00     0.008 C 
HETATM   46  C1  UNL     1      -3.631   1.665  11.742  1.00  0.00     0.055 C 
BRANCH  45  47
HETATM   47  C36 UNL     1      -1.360   2.414  10.980  1.00  0.00     0.171 C 
HETATM   48  O10 UNL     1      -0.248   2.569  11.451  1.00  0.00    -0.646 OA
BRANCH  47  49
HETATM   49  O11 UNL     1      -1.524   1.853   9.766  1.00  0.00    -0.773 OA
HETATM   50  H48 UNL     1      -0.605   1.676   9.482  1.00  0.00     0.167 HD
ENDBRANCH  47  49
ENDBRANCH  45  47
ENDBRANCH  43  44
ENDBRANCH  42  43
ENDBRANCH  40  42
ENDBRANCH   1  40
TORSDOF 15
ENDMDL
MODEL 4
REMARK minimizedAffinity -7.5925808
REMARK CNNscore 0.245943695
REMARK CNNaffinity 5.83851099
REMARK  15 active torsions:
REMARK  status: ('A' for Active; 'I' for Inactive)
REMARK    1  A    between atoms: C2_2  and  C36_45 
REMARK    2  A    between atoms: C3_3  and  C4_4 
REMARK    3  A    between atoms: C4_4  and  C5_5 
REMARK    4  A    between atoms: C5_5  and  C6_6 
REMARK    5  A    between atoms: C6_6  and  C8_8 
REMARK    6  A    between atoms: C24_27  and  C26_29 
REMARK    7  A    between atoms: C26_29  and  O4_30 
REMARK    8  A    between atoms: O4_30  and  C27_31 
REMARK    9  A    between atoms: C27_31  and  C28_33 
REMARK   10  A    between atoms: C28_33  and  C29_34 
REMARK   11  A    between atoms: C29_34  and  O6_36 
REMARK   12  A    between atoms: C29_34  and  C31_37 
REMARK   13  A    between atoms: C31_37  and  C32_38 
REMARK   14  A    between atoms: C32_38  and  O8_40 
REMARK   15  A    between atoms: C36_45  and  O11_47 
ROOT
HETATM    1  C8  UNL     1       1.552   7.636  13.073  1.00  0.00     0.006 C 
HETATM    2  C9  UNL     1       2.650   8.400  12.297  1.00  0.00     0.085 C 
HETATM    3  C10 UNL     1       3.081   9.487  13.281  1.00  0.00     0.141 C 
HETATM    4  O1  UNL     1       3.765  10.441  12.942  1.00  0.00    -0.297 OA
HETATM    5  C11 UNL     1       2.495   9.219  14.679  1.00  0.00     0.056 C 
HETATM    6  C12 UNL     1       3.441   8.182  15.349  1.00  0.00     0.030 C 
HETATM    7  C13 UNL     1       2.244  10.290  15.719  1.00  0.00     0.015 C 
HETATM    8  C14 UNL     1       1.193  10.277  16.579  1.00  0.00     0.007 C 
HETATM    9  C15 UNL     1       0.189   9.137  16.437  1.00  0.00     0.157 C 
HETATM   10  O2  UNL     1      -0.779   9.052  17.190  1.00  0.00    -0.293 OA
HETATM   11  C16 UNL     1       0.372   8.078  15.356  1.00  0.00     0.094 C 
HETATM   12  C17 UNL     1       1.114   8.665  14.162  1.00  0.00    -0.014 C 
HETATM   13  C18 UNL     1       0.203   9.771  13.536  1.00  0.00     0.018 C 
HETATM   14  C19 UNL     1       0.932  11.351  17.683  1.00  0.00    -0.007 C 
HETATM   15  C20 UNL     1      -0.246  12.212  17.167  1.00  0.00     0.021 C 
HETATM   16  C21 UNL     1       0.594  10.720  19.065  1.00  0.00     0.022 C 
HETATM   17  C22 UNL     1       0.594  11.676  20.261  1.00  0.00     0.080 C 
HETATM   18  C23 UNL     1       0.932  13.101  19.901  1.00  0.00     0.137 C 
HETATM   19  O3  UNL     1       0.258  14.025  20.364  1.00  0.00    -0.297 OA
HETATM   20  C24 UNL     1       2.133  13.352  18.988  1.00  0.00     0.044 C 
HETATM   21  C25 UNL     1       1.971  14.746  18.342  1.00  0.00     0.026 C 
HETATM   22  C33 UNL     1       2.238  12.185  17.936  1.00  0.00     0.023 C 
HETATM   23  C34 UNL     1       2.875  12.611  16.615  1.00  0.00     0.090 C 
HETATM   24  C35 UNL     1       3.275  11.357  15.881  1.00  0.00     0.158 C 
HETATM   25  O9  UNL     1       4.424  11.204  15.478  1.00  0.00    -0.293 OA
ENDROOT
BRANCH  20  26
HETATM   26  C26 UNL     1       3.417  13.335  19.862  1.00  0.00     0.196 C 
BRANCH  26  27
HETATM   27  O4  UNL     1       3.213  12.878  21.208  1.00  0.00    -0.320 OA
BRANCH  27  28
HETATM   28  C27 UNL     1       4.266  12.273  21.817  1.00  0.00     0.261 C 
HETATM   29  O5  UNL     1       4.652  11.135  21.584  1.00  0.00    -0.265 OA
BRANCH  28  30
HETATM   30  C28 UNL     1       4.946  13.199  22.793  1.00  0.00     0.148 C 
BRANCH  30  31
HETATM   31  C29 UNL     1       6.462  13.343  22.581  1.00  0.00     0.072 C 
HETATM   32  C30 UNL     1       6.700  13.580  21.079  1.00  0.00     0.047 C 
BRANCH  31  33
HETATM   33  O6  UNL     1       6.882  14.525  23.272  1.00  0.00    -0.389 OA
HETATM   34  H41 UNL     1       7.849  14.617  23.139  1.00  0.00     0.210 HD
ENDBRANCH  31  33
BRANCH  31  35
HETATM   35  C31 UNL     1       7.238  12.112  23.091  1.00  0.00     0.147 C 
BRANCH  35  36
HETATM   36  C32 UNL     1       8.723  12.228  22.879  1.00  0.00     0.142 C 
HETATM   37  O7  UNL     1       9.377  11.662  22.018  1.00  0.00    -0.650 OA
BRANCH  36  38
HETATM   38  O8  UNL     1       9.316  13.077  23.742  1.00  0.00    -0.776 OA
HETATM   39  H44 UNL     1      10.254  13.088  23.459  1.00  0.00     0.167 HD
ENDBRANCH  36  38
ENDBRANCH  35  36
ENDBRANCH  31  35
ENDBRANCH  30  31
ENDBRANCH  28  30
ENDBRANCH  27  28
ENDBRANCH  26  27
ENDBRANCH  20  26
BRANCH   1  40
HETATM   40  C6  UNL     1       0.470   6.922  12.208  1.00  0.00    -0.013 C 
HETATM   41  C7  UNL     1       0.785   5.409  12.209  1.00  0.00     0.010 C 
BRANCH  40  42
HETATM   42  C5  UNL     1       0.350   7.428  10.748  1.00  0.00     0.008 C 
BRANCH  42  43
HETATM   43  C4  UNL     1       1.679   7.532   9.981  1.00  0.00     0.028 C 
BRANCH  43  44
HETATM   44  C3  UNL     1       2.082   6.277   9.256  1.00  0.00    -0.013 C 
HETATM   45  C2  UNL     1       3.218   5.578   9.439  1.00  0.00     0.008 C 
HETATM   46  C1  UNL     1       4.280   5.914  10.447  1.00  0.00     0.055 C 
BRANCH  45  47
HETATM   47  C36 UNL     1       3.519   4.378   8.615  1.00  0.00     0.171 C 
HETATM   48  O10 UNL     1       3.537   4.343   7.398  1.00  0.00    -0.646 OA
BRANCH  47  49
HETATM   49  O11 UNL     1       3.797   3.278   9.341  1.00  0.00    -0.773 OA
HETATM   50  H48 UNL     1       3.965   2.600   8.656  1.00  0.00     0.167 HD
ENDBRANCH  47  49
ENDBRANCH  45  47
ENDBRANCH  43  44
ENDBRANCH  42  43
ENDBRANCH  40  42
ENDBRANCH   1  40
TORSDOF 15
ENDMDL
MODEL 5
REMARK minimizedAffinity -7.86375093
REMARK CNNscore 0.225887075
REMARK CNNaffinity 6.28578568
REMARK  15 active torsions:
REMARK  status: ('A' for Active; 'I' for Inactive)
REMARK    1  A    between atoms: C2_2  and  C36_45 
REMARK    2  A    between atoms: C3_3  and  C4_4 
REMARK    3  A    between atoms: C4_4  and  C5_5 
REMARK    4  A    between atoms: C5_5  and  C6_6 
REMARK    5  A    between atoms: C6_6  and  C8_8 
REMARK    6  A    between atoms: C24_27  and  C26_29 
REMARK    7  A    between atoms: C26_29  and  O4_30 
REMARK    8  A    between atoms: O4_30  and  C27_31 
REMARK    9  A    between atoms: C27_31  and  C28_33 
REMARK   10  A    between atoms: C28_33  and  C29_34 
REMARK   11  A    between atoms: C29_34  and  O6_36 
REMARK   12  A    between atoms: C29_34  and  C31_37 
REMARK   13  A    between atoms: C31_37  and  C32_38 
REMARK   14  A    between atoms: C32_38  and  O8_40 
REMARK   15  A    between atoms: C36_45  and  O11_47 
ROOT
HETATM    1  C8  UNL     1      -2.109   7.031  13.903  1.00  0.00     0.006 C 
HETATM    2  C9  UNL     1      -1.596   6.858  12.455  1.00  0.00     0.085 C 
HETATM    3  C10 UNL     1      -0.247   7.578  12.476  1.00  0.00     0.141 C 
HETATM    4  O1  UNL     1       0.356   7.864  11.452  1.00  0.00    -0.297 OA
HETATM    5  C11 UNL     1       0.171   7.909  13.920  1.00  0.00     0.056 C 
HETATM    6  C12 UNL     1       0.810   6.611  14.490  1.00  0.00     0.030 C 
HETATM    7  C13 UNL     1       1.105   9.038  14.300  1.00  0.00     0.015 C 
HETATM    8  C14 UNL     1       0.973   9.781  15.430  1.00  0.00     0.007 C 
HETATM    9  C15 UNL     1      -0.224   9.480  16.327  1.00  0.00     0.157 C 
HETATM   10  O2  UNL     1      -0.400  10.101  17.373  1.00  0.00    -0.293 OA
HETATM   11  C16 UNL     1      -1.224   8.396  15.941  1.00  0.00     0.094 C 
HETATM   12  C17 UNL     1      -1.282   8.246  14.426  1.00  0.00    -0.014 C 
HETATM   13  C18 UNL     1      -1.843   9.583  13.839  1.00  0.00     0.018 C 
HETATM   14  C19 UNL     1       1.944  10.926  15.861  1.00  0.00    -0.007 C 
HETATM   15  C20 UNL     1       1.183  12.248  15.597  1.00  0.00     0.021 C 
HETATM   16  C21 UNL     1       2.369  10.821  17.354  1.00  0.00     0.022 C 
HETATM   17  C22 UNL     1       3.522  11.727  17.793  1.00  0.00     0.080 C 
HETATM   18  C23 UNL     1       4.072  12.590  16.685  1.00  0.00     0.137 C 
HETATM   19  O3  UNL     1       4.300  13.784  16.895  1.00  0.00    -0.297 OA
HETATM   20  C24 UNL     1       4.362  11.935  15.333  1.00  0.00     0.044 C 
HETATM   21  C25 UNL     1       4.390  13.040  14.253  1.00  0.00     0.026 C 
HETATM   22  C33 UNL     1       3.288  10.819  15.057  1.00  0.00     0.023 C 
HETATM   23  C34 UNL     1       3.015  10.590  13.572  1.00  0.00     0.090 C 
HETATM   24  C35 UNL     1       2.304   9.268  13.441  1.00  0.00     0.158 C 
HETATM   25  O9  UNL     1       2.730   8.396  12.689  1.00  0.00    -0.293 OA
ENDROOT
BRANCH  20  26
HETATM   26  C26 UNL     1       5.758  11.258  15.413  1.00  0.00     0.196 C 
BRANCH  26  27
HETATM   27  O4  UNL     1       6.517  11.599  16.584  1.00  0.00    -0.320 OA
BRANCH  27  28
HETATM   28  C27 UNL     1       7.253  10.606  17.148  1.00  0.00     0.261 C 
HETATM   29  O5  UNL     1       7.129  10.209  18.299  1.00  0.00    -0.265 OA
BRANCH  28  30
HETATM   30  C28 UNL     1       8.222  10.007  16.161  1.00  0.00     0.148 C 
BRANCH  30  31
HETATM   31  C29 UNL     1       7.935   8.541  15.798  1.00  0.00     0.072 C 
HETATM   32  C30 UNL     1       9.267   7.774  15.876  1.00  0.00     0.047 C 
BRANCH  31  33
HETATM   33  O6  UNL     1       7.075   8.008  16.811  1.00  0.00    -0.389 OA
HETATM   34  H41 UNL     1       6.890   7.073  16.580  1.00  0.00     0.210 HD
ENDBRANCH  31  33
BRANCH  31  35
HETATM   35  C31 UNL     1       7.284   8.405  14.406  1.00  0.00     0.147 C 
BRANCH  35  36
HETATM   36  C32 UNL     1       8.278   8.522  13.282  1.00  0.00     0.142 C 
HETATM   37  O7  UNL     1       8.935   9.510  12.998  1.00  0.00    -0.650 OA
BRANCH  36  38
HETATM   38  O8  UNL     1       8.424   7.378  12.585  1.00  0.00    -0.776 OA
HETATM   39  H44 UNL     1       9.124   7.586  11.930  1.00  0.00     0.167 HD
ENDBRANCH  36  38
ENDBRANCH  35  36
ENDBRANCH  31  35
ENDBRANCH  30  31
ENDBRANCH  28  30
ENDBRANCH  27  28
ENDBRANCH  26  27
ENDBRANCH  20  26
BRANCH   1  40
HETATM   40  C6  UNL     1      -3.657   7.014  14.089  1.00  0.00    -0.013 C 
HETATM   41  C7  UNL     1      -3.986   7.773  15.395  1.00  0.00     0.010 C 
BRANCH  40  42
HETATM   42  C5  UNL     1      -4.305   5.607  14.126  1.00  0.00     0.008 C 
BRANCH  42  43
HETATM   43  C4  UNL     1      -5.351   5.342  13.029  1.00  0.00     0.028 C 
BRANCH  43  44
HETATM   44  C3  UNL     1      -5.494   3.896  12.638  1.00  0.00    -0.013 C 
HETATM   45  C2  UNL     1      -4.710   3.220  11.778  1.00  0.00     0.008 C 
HETATM   46  C1  UNL     1      -3.510   3.792  11.078  1.00  0.00     0.055 C 
BRANCH  45  47
HETATM   47  C36 UNL     1      -4.994   1.800  11.438  1.00  0.00     0.171 C 
HETATM   48  O10 UNL     1      -6.086   1.349  11.145  1.00  0.00    -0.646 OA
BRANCH  47  49
HETATM   49  O11 UNL     1      -3.904   1.009  11.465  1.00  0.00    -0.773 OA
HETATM   50  H48 UNL     1      -4.266   0.132  11.224  1.00  0.00     0.167 HD
ENDBRANCH  47  49
ENDBRANCH  45  47
ENDBRANCH  43  44
ENDBRANCH  42  43
ENDBRANCH  40  42
ENDBRANCH   1  40
TORSDOF 15
ENDMDL
MODEL 6
REMARK minimizedAffinity -7.75505638
REMARK CNNscore 0.212071389
REMARK CNNaffinity 6.0722518
REMARK  15 active torsions:
REMARK  status: ('A' for Active; 'I' for Inactive)
REMARK    1  A    between atoms: C2_2  and  C36_45 
REMARK    2  A    between atoms: C3_3  and  C4_4 
REMARK    3  A    between atoms: C4_4  and  C5_5 
REMARK    4  A    between atoms: C5_5  and  C6_6 
REMARK    5  A    between atoms: C6_6  and  C8_8 
REMARK    6  A    between atoms: C24_27  and  C26_29 
REMARK    7  A    between atoms: C26_29  and  O4_30 
REMARK    8  A    between atoms: O4_30  and  C27_31 
REMARK    9  A    between atoms: C27_31  and  C28_33 
REMARK   10  A    between atoms: C28_33  and  C29_34 
REMARK   11  A    between atoms: C29_34  and  O6_36 
REMARK   12  A    between atoms: C29_34  and  C31_37 
REMARK   13  A    between atoms: C31_37  and  C32_38 
REMARK   14  A    between atoms: C32_38  and  O8_40 
REMARK   15  A    between atoms: C36_45  and  O11_47 
ROOT
HETATM    1  C8  UNL     1      -3.678   9.581  14.319  1.00  0.00     0.006 C 
HETATM    2  C9  UNL     1      -4.507   9.693  15.620  1.00  0.00     0.085 C 
HETATM    3  C10 UNL     1      -3.501  10.248  16.628  1.00  0.00     0.141 C 
HETATM    4  O1  UNL     1      -3.715  10.251  17.831  1.00  0.00    -0.297 OA
HETATM    5  C11 UNL     1      -2.223  10.726  15.915  1.00  0.00     0.056 C 
HETATM    6  C12 UNL     1      -2.537  12.152  15.382  1.00  0.00     0.030 C 
HETATM    7  C13 UNL     1      -0.862  10.814  16.571  1.00  0.00     0.015 C 
HETATM    8  C14 UNL     1       0.306  10.547  15.929  1.00  0.00     0.007 C 
HETATM    9  C15 UNL     1       0.215  10.081  14.479  1.00  0.00     0.157 C 
HETATM   10  O2  UNL     1       1.230   9.837  13.830  1.00  0.00    -0.293 OA
HETATM   11  C16 UNL     1      -1.143   9.915  13.806  1.00  0.00     0.094 C 
HETATM   12  C17 UNL     1      -2.208   9.573  14.841  1.00  0.00    -0.014 C 
HETATM   13  C18 UNL     1      -1.848   8.176  15.445  1.00  0.00     0.018 C 
HETATM   14  C19 UNL     1       1.723  10.666  16.574  1.00  0.00    -0.007 C 
HETATM   15  C20 UNL     1       2.199   9.213  16.821  1.00  0.00     0.021 C 
HETATM   16  C21 UNL     1       2.731  11.432  15.670  1.00  0.00     0.022 C 
HETATM   17  C22 UNL     1       4.055  11.836  16.326  1.00  0.00     0.080 C 
HETATM   18  C23 UNL     1       4.169  11.419  17.771  1.00  0.00     0.137 C 
HETATM   19  O3  UNL     1       5.211  10.900  18.178  1.00  0.00    -0.297 OA
HETATM   20  C24 UNL     1       2.982  11.690  18.698  1.00  0.00     0.044 C 
HETATM   21  C25 UNL     1       3.090  10.744  19.915  1.00  0.00     0.026 C 
HETATM   22  C33 UNL     1       1.643  11.517  17.890  1.00  0.00     0.023 C 
HETATM   23  C34 UNL     1       0.464  11.073  18.753  1.00  0.00     0.090 C 
HETATM   24  C35 UNL     1      -0.795  11.334  17.968  1.00  0.00     0.158 C 
HETATM   25  O9  UNL     1      -1.710  11.996  18.449  1.00  0.00    -0.293 OA
ENDROOT
BRANCH  20  26
HETATM   26  C26 UNL     1       3.073  13.164  19.181  1.00  0.00     0.196 C 
BRANCH  26  27
HETATM   27  O4  UNL     1       4.297  13.494  19.855  1.00  0.00    -0.320 OA
BRANCH  27  28
HETATM   28  C27 UNL     1       4.194  13.924  21.139  1.00  0.00     0.261 C 
HETATM   29  O5  UNL     1       3.144  14.039  21.758  1.00  0.00    -0.265 OA
BRANCH  28  30
HETATM   30  C28 UNL     1       5.549  14.202  21.739  1.00  0.00     0.148 C 
BRANCH  30  31
HETATM   31  C29 UNL     1       6.303  12.949  22.213  1.00  0.00     0.072 C 
HETATM   32  C30 UNL     1       5.271  11.998  22.847  1.00  0.00     0.047 C 
BRANCH  31  33
HETATM   33  O6  UNL     1       6.826  12.297  21.050  1.00  0.00    -0.389 OA
HETATM   34  H41 UNL     1       7.308  11.498  21.351  1.00  0.00     0.210 HD
ENDBRANCH  31  33
BRANCH  31  35
HETATM   35  C31 UNL     1       7.437  13.292  23.200  1.00  0.00     0.147 C 
BRANCH  35  36
HETATM   36  C32 UNL     1       8.697  12.514  22.935  1.00  0.00     0.142 C 
HETATM   37  O7  UNL     1       8.936  11.377  23.307  1.00  0.00    -0.650 OA
BRANCH  36  38
HETATM   38  O8  UNL     1       9.590  13.192  22.186  1.00  0.00    -0.776 OA
HETATM   39  H44 UNL     1      10.325  12.556  22.057  1.00  0.00     0.167 HD
ENDBRANCH  36  38
ENDBRANCH  35  36
ENDBRANCH  31  35
ENDBRANCH  30  31
ENDBRANCH  28  30
ENDBRANCH  27  28
ENDBRANCH  26  27
ENDBRANCH  20  26
BRANCH   1  40
HETATM   40  C6  UNL     1      -4.141   8.495  13.302  1.00  0.00    -0.013 C 
HETATM   41  C7  UNL     1      -5.576   8.068  13.684  1.00  0.00     0.010 C 
BRANCH  40  42
HETATM   42  C5  UNL     1      -3.231   7.243  13.210  1.00  0.00     0.008 C 
BRANCH  42  43
HETATM   43  C4  UNL     1      -3.912   5.914  13.580  1.00  0.00     0.028 C 
BRANCH  43  44
HETATM   44  C3  UNL     1      -3.794   4.839  12.533  1.00  0.00    -0.013 C 
HETATM   45  C2  UNL     1      -2.654   4.272  12.095  1.00  0.00     0.008 C 
HETATM   46  C1  UNL     1      -1.281   4.593  12.613  1.00  0.00     0.055 C 
BRANCH  45  47
HETATM   47  C36 UNL     1      -2.674   3.252  11.014  1.00  0.00     0.171 C 
HETATM   48  O10 UNL     1      -1.777   3.053  10.214  1.00  0.00    -0.646 OA
BRANCH  47  49
HETATM   49  O11 UNL     1      -3.803   2.517  10.983  1.00  0.00    -0.773 OA
HETATM   50  H48 UNL     1      -3.649   1.913  10.229  1.00  0.00     0.167 HD
ENDBRANCH  47  49
ENDBRANCH  45  47
ENDBRANCH  43  44
ENDBRANCH  42  43
ENDBRANCH  40  42
ENDBRANCH   1  40
TORSDOF 15
ENDMDL
MODEL 7
REMARK minimizedAffinity -8.69322014
REMARK CNNscore 0.200692639
REMARK CNNaffinity 6.07458353
REMARK  15 active torsions:
REMARK  status: ('A' for Active; 'I' for Inactive)
REMARK    1  A    between atoms: C2_2  and  C36_45 
REMARK    2  A    between atoms: C3_3  and  C4_4 
REMARK    3  A    between atoms: C4_4  and  C5_5 
REMARK    4  A    between atoms: C5_5  and  C6_6 
REMARK    5  A    between atoms: C6_6  and  C8_8 
REMARK    6  A    between atoms: C24_27  and  C26_29 
REMARK    7  A    between atoms: C26_29  and  O4_30 
REMARK    8  A    between atoms: O4_30  and  C27_31 
REMARK    9  A    between atoms: C27_31  and  C28_33 
REMARK   10  A    between atoms: C28_33  and  C29_34 
REMARK   11  A    between atoms: C29_34  and  O6_36 
REMARK   12  A    between atoms: C29_34  and  C31_37 
REMARK   13  A    between atoms: C31_37  and  C32_38 
REMARK   14  A    between atoms: C32_38  and  O8_40 
REMARK   15  A    between atoms: C36_45  and  O11_47 
ROOT
HETATM    1  C8  UNL     1      -2.599   7.317  13.714  1.00  0.00     0.006 C 
HETATM    2  C9  UNL     1      -1.611   7.465  12.534  1.00  0.00     0.085 C 
HETATM    3  C10 UNL     1      -0.462   8.270  13.141  1.00  0.00     0.141 C 
HETATM    4  O1  UNL     1       0.404   8.793  12.455  1.00  0.00    -0.297 OA
HETATM    5  C11 UNL     1      -0.602   8.351  14.672  1.00  0.00     0.056 C 
HETATM    6  C12 UNL     1      -0.017   7.021  15.227  1.00  0.00     0.030 C 
HETATM    7  C13 UNL     1      -0.017   9.454  15.526  1.00  0.00     0.015 C 
HETATM    8  C14 UNL     1      -0.623   9.955  16.634  1.00  0.00     0.007 C 
HETATM    9  C15 UNL     1      -1.997   9.396  16.991  1.00  0.00     0.157 C 
HETATM   10  O2  UNL     1      -2.598   9.790  17.989  1.00  0.00    -0.293 OA
HETATM   11  C16 UNL     1      -2.648   8.332  16.116  1.00  0.00     0.094 C 
HETATM   12  C17 UNL     1      -2.173   8.471  14.674  1.00  0.00    -0.014 C 
HETATM   13  C18 UNL     1      -2.685   9.848  14.138  1.00  0.00     0.018 C 
HETATM   14  C19 UNL     1      -0.023  11.068  17.551  1.00  0.00    -0.007 C 
HETATM   15  C20 UNL     1      -0.827  12.354  17.239  1.00  0.00     0.021 C 
HETATM   16  C21 UNL     1      -0.112  10.713  19.063  1.00  0.00     0.022 C 
HETATM   17  C22 UNL     1       0.689  11.605  20.015  1.00  0.00     0.080 C 
HETATM   18  C23 UNL     1       1.452  12.704  19.320  1.00  0.00     0.137 C 
HETATM   19  O3  UNL     1       1.428  13.850  19.776  1.00  0.00    -0.297 OA
HETATM   20  C24 UNL     1       2.267  12.344  18.076  1.00  0.00     0.044 C 
HETATM   21  C25 UNL     1       2.501  13.634  17.258  1.00  0.00     0.026 C 
HETATM   22  C33 UNL     1       1.515  11.222  17.270  1.00  0.00     0.023 C 
HETATM   23  C34 UNL     1       1.790  11.261  15.768  1.00  0.00     0.090 C 
HETATM   24  C35 UNL     1       1.356   9.937  15.194  1.00  0.00     0.158 C 
HETATM   25  O9  UNL     1       2.127   9.261  14.519  1.00  0.00    -0.293 OA
ENDROOT
BRANCH  20  26
HETATM   26  C26 UNL     1       3.635  11.774  18.542  1.00  0.00     0.196 C 
BRANCH  26  27
HETATM   27  O4  UNL     1       4.126  12.336  19.769  1.00  0.00    -0.320 OA
BRANCH  27  28
HETATM   28  C27 UNL     1       4.850  11.515  20.573  1.00  0.00     0.261 C 
HETATM   29  O5  UNL     1       4.573  10.348  20.816  1.00  0.00    -0.265 OA
BRANCH  28  30
HETATM   30  C28 UNL     1       6.083  12.205  21.100  1.00  0.00     0.148 C 
BRANCH  30  31
HETATM   31  C29 UNL     1       6.092  12.415  22.623  1.00  0.00     0.072 C 
HETATM   32  C30 UNL     1       6.137  13.932  22.881  1.00  0.00     0.047 C 
BRANCH  31  33
HETATM   33  O6  UNL     1       4.842  11.932  23.130  1.00  0.00    -0.389 OA
HETATM   34  H41 UNL     1       4.847  12.065  24.102  1.00  0.00     0.210 HD
ENDBRANCH  31  33
BRANCH  31  35
HETATM   35  C31 UNL     1       7.271  11.690  23.302  1.00  0.00     0.147 C 
BRANCH  35  36
HETATM   36  C32 UNL     1       8.597  12.345  23.024  1.00  0.00     0.142 C 
HETATM   37  O7  UNL     1       9.089  13.272  23.647  1.00  0.00    -0.650 OA
BRANCH  36  38
HETATM   38  O8  UNL     1       9.260  11.783  21.994  1.00  0.00    -0.776 OA
HETATM   39  H44 UNL     1      10.109  12.272  21.962  1.00  0.00     0.167 HD
ENDBRANCH  36  38
ENDBRANCH  35  36
ENDBRANCH  31  35
ENDBRANCH  30  31
ENDBRANCH  28  30
ENDBRANCH  27  28
ENDBRANCH  26  27
ENDBRANCH  20  26
BRANCH   1  40
HETATM   40  C6  UNL     1      -4.101   7.146  13.334  1.00  0.00    -0.013 C 
HETATM   41  C7  UNL     1      -4.824   8.475  13.649  1.00  0.00     0.010 C 
BRANCH  40  42
HETATM   42  C5  UNL     1      -4.833   5.974  14.037  1.00  0.00     0.008 C 
BRANCH  42  43
HETATM   43  C4  UNL     1      -4.933   4.679  13.213  1.00  0.00     0.028 C 
BRANCH  43  44
HETATM   44  C3  UNL     1      -3.623   4.189  12.658  1.00  0.00    -0.013 C 
HETATM   45  C2  UNL     1      -3.438   3.562  11.481  1.00  0.00     0.008 C 
HETATM   46  C1  UNL     1      -4.523   3.275  10.481  1.00  0.00     0.055 C 
BRANCH  45  47
HETATM   47  C36 UNL     1      -2.092   3.081  11.073  1.00  0.00     0.171 C 
HETATM   48  O10 UNL     1      -1.094   3.100  11.771  1.00  0.00    -0.646 OA
BRANCH  47  49
HETATM   49  O11 UNL     1      -2.050   2.586   9.821  1.00  0.00    -0.773 OA
HETATM   50  H48 UNL     1      -1.112   2.323   9.722  1.00  0.00     0.167 HD
ENDBRANCH  47  49
ENDBRANCH  45  47
ENDBRANCH  43  44
ENDBRANCH  42  43
ENDBRANCH  40  42
ENDBRANCH   1  40
TORSDOF 15
ENDMDL
MODEL 8
REMARK minimizedAffinity -7.99104357
REMARK CNNscore 0.192296311
REMARK CNNaffinity 6.24711084
REMARK  15 active torsions:
REMARK  status: ('A' for Active; 'I' for Inactive)
REMARK    1  A    between atoms: C2_2  and  C36_45 
REMARK    2  A    between atoms: C3_3  and  C4_4 
REMARK    3  A    between atoms: C4_4  and  C5_5 
REMARK    4  A    between atoms: C5_5  and  C6_6 
REMARK    5  A    between atoms: C6_6  and  C8_8 
REMARK    6  A    between atoms: C24_27  and  C26_29 
REMARK    7  A    between atoms: C26_29  and  O4_30 
REMARK    8  A    between atoms: O4_30  and  C27_31 
REMARK    9  A    between atoms: C27_31  and  C28_33 
REMARK   10  A    between atoms: C28_33  and  C29_34 
REMARK   11  A    between atoms: C29_34  and  O6_36 
REMARK   12  A    between atoms: C29_34  and  C31_37 
REMARK   13  A    between atoms: C31_37  and  C32_38 
REMARK   14  A    between atoms: C32_38  and  O8_40 
REMARK   15  A    between atoms: C36_45  and  O11_47 
ROOT
HETATM    1  C8  UNL     1       1.670   6.501  12.338  1.00  0.00     0.006 C 
HETATM    2  C9  UNL     1       2.969   7.329  12.203  1.00  0.00     0.085 C 
HETATM    3  C10 UNL     1       2.859   8.339  13.345  1.00  0.00     0.141 C 
HETATM    4  O1  UNL     1       3.583   9.321  13.420  1.00  0.00    -0.297 OA
HETATM    5  C11 UNL     1       1.712   7.961  14.299  1.00  0.00     0.056 C 
HETATM    6  C12 UNL     1       2.290   6.880  15.256  1.00  0.00     0.030 C 
HETATM    7  C13 UNL     1       0.971   8.946  15.177  1.00  0.00     0.015 C 
HETATM    8  C14 UNL     1      -0.355   8.860  15.457  1.00  0.00     0.007 C 
HETATM    9  C15 UNL     1      -1.137   7.729  14.796  1.00  0.00     0.157 C 
HETATM   10  O2  UNL     1      -2.337   7.579  15.015  1.00  0.00    -0.293 OA
HETATM   11  C16 UNL     1      -0.438   6.758  13.852  1.00  0.00     0.094 C 
HETATM   12  C17 UNL     1       0.743   7.440  13.171  1.00  0.00    -0.014 C 
HETATM   13  C18 UNL     1       0.173   8.586  12.272  1.00  0.00     0.018 C 
HETATM   14  C19 UNL     1      -1.134   9.843  16.388  1.00  0.00    -0.007 C 
HETATM   15  C20 UNL     1      -1.982  10.735  15.448  1.00  0.00     0.021 C 
HETATM   16  C21 UNL     1      -2.039   9.106  17.416  1.00  0.00     0.022 C 
HETATM   17  C22 UNL     1      -2.623   9.966  18.541  1.00  0.00     0.080 C 
HETATM   18  C23 UNL     1      -2.217  11.416  18.470  1.00  0.00     0.137 C 
HETATM   19  O3  UNL     1      -3.064  12.298  18.633  1.00  0.00    -0.297 OA
HETATM   20  C24 UNL     1      -0.742  11.744  18.227  1.00  0.00     0.044 C 
HETATM   21  C25 UNL     1      -0.649  13.183  17.672  1.00  0.00     0.026 C 
HETATM   22  C33 UNL     1      -0.122  10.663  17.265  1.00  0.00     0.023 C 
HETATM   23  C34 UNL     1       1.029  11.194  16.413  1.00  0.00     0.090 C 
HETATM   24  C35 UNL     1       1.770  10.003  15.863  1.00  0.00     0.158 C 
HETATM   25  O9  UNL     1       2.982   9.889  16.021  1.00  0.00    -0.293 OA
ENDROOT
BRANCH  20  26
HETATM   26  C26 UNL     1       0.001  11.668  19.588  1.00  0.00     0.196 C 
BRANCH  26  27
HETATM   27  O4  UNL     1       1.031  10.668  19.648  1.00  0.00    -0.320 OA
BRANCH  27  28
HETATM   28  C27 UNL     1       2.228  11.051  20.162  1.00  0.00     0.261 C 
HETATM   29  O5  UNL     1       3.176  11.461  19.503  1.00  0.00    -0.265 OA
BRANCH  28  30
HETATM   30  C28 UNL     1       2.239  10.959  21.667  1.00  0.00     0.148 C 
BRANCH  30  31
HETATM   31  C29 UNL     1       3.587  10.530  22.268  1.00  0.00     0.072 C 
HETATM   32  C30 UNL     1       3.306   9.407  23.283  1.00  0.00     0.047 C 
BRANCH  31  33
HETATM   33  O6  UNL     1       4.368   9.963  21.209  1.00  0.00    -0.389 OA
HETATM   34  H41 UNL     1       5.229   9.690  21.592  1.00  0.00     0.210 HD
ENDBRANCH  31  33
BRANCH  31  35
HETATM   35  C31 UNL     1       4.333  11.711  22.921  1.00  0.00     0.147 C 
BRANCH  35  36
HETATM   36  C32 UNL     1       5.664  11.990  22.277  1.00  0.00     0.142 C 
HETATM   37  O7  UNL     1       5.847  12.569  21.218  1.00  0.00    -0.650 OA
BRANCH  36  38
HETATM   38  O8  UNL     1       6.708  11.554  23.009  1.00  0.00    -0.776 OA
HETATM   39  H44 UNL     1       7.494  11.842  22.498  1.00  0.00     0.167 HD
ENDBRANCH  36  38
ENDBRANCH  35  36
ENDBRANCH  31  35
ENDBRANCH  30  31
ENDBRANCH  28  30
ENDBRANCH  27  28
ENDBRANCH  26  27
ENDBRANCH  20  26
BRANCH   1  40
HETATM   40  C6  UNL     1       1.132   5.850  11.029  1.00  0.00    -0.013 C 
HETATM   41  C7  UNL     1       1.473   6.795   9.854  1.00  0.00     0.010 C 
BRANCH  40  42
HETATM   42  C5  UNL     1      -0.386   5.535  11.021  1.00  0.00     0.008 C 
BRANCH  42  43
HETATM   43  C4  UNL     1      -0.755   4.091  11.402  1.00  0.00     0.028 C 
BRANCH  43  44
HETATM   44  C3  UNL     1      -2.115   3.649  10.935  1.00  0.00    -0.013 C 
HETATM   45  C2  UNL     1      -3.275   3.797  11.601  1.00  0.00     0.008 C 
HETATM   46  C1  UNL     1      -3.421   4.479  12.932  1.00  0.00     0.055 C 
BRANCH  45  47
HETATM   47  C36 UNL     1      -4.549   3.266  11.046  1.00  0.00     0.171 C 
HETATM   48  O10 UNL     1      -5.510   2.909  11.703  1.00  0.00    -0.646 OA
BRANCH  47  49
HETATM   49  O11 UNL     1      -4.574   3.216   9.701  1.00  0.00    -0.773 OA
HETATM   50  H48 UNL     1      -5.462   2.850   9.513  1.00  0.00     0.167 HD
ENDBRANCH  47  49
ENDBRANCH  45  47
ENDBRANCH  43  44
ENDBRANCH  42  43
ENDBRANCH  40  42
ENDBRANCH   1  40
TORSDOF 15
ENDMDL
MODEL 9
REMARK minimizedAffinity -7.87075043
REMARK CNNscore 0.190888956
REMARK CNNaffinity 6.21084166
REMARK  15 active torsions:
REMARK  status: ('A' for Active; 'I' for Inactive)
REMARK    1  A    between atoms: C2_2  and  C36_45 
REMARK    2  A    between atoms: C3_3  and  C4_4 
REMARK    3  A    between atoms: C4_4  and  C5_5 
REMARK    4  A    between atoms: C5_5  and  C6_6 
REMARK    5  A    between atoms: C6_6  and  C8_8 
REMARK    6  A    between atoms: C24_27  and  C26_29 
REMARK    7  A    between atoms: C26_29  and  O4_30 
REMARK    8  A    between atoms: O4_30  and  C27_31 
REMARK    9  A    between atoms: C27_31  and  C28_33 
REMARK   10  A    between atoms: C28_33  and  C29_34 
REMARK   11  A    between atoms: C29_34  and  O6_36 
REMARK   12  A    between atoms: C29_34  and  C31_37 
REMARK   13  A    between atoms: C31_37  and  C32_38 
REMARK   14  A    between atoms: C32_38  and  O8_40 
REMARK   15  A    between atoms: C36_45  and  O11_47 
ROOT
HETATM    1  C8  UNL     1      -4.110   7.119  13.169  1.00  0.00     0.006 C 
HETATM    2  C9  UNL     1      -4.774   8.404  13.715  1.00  0.00     0.085 C 
HETATM    3  C10 UNL     1      -3.579   9.293  14.062  1.00  0.00     0.141 C 
HETATM    4  O1  UNL     1      -3.691  10.301  14.743  1.00  0.00    -0.297 OA
HETATM    5  C11 UNL     1      -2.278   8.706  13.486  1.00  0.00     0.056 C 
HETATM    6  C12 UNL     1      -2.229   9.151  11.997  1.00  0.00     0.030 C 
HETATM    7  C13 UNL     1      -0.899   8.972  14.049  1.00  0.00     0.015 C 
HETATM    8  C14 UNL     1       0.097   8.048  14.077  1.00  0.00     0.007 C 
HETATM    9  C15 UNL     1      -0.230   6.652  13.557  1.00  0.00     0.157 C 
HETATM   10  O2  UNL     1       0.626   5.770  13.537  1.00  0.00    -0.293 OA
HETATM   11  C16 UNL     1      -1.629   6.328  13.045  1.00  0.00     0.094 C 
HETATM   12  C17 UNL     1      -2.663   7.200  13.746  1.00  0.00    -0.014 C 
HETATM   13  C18 UNL     1      -2.655   6.817  15.262  1.00  0.00     0.018 C 
HETATM   14  C19 UNL     1       1.538   8.310  14.620  1.00  0.00    -0.007 C 
HETATM   15  C20 UNL     1       1.615   7.585  15.986  1.00  0.00     0.021 C 
HETATM   16  C21 UNL     1       2.645   7.793  13.657  1.00  0.00     0.022 C 
HETATM   17  C22 UNL     1       4.075   8.244  13.967  1.00  0.00     0.080 C 
HETATM   18  C23 UNL     1       4.182   9.137  15.178  1.00  0.00     0.137 C 
HETATM   19  O3  UNL     1       5.070   8.936  16.010  1.00  0.00    -0.297 OA
HETATM   20  C24 UNL     1       3.190  10.294  15.314  1.00  0.00     0.044 C 
HETATM   21  C25 UNL     1       3.128  10.709  16.801  1.00  0.00     0.026 C 
HETATM   22  C33 UNL     1       1.796   9.855  14.730  1.00  0.00     0.023 C 
HETATM   23  C34 UNL     1       0.611  10.558  15.387  1.00  0.00     0.090 C 
HETATM   24  C35 UNL     1      -0.584  10.362  14.492  1.00  0.00     0.158 C 
HETATM   25  O9  UNL     1      -1.243  11.322  14.102  1.00  0.00    -0.293 OA
ENDROOT
BRANCH  20  26
HETATM   26  C26 UNL     1       3.719  11.485  14.468  1.00  0.00     0.196 C 
BRANCH  26  27
HETATM   27  O4  UNL     1       4.848  11.170  13.639  1.00  0.00    -0.320 OA
BRANCH  27  28
HETATM   28  C27 UNL     1       4.975  11.871  12.482  1.00  0.00     0.261 C 
HETATM   29  O5  UNL     1       5.652  11.524  11.523  1.00  0.00    -0.265 OA
BRANCH  28  30
HETATM   30  C28 UNL     1       4.132  13.121  12.498  1.00  0.00     0.148 C 
BRANCH  30  31
HETATM   31  C29 UNL     1       4.933  14.429  12.407  1.00  0.00     0.072 C 
HETATM   32  C30 UNL     1       6.170  14.279  13.311  1.00  0.00     0.047 C 
BRANCH  31  33
HETATM   33  O6  UNL     1       5.401  14.553  11.059  1.00  0.00    -0.389 OA
HETATM   34  H41 UNL     1       5.912  15.388  10.999  1.00  0.00     0.210 HD
ENDBRANCH  31  33
BRANCH  31  35
HETATM   35  C31 UNL     1       4.088  15.656  12.803  1.00  0.00     0.147 C 
BRANCH  35  36
HETATM   36  C32 UNL     1       4.188  16.781  11.809  1.00  0.00     0.142 C 
HETATM   37  O7  UNL     1       3.279  17.228  11.129  1.00  0.00    -0.650 OA
BRANCH  36  38
HETATM   38  O8  UNL     1       5.423  17.315  11.737  1.00  0.00    -0.776 OA
HETATM   39  H44 UNL     1       5.328  18.052  11.098  1.00  0.00     0.167 HD
ENDBRANCH  36  38
ENDBRANCH  35  36
ENDBRANCH  31  35
ENDBRANCH  30  31
ENDBRANCH  28  30
ENDBRANCH  27  28
ENDBRANCH  26  27
ENDBRANCH  20  26
BRANCH   1  40
HETATM   40  C6  UNL     1      -4.930   5.803  13.326  1.00  0.00    -0.013 C 
HETATM   41  C7  UNL     1      -5.583   5.816  14.727  1.00  0.00     0.010 C 
BRANCH  40  42
HETATM   42  C5  UNL     1      -4.123   4.493  13.139  1.00  0.00     0.008 C 
BRANCH  42  43
HETATM   43  C4  UNL     1      -4.140   3.915  11.714  1.00  0.00     0.028 C 
BRANCH  43  44
HETATM   44  C3  UNL     1      -2.807   3.415  11.226  1.00  0.00    -0.013 C 
HETATM   45  C2  UNL     1      -2.388   2.136  11.218  1.00  0.00     0.008 C 
HETATM   46  C1  UNL     1      -3.208   0.960  11.665  1.00  0.00     0.055 C 
BRANCH  45  47
HETATM   47  C36 UNL     1      -1.020   1.783  10.754  1.00  0.00     0.171 C 
HETATM   48  O10 UNL     1       0.019   2.165  11.263  1.00  0.00    -0.646 OA
BRANCH  47  49
HETATM   49  O11 UNL     1      -1.005   0.961   9.687  1.00  0.00    -0.773 OA
HETATM   50  H48 UNL     1      -0.049   0.837   9.521  1.00  0.00     0.167 HD
ENDBRANCH  47  49
ENDBRANCH  45  47
ENDBRANCH  43  44
ENDBRANCH  42  43
ENDBRANCH  40  42
ENDBRANCH   1  40
TORSDOF 15
ENDMDL
