MODEL 1
REMARK minimizedAffinity -7.59625578
REMARK CNNscore 0.713306487
REMARK CNNaffinity 6.49044275
REMARK  7 active torsions:
REMARK  status: ('A' for Active; 'I' for Inactive)
REMARK    1  A    between atoms: C4_4  and  C5_5 
REMARK    2  A    between atoms: C5_5  and  C6_6 
REMARK    3  A    between atoms: C6_6  and  C7_7 
REMARK    4  A    between atoms: C7_7  and  C9_9 
REMARK    5  A    between atoms: C16_16  and  O1_17 
REMARK    6  A    between atoms: C18_19  and  O2_20 
REMARK    7  A    between atoms: C19_21  and  O3_22 
ROOT
HETATM    1  C9  UNL     1       6.039  55.854  -8.095  1.00  0.00    -0.002 C 
HETATM    2  C10 UNL     1       6.809  54.735  -8.856  1.00  0.00     0.006 C 
HETATM    3  C11 UNL     1       5.758  53.821  -9.504  1.00  0.00     0.011 C 
HETATM    4  C12 UNL     1       4.463  54.652  -9.513  1.00  0.00    -0.032 C 
HETATM    5  C13 UNL     1       4.553  55.618 -10.736  1.00  0.00     0.016 C 
HETATM    6  C14 UNL     1       3.162  53.808  -9.592  1.00  0.00     0.006 C 
HETATM    7  C15 UNL     1       2.918  53.158 -10.961  1.00  0.00     0.038 C 
HETATM    8  C16 UNL     1       1.663  52.288 -10.930  1.00  0.00     0.126 C 
HETATM    9  C17 UNL     1       0.416  53.168 -10.751  1.00  0.00     0.055 C 
HETATM   10  C18 UNL     1      -0.862  52.329 -10.522  1.00  0.00     0.154 C 
HETATM   11  C19 UNL     1      -2.104  53.222 -10.262  1.00  0.00     0.147 C 
HETATM   12  C20 UNL     1      -1.828  54.712 -10.480  1.00  0.00     0.035 C 
HETATM   13  C21 UNL     1      -0.614  55.221  -9.694  1.00  0.00     0.013 C 
HETATM   14  C22 UNL     1       0.526  54.206  -9.645  1.00  0.00    -0.023 A 
HETATM   15  C23 UNL     1       0.951  53.778  -8.261  1.00  0.00     0.021 A 
HETATM   16  C24 UNL     1       1.922  54.594  -9.095  1.00  0.00    -0.027 A 
HETATM   17  C25 UNL     1       2.126  56.060  -8.697  1.00  0.00     0.011 C 
HETATM   18  C26 UNL     1       3.477  56.458  -8.075  1.00  0.00     0.011 C 
HETATM   19  C27 UNL     1       4.551  55.363  -8.109  1.00  0.00    -0.032 C 
HETATM   20  C28 UNL     1       4.293  54.417  -6.907  1.00  0.00     0.016 C 
ENDROOT
BRANCH   1  21
HETATM   21  C7  UNL     1       6.773  56.333  -6.804  1.00  0.00    -0.014 C 
HETATM   22  C8  UNL     1       7.239  55.242  -5.827  1.00  0.00     0.010 C 
BRANCH  21  23
HETATM   23  C6  UNL     1       6.017  57.419  -6.005  1.00  0.00     0.008 C 
BRANCH  23  24
HETATM   24  C5  UNL     1       6.714  57.835  -4.704  1.00  0.00     0.028 C 
BRANCH  24  25
HETATM   25  C4  UNL     1       7.591  59.037  -4.930  1.00  0.00    -0.025 C 
HETATM   26  C2  UNL     1       8.931  59.085  -5.055  1.00  0.00    -0.091 C 
HETATM   27  C1  UNL     1       9.628  60.401  -5.290  1.00  0.00     0.042 C 
HETATM   28  C3  UNL     1       9.862  57.905  -4.981  1.00  0.00     0.042 C 
ENDBRANCH  24  25
ENDBRANCH  23  24
ENDBRANCH  21  23
ENDBRANCH   1  21
BRANCH   8  29
HETATM   29  O1  UNL     1       1.599  51.579 -12.171  1.00  0.00    -0.395 OA
HETATM   30  H28 UNL     1       0.665  51.299 -12.284  1.00  0.00     0.210 HD
ENDBRANCH   8  29
BRANCH  10  31
HETATM   31  O2  UNL     1      -1.080  51.498 -11.674  1.00  0.00    -0.393 OA
HETATM   32  H31 UNL     1      -1.889  50.977 -11.511  1.00  0.00     0.210 HD
ENDBRANCH  10  31
BRANCH  11  33
HETATM   33  O3  UNL     1      -2.561  53.049  -8.917  1.00  0.00    -0.393 OA
HETATM   34  H33 UNL     1      -2.827  52.120  -8.806  1.00  0.00     0.210 HD
ENDBRANCH  11  33
TORSDOF 7
ENDMDL
MODEL 2
REMARK minimizedAffinity -7.84952927
REMARK CNNscore 0.662479937
REMARK CNNaffinity 6.95335913
REMARK  7 active torsions:
REMARK  status: ('A' for Active; 'I' for Inactive)
REMARK    1  A    between atoms: C4_4  and  C5_5 
REMARK    2  A    between atoms: C5_5  and  C6_6 
REMARK    3  A    between atoms: C6_6  and  C7_7 
REMARK    4  A    between atoms: C7_7  and  C9_9 
REMARK    5  A    between atoms: C16_16  and  O1_17 
REMARK    6  A    between atoms: C18_19  and  O2_20 
REMARK    7  A    between atoms: C19_21  and  O3_22 
ROOT
HETATM    1  C9  UNL     1      -1.497  51.257 -22.210  1.00  0.00    -0.002 C 
HETATM    2  C10 UNL     1      -0.835  51.909 -20.961  1.00  0.00     0.006 C 
HETATM    3  C11 UNL     1      -1.178  51.025 -19.752  1.00  0.00     0.011 C 
HETATM    4  C12 UNL     1      -1.608  49.678 -20.358  1.00  0.00    -0.032 C 
HETATM    5  C13 UNL     1      -0.301  48.901 -20.709  1.00  0.00     0.016 C 
HETATM    6  C14 UNL     1      -2.510  48.819 -19.429  1.00  0.00     0.006 C 
HETATM    7  C15 UNL     1      -1.772  48.203 -18.233  1.00  0.00     0.038 C 
HETATM    8  C16 UNL     1      -2.743  47.440 -17.334  1.00  0.00     0.126 C 
HETATM    9  C17 UNL     1      -3.280  46.202 -18.069  1.00  0.00     0.055 C 
HETATM   10  C18 UNL     1      -4.409  45.500 -17.280  1.00  0.00     0.154 C 
HETATM   11  C19 UNL     1      -5.003  44.298 -18.063  1.00  0.00     0.147 C 
HETATM   12  C20 UNL     1      -4.219  43.963 -19.334  1.00  0.00     0.035 C 
HETATM   13  C21 UNL     1      -4.022  45.173 -20.256  1.00  0.00     0.013 C 
HETATM   14  C22 UNL     1      -3.763  46.467 -19.487  1.00  0.00    -0.023 A 
HETATM   15  C23 UNL     1      -4.752  47.578 -19.742  1.00  0.00     0.021 A 
HETATM   16  C24 UNL     1      -3.321  47.759 -20.218  1.00  0.00    -0.027 A 
HETATM   17  C25 UNL     1      -3.067  47.649 -21.724  1.00  0.00     0.011 C 
HETATM   18  C26 UNL     1      -2.702  48.935 -22.491  1.00  0.00     0.011 C 
HETATM   19  C27 UNL     1      -2.439  50.160 -21.607  1.00  0.00    -0.032 C 
HETATM   20  C28 UNL     1      -3.815  50.782 -21.248  1.00  0.00     0.016 C 
ENDROOT
BRANCH   1  21
HETATM   21  C7  UNL     1      -1.963  52.302 -23.271  1.00  0.00    -0.014 C 
HETATM   22  C8  UNL     1      -3.474  52.397 -23.532  1.00  0.00     0.010 C 
BRANCH  21  23
HETATM   23  C6  UNL     1      -1.235  52.201 -24.631  1.00  0.00     0.008 C 
BRANCH  23  24
HETATM   24  C5  UNL     1       0.256  52.554 -24.568  1.00  0.00     0.028 C 
BRANCH  24  25
HETATM   25  C4  UNL     1       0.985  51.998 -25.762  1.00  0.00    -0.025 C 
HETATM   26  C2  UNL     1       0.912  52.394 -27.047  1.00  0.00    -0.091 C 
HETATM   27  C1  UNL     1       1.739  51.708 -28.104  1.00  0.00     0.042 C 
HETATM   28  C3  UNL     1       0.048  53.507 -27.575  1.00  0.00     0.042 C 
ENDBRANCH  24  25
ENDBRANCH  23  24
ENDBRANCH  21  23
ENDBRANCH   1  21
BRANCH   8  29
HETATM   29  O1  UNL     1      -2.026  47.051 -16.158  1.00  0.00    -0.395 OA
HETATM   30  H28 UNL     1      -2.528  46.306 -15.760  1.00  0.00     0.210 HD
ENDBRANCH   8  29
BRANCH  10  31
HETATM   31  O2  UNL     1      -3.883  45.059 -16.018  1.00  0.00    -0.393 OA
HETATM   32  H31 UNL     1      -4.608  44.619 -15.535  1.00  0.00     0.210 HD
ENDBRANCH  10  31
BRANCH  11  33
HETATM   33  O3  UNL     1      -6.355  44.575 -18.436  1.00  0.00    -0.393 OA
HETATM   34  H33 UNL     1      -6.875  44.694 -17.623  1.00  0.00     0.210 HD
ENDBRANCH  11  33
TORSDOF 7
ENDMDL
MODEL 3
REMARK minimizedAffinity -8.26505089
REMARK CNNscore 0.492288828
REMARK CNNaffinity 6.65831137
REMARK  7 active torsions:
REMARK  status: ('A' for Active; 'I' for Inactive)
REMARK    1  A    between atoms: C4_4  and  C5_5 
REMARK    2  A    between atoms: C5_5  and  C6_6 
REMARK    3  A    between atoms: C6_6  and  C7_7 
REMARK    4  A    between atoms: C7_7  and  C9_9 
REMARK    5  A    between atoms: C16_16  and  O1_17 
REMARK    6  A    between atoms: C18_19  and  O2_20 
REMARK    7  A    between atoms: C19_21  and  O3_22 
ROOT
HETATM    1  C9  UNL     1      -1.755  51.623 -22.218  1.00  0.00    -0.002 C 
HETATM    2  C10 UNL     1      -3.115  52.227 -22.674  1.00  0.00     0.006 C 
HETATM    3  C11 UNL     1      -4.211  51.222 -22.288  1.00  0.00     0.011 C 
HETATM    4  C12 UNL     1      -3.557  50.311 -21.235  1.00  0.00    -0.032 C 
HETATM    5  C13 UNL     1      -3.612  51.077 -19.876  1.00  0.00     0.016 C 
HETATM    6  C14 UNL     1      -4.226  48.917 -21.092  1.00  0.00     0.006 C 
HETATM    7  C15 UNL     1      -5.602  48.947 -20.412  1.00  0.00     0.038 C 
HETATM    8  C16 UNL     1      -6.220  47.551 -20.381  1.00  0.00     0.126 C 
HETATM    9  C17 UNL     1      -5.408  46.636 -19.450  1.00  0.00     0.055 C 
HETATM   10  C18 UNL     1      -5.874  45.165 -19.527  1.00  0.00     0.154 C 
HETATM   11  C19 UNL     1      -5.000  44.232 -18.647  1.00  0.00     0.147 C 
HETATM   12  C20 UNL     1      -4.011  44.995 -17.763  1.00  0.00     0.035 C 
HETATM   13  C21 UNL     1      -3.138  45.982 -18.548  1.00  0.00     0.013 C 
HETATM   14  C22 UNL     1      -3.903  46.686 -19.667  1.00  0.00    -0.023 A 
HETATM   15  C23 UNL     1      -3.343  46.491 -21.054  1.00  0.00     0.021 A 
HETATM   16  C24 UNL     1      -3.280  47.877 -20.438  1.00  0.00    -0.027 A 
HETATM   17  C25 UNL     1      -1.909  48.368 -19.961  1.00  0.00     0.011 C 
HETATM   18  C26 UNL     1      -1.230  49.498 -20.757  1.00  0.00     0.011 C 
HETATM   19  C27 UNL     1      -2.109  50.146 -21.835  1.00  0.00    -0.032 C 
HETATM   20  C28 UNL     1      -2.047  49.242 -23.094  1.00  0.00     0.016 C 
ENDROOT
BRANCH   1  21
HETATM   21  C7  UNL     1      -0.569  52.007 -23.158  1.00  0.00    -0.014 C 
HETATM   22  C8  UNL     1       0.684  52.593 -22.490  1.00  0.00     0.010 C 
BRANCH  21  23
HETATM   23  C6  UNL     1      -0.963  52.915 -24.346  1.00  0.00     0.008 C 
BRANCH  23  24
HETATM   24  C5  UNL     1       0.231  53.545 -25.073  1.00  0.00     0.028 C 
BRANCH  24  25
HETATM   25  C4  UNL     1       0.317  53.043 -26.489  1.00  0.00    -0.025 C 
HETATM   26  C2  UNL     1       1.161  52.128 -27.004  1.00  0.00    -0.091 C 
HETATM   27  C1  UNL     1       1.080  51.750 -28.460  1.00  0.00     0.042 C 
HETATM   28  C3  UNL     1       2.236  51.400 -26.243  1.00  0.00     0.042 C 
ENDBRANCH  24  25
ENDBRANCH  23  24
ENDBRANCH  21  23
ENDBRANCH   1  21
BRANCH   8  29
HETATM   29  O1  UNL     1      -7.562  47.685 -19.903  1.00  0.00    -0.395 OA
HETATM   30  H28 UNL     1      -7.830  46.799 -19.574  1.00  0.00     0.210 HD
ENDBRANCH   8  29
BRANCH  10  31
HETATM   31  O2  UNL     1      -7.248  45.094 -19.113  1.00  0.00    -0.393 OA
HETATM   32  H31 UNL     1      -7.524  44.160 -19.167  1.00  0.00     0.210 HD
ENDBRANCH  10  31
BRANCH  11  33
HETATM   33  O3  UNL     1      -4.254  43.334 -19.474  1.00  0.00    -0.393 OA
HETATM   34  H33 UNL     1      -4.885  42.781 -19.966  1.00  0.00     0.210 HD
ENDBRANCH  11  33
TORSDOF 7
ENDMDL
MODEL 4
REMARK minimizedAffinity -9.24828243
REMARK CNNscore 0.488169372
REMARK CNNaffinity 7.11085892
REMARK  7 active torsions:
REMARK  status: ('A' for Active; 'I' for Inactive)
REMARK    1  A    between atoms: C4_4  and  C5_5 
REMARK    2  A    between atoms: C5_5  and  C6_6 
REMARK    3  A    between atoms: C6_6  and  C7_7 
REMARK    4  A    between atoms: C7_7  and  C9_9 
REMARK    5  A    between atoms: C16_16  and  O1_17 
REMARK    6  A    between atoms: C18_19  and  O2_20 
REMARK    7  A    between atoms: C19_21  and  O3_22 
ROOT
HETATM    1  C9  UNL     1      -2.978  49.062 -19.454  1.00  0.00    -0.002 C 
HETATM    2  C10 UNL     1      -4.107  48.041 -19.779  1.00  0.00     0.006 C 
HETATM    3  C11 UNL     1      -4.366  48.117 -21.291  1.00  0.00     0.011 C 
HETATM    4  C12 UNL     1      -3.116  48.799 -21.872  1.00  0.00    -0.032 C 
HETATM    5  C13 UNL     1      -2.015  47.700 -21.994  1.00  0.00     0.016 C 
HETATM    6  C14 UNL     1      -3.343  49.485 -23.247  1.00  0.00     0.006 C 
HETATM    7  C15 UNL     1      -3.521  48.505 -24.416  1.00  0.00     0.038 C 
HETATM    8  C16 UNL     1      -3.814  49.258 -25.712  1.00  0.00     0.126 C 
HETATM    9  C17 UNL     1      -2.581  50.069 -26.140  1.00  0.00     0.055 C 
HETATM   10  C18 UNL     1      -2.881  50.998 -27.339  1.00  0.00     0.154 C 
HETATM   11  C19 UNL     1      -1.657  51.873 -27.717  1.00  0.00     0.147 C 
HETATM   12  C20 UNL     1      -0.386  51.487 -26.956  1.00  0.00     0.035 C 
HETATM   13  C21 UNL     1      -0.582  51.448 -25.435  1.00  0.00     0.013 C 
HETATM   14  C22 UNL     1      -1.945  50.891 -25.029  1.00  0.00    -0.023 A 
HETATM   15  C23 UNL     1      -2.803  51.820 -24.206  1.00  0.00     0.021 A 
HETATM   16  C24 UNL     1      -2.268  50.559 -23.551  1.00  0.00    -0.027 A 
HETATM   17  C25 UNL     1      -1.128  50.727 -22.540  1.00  0.00     0.011 C 
HETATM   18  C26 UNL     1      -1.441  50.480 -21.052  1.00  0.00     0.011 C 
HETATM   19  C27 UNL     1      -2.831  49.893 -20.774  1.00  0.00    -0.032 C 
HETATM   20  C28 UNL     1      -3.844  51.068 -20.776  1.00  0.00     0.016 C 
ENDROOT
BRANCH   1  21
HETATM   21  C7  UNL     1      -3.127  49.711 -18.042  1.00  0.00    -0.014 C 
HETATM   22  C8  UNL     1      -2.931  51.232 -17.955  1.00  0.00     0.010 C 
BRANCH  21  23
HETATM   23  C6  UNL     1      -2.278  49.041 -16.938  1.00  0.00     0.008 C 
BRANCH  23  24
HETATM   24  C5  UNL     1      -0.794  48.892 -17.296  1.00  0.00     0.028 C 
BRANCH  24  25
HETATM   25  C4  UNL     1      -0.106  50.231 -17.282  1.00  0.00    -0.025 C 
HETATM   26  C2  UNL     1       0.674  50.763 -16.321  1.00  0.00    -0.091 C 
HETATM   27  C1  UNL     1       1.284  52.129 -16.503  1.00  0.00     0.042 C 
HETATM   28  C3  UNL     1       1.023  50.107 -15.012  1.00  0.00     0.042 C 
ENDBRANCH  24  25
ENDBRANCH  23  24
ENDBRANCH  21  23
ENDBRANCH   1  21
BRANCH   8  29
HETATM   29  O1  UNL     1      -4.143  48.287 -26.709  1.00  0.00    -0.395 OA
HETATM   30  H28 UNL     1      -4.002  48.721 -27.578  1.00  0.00     0.210 HD
ENDBRANCH   8  29
BRANCH  10  31
HETATM   31  O2  UNL     1      -3.279  50.191 -28.459  1.00  0.00    -0.393 OA
HETATM   32  H31 UNL     1      -3.464  50.793 -29.204  1.00  0.00     0.210 HD
ENDBRANCH  10  31
BRANCH  11  33
HETATM   33  O3  UNL     1      -1.934  53.250 -27.446  1.00  0.00    -0.393 OA
HETATM   34  H33 UNL     1      -2.684  53.522 -28.002  1.00  0.00     0.210 HD
ENDBRANCH  11  33
TORSDOF 7
ENDMDL
MODEL 5
REMARK minimizedAffinity -9.87273407
REMARK CNNscore 0.472766638
REMARK CNNaffinity 7.04653502
REMARK  7 active torsions:
REMARK  status: ('A' for Active; 'I' for Inactive)
REMARK    1  A    between atoms: C4_4  and  C5_5 
REMARK    2  A    between atoms: C5_5  and  C6_6 
REMARK    3  A    between atoms: C6_6  and  C7_7 
REMARK    4  A    between atoms: C7_7  and  C9_9 
REMARK    5  A    between atoms: C16_16  and  O1_17 
REMARK    6  A    between atoms: C18_19  and  O2_20 
REMARK    7  A    between atoms: C19_21  and  O3_22 
ROOT
HETATM    1  C9  UNL     1      -1.610  49.327 -18.768  1.00  0.00    -0.002 C 
HETATM    2  C10 UNL     1      -2.801  48.324 -18.772  1.00  0.00     0.006 C 
HETATM    3  C11 UNL     1      -3.391  48.325 -20.191  1.00  0.00     0.011 C 
HETATM    4  C12 UNL     1      -2.291  48.938 -21.075  1.00  0.00    -0.032 C 
HETATM    5  C13 UNL     1      -1.265  47.801 -21.374  1.00  0.00     0.016 C 
HETATM    6  C14 UNL     1      -2.809  49.555 -22.403  1.00  0.00     0.006 C 
HETATM    7  C15 UNL     1      -3.261  48.519 -23.442  1.00  0.00     0.038 C 
HETATM    8  C16 UNL     1      -3.824  49.209 -24.683  1.00  0.00     0.126 C 
HETATM    9  C17 UNL     1      -2.705  49.959 -25.423  1.00  0.00     0.055 C 
HETATM   10  C18 UNL     1      -3.250  50.830 -26.577  1.00  0.00     0.154 C 
HETATM   11  C19 UNL     1      -2.127  51.646 -27.270  1.00  0.00     0.147 C 
HETATM   12  C20 UNL     1      -0.725  51.264 -26.790  1.00  0.00     0.035 C 
HETATM   13  C21 UNL     1      -0.576  51.314 -25.264  1.00  0.00     0.013 C 
HETATM   14  C22 UNL     1      -1.822  50.820 -24.532  1.00  0.00    -0.023 A 
HETATM   15  C23 UNL     1      -2.458  51.818 -23.595  1.00  0.00     0.021 A 
HETATM   16  C24 UNL     1      -1.811  50.579 -23.002  1.00  0.00    -0.027 A 
HETATM   17  C25 UNL     1      -0.471  50.766 -22.282  1.00  0.00     0.011 C 
HETATM   18  C26 UNL     1      -0.447  50.609 -20.750  1.00  0.00     0.011 C 
HETATM   19  C27 UNL     1      -1.749  50.081 -20.135  1.00  0.00    -0.032 C 
HETATM   20  C28 UNL     1      -2.716  51.284 -19.981  1.00  0.00     0.016 C 
ENDROOT
BRANCH   1  21
HETATM   21  C7  UNL     1      -1.428  50.055 -17.400  1.00  0.00    -0.014 C 
HETATM   22  C8  UNL     1      -2.692  50.641 -16.753  1.00  0.00     0.010 C 
BRANCH  21  23
HETATM   23  C6  UNL     1      -0.325  51.138 -17.395  1.00  0.00     0.008 C 
BRANCH  23  24
HETATM   24  C5  UNL     1       0.692  50.988 -16.257  1.00  0.00     0.028 C 
BRANCH  24  25
HETATM   25  C4  UNL     1       1.884  51.877 -16.488  1.00  0.00    -0.025 C 
HETATM   26  C2  UNL     1       2.968  52.046 -15.706  1.00  0.00    -0.091 C 
HETATM   27  C1  UNL     1       4.070  52.985 -16.124  1.00  0.00     0.042 C 
HETATM   28  C3  UNL     1       3.214  51.362 -14.389  1.00  0.00     0.042 C 
ENDBRANCH  24  25
ENDBRANCH  23  24
ENDBRANCH  21  23
ENDBRANCH   1  21
BRANCH   8  29
HETATM   29  O1  UNL     1      -4.386  48.196 -25.522  1.00  0.00    -0.395 OA
HETATM   30  H28 UNL     1      -4.436  48.578 -26.425  1.00  0.00     0.210 HD
ENDBRANCH   8  29
BRANCH  10  31
HETATM   31  O2  UNL     1      -3.903  49.976 -27.530  1.00  0.00    -0.393 OA
HETATM   32  H31 UNL     1      -4.240  50.542 -28.250  1.00  0.00     0.210 HD
ENDBRANCH  10  31
BRANCH  11  33
HETATM   33  O3  UNL     1      -2.313  53.044 -27.026  1.00  0.00    -0.393 OA
HETATM   34  H33 UNL     1      -3.164  53.308 -27.416  1.00  0.00     0.210 HD
ENDBRANCH  11  33
TORSDOF 7
ENDMDL
MODEL 6
REMARK minimizedAffinity -8.33974171
REMARK CNNscore 0.426255196
REMARK CNNaffinity 6.82548285
REMARK  7 active torsions:
REMARK  status: ('A' for Active; 'I' for Inactive)
REMARK    1  A    between atoms: C4_4  and  C5_5 
REMARK    2  A    between atoms: C5_5  and  C6_6 
REMARK    3  A    between atoms: C6_6  and  C7_7 
REMARK    4  A    between atoms: C7_7  and  C9_9 
REMARK    5  A    between atoms: C16_16  and  O1_17 
REMARK    6  A    between atoms: C18_19  and  O2_20 
REMARK    7  A    between atoms: C19_21  and  O3_22 
ROOT
HETATM    1  C9  UNL     1      -1.682  51.317 -22.129  1.00  0.00    -0.002 C 
HETATM    2  C10 UNL     1      -2.838  50.353 -22.526  1.00  0.00     0.006 C 
HETATM    3  C11 UNL     1      -3.180  49.518 -21.283  1.00  0.00     0.011 C 
HETATM    4  C12 UNL     1      -2.576  50.300 -20.103  1.00  0.00    -0.032 C 
HETATM    5  C13 UNL     1      -3.578  51.445 -19.758  1.00  0.00     0.016 C 
HETATM    6  C14 UNL     1      -2.292  49.438 -18.843  1.00  0.00     0.006 C 
HETATM    7  C15 UNL     1      -3.554  49.000 -18.086  1.00  0.00     0.038 C 
HETATM    8  C16 UNL     1      -3.191  48.097 -16.909  1.00  0.00     0.126 C 
HETATM    9  C17 UNL     1      -2.425  48.899 -15.846  1.00  0.00     0.055 C 
HETATM   10  C18 UNL     1      -1.867  47.996 -14.722  1.00  0.00     0.154 C 
HETATM   11  C19 UNL     1      -1.027  48.799 -13.694  1.00  0.00     0.147 C 
HETATM   12  C20 UNL     1      -1.100  50.312 -13.911  1.00  0.00     0.035 C 
HETATM   13  C21 UNL     1      -0.756  50.732 -15.346  1.00  0.00     0.013 C 
HETATM   14  C22 UNL     1      -1.294  49.758 -16.392  1.00  0.00    -0.023 A 
HETATM   15  C23 UNL     1      -0.253  49.135 -17.290  1.00  0.00     0.021 A 
HETATM   16  C24 UNL     1      -1.253  50.099 -17.902  1.00  0.00    -0.027 A 
HETATM   17  C25 UNL     1      -0.739  51.492 -18.282  1.00  0.00     0.011 C 
HETATM   18  C26 UNL     1      -0.613  51.831 -19.780  1.00  0.00     0.011 C 
HETATM   19  C27 UNL     1      -1.214  50.788 -20.730  1.00  0.00    -0.032 C 
HETATM   20  C28 UNL     1      -0.164  49.661 -20.913  1.00  0.00     0.016 C 
ENDROOT
BRANCH   1  21
HETATM   21  C7  UNL     1      -0.701  51.614 -23.307  1.00  0.00    -0.014 C 
HETATM   22  C8  UNL     1       0.293  52.767 -23.106  1.00  0.00     0.010 C 
BRANCH  21  23
HETATM   23  C6  UNL     1      -1.387  51.789 -24.680  1.00  0.00     0.008 C 
BRANCH  23  24
HETATM   24  C5  UNL     1      -0.894  50.811 -25.754  1.00  0.00     0.028 C 
BRANCH  24  25
HETATM   25  C4  UNL     1       0.574  51.012 -26.022  1.00  0.00    -0.025 C 
HETATM   26  C2  UNL     1       1.165  51.498 -27.130  1.00  0.00    -0.091 C 
HETATM   27  C1  UNL     1       2.664  51.631 -27.199  1.00  0.00     0.042 C 
HETATM   28  C3  UNL     1       0.454  51.949 -28.377  1.00  0.00     0.042 C 
ENDBRANCH  24  25
ENDBRANCH  23  24
ENDBRANCH  21  23
ENDBRANCH   1  21
BRANCH   8  29
HETATM   29  O1  UNL     1      -4.411  47.586 -16.365  1.00  0.00    -0.395 OA
HETATM   30  H28 UNL     1      -4.209  47.298 -15.448  1.00  0.00     0.210 HD
ENDBRANCH   8  29
BRANCH  10  31
HETATM   31  O2  UNL     1      -2.968  47.346 -14.065  1.00  0.00    -0.393 OA
HETATM   32  H31 UNL     1      -2.597  46.782 -13.361  1.00  0.00     0.210 HD
ENDBRANCH  10  31
BRANCH  11  33
HETATM   33  O3  UNL     1       0.346  48.407 -13.768  1.00  0.00    -0.393 OA
HETATM   34  H33 UNL     1       0.404  47.464 -13.535  1.00  0.00     0.210 HD
ENDBRANCH  11  33
TORSDOF 7
ENDMDL
MODEL 7
REMARK minimizedAffinity -9.3964777
REMARK CNNscore 0.42566058
REMARK CNNaffinity 6.70978975
REMARK  7 active torsions:
REMARK  status: ('A' for Active; 'I' for Inactive)
REMARK    1  A    between atoms: C4_4  and  C5_5 
REMARK    2  A    between atoms: C5_5  and  C6_6 
REMARK    3  A    between atoms: C6_6  and  C7_7 
REMARK    4  A    between atoms: C7_7  and  C9_9 
REMARK    5  A    between atoms: C16_16  and  O1_17 
REMARK    6  A    between atoms: C18_19  and  O2_20 
REMARK    7  A    between atoms: C19_21  and  O3_22 
ROOT
HETATM    1  C9  UNL     1      -0.755  50.504 -22.067  1.00  0.00    -0.002 C 
HETATM    2  C10 UNL     1      -0.859  50.121 -20.561  1.00  0.00     0.006 C 
HETATM    3  C11 UNL     1      -2.246  49.497 -20.346  1.00  0.00     0.011 C 
HETATM    4  C12 UNL     1      -2.725  49.103 -21.755  1.00  0.00    -0.032 C 
HETATM    5  C13 UNL     1      -2.036  47.748 -22.105  1.00  0.00     0.016 C 
HETATM    6  C14 UNL     1      -4.266  48.973 -21.892  1.00  0.00     0.006 C 
HETATM    7  C15 UNL     1      -4.856  47.738 -21.196  1.00  0.00     0.038 C 
HETATM    8  C16 UNL     1      -6.378  47.727 -21.315  1.00  0.00     0.126 C 
HETATM    9  C17 UNL     1      -6.791  47.514 -22.780  1.00  0.00     0.055 C 
HETATM   10  C18 UNL     1      -8.313  47.683 -22.988  1.00  0.00     0.154 C 
HETATM   11  C19 UNL     1      -8.714  47.547 -24.481  1.00  0.00     0.147 C 
HETATM   12  C20 UNL     1      -7.558  47.088 -25.373  1.00  0.00     0.035 C 
HETATM   13  C21 UNL     1      -6.300  47.953 -25.222  1.00  0.00     0.013 C 
HETATM   14  C22 UNL     1      -6.058  48.395 -23.780  1.00  0.00    -0.023 A 
HETATM   15  C23 UNL     1      -6.009  49.888 -23.562  1.00  0.00     0.021 A 
HETATM   16  C24 UNL     1      -4.735  49.086 -23.365  1.00  0.00    -0.027 A 
HETATM   17  C25 UNL     1      -3.654  49.215 -24.444  1.00  0.00     0.011 C 
HETATM   18  C26 UNL     1      -2.359  49.968 -24.083  1.00  0.00     0.011 C 
HETATM   19  C27 UNL     1      -2.219  50.334 -22.600  1.00  0.00    -0.032 C 
HETATM   20  C28 UNL     1      -3.025  51.637 -22.361  1.00  0.00     0.016 C 
ENDROOT
BRANCH   1  21
HETATM   21  C7  UNL     1       0.107  51.780 -22.316  1.00  0.00    -0.014 C 
HETATM   22  C8  UNL     1       0.317  52.719 -21.118  1.00  0.00     0.010 C 
BRANCH  21  23
HETATM   23  C6  UNL     1      -0.338  52.625 -23.531  1.00  0.00     0.008 C 
BRANCH  23  24
HETATM   24  C5  UNL     1       0.804  53.003 -24.481  1.00  0.00     0.028 C 
BRANCH  24  25
HETATM   25  C4  UNL     1       0.452  52.654 -25.903  1.00  0.00    -0.025 C 
HETATM   26  C2  UNL     1       1.186  51.976 -26.806  1.00  0.00    -0.091 C 
HETATM   27  C1  UNL     1       0.646  51.719 -28.189  1.00  0.00     0.042 C 
HETATM   28  C3  UNL     1       2.563  51.416 -26.574  1.00  0.00     0.042 C 
ENDBRANCH  24  25
ENDBRANCH  23  24
ENDBRANCH  21  23
ENDBRANCH   1  21
BRANCH   8  29
HETATM   29  O1  UNL     1      -6.866  46.658 -20.499  1.00  0.00    -0.395 OA
HETATM   30  H28 UNL     1      -7.767  46.445 -20.828  1.00  0.00     0.210 HD
ENDBRANCH   8  29
BRANCH  10  31
HETATM   31  O2  UNL     1      -8.999  46.698 -22.198  1.00  0.00    -0.393 OA
HETATM   32  H31 UNL     1      -9.956  46.820 -22.342  1.00  0.00     0.210 HD
ENDBRANCH  10  31
BRANCH  11  33
HETATM   33  O3  UNL     1      -9.188  48.801 -24.979  1.00  0.00    -0.393 OA
HETATM   34  H33 UNL     1      -9.982  49.047 -24.474  1.00  0.00     0.210 HD
ENDBRANCH  11  33
TORSDOF 7
ENDMDL
MODEL 8
REMARK minimizedAffinity -8.86786842
REMARK CNNscore 0.383446932
REMARK CNNaffinity 6.45527983
REMARK  7 active torsions:
REMARK  status: ('A' for Active; 'I' for Inactive)
REMARK    1  A    between atoms: C4_4  and  C5_5 
REMARK    2  A    between atoms: C5_5  and  C6_6 
REMARK    3  A    between atoms: C6_6  and  C7_7 
REMARK    4  A    between atoms: C7_7  and  C9_9 
REMARK    5  A    between atoms: C16_16  and  O1_17 
REMARK    6  A    between atoms: C18_19  and  O2_20 
REMARK    7  A    between atoms: C19_21  and  O3_22 
ROOT
HETATM    1  C9  UNL     1      -0.240  50.944 -19.167  1.00  0.00    -0.002 C 
HETATM    2  C10 UNL     1      -0.440  49.861 -18.066  1.00  0.00     0.006 C 
HETATM    3  C11 UNL     1      -1.615  48.976 -18.507  1.00  0.00     0.011 C 
HETATM    4  C12 UNL     1      -1.768  49.245 -20.014  1.00  0.00    -0.032 C 
HETATM    5  C13 UNL     1      -0.689  48.383 -20.740  1.00  0.00     0.016 C 
HETATM    6  C14 UNL     1      -3.179  48.927 -20.581  1.00  0.00     0.006 C 
HETATM    7  C15 UNL     1      -3.493  47.428 -20.676  1.00  0.00     0.038 C 
HETATM    8  C16 UNL     1      -4.921  47.205 -21.169  1.00  0.00     0.126 C 
HETATM    9  C17 UNL     1      -5.053  47.668 -22.629  1.00  0.00     0.055 C 
HETATM   10  C18 UNL     1      -6.519  47.644 -23.118  1.00  0.00     0.154 C 
HETATM   11  C19 UNL     1      -6.657  48.187 -24.565  1.00  0.00     0.147 C 
HETATM   12  C20 UNL     1      -5.308  48.439 -25.243  1.00  0.00     0.035 C 
HETATM   13  C21 UNL     1      -4.373  49.326 -24.412  1.00  0.00     0.013 C 
HETATM   14  C22 UNL     1      -4.463  49.041 -22.915  1.00  0.00    -0.023 A 
HETATM   15  C23 UNL     1      -4.860  50.216 -22.055  1.00  0.00     0.021 A 
HETATM   16  C24 UNL     1      -3.453  49.662 -21.917  1.00  0.00    -0.027 A 
HETATM   17  C25 UNL     1      -2.313  50.493 -22.516  1.00  0.00     0.011 C 
HETATM   18  C26 UNL     1      -1.340  51.189 -21.545  1.00  0.00     0.011 C 
HETATM   19  C27 UNL     1      -1.512  50.800 -20.071  1.00  0.00    -0.032 C 
HETATM   20  C28 UNL     1      -2.672  51.652 -19.494  1.00  0.00     0.016 C 
ENDROOT
BRANCH   1  21
HETATM   21  C7  UNL     1       0.260  52.309 -18.599  1.00  0.00    -0.014 C 
HETATM   22  C8  UNL     1       0.505  53.434 -19.616  1.00  0.00     0.010 C 
BRANCH  21  23
HETATM   23  C6  UNL     1       1.496  52.202 -17.676  1.00  0.00     0.008 C 
BRANCH  23  24
HETATM   24  C5  UNL     1       1.213  52.554 -16.211  1.00  0.00     0.028 C 
BRANCH  24  25
HETATM   25  C4  UNL     1       2.016  51.676 -15.289  1.00  0.00    -0.025 C 
HETATM   26  C2  UNL     1       3.355  51.584 -15.174  1.00  0.00    -0.091 C 
HETATM   27  C1  UNL     1       3.971  50.642 -14.172  1.00  0.00     0.042 C 
HETATM   28  C3  UNL     1       4.360  52.363 -15.979  1.00  0.00     0.042 C 
ENDBRANCH  24  25
ENDBRANCH  23  24
ENDBRANCH  21  23
ENDBRANCH   1  21
BRANCH   8  29
HETATM   29  O1  UNL     1      -5.201  45.807 -21.062  1.00  0.00    -0.395 OA
HETATM   30  H28 UNL     1      -5.953  45.626 -21.667  1.00  0.00     0.210 HD
ENDBRANCH   8  29
BRANCH  10  31
HETATM   31  O2  UNL     1      -7.007  46.294 -23.046  1.00  0.00    -0.393 OA
HETATM   32  H31 UNL     1      -7.931  46.299 -23.358  1.00  0.00     0.210 HD
ENDBRANCH  10  31
BRANCH  11  33
HETATM   33  O3  UNL     1      -7.387  49.418 -24.560  1.00  0.00    -0.393 OA
HETATM   34  H33 UNL     1      -8.279  49.239 -24.217  1.00  0.00     0.210 HD
ENDBRANCH  11  33
TORSDOF 7
ENDMDL
MODEL 9
REMARK minimizedAffinity -9.04269314
REMARK CNNscore 0.369117528
REMARK CNNaffinity 6.51802588
REMARK  7 active torsions:
REMARK  status: ('A' for Active; 'I' for Inactive)
REMARK    1  A    between atoms: C4_4  and  C5_5 
REMARK    2  A    between atoms: C5_5  and  C6_6 
REMARK    3  A    between atoms: C6_6  and  C7_7 
REMARK    4  A    between atoms: C7_7  and  C9_9 
REMARK    5  A    between atoms: C16_16  and  O1_17 
REMARK    6  A    between atoms: C18_19  and  O2_20 
REMARK    7  A    between atoms: C19_21  and  O3_22 
ROOT
HETATM    1  C9  UNL     1      -3.838  50.047 -24.481  1.00  0.00    -0.002 C 
HETATM    2  C10 UNL     1      -5.283  49.525 -24.230  1.00  0.00     0.006 C 
HETATM    3  C11 UNL     1      -5.376  49.142 -22.745  1.00  0.00     0.011 C 
HETATM    4  C12 UNL     1      -4.190  49.860 -22.077  1.00  0.00    -0.032 C 
HETATM    5  C13 UNL     1      -4.628  51.340 -21.847  1.00  0.00     0.016 C 
HETATM    6  C14 UNL     1      -3.729  49.223 -20.738  1.00  0.00     0.006 C 
HETATM    7  C15 UNL     1      -4.700  49.445 -19.570  1.00  0.00     0.038 C 
HETATM    8  C16 UNL     1      -4.210  48.724 -18.316  1.00  0.00     0.126 C 
HETATM    9  C17 UNL     1      -2.917  49.377 -17.804  1.00  0.00     0.055 C 
HETATM   10  C18 UNL     1      -2.274  48.573 -16.651  1.00  0.00     0.154 C 
HETATM   11  C19 UNL     1      -0.927  49.193 -16.192  1.00  0.00     0.147 C 
HETATM   12  C20 UNL     1      -0.638  50.549 -16.840  1.00  0.00     0.035 C 
HETATM   13  C21 UNL     1      -0.732  50.517 -18.371  1.00  0.00     0.013 C 
HETATM   14  C22 UNL     1      -1.865  49.626 -18.875  1.00  0.00    -0.023 A 
HETATM   15  C23 UNL     1      -1.444  48.496 -19.782  1.00  0.00     0.021 A 
HETATM   16  C24 UNL     1      -2.277  49.622 -20.368  1.00  0.00    -0.027 A 
HETATM   17  C25 UNL     1      -1.561  50.617 -21.286  1.00  0.00     0.011 C 
HETATM   18  C26 UNL     1      -1.894  50.581 -22.790  1.00  0.00     0.011 C 
HETATM   19  C27 UNL     1      -3.069  49.671 -23.169  1.00  0.00    -0.032 C 
HETATM   20  C28 UNL     1      -2.525  48.222 -23.270  1.00  0.00     0.016 C 
ENDROOT
BRANCH   1  21
HETATM   21  C7  UNL     1      -3.309  49.718 -25.912  1.00  0.00    -0.014 C 
HETATM   22  C8  UNL     1      -3.767  48.389 -26.531  1.00  0.00     0.010 C 
BRANCH  21  23
HETATM   23  C6  UNL     1      -1.775  49.831 -26.067  1.00  0.00     0.008 C 
BRANCH  23  24
HETATM   24  C5  UNL     1      -1.248  51.270 -26.034  1.00  0.00     0.028 C 
BRANCH  24  25
HETATM   25  C4  UNL     1       0.254  51.285 -25.933  1.00  0.00    -0.025 C 
HETATM   26  C2  UNL     1       1.157  51.489 -26.911  1.00  0.00    -0.091 C 
HETATM   27  C1  UNL     1       2.632  51.475 -26.601  1.00  0.00     0.042 C 
HETATM   28  C3  UNL     1       0.840  51.744 -28.359  1.00  0.00     0.042 C 
ENDBRANCH  24  25
ENDBRANCH  23  24
ENDBRANCH  21  23
ENDBRANCH   1  21
BRANCH   8  29
HETATM   29  O1  UNL     1      -5.243  48.823 -17.331  1.00  0.00    -0.395 OA
HETATM   30  H28 UNL     1      -4.814  48.668 -16.461  1.00  0.00     0.210 HD
ENDBRANCH   8  29
BRANCH  10  31
HETATM   31  O2  UNL     1      -3.198  48.524 -15.552  1.00  0.00    -0.393 OA
HETATM   32  H31 UNL     1      -2.776  48.014 -14.836  1.00  0.00     0.210 HD
ENDBRANCH  10  31
BRANCH  11  33
HETATM   33  O3  UNL     1       0.153  48.311 -16.510  1.00  0.00    -0.393 OA
HETATM   34  H33 UNL     1       0.019  47.480 -16.021  1.00  0.00     0.210 HD
ENDBRANCH  11  33
TORSDOF 7
ENDMDL
