MODEL 1
REMARK minimizedAffinity -6.8614459
REMARK CNNscore 0.603592932
REMARK CNNaffinity 5.99471235
REMARK  9 active torsions:
REMARK  status: ('A' for Active; 'I' for Inactive)
REMARK    1  A    between atoms: O1_2  and  C2_3 
REMARK    2  A    between atoms: C2_3  and  C3_4 
REMARK    3  A    between atoms: C3_4  and  N1_5 
REMARK       I    between atoms: N1_5  and  C4_6 
REMARK    4  A    between atoms: C4_6  and  C5_8 
REMARK    5  A    between atoms: C5_8  and  C7_10 
REMARK    6  A    between atoms: C15_20  and  C16_21 
REMARK    7  A    between atoms: C16_21  and  O3_22 
REMARK    8  A    between atoms: O3_22  and  C17_23 
REMARK    9  A    between atoms: C26_34  and  O4_35 
ROOT
HETATM    1  C7  UNL     1      -9.272  -6.586  -4.421  1.00  0.00     0.027 C 
HETATM    2  C8  UNL     1      -9.241  -7.924  -5.191  1.00  0.00     0.009 C 
HETATM    3  C9  UNL     1      -9.179  -9.172  -4.310  1.00  0.00     0.010 C 
HETATM    4  C10 UNL     1      -8.292  -9.028  -3.057  1.00  0.00    -0.033 C 
HETATM    5  C11 UNL     1      -6.821  -8.812  -3.504  1.00  0.00     0.016 C 
HETATM    6  C12 UNL     1      -8.334 -10.395  -2.291  1.00  0.00     0.058 C 
HETATM    7  C13 UNL     1      -7.961 -10.201  -0.870  1.00  0.00     0.008 A 
HETATM    8  C14 UNL     1      -8.365  -9.117  -0.131  1.00  0.00     0.027 A 
HETATM    9  N2  UNL     1      -7.926  -9.091   1.172  1.00  0.00    -0.354 N 
ATOM     10  H2  UNL     1      -8.111  -8.344   1.842  1.00  0.00     0.166 HD
HETATM   11  C15 UNL     1      -7.225 -10.185   1.420  1.00  0.00     0.076 A 
HETATM   12  S1  UNL     1      -7.021 -11.249   0.070  1.00  0.00    -0.077 SA
HETATM   13  C23 UNL     1      -9.229  -8.050  -0.727  1.00  0.00     0.040 C 
HETATM   14  C24 UNL     1     -10.706  -8.444  -0.610  1.00  0.00     0.017 C 
HETATM   15  C25 UNL     1      -8.752  -7.763  -2.199  1.00  0.00     0.033 C 
HETATM   16  C26 UNL     1      -9.732  -6.833  -2.965  1.00  0.00     0.128 C 
ENDROOT
BRANCH   1  17
HETATM   17  C5  UNL     1     -10.119  -5.518  -5.178  1.00  0.00     0.080 C 
HETATM   18  C6  UNL     1      -9.898  -5.545  -6.697  1.00  0.00     0.020 C 
BRANCH  17  19
HETATM   19  C4  UNL     1      -9.869  -4.081  -4.718  1.00  0.00     0.222 C 
HETATM   20  N1  UNL     1      -8.615  -3.581  -5.014  1.00  0.00    -0.359 N 
HETATM   21  H8  UNL     1      -8.125  -4.014  -5.787  1.00  0.00     0.162 HD
HETATM   22  O2  UNL     1     -10.745  -3.409  -4.184  1.00  0.00    -0.273 OA
BRANCH  20  23
HETATM   23  C3  UNL     1      -8.343  -2.162  -4.839  1.00  0.00     0.148 C 
BRANCH  23  24
HETATM   24  C2  UNL     1      -7.143  -1.716  -5.683  1.00  0.00     0.186 C 
BRANCH  24  25
HETATM   25  O1  UNL     1      -7.297  -0.350  -6.096  1.00  0.00    -0.394 OA
HETATM   26  C1  UNL     1      -8.622  -0.043  -6.509  1.00  0.00     0.201 C 
ENDBRANCH  24  25
ENDBRANCH  23  24
ENDBRANCH  20  23
ENDBRANCH  17  19
ENDBRANCH   1  17
BRANCH  16  27
HETATM   27  O4  UNL     1      -9.849  -5.621  -2.233  1.00  0.00    -0.395 OA
HETATM   28  H35 UNL     1      -9.037  -5.096  -2.351  1.00  0.00     0.210 HD
ENDBRANCH  16  27
BRANCH  11  29
HETATM   29  C16 UNL     1      -6.594 -10.520   2.739  1.00  0.00     0.240 C 
BRANCH  29  30
HETATM   30  O3  UNL     1      -5.170 -10.380   2.648  1.00  0.00    -0.345 OA
BRANCH  30  31
HETATM   31  C17 UNL     1      -4.460 -10.117   3.786  1.00  0.00     0.070 A 
HETATM   32  C18 UNL     1      -3.194  -9.533   3.848  1.00  0.00     0.037 A 
HETATM   33  C19 UNL     1      -2.578  -9.316   5.084  1.00  0.00     0.004 A 
HETATM   34  C20 UNL     1      -3.230  -9.672   6.263  1.00  0.00     0.024 A 
HETATM   35  C21 UNL     1      -4.503 -10.235   6.202  1.00  0.00     0.036 A 
HETATM   36 CL1  UNL     1      -5.316 -10.665   7.656  1.00  0.00    -0.084 Cl
HETATM   37  C22 UNL     1      -5.118 -10.453   4.971  1.00  0.00     0.060 A 
ENDBRANCH  30  31
ENDBRANCH  29  30
ENDBRANCH  11  29
TORSDOF 9
ENDMDL
MODEL 2
REMARK minimizedAffinity -8.27260017
REMARK CNNscore 0.371633559
REMARK CNNaffinity 7.00448751
REMARK  9 active torsions:
REMARK  status: ('A' for Active; 'I' for Inactive)
REMARK    1  A    between atoms: O1_2  and  C2_3 
REMARK    2  A    between atoms: C2_3  and  C3_4 
REMARK    3  A    between atoms: C3_4  and  N1_5 
REMARK       I    between atoms: N1_5  and  C4_6 
REMARK    4  A    between atoms: C4_6  and  C5_8 
REMARK    5  A    between atoms: C5_8  and  C7_10 
REMARK    6  A    between atoms: C15_20  and  C16_21 
REMARK    7  A    between atoms: C16_21  and  O3_22 
REMARK    8  A    between atoms: O3_22  and  C17_23 
REMARK    9  A    between atoms: C26_34  and  O4_35 
ROOT
HETATM    1  C7  UNL     1      -7.189   4.852  12.660  1.00  0.00     0.027 C 
HETATM    2  C8  UNL     1      -7.166   3.308  12.618  1.00  0.00     0.009 C 
HETATM    3  C9  UNL     1      -5.779   2.683  12.768  1.00  0.00     0.010 C 
HETATM    4  C10 UNL     1      -4.649   3.451  12.054  1.00  0.00    -0.033 C 
HETATM    5  C11 UNL     1      -4.910   3.423  10.523  1.00  0.00     0.016 C 
HETATM    6  C12 UNL     1      -3.317   2.663  12.298  1.00  0.00     0.058 C 
HETATM    7  C13 UNL     1      -2.148   3.556  12.110  1.00  0.00     0.008 A 
HETATM    8  C14 UNL     1      -2.129   4.862  12.535  1.00  0.00     0.027 A 
HETATM    9  N2  UNL     1      -0.966   5.551  12.278  1.00  0.00    -0.354 N 
ATOM     10  H2  UNL     1      -0.801   6.533  12.500  1.00  0.00     0.166 HD
HETATM   11  C15 UNL     1      -0.096   4.741  11.697  1.00  0.00     0.076 A 
HETATM   12  S1  UNL     1      -0.676   3.140  11.386  1.00  0.00    -0.077 SA
HETATM   13  C23 UNL     1      -3.306   5.470  13.229  1.00  0.00     0.040 C 
HETATM   14  C24 UNL     1      -3.236   5.177  14.733  1.00  0.00     0.017 C 
HETATM   15  C25 UNL     1      -4.628   4.973  12.535  1.00  0.00     0.033 C 
HETATM   16  C26 UNL     1      -5.899   5.375  13.332  1.00  0.00     0.128 C 
ENDROOT
BRANCH   1  17
HETATM   17  C5  UNL     1      -8.502   5.379  13.317  1.00  0.00     0.080 C 
HETATM   18  C6  UNL     1      -9.279   6.347  12.412  1.00  0.00     0.020 C 
BRANCH  17  19
HETATM   19  C4  UNL     1      -8.288   6.094  14.652  1.00  0.00     0.222 C 
HETATM   20  N1  UNL     1      -8.618   7.437  14.657  1.00  0.00    -0.359 N 
HETATM   21  H8  UNL     1      -9.285   7.742  13.959  1.00  0.00     0.162 HD
HETATM   22  O2  UNL     1      -7.913   5.496  15.655  1.00  0.00    -0.273 OA
BRANCH  20  23
HETATM   23  C3  UNL     1      -8.681   8.160  15.919  1.00  0.00     0.148 C 
BRANCH  23  24
HETATM   24  C2  UNL     1     -10.110   8.628  16.222  1.00  0.00     0.186 C 
BRANCH  24  25
HETATM   25  O1  UNL     1     -10.969   8.382  15.099  1.00  0.00    -0.394 OA
HETATM   26  C1  UNL     1     -12.315   8.772  15.337  1.00  0.00     0.201 C 
ENDBRANCH  24  25
ENDBRANCH  23  24
ENDBRANCH  20  23
ENDBRANCH  17  19
ENDBRANCH   1  17
BRANCH  16  27
HETATM   27  O4  UNL     1      -5.905   6.790  13.462  1.00  0.00    -0.395 OA
HETATM   28  H35 UNL     1      -6.144   7.190  12.606  1.00  0.00     0.210 HD
ENDBRANCH  16  27
BRANCH  11  29
HETATM   29  C16 UNL     1       1.292   5.129  11.279  1.00  0.00     0.240 C 
BRANCH  29  30
HETATM   30  O3  UNL     1       1.436   6.553  11.333  1.00  0.00    -0.345 OA
BRANCH  30  31
HETATM   31  C17 UNL     1       2.082   7.189  10.309  1.00  0.00     0.070 A 
HETATM   32  C18 UNL     1       3.233   7.970  10.423  1.00  0.00     0.037 A 
HETATM   33  C19 UNL     1       3.796   8.563   9.289  1.00  0.00     0.004 A 
HETATM   34  C20 UNL     1       3.217   8.369   8.036  1.00  0.00     0.024 A 
HETATM   35  C21 UNL     1       2.081   7.571   7.920  1.00  0.00     0.036 A 
HETATM   36 CL1  UNL     1       1.371   7.319   6.373  1.00  0.00    -0.084 Cl
HETATM   37  C22 UNL     1       1.518   6.980   9.049  1.00  0.00     0.060 A 
ENDBRANCH  30  31
ENDBRANCH  29  30
ENDBRANCH  11  29
TORSDOF 9
ENDMDL
MODEL 3
REMARK minimizedAffinity -9.25142097
REMARK CNNscore 0.362654537
REMARK CNNaffinity 7.08923292
REMARK  9 active torsions:
REMARK  status: ('A' for Active; 'I' for Inactive)
REMARK    1  A    between atoms: O1_2  and  C2_3 
REMARK    2  A    between atoms: C2_3  and  C3_4 
REMARK    3  A    between atoms: C3_4  and  N1_5 
REMARK       I    between atoms: N1_5  and  C4_6 
REMARK    4  A    between atoms: C4_6  and  C5_8 
REMARK    5  A    between atoms: C5_8  and  C7_10 
REMARK    6  A    between atoms: C15_20  and  C16_21 
REMARK    7  A    between atoms: C16_21  and  O3_22 
REMARK    8  A    between atoms: O3_22  and  C17_23 
REMARK    9  A    between atoms: C26_34  and  O4_35 
ROOT
HETATM    1  C7  UNL     1      -3.520   4.317  11.925  1.00  0.00     0.027 C 
HETATM    2  C8  UNL     1      -2.834   4.750  13.240  1.00  0.00     0.009 C 
HETATM    3  C9  UNL     1      -3.792   5.118  14.373  1.00  0.00     0.010 C 
HETATM    4  C10 UNL     1      -5.057   5.877  13.923  1.00  0.00    -0.033 C 
HETATM    5  C11 UNL     1      -4.635   7.248  13.328  1.00  0.00     0.016 C 
HETATM    6  C12 UNL     1      -5.903   6.183  15.206  1.00  0.00     0.058 C 
HETATM    7  C13 UNL     1      -7.319   6.429  14.842  1.00  0.00     0.008 A 
HETATM    8  C14 UNL     1      -7.979   5.709  13.877  1.00  0.00     0.027 A 
HETATM    9  N2  UNL     1      -9.289   6.069  13.662  1.00  0.00    -0.354 N 
ATOM     10  H2  UNL     1      -9.907   5.656  12.963  1.00  0.00     0.166 HD
HETATM   11  C15 UNL     1      -9.622   7.035  14.503  1.00  0.00     0.076 A 
HETATM   12  S1  UNL     1      -8.345   7.581  15.536  1.00  0.00    -0.077 SA
HETATM   13  C23 UNL     1      -7.297   4.610  13.126  1.00  0.00     0.040 C 
HETATM   14  C24 UNL     1      -7.399   3.296  13.910  1.00  0.00     0.017 C 
HETATM   15  C25 UNL     1      -5.822   5.050  12.794  1.00  0.00     0.033 C 
HETATM   16  C26 UNL     1      -4.976   3.884  12.215  1.00  0.00     0.128 C 
ENDROOT
BRANCH   1  17
HETATM   17  C5  UNL     1      -2.677   3.240  11.177  1.00  0.00     0.080 C 
HETATM   18  C6  UNL     1      -2.955   1.812  11.670  1.00  0.00     0.020 C 
BRANCH  17  19
HETATM   19  C4  UNL     1      -1.166   3.456  11.268  1.00  0.00     0.222 C 
HETATM   20  N1  UNL     1      -0.749   4.762  11.096  1.00  0.00    -0.359 N 
HETATM   21  H8  UNL     1      -1.430   5.485  11.292  1.00  0.00     0.162 HD
HETATM   22  O2  UNL     1      -0.395   2.541  11.540  1.00  0.00    -0.273 OA
BRANCH  20  23
HETATM   23  C3  UNL     1       0.629   5.127  11.393  1.00  0.00     0.148 C 
BRANCH  23  24
HETATM   24  C2  UNL     1       1.138   6.210  10.434  1.00  0.00     0.186 C 
BRANCH  24  25
HETATM   25  O1  UNL     1       1.895   5.622   9.366  1.00  0.00    -0.394 OA
HETATM   26  C1  UNL     1       3.175   6.218   9.202  1.00  0.00     0.201 C 
ENDBRANCH  24  25
ENDBRANCH  23  24
ENDBRANCH  20  23
ENDBRANCH  17  19
ENDBRANCH   1  17
BRANCH  16  27
HETATM   27  O4  UNL     1      -5.629   3.405  11.048  1.00  0.00    -0.395 OA
HETATM   28  H35 UNL     1      -5.500   4.043  10.324  1.00  0.00     0.210 HD
ENDBRANCH  16  27
BRANCH  11  29
HETATM   29  C16 UNL     1     -10.975   7.678  14.580  1.00  0.00     0.240 C 
BRANCH  29  30
HETATM   30  O3  UNL     1     -11.730   7.367  13.402  1.00  0.00    -0.345 OA
BRANCH  30  31
HETATM   31  C17 UNL     1     -13.010   6.909  13.542  1.00  0.00     0.070 A 
HETATM   32  C18 UNL     1     -13.434   5.909  14.420  1.00  0.00     0.037 A 
HETATM   33  C19 UNL     1     -14.781   5.537  14.465  1.00  0.00     0.004 A 
HETATM   34  C20 UNL     1     -15.711   6.170  13.642  1.00  0.00     0.024 A 
HETATM   35  C21 UNL     1     -15.290   7.182  12.782  1.00  0.00     0.036 A 
HETATM   36 CL1  UNL     1     -16.438   7.974  11.773  1.00  0.00    -0.084 Cl
HETATM   37  C22 UNL     1     -13.949   7.555  12.734  1.00  0.00     0.060 A 
ENDBRANCH  30  31
ENDBRANCH  29  30
ENDBRANCH  11  29
TORSDOF 9
ENDMDL
MODEL 4
REMARK minimizedAffinity -8.27964497
REMARK CNNscore 0.329932094
REMARK CNNaffinity 6.95255327
REMARK  9 active torsions:
REMARK  status: ('A' for Active; 'I' for Inactive)
REMARK    1  A    between atoms: O1_2  and  C2_3 
REMARK    2  A    between atoms: C2_3  and  C3_4 
REMARK    3  A    between atoms: C3_4  and  N1_5 
REMARK       I    between atoms: N1_5  and  C4_6 
REMARK    4  A    between atoms: C4_6  and  C5_8 
REMARK    5  A    between atoms: C5_8  and  C7_10 
REMARK    6  A    between atoms: C15_20  and  C16_21 
REMARK    7  A    between atoms: C16_21  and  O3_22 
REMARK    8  A    between atoms: O3_22  and  C17_23 
REMARK    9  A    between atoms: C26_34  and  O4_35 
ROOT
HETATM    1  C7  UNL     1      -7.198   6.062  13.480  1.00  0.00     0.027 C 
HETATM    2  C8  UNL     1      -7.361   4.525  13.495  1.00  0.00     0.009 C 
HETATM    3  C9  UNL     1      -6.050   3.740  13.541  1.00  0.00     0.010 C 
HETATM    4  C10 UNL     1      -4.910   4.346  12.699  1.00  0.00    -0.033 C 
HETATM    5  C11 UNL     1      -5.317   4.309  11.200  1.00  0.00     0.016 C 
HETATM    6  C12 UNL     1      -3.664   3.409  12.850  1.00  0.00     0.058 C 
HETATM    7  C13 UNL     1      -2.420   4.148  12.523  1.00  0.00     0.008 A 
HETATM    8  C14 UNL     1      -2.206   5.452  12.894  1.00  0.00     0.027 A 
HETATM    9  N2  UNL     1      -1.000   5.988  12.506  1.00  0.00    -0.354 N 
ATOM     10  H2  UNL     1      -0.699   6.948  12.675  1.00  0.00     0.166 HD
HETATM   11  C15 UNL     1      -0.291   5.063  11.880  1.00  0.00     0.076 A 
HETATM   12  S1  UNL     1      -1.084   3.537  11.684  1.00  0.00    -0.077 SA
HETATM   13  C23 UNL     1      -3.231   6.217  13.670  1.00  0.00     0.040 C 
HETATM   14  C24 UNL     1      -3.055   5.959  15.171  1.00  0.00     0.017 C 
HETATM   15  C25 UNL     1      -4.664   5.866  13.118  1.00  0.00     0.033 C 
HETATM   16  C26 UNL     1      -5.796   6.441  14.011  1.00  0.00     0.128 C 
ENDROOT
BRANCH   1  17
HETATM   17  C5  UNL     1      -8.370   6.761  14.233  1.00  0.00     0.080 C 
HETATM   18  C6  UNL     1      -8.498   6.310  15.695  1.00  0.00     0.020 C 
BRANCH  17  19
HETATM   19  C4  UNL     1      -9.739   6.557  13.583  1.00  0.00     0.222 C 
HETATM   20  N1  UNL     1     -10.809   6.556  14.459  1.00  0.00    -0.359 N 
HETATM   21  H8  UNL     1     -10.674   7.037  15.340  1.00  0.00     0.162 HD
HETATM   22  O2  UNL     1      -9.873   6.466  12.368  1.00  0.00    -0.273 OA
BRANCH  20  23
HETATM   23  C3  UNL     1     -12.168   6.607  13.940  1.00  0.00     0.148 C 
BRANCH  23  24
HETATM   24  C2  UNL     1     -12.588   8.046  13.616  1.00  0.00     0.186 C 
BRANCH  24  25
HETATM   25  O1  UNL     1     -13.778   8.056  12.815  1.00  0.00    -0.394 OA
HETATM   26  C1  UNL     1     -14.431   9.319  12.809  1.00  0.00     0.201 C 
ENDBRANCH  24  25
ENDBRANCH  23  24
ENDBRANCH  20  23
ENDBRANCH  17  19
ENDBRANCH   1  17
BRANCH  16  27
HETATM   27  O4  UNL     1      -5.622   7.850  14.087  1.00  0.00    -0.395 OA
HETATM   28  H35 UNL     1      -5.892   8.252  13.243  1.00  0.00     0.210 HD
ENDBRANCH  16  27
BRANCH  11  29
HETATM   29  C16 UNL     1       1.087   5.268  11.323  1.00  0.00     0.240 C 
BRANCH  29  30
HETATM   30  O3  UNL     1       1.006   5.574   9.926  1.00  0.00    -0.345 OA
BRANCH  30  31
HETATM   31  C17 UNL     1       1.803   6.565   9.422  1.00  0.00     0.070 A 
HETATM   32  C18 UNL     1       1.516   7.367   8.316  1.00  0.00     0.037 A 
HETATM   33  C19 UNL     1       2.421   8.351   7.907  1.00  0.00     0.004 A 
HETATM   34  C20 UNL     1       3.611   8.543   8.606  1.00  0.00     0.024 A 
HETATM   35  C21 UNL     1       3.887   7.756   9.722  1.00  0.00     0.036 A 
HETATM   36 CL1  UNL     1       5.349   7.999  10.596  1.00  0.00    -0.084 Cl
HETATM   37  C22 UNL     1       2.987   6.775  10.132  1.00  0.00     0.060 A 
ENDBRANCH  30  31
ENDBRANCH  29  30
ENDBRANCH  11  29
TORSDOF 9
ENDMDL
MODEL 5
REMARK minimizedAffinity -9.26203442
REMARK CNNscore 0.318614006
REMARK CNNaffinity 7.07023048
REMARK  9 active torsions:
REMARK  status: ('A' for Active; 'I' for Inactive)
REMARK    1  A    between atoms: O1_2  and  C2_3 
REMARK    2  A    between atoms: C2_3  and  C3_4 
REMARK    3  A    between atoms: C3_4  and  N1_5 
REMARK       I    between atoms: N1_5  and  C4_6 
REMARK    4  A    between atoms: C4_6  and  C5_8 
REMARK    5  A    between atoms: C5_8  and  C7_10 
REMARK    6  A    between atoms: C15_20  and  C16_21 
REMARK    7  A    between atoms: C16_21  and  O3_22 
REMARK    8  A    between atoms: O3_22  and  C17_23 
REMARK    9  A    between atoms: C26_34  and  O4_35 
ROOT
HETATM    1  C7  UNL     1      -3.532   4.403  11.936  1.00  0.00     0.027 C 
HETATM    2  C8  UNL     1      -2.899   4.889  13.259  1.00  0.00     0.009 C 
HETATM    3  C9  UNL     1      -3.900   5.219  14.366  1.00  0.00     0.010 C 
HETATM    4  C10 UNL     1      -5.194   5.903  13.879  1.00  0.00    -0.033 C 
HETATM    5  C11 UNL     1      -4.834   7.288  13.274  1.00  0.00     0.016 C 
HETATM    6  C12 UNL     1      -6.083   6.180  15.138  1.00  0.00     0.058 C 
HETATM    7  C13 UNL     1      -7.503   6.344  14.741  1.00  0.00     0.008 A 
HETATM    8  C14 UNL     1      -8.101   5.577  13.772  1.00  0.00     0.027 A 
HETATM    9  N2  UNL     1      -9.424   5.863  13.524  1.00  0.00    -0.354 N 
ATOM     10  H2  UNL     1     -10.003   5.408  12.818  1.00  0.00     0.166 HD
HETATM   11  C15 UNL     1      -9.826   6.820  14.344  1.00  0.00     0.076 A 
HETATM   12  S1  UNL     1      -8.604   7.448  15.396  1.00  0.00    -0.077 SA
HETATM   13  C23 UNL     1      -7.344   4.507  13.052  1.00  0.00     0.040 C 
HETATM   14  C24 UNL     1      -7.394   3.199  13.852  1.00  0.00     0.017 C 
HETATM   15  C25 UNL     1      -5.889   5.021  12.745  1.00  0.00     0.033 C 
HETATM   16  C26 UNL     1      -4.968   3.895  12.201  1.00  0.00     0.128 C 
ENDROOT
BRANCH   1  17
HETATM   17  C5  UNL     1      -2.616   3.363  11.222  1.00  0.00     0.080 C 
HETATM   18  C6  UNL     1      -2.861   1.923  11.694  1.00  0.00     0.020 C 
BRANCH  17  19
HETATM   19  C4  UNL     1      -1.119   3.635  11.383  1.00  0.00     0.222 C 
HETATM   20  N1  UNL     1      -0.704   4.888  10.975  1.00  0.00    -0.359 N 
HETATM   21  H8  UNL     1      -1.406   5.617  10.964  1.00  0.00     0.162 HD
HETATM   22  O2  UNL     1      -0.363   2.817  11.898  1.00  0.00    -0.273 OA
BRANCH  20  23
HETATM   23  C3  UNL     1       0.641   5.344  11.296  1.00  0.00     0.148 C 
BRANCH  23  24
HETATM   24  C2  UNL     1       1.206   6.238  10.186  1.00  0.00     0.186 C 
BRANCH  24  25
HETATM   25  O1  UNL     1       2.173   5.521   9.405  1.00  0.00    -0.394 OA
HETATM   26  C1  UNL     1       2.621   6.253   8.271  1.00  0.00     0.201 C 
ENDBRANCH  24  25
ENDBRANCH  23  24
ENDBRANCH  20  23
ENDBRANCH  17  19
ENDBRANCH   1  17
BRANCH  16  27
HETATM   27  O4  UNL     1      -5.569   3.367  11.027  1.00  0.00    -0.395 OA
HETATM   28  H35 UNL     1      -5.458   4.002  10.297  1.00  0.00     0.210 HD
ENDBRANCH  16  27
BRANCH  11  29
HETATM   29  C16 UNL     1     -11.214   7.390  14.382  1.00  0.00     0.240 C 
BRANCH  29  30
HETATM   30  O3  UNL     1     -12.172   6.332  14.506  1.00  0.00    -0.345 OA
BRANCH  30  31
HETATM   31  C17 UNL     1     -13.405   6.491  13.938  1.00  0.00     0.070 A 
HETATM   32  C18 UNL     1     -13.712   7.321  12.859  1.00  0.00     0.037 A 
HETATM   33  C19 UNL     1     -15.022   7.388  12.373  1.00  0.00     0.004 A 
HETATM   34  C20 UNL     1     -16.026   6.617  12.956  1.00  0.00     0.024 A 
HETATM   35  C21 UNL     1     -15.714   5.772  14.019  1.00  0.00     0.036 A 
HETATM   36 CL1  UNL     1     -16.949   4.810  14.733  1.00  0.00    -0.084 Cl
HETATM   37  C22 UNL     1     -14.411   5.705  14.506  1.00  0.00     0.060 A 
ENDBRANCH  30  31
ENDBRANCH  29  30
ENDBRANCH  11  29
TORSDOF 9
ENDMDL
MODEL 6
REMARK minimizedAffinity -6.48548985
REMARK CNNscore 0.256777316
REMARK CNNaffinity 6.10783005
REMARK  9 active torsions:
REMARK  status: ('A' for Active; 'I' for Inactive)
REMARK    1  A    between atoms: O1_2  and  C2_3 
REMARK    2  A    between atoms: C2_3  and  C3_4 
REMARK    3  A    between atoms: C3_4  and  N1_5 
REMARK       I    between atoms: N1_5  and  C4_6 
REMARK    4  A    between atoms: C4_6  and  C5_8 
REMARK    5  A    between atoms: C5_8  and  C7_10 
REMARK    6  A    between atoms: C15_20  and  C16_21 
REMARK    7  A    between atoms: C16_21  and  O3_22 
REMARK    8  A    between atoms: O3_22  and  C17_23 
REMARK    9  A    between atoms: C26_34  and  O4_35 
ROOT
HETATM    1  C7  UNL     1      -3.451  12.209  15.264  1.00  0.00     0.027 C 
HETATM    2  C8  UNL     1      -4.026  11.284  16.361  1.00  0.00     0.009 C 
HETATM    3  C9  UNL     1      -3.393   9.894  16.426  1.00  0.00     0.010 C 
HETATM    4  C10 UNL     1      -3.056   9.278  15.053  1.00  0.00    -0.033 C 
HETATM    5  C11 UNL     1      -4.375   9.054  14.264  1.00  0.00     0.016 C 
HETATM    6  C12 UNL     1      -2.439   7.862  15.310  1.00  0.00     0.058 C 
HETATM    7  C13 UNL     1      -1.634   7.429  14.142  1.00  0.00     0.008 A 
HETATM    8  C14 UNL     1      -0.831   8.285  13.430  1.00  0.00     0.027 A 
HETATM    9  N2  UNL     1      -0.156   7.720  12.373  1.00  0.00    -0.354 N 
ATOM     10  H2  UNL     1       0.455   8.222  11.728  1.00  0.00     0.166 HD
HETATM   11  C15 UNL     1      -0.424   6.426  12.323  1.00  0.00     0.076 A 
HETATM   12  S1  UNL     1      -1.548   5.862  13.512  1.00  0.00    -0.077 SA
HETATM   13  C23 UNL     1      -0.712   9.729  13.802  1.00  0.00     0.040 C 
HETATM   14  C24 UNL     1       0.368   9.908  14.875  1.00  0.00     0.017 C 
HETATM   15  C25 UNL     1      -2.130  10.273  14.215  1.00  0.00     0.033 C 
HETATM   16  C26 UNL     1      -2.058  11.698  14.829  1.00  0.00     0.128 C 
ENDROOT
BRANCH   1  17
HETATM   17  C5  UNL     1      -3.464  13.700  15.719  1.00  0.00     0.080 C 
HETATM   18  C6  UNL     1      -4.261  13.925  17.012  1.00  0.00     0.020 C 
BRANCH  17  19
HETATM   19  C4  UNL     1      -4.026  14.666  14.676  1.00  0.00     0.222 C 
HETATM   20  N1  UNL     1      -5.004  15.526  15.140  1.00  0.00    -0.359 N 
HETATM   21  H8  UNL     1      -5.007  15.713  16.135  1.00  0.00     0.162 HD
HETATM   22  O2  UNL     1      -3.589  14.710  13.531  1.00  0.00    -0.273 OA
BRANCH  20  23
HETATM   23  C3  UNL     1      -5.441  16.639  14.310  1.00  0.00     0.148 C 
BRANCH  23  24
HETATM   24  C2  UNL     1      -4.518  17.852  14.472  1.00  0.00     0.186 C 
BRANCH  24  25
HETATM   25  O1  UNL     1      -5.288  19.054  14.627  1.00  0.00    -0.394 OA
HETATM   26  C1  UNL     1      -6.378  18.900  15.526  1.00  0.00     0.201 C 
ENDBRANCH  24  25
ENDBRANCH  23  24
ENDBRANCH  20  23
ENDBRANCH  17  19
ENDBRANCH   1  17
BRANCH  16  27
HETATM   27  O4  UNL     1      -1.453  12.557  13.873  1.00  0.00    -0.395 OA
HETATM   28  H35 UNL     1      -2.091  12.744  13.161  1.00  0.00     0.210 HD
ENDBRANCH  16  27
BRANCH  11  29
HETATM   29  C16 UNL     1       0.141   5.470  11.312  1.00  0.00     0.240 C 
BRANCH  29  30
HETATM   30  O3  UNL     1       1.572   5.505  11.357  1.00  0.00    -0.345 OA
BRANCH  30  31
HETATM   31  C17 UNL     1       2.235   6.379  10.540  1.00  0.00     0.070 A 
HETATM   32  C18 UNL     1       3.292   7.212  10.913  1.00  0.00     0.037 A 
HETATM   33  C19 UNL     1       3.885   8.059   9.972  1.00  0.00     0.004 A 
HETATM   34  C20 UNL     1       3.433   8.070   8.654  1.00  0.00     0.024 A 
HETATM   35  C21 UNL     1       2.392   7.223   8.278  1.00  0.00     0.036 A 
HETATM   36 CL1  UNL     1       1.838   7.224   6.649  1.00  0.00    -0.084 Cl
HETATM   37  C22 UNL     1       1.798   6.378   9.213  1.00  0.00     0.060 A 
ENDBRANCH  30  31
ENDBRANCH  29  30
ENDBRANCH  11  29
TORSDOF 9
ENDMDL
MODEL 7
REMARK minimizedAffinity -6.75055647
REMARK CNNscore 0.223090574
REMARK CNNaffinity 6.08713388
REMARK  9 active torsions:
REMARK  status: ('A' for Active; 'I' for Inactive)
REMARK    1  A    between atoms: O1_2  and  C2_3 
REMARK    2  A    between atoms: C2_3  and  C3_4 
REMARK    3  A    between atoms: C3_4  and  N1_5 
REMARK       I    between atoms: N1_5  and  C4_6 
REMARK    4  A    between atoms: C4_6  and  C5_8 
REMARK    5  A    between atoms: C5_8  and  C7_10 
REMARK    6  A    between atoms: C15_20  and  C16_21 
REMARK    7  A    between atoms: C16_21  and  O3_22 
REMARK    8  A    between atoms: O3_22  and  C17_23 
REMARK    9  A    between atoms: C26_34  and  O4_35 
ROOT
HETATM    1  C7  UNL     1      -2.860  11.409  15.563  1.00  0.00     0.027 C 
HETATM    2  C8  UNL     1      -2.988  10.485  16.795  1.00  0.00     0.009 C 
HETATM    3  C9  UNL     1      -2.076   9.259  16.775  1.00  0.00     0.010 C 
HETATM    4  C10 UNL     1      -1.905   8.608  15.388  1.00  0.00    -0.033 C 
HETATM    5  C11 UNL     1      -3.279   8.060  14.915  1.00  0.00     0.016 C 
HETATM    6  C12 UNL     1      -0.962   7.369  15.561  1.00  0.00     0.058 C 
HETATM    7  C13 UNL     1      -0.340   7.008  14.264  1.00  0.00     0.008 A 
HETATM    8  C14 UNL     1       0.100   7.943  13.360  1.00  0.00     0.027 A 
HETATM    9  N2  UNL     1       0.648   7.437  12.204  1.00  0.00    -0.354 N 
ATOM     10  H2  UNL     1       0.993   7.993  11.422  1.00  0.00     0.166 HD
HETATM   11  C15 UNL     1       0.656   6.115  12.265  1.00  0.00     0.076 A 
HETATM   12  S1  UNL     1      -0.055   5.442  13.693  1.00  0.00    -0.077 SA
HETATM   13  C23 UNL     1      -0.017   9.408  13.639  1.00  0.00     0.040 C 
HETATM   14  C24 UNL     1       1.197   9.888  14.443  1.00  0.00     0.017 C 
HETATM   15  C25 UNL     1      -1.403   9.693  14.330  1.00  0.00     0.033 C 
HETATM   16  C26 UNL     1      -1.510  11.150  14.855  1.00  0.00     0.128 C 
ENDROOT
BRANCH   1  17
HETATM   17  C5  UNL     1      -3.095  12.901  15.950  1.00  0.00     0.080 C 
HETATM   18  C6  UNL     1      -1.994  13.465  16.859  1.00  0.00     0.020 C 
BRANCH  17  19
HETATM   19  C4  UNL     1      -4.429  13.161  16.652  1.00  0.00     0.222 C 
HETATM   20  N1  UNL     1      -5.479  13.486  15.814  1.00  0.00    -0.359 N 
HETATM   21  H8  UNL     1      -5.404  13.177  14.853  1.00  0.00     0.162 HD
HETATM   22  O2  UNL     1      -4.561  13.025  17.864  1.00  0.00    -0.273 OA
BRANCH  20  23
HETATM   23  C3  UNL     1      -6.837  13.523  16.338  1.00  0.00     0.148 C 
BRANCH  23  24
HETATM   24  C2  UNL     1      -7.565  14.802  15.907  1.00  0.00     0.186 C 
BRANCH  24  25
HETATM   25  O1  UNL     1      -6.708  15.623  15.100  1.00  0.00    -0.394 OA
HETATM   26  C1  UNL     1      -7.413  16.643  14.406  1.00  0.00     0.201 C 
ENDBRANCH  24  25
ENDBRANCH  23  24
ENDBRANCH  20  23
ENDBRANCH  17  19
ENDBRANCH   1  17
BRANCH  16  27
HETATM   27  O4  UNL     1      -1.310  12.028  13.757  1.00  0.00    -0.395 OA
HETATM   28  H35 UNL     1      -2.106  12.024  13.194  1.00  0.00     0.210 HD
ENDBRANCH  16  27
BRANCH  11  29
HETATM   29  C16 UNL     1       1.191   5.209  11.196  1.00  0.00     0.240 C 
BRANCH  29  30
HETATM   30  O3  UNL     1       2.555   5.544  10.911  1.00  0.00    -0.345 OA
BRANCH  30  31
HETATM   31  C17 UNL     1       2.814   6.547  10.019  1.00  0.00     0.070 A 
HETATM   32  C18 UNL     1       3.672   7.629  10.225  1.00  0.00     0.037 A 
HETATM   33  C19 UNL     1       3.850   8.587   9.223  1.00  0.00     0.004 A 
HETATM   34  C20 UNL     1       3.180   8.462   8.007  1.00  0.00     0.024 A 
HETATM   35  C21 UNL     1       2.340   7.371   7.795  1.00  0.00     0.036 A 
HETATM   36 CL1  UNL     1       1.520   7.207   6.290  1.00  0.00    -0.084 Cl
HETATM   37  C22 UNL     1       2.160   6.415   8.792  1.00  0.00     0.060 A 
ENDBRANCH  30  31
ENDBRANCH  29  30
ENDBRANCH  11  29
TORSDOF 9
ENDMDL
MODEL 8
REMARK minimizedAffinity -7.09985542
REMARK CNNscore 0.216903552
REMARK CNNaffinity 7.02702475
REMARK  9 active torsions:
REMARK  status: ('A' for Active; 'I' for Inactive)
REMARK    1  A    between atoms: O1_2  and  C2_3 
REMARK    2  A    between atoms: C2_3  and  C3_4 
REMARK    3  A    between atoms: C3_4  and  N1_5 
REMARK       I    between atoms: N1_5  and  C4_6 
REMARK    4  A    between atoms: C4_6  and  C5_8 
REMARK    5  A    between atoms: C5_8  and  C7_10 
REMARK    6  A    between atoms: C15_20  and  C16_21 
REMARK    7  A    between atoms: C16_21  and  O3_22 
REMARK    8  A    between atoms: O3_22  and  C17_23 
REMARK    9  A    between atoms: C26_34  and  O4_35 
ROOT
HETATM    1  C7  UNL     1      -1.052   5.350  13.409  1.00  0.00     0.027 C 
HETATM    2  C8  UNL     1      -1.468   4.588  12.131  1.00  0.00     0.009 C 
HETATM    3  C9  UNL     1      -2.909   4.827  11.681  1.00  0.00     0.010 C 
HETATM    4  C10 UNL     1      -3.931   4.939  12.831  1.00  0.00    -0.033 C 
HETATM    5  C11 UNL     1      -3.993   3.581  13.583  1.00  0.00     0.016 C 
HETATM    6  C12 UNL     1      -5.341   5.163  12.188  1.00  0.00     0.058 C 
HETATM    7  C13 UNL     1      -6.264   5.781  13.171  1.00  0.00     0.008 A 
HETATM    8  C14 UNL     1      -5.872   6.758  14.051  1.00  0.00     0.027 A 
HETATM    9  N2  UNL     1      -6.853   7.220  14.898  1.00  0.00    -0.354 N 
ATOM     10  H2  UNL     1      -6.721   7.920  15.628  1.00  0.00     0.166 HD
HETATM   11  C15 UNL     1      -7.995   6.614  14.618  1.00  0.00     0.076 A 
HETATM   12  S1  UNL     1      -7.906   5.422  13.366  1.00  0.00    -0.077 SA
HETATM   13  C23 UNL     1      -4.467   7.272  14.067  1.00  0.00     0.040 C 
HETATM   14  C24 UNL     1      -4.308   8.398  13.038  1.00  0.00     0.017 C 
HETATM   15  C25 UNL     1      -3.475   6.067  13.864  1.00  0.00     0.033 C 
HETATM   16  C26 UNL     1      -2.012   6.539  13.642  1.00  0.00     0.128 C 
ENDROOT
BRANCH   1  17
HETATM   17  C5  UNL     1       0.453   5.753  13.361  1.00  0.00     0.080 C 
HETATM   18  C6  UNL     1       0.836   6.772  14.444  1.00  0.00     0.020 C 
BRANCH  17  19
HETATM   19  C4  UNL     1       0.900   6.339  12.021  1.00  0.00     0.222 C 
HETATM   20  N1  UNL     1       1.895   5.630  11.374  1.00  0.00    -0.359 N 
HETATM   21  H8  UNL     1       1.981   4.650  11.613  1.00  0.00     0.162 HD
HETATM   22  O2  UNL     1       0.363   7.329  11.535  1.00  0.00    -0.273 OA
BRANCH  20  23
HETATM   23  C3  UNL     1       2.233   5.953   9.996  1.00  0.00     0.148 C 
BRANCH  23  24
HETATM   24  C2  UNL     1       3.538   6.754   9.915  1.00  0.00     0.186 C 
BRANCH  24  25
HETATM   25  O1  UNL     1       4.261   6.664  11.152  1.00  0.00    -0.394 OA
HETATM   26  C1  UNL     1       5.663   6.517  10.963  1.00  0.00     0.201 C 
ENDBRANCH  24  25
ENDBRANCH  23  24
ENDBRANCH  20  23
ENDBRANCH  17  19
ENDBRANCH   1  17
BRANCH  16  27
HETATM   27  O4  UNL     1      -1.628   7.318  14.767  1.00  0.00    -0.395 OA
HETATM   28  H35 UNL     1      -1.471   6.729  15.526  1.00  0.00     0.210 HD
ENDBRANCH  16  27
BRANCH  11  29
HETATM   29  C16 UNL     1      -9.297   6.866  15.320  1.00  0.00     0.240 C 
BRANCH  29  30
HETATM   30  O3  UNL     1      -9.884   8.080  14.836  1.00  0.00    -0.345 OA
BRANCH  30  31
HETATM   31  C17 UNL     1     -11.096   8.020  14.207  1.00  0.00     0.070 A 
HETATM   32  C18 UNL     1     -11.582   8.934  13.270  1.00  0.00     0.037 A 
HETATM   33  C19 UNL     1     -12.844   8.751  12.698  1.00  0.00     0.004 A 
HETATM   34  C20 UNL     1     -13.621   7.650  13.051  1.00  0.00     0.024 A 
HETATM   35  C21 UNL     1     -13.126   6.726  13.970  1.00  0.00     0.036 A 
HETATM   36 CL1  UNL     1     -14.077   5.358  14.399  1.00  0.00    -0.084 Cl
HETATM   37  C22 UNL     1     -11.869   6.906  14.542  1.00  0.00     0.060 A 
ENDBRANCH  30  31
ENDBRANCH  29  30
ENDBRANCH  11  29
TORSDOF 9
ENDMDL
MODEL 9
REMARK minimizedAffinity -9.55384064
REMARK CNNscore 0.211068004
REMARK CNNaffinity 6.50191307
REMARK  9 active torsions:
REMARK  status: ('A' for Active; 'I' for Inactive)
REMARK    1  A    between atoms: O1_2  and  C2_3 
REMARK    2  A    between atoms: C2_3  and  C3_4 
REMARK    3  A    between atoms: C3_4  and  N1_5 
REMARK       I    between atoms: N1_5  and  C4_6 
REMARK    4  A    between atoms: C4_6  and  C5_8 
REMARK    5  A    between atoms: C5_8  and  C7_10 
REMARK    6  A    between atoms: C15_20  and  C16_21 
REMARK    7  A    between atoms: C16_21  and  O3_22 
REMARK    8  A    between atoms: O3_22  and  C17_23 
REMARK    9  A    between atoms: C26_34  and  O4_35 
ROOT
HETATM    1  C7  UNL     1      -5.930   3.884  12.397  1.00  0.00     0.027 C 
HETATM    2  C8  UNL     1      -5.293   2.504  12.116  1.00  0.00     0.009 C 
HETATM    3  C9  UNL     1      -3.769   2.464  12.233  1.00  0.00     0.010 C 
HETATM    4  C10 UNL     1      -3.052   3.722  11.703  1.00  0.00    -0.033 C 
HETATM    5  C11 UNL     1      -3.309   3.841  10.175  1.00  0.00     0.016 C 
HETATM    6  C12 UNL     1      -1.512   3.498  11.885  1.00  0.00     0.058 C 
HETATM    7  C13 UNL     1      -0.800   4.799  11.895  1.00  0.00     0.008 A 
HETATM    8  C14 UNL     1      -1.295   5.917  12.518  1.00  0.00     0.027 A 
HETATM    9  N2  UNL     1      -0.508   7.042  12.427  1.00  0.00    -0.354 N 
ATOM     10  H2  UNL     1      -0.745   7.959  12.807  1.00  0.00     0.166 HD
HETATM   11  C15 UNL     1       0.602   6.749  11.770  1.00  0.00     0.076 A 
HETATM   12  S1  UNL     1       0.702   5.123  11.186  1.00  0.00    -0.077 SA
HETATM   13  C23 UNL     1      -2.604   5.888  13.242  1.00  0.00     0.040 C 
HETATM   14  C24 UNL     1      -2.396   5.407  14.683  1.00  0.00     0.017 C 
HETATM   15  C25 UNL     1      -3.631   5.027  12.415  1.00  0.00     0.033 C 
HETATM   16  C26 UNL     1      -4.942   4.759  13.203  1.00  0.00     0.128 C 
ENDROOT
BRANCH   1  17
HETATM   17  C5  UNL     1      -7.331   3.733  13.064  1.00  0.00     0.080 C 
HETATM   18  C6  UNL     1      -8.069   2.460  12.628  1.00  0.00     0.020 C 
BRANCH  17  19
HETATM   19  C4  UNL     1      -8.276   4.907  12.801  1.00  0.00     0.222 C 
HETATM   20  N1  UNL     1      -8.827   5.480  13.932  1.00  0.00    -0.359 N 
HETATM   21  H8  UNL     1      -8.316   5.356  14.798  1.00  0.00     0.162 HD
HETATM   22  O2  UNL     1      -8.474   5.340  11.671  1.00  0.00    -0.273 OA
BRANCH  20  23
HETATM   23  C3  UNL     1      -9.548   6.740  13.826  1.00  0.00     0.148 C 
BRANCH  23  24
HETATM   24  C2  UNL     1      -9.133   7.715  14.934  1.00  0.00     0.186 C 
BRANCH  24  25
HETATM   25  O1  UNL     1      -8.990   7.026  16.184  1.00  0.00    -0.394 OA
HETATM   26  C1  UNL     1      -7.662   7.066  16.690  1.00  0.00     0.201 C 
ENDBRANCH  24  25
ENDBRANCH  23  24
ENDBRANCH  20  23
ENDBRANCH  17  19
ENDBRANCH   1  17
BRANCH  16  27
HETATM   27  O4  UNL     1      -5.509   6.014  13.552  1.00  0.00    -0.395 OA
HETATM   28  H35 UNL     1      -5.904   6.419  12.758  1.00  0.00     0.210 HD
ENDBRANCH  16  27
BRANCH  11  29
HETATM   29  C16 UNL     1       1.712   7.717  11.485  1.00  0.00     0.240 C 
BRANCH  29  30
HETATM   30  O3  UNL     1       2.676   7.110  10.616  1.00  0.00    -0.345 OA
BRANCH  30  31
HETATM   31  C17 UNL     1       2.414   7.062   9.274  1.00  0.00     0.070 A 
HETATM   32  C18 UNL     1       1.725   8.026   8.537  1.00  0.00     0.037 A 
HETATM   33  C19 UNL     1       1.529   7.854   7.163  1.00  0.00     0.004 A 
HETATM   34  C20 UNL     1       2.031   6.724   6.520  1.00  0.00     0.024 A 
HETATM   35  C21 UNL     1       2.738   5.773   7.253  1.00  0.00     0.036 A 
HETATM   36 CL1  UNL     1       3.370   4.383   6.460  1.00  0.00    -0.084 Cl
HETATM   37  C22 UNL     1       2.934   5.942   8.622  1.00  0.00     0.060 A 
ENDBRANCH  30  31
ENDBRANCH  29  30
ENDBRANCH  11  29
TORSDOF 9
ENDMDL
