MODEL 1
REMARK minimizedAffinity -7.47958279
REMARK CNNscore 0.329107106
REMARK CNNaffinity 7.20559645
REMARK  10 active torsions:
REMARK  status: ('A' for Active; 'I' for Inactive)
REMARK    1  A    between atoms: O1_2  and  C2_3 
REMARK    2  A    between atoms: C2_3  and  C3_4 
REMARK    3  A    between atoms: C3_4  and  C4_5 
REMARK    4  A    between atoms: C4_5  and  O2_6 
REMARK    5  A    between atoms: O2_6  and  C5_7 
REMARK    6  A    between atoms: C29_35  and  O6_36 
REMARK    7  A    between atoms: C30_38  and  O7_39 
REMARK    8  A    between atoms: C31_40  and  O8_42 
REMARK    9  A    between atoms: C38_48  and  O9_49 
REMARK   10  A    between atoms: C39_50  and  C40_51 
ROOT
HETATM    1  C5  UNL     1      -1.170  50.117 -17.295  1.00  0.00     0.122 C 
HETATM    2  C6  UNL     1       0.304  50.196 -16.868  1.00  0.00     0.033 C 
HETATM    3  C7  UNL     1       0.512  49.926 -15.380  1.00  0.00     0.014 C 
HETATM    4  C8  UNL     1      -0.270  50.930 -14.463  1.00  0.00    -0.010 C 
HETATM    5  C9  UNL     1       0.575  52.237 -14.453  1.00  0.00     0.018 C 
HETATM    6  C10 UNL     1      -1.625  51.355 -15.129  1.00  0.00     0.073 C 
HETATM    7  C11 UNL     1      -2.148  50.316 -16.128  1.00  0.00     0.045 C 
HETATM    8  C12 UNL     1      -2.731  51.825 -14.182  1.00  0.00     0.161 C 
HETATM    9  O3  UNL     1      -3.811  52.218 -14.626  1.00  0.00    -0.292 OA
HETATM   10  C13 UNL     1      -2.521  51.831 -12.705  1.00  0.00    -0.005 C 
HETATM   11  C14 UNL     1      -1.479  51.148 -12.182  1.00  0.00    -0.013 C 
HETATM   12  C15 UNL     1      -0.493  50.305 -12.994  1.00  0.00     0.058 C 
HETATM   13  C16 UNL     1      -1.143  48.954 -13.164  1.00  0.00    -0.091 C 
HETATM   14  C17 UNL     1      -1.575  47.862 -13.431  1.00  0.00    -0.104 C 
HETATM   15  C18 UNL     1      -2.009  46.575 -13.988  1.00  0.00     0.115 C 
HETATM   16  C19 UNL     1      -2.340  45.690 -12.836  1.00  0.00     0.090 A 
HETATM   17  C20 UNL     1      -2.272  44.209 -13.027  1.00  0.00     0.120 A 
HETATM   18  N1  UNL     1      -1.413  44.884 -12.094  1.00  0.00    -0.243 NA
HETATM   19  C21 UNL     1      -0.025  44.909 -12.277  1.00  0.00     0.233 C 
HETATM   20  O4  UNL     1       0.528  44.991 -13.372  1.00  0.00    -0.277 OA
HETATM   21  C22 UNL     1       0.718  44.655 -10.935  1.00  0.00     0.309 C 
HETATM   22  C23 UNL     1      -0.008  45.319  -9.747  1.00  0.00     0.053 C 
HETATM   23  C24 UNL     1       0.929  45.484  -8.544  1.00  0.00     0.028 C 
HETATM   24  C25 UNL     1       0.266  46.221  -7.386  1.00  0.00     0.020 C 
HETATM   25  C26 UNL     1       0.926  45.825  -6.065  1.00  0.00     0.013 C 
HETATM   26  C27 UNL     1       0.468  47.677  -7.829  1.00  0.00     0.158 C 
HETATM   27  O5  UNL     1       1.775  47.722  -8.434  1.00  0.00    -0.373 OA
HETATM   28  C28 UNL     1       2.106  46.396  -8.920  1.00  0.00     0.185 C 
HETATM   29  C29 UNL     1       2.370  46.376 -10.455  1.00  0.00     0.384 C 
HETATM   30  N2  UNL     1       2.148  45.055 -11.026  1.00  0.00     0.128 N 
HETATM   31  C30 UNL     1       0.240  48.779  -6.764  1.00  0.00     0.181 C 
HETATM   32  C31 UNL     1       0.291  50.292  -7.276  1.00  0.00     0.087 C 
HETATM   33  C32 UNL     1      -0.087  51.165  -6.057  1.00  0.00     0.049 C 
HETATM   34  C33 UNL     1      -0.636  50.565  -8.512  1.00  0.00     0.035 C 
HETATM   35  C34 UNL     1      -1.953  51.440  -8.391  1.00  0.00     0.016 C 
HETATM   36  C35 UNL     1      -2.235  51.950  -9.835  1.00  0.00     0.026 C 
HETATM   37  C36 UNL     1      -3.655  52.050 -10.358  1.00  0.00     0.013 C 
HETATM   38  C37 UNL     1      -3.605  52.487 -11.850  1.00  0.00     0.043 C 
HETATM   39  C38 UNL     1      -1.436  50.979 -10.697  1.00  0.00     0.096 C 
HETATM   40  C39 UNL     1      -0.062  50.973  -9.951  1.00  0.00     0.005 C 
HETATM   41  C46 UNL     1       0.749  49.862 -10.676  1.00  0.00     0.016 C 
HETATM   42  C47 UNL     1       0.857  50.037 -12.217  1.00  0.00     0.029 C 
HETATM   43  H38 UNL     1       2.694  44.384 -10.485  1.00  0.00     0.320 HD
ENDROOT
BRANCH   1  44
HETATM   44  O2  UNL     1      -1.355  51.165 -18.258  1.00  0.00    -0.386 OA
BRANCH  44  45
HETATM   45  C4  UNL     1      -0.238  51.404 -19.112  1.00  0.00     0.170 C 
BRANCH  45  46
HETATM   46  C3  UNL     1       0.068  52.892 -19.228  1.00  0.00     0.052 C 
BRANCH  46  47
HETATM   47  C2  UNL     1       1.300  53.162 -20.082  1.00  0.00     0.169 C 
BRANCH  47  48
HETATM   48  O1  UNL     1       1.220  54.468 -20.654  1.00  0.00    -0.396 OA
HETATM   49  C1  UNL     1       1.436  54.469 -22.058  1.00  0.00     0.201 C 
ENDBRANCH  47  48
ENDBRANCH  46  47
ENDBRANCH  45  46
ENDBRANCH  44  45
ENDBRANCH   1  44
BRANCH  39  50
HETATM   50  O9  UNL     1      -2.082  49.677 -10.515  1.00  0.00    -0.384 OA
HETATM   51  H53 UNL     1      -2.767  49.563 -11.196  1.00  0.00     0.211 HD
ENDBRANCH  39  50
BRANCH  40  52
HETATM   52  C40 UNL     1       0.807  52.363  -9.937  1.00  0.00    -0.002 C 
HETATM   53  C41 UNL     1       0.315  53.568 -10.783  1.00  0.00     0.005 C 
HETATM   54  C42 UNL     1       1.151  54.841 -10.593  1.00  0.00     0.000 C 
HETATM   55  C43 UNL     1       2.623  54.605 -10.881  1.00  0.00     0.000 C 
HETATM   56  C44 UNL     1       3.137  53.464 -10.024  1.00  0.00     0.000 C 
HETATM   57  C45 UNL     1       2.307  52.200 -10.236  1.00  0.00     0.005 C 
ENDBRANCH  40  52
BRANCH  32  58
HETATM   58  O8  UNL     1       1.645  50.593  -7.621  1.00  0.00    -0.387 OA
HETATM   59  H44 UNL     1       2.164  49.768  -7.496  1.00  0.00     0.210 HD
ENDBRANCH  32  58
BRANCH  31  60
HETATM   60  O7  UNL     1       1.240  48.616  -5.739  1.00  0.00    -0.390 OA
HETATM   61  H40 UNL     1       0.979  49.143  -4.966  1.00  0.00     0.210 HD
ENDBRANCH  31  60
BRANCH  29  62
HETATM   62  O6  UNL     1       3.716  46.715 -10.717  1.00  0.00    -0.366 OA
HETATM   63  H37 UNL     1       4.050  45.955 -11.232  1.00  0.00     0.212 HD
ENDBRANCH  29  62
TORSDOF 10
ENDMDL
MODEL 2
REMARK minimizedAffinity -8.49170017
REMARK CNNscore 0.265604883
REMARK CNNaffinity 6.89314985
REMARK  10 active torsions:
REMARK  status: ('A' for Active; 'I' for Inactive)
REMARK    1  A    between atoms: O1_2  and  C2_3 
REMARK    2  A    between atoms: C2_3  and  C3_4 
REMARK    3  A    between atoms: C3_4  and  C4_5 
REMARK    4  A    between atoms: C4_5  and  O2_6 
REMARK    5  A    between atoms: O2_6  and  C5_7 
REMARK    6  A    between atoms: C29_35  and  O6_36 
REMARK    7  A    between atoms: C30_38  and  O7_39 
REMARK    8  A    between atoms: C31_40  and  O8_42 
REMARK    9  A    between atoms: C38_48  and  O9_49 
REMARK   10  A    between atoms: C39_50  and  C40_51 
ROOT
HETATM    1  C5  UNL     1     -15.788  43.783 -28.520  1.00  0.00     0.122 C 
HETATM    2  C6  UNL     1     -15.909  45.230 -28.017  1.00  0.00     0.033 C 
HETATM    3  C7  UNL     1     -14.730  45.662 -27.148  1.00  0.00     0.014 C 
HETATM    4  C8  UNL     1     -14.549  44.763 -25.876  1.00  0.00    -0.010 C 
HETATM    5  C9  UNL     1     -15.617  45.255 -24.857  1.00  0.00     0.018 C 
HETATM    6  C10 UNL     1     -14.960  43.280 -26.176  1.00  0.00     0.073 C 
HETATM    7  C11 UNL     1     -14.849  42.922 -27.663  1.00  0.00     0.045 C 
HETATM    8  C12 UNL     1     -14.323  42.205 -25.294  1.00  0.00     0.161 C 
HETATM    9  O3  UNL     1     -14.626  41.018 -25.434  1.00  0.00    -0.292 OA
HETATM   10  C13 UNL     1     -13.335  42.570 -24.237  1.00  0.00    -0.005 C 
HETATM   11  C14 UNL     1     -12.776  43.799 -24.251  1.00  0.00    -0.013 C 
HETATM   12  C15 UNL     1     -13.041  44.867 -25.315  1.00  0.00     0.058 C 
HETATM   13  C16 UNL     1     -12.105  44.555 -26.457  1.00  0.00    -0.091 C 
HETATM   14  C17 UNL     1     -11.464  44.379 -27.461  1.00  0.00    -0.104 C 
HETATM   15  C18 UNL     1     -10.899  44.217 -28.806  1.00  0.00     0.115 C 
HETATM   16  C19 UNL     1      -9.415  44.245 -28.662  1.00  0.00     0.090 A 
HETATM   17  C20 UNL     1      -8.589  44.655 -29.839  1.00  0.00     0.120 A 
HETATM   18  N1  UNL     1      -8.591  45.419 -28.623  1.00  0.00    -0.243 NA
HETATM   19  C21 UNL     1      -9.085  46.729 -28.592  1.00  0.00     0.233 C 
HETATM   20  O4  UNL     1     -10.053  47.119 -29.242  1.00  0.00    -0.277 OA
HETATM   21  C22 UNL     1      -8.155  47.656 -27.759  1.00  0.00     0.309 C 
HETATM   22  C23 UNL     1      -7.570  46.925 -26.533  1.00  0.00     0.053 C 
HETATM   23  C24 UNL     1      -7.065  47.920 -25.482  1.00  0.00     0.028 C 
HETATM   24  C25 UNL     1      -6.566  47.228 -24.218  1.00  0.00     0.020 C 
HETATM   25  C26 UNL     1      -5.536  48.108 -23.510  1.00  0.00     0.013 C 
HETATM   26  C27 UNL     1      -7.893  47.014 -23.475  1.00  0.00     0.158 C 
HETATM   27  O5  UNL     1      -8.679  48.194 -23.733  1.00  0.00    -0.373 OA
HETATM   28  C28 UNL     1      -8.229  48.786 -24.979  1.00  0.00     0.185 C 
HETATM   29  C29 UNL     1      -9.368  48.875 -26.038  1.00  0.00     0.384 C 
HETATM   30  N2  UNL     1      -8.843  48.923 -27.396  1.00  0.00     0.128 N 
HETATM   31  C30 UNL     1      -7.811  46.641 -21.973  1.00  0.00     0.181 C 
HETATM   32  C31 UNL     1      -9.185  46.259 -21.253  1.00  0.00     0.087 C 
HETATM   33  C32 UNL     1      -8.805  45.816 -19.822  1.00  0.00     0.049 C 
HETATM   34  C33 UNL     1     -10.007  45.162 -22.016  1.00  0.00     0.035 C 
HETATM   35  C34 UNL     1     -10.169  43.693 -21.445  1.00  0.00     0.016 C 
HETATM   36  C35 UNL     1     -11.456  43.135 -22.120  1.00  0.00     0.026 C 
HETATM   37  C36 UNL     1     -11.536  41.685 -22.558  1.00  0.00     0.013 C 
HETATM   38  C37 UNL     1     -12.892  41.459 -23.285  1.00  0.00     0.043 C 
HETATM   39  C38 UNL     1     -11.625  44.047 -23.329  1.00  0.00     0.096 C 
HETATM   40  C39 UNL     1     -11.438  45.455 -22.674  1.00  0.00     0.005 C 
HETATM   41  C46 UNL     1     -11.421  46.429 -23.885  1.00  0.00     0.016 C 
HETATM   42  C47 UNL     1     -12.654  46.318 -24.826  1.00  0.00     0.029 C 
HETATM   43  H38 UNL     1      -8.153  49.675 -27.438  1.00  0.00     0.320 HD
ENDROOT
BRANCH   1  44
HETATM   44  O2  UNL     1     -17.115  43.239 -28.468  1.00  0.00    -0.386 OA
BRANCH  44  45
HETATM   45  C4  UNL     1     -17.751  43.316 -27.194  1.00  0.00     0.170 C 
BRANCH  45  46
HETATM   46  C3  UNL     1     -18.896  44.321 -27.200  1.00  0.00     0.052 C 
BRANCH  46  47
HETATM   47  C2  UNL     1     -19.395  44.634 -25.795  1.00  0.00     0.169 C 
BRANCH  47  48
HETATM   48  O1  UNL     1     -19.719  46.021 -25.692  1.00  0.00    -0.396 OA
HETATM   49  C1  UNL     1     -19.136  46.640 -24.553  1.00  0.00     0.201 C 
ENDBRANCH  47  48
ENDBRANCH  46  47
ENDBRANCH  45  46
ENDBRANCH  44  45
ENDBRANCH   1  44
BRANCH  39  50
HETATM   50  O9  UNL     1     -10.473  43.768 -24.190  1.00  0.00    -0.384 OA
HETATM   51  H53 UNL     1     -10.708  43.060 -24.816  1.00  0.00     0.211 HD
ENDBRANCH  39  50
BRANCH  40  52
HETATM   52  C40 UNL     1     -12.565  45.949 -21.592  1.00  0.00    -0.002 C 
HETATM   53  C41 UNL     1     -13.757  45.012 -21.261  1.00  0.00     0.005 C 
HETATM   54  C42 UNL     1     -14.675  45.542 -20.152  1.00  0.00     0.000 C 
HETATM   55  C43 UNL     1     -15.211  46.926 -20.468  1.00  0.00     0.000 C 
HETATM   56  C44 UNL     1     -14.057  47.873 -20.741  1.00  0.00     0.000 C 
HETATM   57  C45 UNL     1     -13.163  47.341 -21.859  1.00  0.00     0.005 C 
ENDBRANCH  40  52
BRANCH  32  58
HETATM   58  O8  UNL     1      -9.968  47.450 -21.144  1.00  0.00    -0.387 OA
HETATM   59  H44 UNL     1      -9.465  48.168 -21.589  1.00  0.00     0.210 HD
ENDBRANCH  32  58
BRANCH  31  60
HETATM   60  O7  UNL     1      -7.229  47.758 -21.272  1.00  0.00    -0.390 OA
HETATM   61  H40 UNL     1      -6.965  47.463 -20.385  1.00  0.00     0.210 HD
ENDBRANCH  31  60
BRANCH  29  62
HETATM   62  O6  UNL     1     -10.115  50.057 -25.845  1.00  0.00    -0.366 OA
HETATM   63  H37 UNL     1     -10.060  50.509 -26.709  1.00  0.00     0.212 HD
ENDBRANCH  29  62
TORSDOF 10
ENDMDL
MODEL 3
REMARK minimizedAffinity -7.13722467
REMARK CNNscore 0.243636861
REMARK CNNaffinity 6.93261766
REMARK  10 active torsions:
REMARK  status: ('A' for Active; 'I' for Inactive)
REMARK    1  A    between atoms: O1_2  and  C2_3 
REMARK    2  A    between atoms: C2_3  and  C3_4 
REMARK    3  A    between atoms: C3_4  and  C4_5 
REMARK    4  A    between atoms: C4_5  and  O2_6 
REMARK    5  A    between atoms: O2_6  and  C5_7 
REMARK    6  A    between atoms: C29_35  and  O6_36 
REMARK    7  A    between atoms: C30_38  and  O7_39 
REMARK    8  A    between atoms: C31_40  and  O8_42 
REMARK    9  A    between atoms: C38_48  and  O9_49 
REMARK   10  A    between atoms: C39_50  and  C40_51 
ROOT
HETATM    1  C5  UNL     1       7.584  51.245  -5.712  1.00  0.00     0.122 C 
HETATM    2  C6  UNL     1       6.482  51.498  -4.671  1.00  0.00     0.033 C 
HETATM    3  C7  UNL     1       5.103  51.699  -5.294  1.00  0.00     0.014 C 
HETATM    4  C8  UNL     1       5.056  52.908  -6.293  1.00  0.00    -0.010 C 
HETATM    5  C9  UNL     1       4.959  54.183  -5.406  1.00  0.00     0.018 C 
HETATM    6  C10 UNL     1       6.424  53.067  -7.043  1.00  0.00     0.073 C 
HETATM    7  C11 UNL     1       7.218  51.757  -7.113  1.00  0.00     0.045 C 
HETATM    8  C12 UNL     1       6.378  53.765  -8.403  1.00  0.00     0.161 C 
HETATM    9  O3  UNL     1       7.414  53.970  -9.038  1.00  0.00    -0.292 OA
HETATM   10  C13 UNL     1       5.082  54.226  -8.982  1.00  0.00    -0.005 C 
HETATM   11  C14 UNL     1       3.924  53.768  -8.459  1.00  0.00    -0.013 C 
HETATM   12  C15 UNL     1       3.823  52.752  -7.319  1.00  0.00     0.058 C 
HETATM   13  C16 UNL     1       3.934  51.392  -7.965  1.00  0.00    -0.091 C 
HETATM   14  C17 UNL     1       4.077  50.257  -8.341  1.00  0.00    -0.104 C 
HETATM   15  C18 UNL     1       4.402  48.848  -8.596  1.00  0.00     0.115 C 
HETATM   16  C19 UNL     1       3.409  48.344  -9.587  1.00  0.00     0.090 A 
HETATM   17  C20 UNL     1       3.121  46.878  -9.630  1.00  0.00     0.120 A 
HETATM   18  N1  UNL     1       2.102  47.831  -9.289  1.00  0.00    -0.243 NA
HETATM   19  C21 UNL     1       1.522  47.845  -8.015  1.00  0.00     0.233 C 
HETATM   20  O4  UNL     1       2.130  47.610  -6.974  1.00  0.00    -0.277 OA
HETATM   21  C22 UNL     1      -0.019  48.035  -8.108  1.00  0.00     0.309 C 
HETATM   22  C23 UNL     1      -0.407  49.004  -9.245  1.00  0.00     0.053 C 
HETATM   23  C24 UNL     1      -1.824  49.557  -9.045  1.00  0.00     0.028 C 
HETATM   24  C25 UNL     1      -2.200  50.588 -10.103  1.00  0.00     0.020 C 
HETATM   25  C26 UNL     1      -3.719  50.633 -10.274  1.00  0.00     0.013 C 
HETATM   26  C27 UNL     1      -1.552  51.847  -9.508  1.00  0.00     0.158 C 
HETATM   27  O5  UNL     1      -1.747  51.749  -8.083  1.00  0.00    -0.373 OA
HETATM   28  C28 UNL     1      -1.895  50.350  -7.732  1.00  0.00     0.185 C 
HETATM   29  C29 UNL     1      -0.807  49.874  -6.723  1.00  0.00     0.384 C 
HETATM   30  N2  UNL     1      -0.593  48.435  -6.796  1.00  0.00     0.128 N 
HETATM   31  C30 UNL     1      -1.985  53.213 -10.099  1.00  0.00     0.181 C 
HETATM   32  C31 UNL     1      -1.186  54.499  -9.591  1.00  0.00     0.087 C 
HETATM   33  C32 UNL     1      -1.726  55.688 -10.419  1.00  0.00     0.049 C 
HETATM   34  C33 UNL     1       0.371  54.354  -9.706  1.00  0.00     0.035 C 
HETATM   35  C34 UNL     1       1.211  55.181 -10.767  1.00  0.00     0.016 C 
HETATM   36  C35 UNL     1       2.659  55.219 -10.196  1.00  0.00     0.026 C 
HETATM   37  C36 UNL     1       3.859  55.109 -11.118  1.00  0.00     0.013 C 
HETATM   38  C37 UNL     1       5.150  55.074 -10.251  1.00  0.00     0.043 C 
HETATM   39  C38 UNL     1       2.663  54.060  -9.207  1.00  0.00     0.096 C 
HETATM   40  C39 UNL     1       1.334  54.324  -8.426  1.00  0.00     0.005 C 
HETATM   41  C46 UNL     1       1.183  53.074  -7.516  1.00  0.00     0.016 C 
HETATM   42  C47 UNL     1       2.412  52.776  -6.610  1.00  0.00     0.029 C 
HETATM   43  H38 UNL     1      -1.501  47.978  -6.701  1.00  0.00     0.320 HD
ENDROOT
BRANCH   1  44
HETATM   44  O2  UNL     1       8.742  51.945  -5.234  1.00  0.00    -0.386 OA
BRANCH  44  45
HETATM   45  C4  UNL     1       9.672  51.146  -4.505  1.00  0.00     0.170 C 
BRANCH  45  46
HETATM   46  C3  UNL     1      11.036  51.120  -5.182  1.00  0.00     0.052 C 
BRANCH  46  47
HETATM   47  C2  UNL     1      11.144  50.009  -6.219  1.00  0.00     0.169 C 
BRANCH  47  48
HETATM   48  O1  UNL     1      12.285  50.227  -7.050  1.00  0.00    -0.396 OA
HETATM   49  C1  UNL     1      13.249  51.081  -6.449  1.00  0.00     0.201 C 
ENDBRANCH  47  48
ENDBRANCH  46  47
ENDBRANCH  45  46
ENDBRANCH  44  45
ENDBRANCH   1  44
BRANCH  39  50
HETATM   50  O9  UNL     1       2.501  52.854 -10.023  1.00  0.00    -0.384 OA
HETATM   51  H53 UNL     1       3.380  52.516 -10.269  1.00  0.00     0.211 HD
ENDBRANCH  39  50
BRANCH  40  52
HETATM   52  C40 UNL     1       1.245  55.681  -7.510  1.00  0.00    -0.002 C 
HETATM   53  C41 UNL     1       2.510  56.564  -7.342  1.00  0.00     0.005 C 
HETATM   54  C42 UNL     1       2.264  57.860  -6.559  1.00  0.00     0.000 C 
HETATM   55  C43 UNL     1       1.665  57.593  -5.190  1.00  0.00     0.000 C 
HETATM   56  C44 UNL     1       0.395  56.776  -5.335  1.00  0.00     0.000 C 
HETATM   57  C45 UNL     1       0.660  55.482  -6.101  1.00  0.00     0.005 C 
ENDBRANCH  40  52
BRANCH  32  58
HETATM   58  O8  UNL     1      -1.544  54.726  -8.225  1.00  0.00    -0.387 OA
HETATM   59  H44 UNL     1      -2.145  53.994  -7.960  1.00  0.00     0.210 HD
ENDBRANCH  32  58
BRANCH  31  60
HETATM   60  O7  UNL     1      -3.382  53.400  -9.799  1.00  0.00    -0.390 OA
HETATM   61  H40 UNL     1      -3.720  54.128 -10.347  1.00  0.00     0.210 HD
ENDBRANCH  31  60
BRANCH  29  62
HETATM   62  O6  UNL     1      -1.216  50.161  -5.402  1.00  0.00    -0.366 OA
HETATM   63  H37 UNL     1      -1.189  49.292  -4.957  1.00  0.00     0.212 HD
ENDBRANCH  29  62
TORSDOF 10
ENDMDL
MODEL 4
REMARK minimizedAffinity -6.83554745
REMARK CNNscore 0.222754747
REMARK CNNaffinity 6.64237356
REMARK  10 active torsions:
REMARK  status: ('A' for Active; 'I' for Inactive)
REMARK    1  A    between atoms: O1_2  and  C2_3 
REMARK    2  A    between atoms: C2_3  and  C3_4 
REMARK    3  A    between atoms: C3_4  and  C4_5 
REMARK    4  A    between atoms: C4_5  and  O2_6 
REMARK    5  A    between atoms: O2_6  and  C5_7 
REMARK    6  A    between atoms: C29_35  and  O6_36 
REMARK    7  A    between atoms: C30_38  and  O7_39 
REMARK    8  A    between atoms: C31_40  and  O8_42 
REMARK    9  A    between atoms: C38_48  and  O9_49 
REMARK   10  A    between atoms: C39_50  and  C40_51 
ROOT
HETATM    1  C5  UNL     1      -4.935  48.064 -20.094  1.00  0.00     0.122 C 
HETATM    2  C6  UNL     1      -5.697  49.144 -19.310  1.00  0.00     0.033 C 
HETATM    3  C7  UNL     1      -6.782  48.570 -18.402  1.00  0.00     0.014 C 
HETATM    4  C8  UNL     1      -7.862  47.747 -19.187  1.00  0.00    -0.010 C 
HETATM    5  C9  UNL     1      -8.809  48.800 -19.832  1.00  0.00     0.018 C 
HETATM    6  C10 UNL     1      -7.219  47.009 -20.412  1.00  0.00     0.073 C 
HETATM    7  C11 UNL     1      -5.719  46.750 -20.230  1.00  0.00     0.045 C 
HETATM    8  C12 UNL     1      -7.944  45.757 -20.910  1.00  0.00     0.161 C 
HETATM    9  O3  UNL     1      -7.530  45.142 -21.895  1.00  0.00    -0.292 OA
HETATM   10  C13 UNL     1      -9.174  45.262 -20.224  1.00  0.00    -0.005 C 
HETATM   11  C14 UNL     1      -9.480  45.732 -18.995  1.00  0.00    -0.013 C 
HETATM   12  C15 UNL     1      -8.625  46.724 -18.203  1.00  0.00     0.058 C 
HETATM   13  C16 UNL     1      -7.578  45.897 -17.498  1.00  0.00    -0.091 C 
HETATM   14  C17 UNL     1      -6.653  45.369 -16.937  1.00  0.00    -0.104 C 
HETATM   15  C18 UNL     1      -5.389  44.920 -16.340  1.00  0.00     0.115 C 
HETATM   16  C19 UNL     1      -5.730  43.883 -15.326  1.00  0.00     0.090 A 
HETATM   17  C20 UNL     1      -4.778  43.644 -14.197  1.00  0.00     0.120 A 
HETATM   18  N1  UNL     1      -6.112  44.123 -13.964  1.00  0.00    -0.243 NA
HETATM   19  C21 UNL     1      -6.338  45.395 -13.422  1.00  0.00     0.233 C 
HETATM   20  O4  UNL     1      -5.658  46.386 -13.674  1.00  0.00    -0.277 OA
HETATM   21  C22 UNL     1      -7.455  45.348 -12.341  1.00  0.00     0.309 C 
HETATM   22  C23 UNL     1      -8.576  44.359 -12.721  1.00  0.00     0.053 C 
HETATM   23  C24 UNL     1      -9.863  44.650 -11.939  1.00  0.00     0.028 C 
HETATM   24  C25 UNL     1     -11.017  43.747 -12.361  1.00  0.00     0.020 C 
HETATM   25  C26 UNL     1     -12.017  43.603 -11.213  1.00  0.00     0.013 C 
HETATM   26  C27 UNL     1     -11.521  44.500 -13.601  1.00  0.00     0.158 C 
HETATM   27  O5  UNL     1     -11.403  45.900 -13.282  1.00  0.00    -0.373 OA
HETATM   28  C28 UNL     1     -10.371  46.060 -12.274  1.00  0.00     0.185 C 
HETATM   29  C29 UNL     1      -9.211  46.981 -12.756  1.00  0.00     0.384 C 
HETATM   30  N2  UNL     1      -7.971  46.710 -12.040  1.00  0.00     0.128 N 
HETATM   31  C30 UNL     1     -12.915  44.106 -14.151  1.00  0.00     0.181 C 
HETATM   32  C31 UNL     1     -13.356  44.775 -15.532  1.00  0.00     0.087 C 
HETATM   33  C32 UNL     1     -14.707  44.123 -15.907  1.00  0.00     0.049 C 
HETATM   34  C33 UNL     1     -12.287  44.621 -16.671  1.00  0.00     0.035 C 
HETATM   35  C34 UNL     1     -12.527  43.673 -17.918  1.00  0.00     0.016 C 
HETATM   36  C35 UNL     1     -11.590  44.225 -19.032  1.00  0.00     0.026 C 
HETATM   37  C36 UNL     1     -10.864  43.282 -19.973  1.00  0.00     0.013 C 
HETATM   38  C37 UNL     1      -9.934  44.119 -20.897  1.00  0.00     0.043 C 
HETATM   39  C38 UNL     1     -10.576  45.047 -18.244  1.00  0.00     0.096 C 
HETATM   40  C39 UNL     1     -11.519  45.873 -17.310  1.00  0.00     0.005 C 
HETATM   41  C46 UNL     1     -10.540  46.606 -16.350  1.00  0.00     0.016 C 
HETATM   42  C47 UNL     1      -9.442  47.448 -17.060  1.00  0.00     0.029 C 
HETATM   43  H38 UNL     1      -8.171  46.753 -11.040  1.00  0.00     0.320 HD
ENDROOT
BRANCH   1  44
HETATM   44  O2  UNL     1      -4.701  48.618 -21.397  1.00  0.00    -0.386 OA
BRANCH  44  45
HETATM   45  C4  UNL     1      -3.879  47.826 -22.252  1.00  0.00     0.170 C 
BRANCH  45  46
HETATM   46  C3  UNL     1      -2.459  48.375 -22.327  1.00  0.00     0.052 C 
BRANCH  46  47
HETATM   47  C2  UNL     1      -2.334  49.513 -23.331  1.00  0.00     0.169 C 
BRANCH  47  48
HETATM   48  O1  UNL     1      -1.965  50.718 -22.659  1.00  0.00    -0.396 OA
HETATM   49  C1  UNL     1      -0.952  51.443 -23.342  1.00  0.00     0.201 C 
ENDBRANCH  47  48
ENDBRANCH  46  47
ENDBRANCH  45  46
ENDBRANCH  44  45
ENDBRANCH   1  44
BRANCH  39  50
HETATM   50  O9  UNL     1      -9.837  44.076 -17.434  1.00  0.00    -0.384 OA
HETATM   51  H53 UNL     1      -9.056  43.775 -17.932  1.00  0.00     0.211 HD
ENDBRANCH  39  50
BRANCH  40  52
HETATM   52  C40 UNL     1     -12.520  46.967 -18.009  1.00  0.00    -0.002 C 
HETATM   53  C41 UNL     1     -14.014  46.600 -18.215  1.00  0.00     0.005 C 
HETATM   54  C42 UNL     1     -14.865  47.748 -18.771  1.00  0.00     0.000 C 
HETATM   55  C43 UNL     1     -14.307  48.292 -20.074  1.00  0.00     0.000 C 
HETATM   56  C44 UNL     1     -12.862  48.708 -19.880  1.00  0.00     0.000 C 
HETATM   57  C45 UNL     1     -12.024  47.550 -19.343  1.00  0.00     0.005 C 
ENDBRANCH  40  52
BRANCH  32  58
HETATM   58  O8  UNL     1     -13.597  46.163 -15.290  1.00  0.00    -0.387 OA
HETATM   59  H44 UNL     1     -13.375  46.333 -14.348  1.00  0.00     0.210 HD
ENDBRANCH  32  58
BRANCH  31  60
HETATM   60  O7  UNL     1     -13.896  44.446 -13.151  1.00  0.00    -0.390 OA
HETATM   61  H40 UNL     1     -14.733  44.007 -13.377  1.00  0.00     0.210 HD
ENDBRANCH  31  60
BRANCH  29  62
HETATM   62  O6  UNL     1      -9.536  48.333 -12.513  1.00  0.00    -0.366 OA
HETATM   63  H37 UNL     1      -8.795  48.655 -11.965  1.00  0.00     0.212 HD
ENDBRANCH  29  62
TORSDOF 10
ENDMDL
MODEL 5
REMARK minimizedAffinity -6.88598251
REMARK CNNscore 0.220775187
REMARK CNNaffinity 6.4042325
REMARK  10 active torsions:
REMARK  status: ('A' for Active; 'I' for Inactive)
REMARK    1  A    between atoms: O1_2  and  C2_3 
REMARK    2  A    between atoms: C2_3  and  C3_4 
REMARK    3  A    between atoms: C3_4  and  C4_5 
REMARK    4  A    between atoms: C4_5  and  O2_6 
REMARK    5  A    between atoms: O2_6  and  C5_7 
REMARK    6  A    between atoms: C29_35  and  O6_36 
REMARK    7  A    between atoms: C30_38  and  O7_39 
REMARK    8  A    between atoms: C31_40  and  O8_42 
REMARK    9  A    between atoms: C38_48  and  O9_49 
REMARK   10  A    between atoms: C39_50  and  C40_51 
ROOT
HETATM    1  C5  UNL     1      -7.641  47.661 -26.946  1.00  0.00     0.122 C 
HETATM    2  C6  UNL     1      -8.884  48.548 -26.768  1.00  0.00     0.033 C 
HETATM    3  C7  UNL     1      -9.965  47.898 -25.907  1.00  0.00     0.014 C 
HETATM    4  C8  UNL     1     -10.472  46.534 -26.492  1.00  0.00    -0.010 C 
HETATM    5  C9  UNL     1     -11.458  46.907 -27.637  1.00  0.00     0.018 C 
HETATM    6  C10 UNL     1      -9.311  45.772 -27.220  1.00  0.00     0.073 C 
HETATM    7  C11 UNL     1      -7.923  46.171 -26.704  1.00  0.00     0.045 C 
HETATM    8  C12 UNL     1      -9.452  44.253 -27.322  1.00  0.00     0.161 C 
HETATM    9  O3  UNL     1      -8.606  43.582 -27.917  1.00  0.00    -0.292 OA
HETATM   10  C13 UNL     1     -10.623  43.552 -26.717  1.00  0.00    -0.005 C 
HETATM   11  C14 UNL     1     -11.399  44.208 -25.828  1.00  0.00    -0.013 C 
HETATM   12  C15 UNL     1     -11.149  45.636 -25.337  1.00  0.00     0.058 C 
HETATM   13  C16 UNL     1     -10.156  45.518 -24.207  1.00  0.00    -0.091 C 
HETATM   14  C17 UNL     1      -9.321  45.571 -23.341  1.00  0.00    -0.104 C 
HETATM   15  C18 UNL     1      -8.212  45.836 -22.416  1.00  0.00     0.115 C 
HETATM   16  C19 UNL     1      -8.509  45.094 -21.157  1.00  0.00     0.090 A 
HETATM   17  C20 UNL     1      -7.902  45.578 -19.880  1.00  0.00     0.120 A 
HETATM   18  N1  UNL     1      -9.325  45.559 -20.073  1.00  0.00    -0.243 NA
HETATM   19  C21 UNL     1     -10.067  46.746 -20.098  1.00  0.00     0.233 C 
HETATM   20  O4  UNL     1      -9.670  47.801 -20.589  1.00  0.00    -0.277 OA
HETATM   21  C22 UNL     1     -11.384  46.597 -19.284  1.00  0.00     0.309 C 
HETATM   22  C23 UNL     1     -11.998  45.191 -19.444  1.00  0.00     0.053 C 
HETATM   23  C24 UNL     1     -13.483  45.186 -19.059  1.00  0.00     0.028 C 
HETATM   24  C25 UNL     1     -14.140  43.831 -19.296  1.00  0.00     0.020 C 
HETATM   25  C26 UNL     1     -15.340  43.660 -18.364  1.00  0.00     0.013 C 
HETATM   26  C27 UNL     1     -14.461  43.934 -20.794  1.00  0.00     0.158 C 
HETATM   27  O5  UNL     1     -14.863  45.301 -21.013  1.00  0.00    -0.373 OA
HETATM   28  C28 UNL     1     -14.266  46.130 -19.983  1.00  0.00     0.185 C 
HETATM   29  C29 UNL     1     -13.345  47.238 -20.574  1.00  0.00     0.384 C 
HETATM   30  N2  UNL     1     -12.346  47.683 -19.611  1.00  0.00     0.128 N 
HETATM   31  C30 UNL     1     -15.450  42.896 -21.380  1.00  0.00     0.181 C 
HETATM   32  C31 UNL     1     -15.648  42.908 -22.965  1.00  0.00     0.087 C 
HETATM   33  C32 UNL     1     -16.573  41.712 -23.287  1.00  0.00     0.049 C 
HETATM   34  C33 UNL     1     -14.299  42.847 -23.763  1.00  0.00     0.035 C 
HETATM   35  C34 UNL     1     -13.871  41.558 -24.581  1.00  0.00     0.016 C 
HETATM   36  C35 UNL     1     -12.858  42.072 -25.646  1.00  0.00     0.026 C 
HETATM   37  C36 UNL     1     -11.643  41.245 -26.024  1.00  0.00     0.013 C 
HETATM   38  C37 UNL     1     -10.778  42.063 -27.025  1.00  0.00     0.043 C 
HETATM   39  C38 UNL     1     -12.411  43.410 -25.069  1.00  0.00     0.096 C 
HETATM   40  C39 UNL     1     -13.786  44.050 -24.689  1.00  0.00     0.005 C 
HETATM   41  C46 UNL     1     -13.394  45.347 -23.928  1.00  0.00     0.016 C 
HETATM   42  C47 UNL     1     -12.439  46.295 -24.708  1.00  0.00     0.029 C 
HETATM   43  H38 UNL     1     -12.832  47.938 -18.751  1.00  0.00     0.320 HD
ENDROOT
BRANCH   1  44
HETATM   44  O2  UNL     1      -7.214  47.854 -28.302  1.00  0.00    -0.386 OA
BRANCH  44  45
HETATM   45  C4  UNL     1      -5.906  47.368 -28.598  1.00  0.00     0.170 C 
BRANCH  45  46
HETATM   46  C3  UNL     1      -4.869  48.483 -28.539  1.00  0.00     0.052 C 
BRANCH  46  47
HETATM   47  C2  UNL     1      -4.053  48.443 -27.254  1.00  0.00     0.169 C 
BRANCH  47  48
HETATM   48  O1  UNL     1      -3.731  49.772 -26.840  1.00  0.00    -0.396 OA
HETATM   49  C1  UNL     1      -2.963  50.479 -27.804  1.00  0.00     0.201 C 
ENDBRANCH  47  48
ENDBRANCH  46  47
ENDBRANCH  45  46
ENDBRANCH  44  45
ENDBRANCH   1  44
BRANCH  39  50
HETATM   50  O9  UNL     1     -11.686  43.079 -23.841  1.00  0.00    -0.384 OA
HETATM   51  H53 UNL     1     -10.742  42.966 -24.049  1.00  0.00     0.211 HD
ENDBRANCH  39  50
BRANCH  40  52
HETATM   52  C40 UNL     1     -14.818  44.421 -25.907  1.00  0.00    -0.002 C 
HETATM   53  C41 UNL     1     -15.942  43.418 -26.278  1.00  0.00     0.005 C 
HETATM   54  C42 UNL     1     -16.907  43.934 -27.353  1.00  0.00     0.000 C 
HETATM   55  C43 UNL     1     -16.180  44.348 -28.620  1.00  0.00     0.000 C 
HETATM   56  C44 UNL     1     -15.111  45.372 -28.286  1.00  0.00     0.000 C 
HETATM   57  C45 UNL     1     -14.149  44.837 -27.229  1.00  0.00     0.005 C 
ENDBRANCH  40  52
BRANCH  32  58
HETATM   58  O8  UNL     1     -16.351  44.104 -23.309  1.00  0.00    -0.387 OA
HETATM   59  H44 UNL     1     -16.474  44.615 -22.479  1.00  0.00     0.210 HD
ENDBRANCH  32  58
BRANCH  31  60
HETATM   60  O7  UNL     1     -16.735  43.114 -20.763  1.00  0.00    -0.390 OA
HETATM   61  H40 UNL     1     -17.299  42.344 -20.943  1.00  0.00     0.210 HD
ENDBRANCH  31  60
BRANCH  29  62
HETATM   62  O6  UNL     1     -14.114  48.371 -20.920  1.00  0.00    -0.366 OA
HETATM   63  H37 UNL     1     -13.696  49.097 -20.417  1.00  0.00     0.212 HD
ENDBRANCH  29  62
TORSDOF 10
ENDMDL
MODEL 6
REMARK minimizedAffinity -6.56656551
REMARK CNNscore 0.195310637
REMARK CNNaffinity 6.64907074
REMARK  10 active torsions:
REMARK  status: ('A' for Active; 'I' for Inactive)
REMARK    1  A    between atoms: O1_2  and  C2_3 
REMARK    2  A    between atoms: C2_3  and  C3_4 
REMARK    3  A    between atoms: C3_4  and  C4_5 
REMARK    4  A    between atoms: C4_5  and  O2_6 
REMARK    5  A    between atoms: O2_6  and  C5_7 
REMARK    6  A    between atoms: C29_35  and  O6_36 
REMARK    7  A    between atoms: C30_38  and  O7_39 
REMARK    8  A    between atoms: C31_40  and  O8_42 
REMARK    9  A    between atoms: C38_48  and  O9_49 
REMARK   10  A    between atoms: C39_50  and  C40_51 
ROOT
HETATM    1  C5  UNL     1       7.928  53.655  -4.626  1.00  0.00     0.122 C 
HETATM    2  C6  UNL     1       6.785  52.898  -3.933  1.00  0.00     0.033 C 
HETATM    3  C7  UNL     1       5.653  52.520  -4.886  1.00  0.00     0.014 C 
HETATM    4  C8  UNL     1       5.003  53.765  -5.584  1.00  0.00    -0.010 C 
HETATM    5  C9  UNL     1       4.047  54.390  -4.527  1.00  0.00     0.018 C 
HETATM    6  C10 UNL     1       6.072  54.883  -5.841  1.00  0.00     0.073 C 
HETATM    7  C11 UNL     1       7.499  54.330  -5.937  1.00  0.00     0.045 C 
HETATM    8  C12 UNL     1       5.775  55.860  -6.980  1.00  0.00     0.161 C 
HETATM    9  O3  UNL     1       6.541  56.794  -7.221  1.00  0.00    -0.292 OA
HETATM   10  C13 UNL     1       4.546  55.711  -7.814  1.00  0.00    -0.005 C 
HETATM   11  C14 UNL     1       3.851  54.554  -7.766  1.00  0.00    -0.013 C 
HETATM   12  C15 UNL     1       4.251  53.329  -6.941  1.00  0.00     0.058 C 
HETATM   13  C16 UNL     1       5.239  52.564  -7.788  1.00  0.00    -0.091 C 
HETATM   14  C17 UNL     1       6.085  51.898  -8.327  1.00  0.00    -0.104 C 
HETATM   15  C18 UNL     1       7.226  51.078  -8.754  1.00  0.00     0.115 C 
HETATM   16  C19 UNL     1       6.869  50.492 -10.078  1.00  0.00     0.090 A 
HETATM   17  C20 UNL     1       7.537  49.224 -10.503  1.00  0.00     0.120 A 
HETATM   18  N1  UNL     1       6.117  49.290 -10.296  1.00  0.00    -0.243 NA
HETATM   19  C21 UNL     1       5.500  48.551  -9.280  1.00  0.00     0.233 C 
HETATM   20  O4  UNL     1       5.996  48.343  -8.175  1.00  0.00    -0.277 OA
HETATM   21  C22 UNL     1       4.184  47.896  -9.788  1.00  0.00     0.309 C 
HETATM   22  C23 UNL     1       3.428  48.819 -10.767  1.00  0.00     0.053 C 
HETATM   23  C24 UNL     1       1.955  48.409 -10.891  1.00  0.00     0.028 C 
HETATM   24  C25 UNL     1       1.160  49.360 -11.779  1.00  0.00     0.020 C 
HETATM   25  C26 UNL     1      -0.041  48.632 -12.384  1.00  0.00     0.013 C 
HETATM   26  C27 UNL     1       0.835  50.475 -10.775  1.00  0.00     0.158 C 
HETATM   27  O5  UNL     1       0.571  49.808  -9.524  1.00  0.00    -0.373 OA
HETATM   28  C28 UNL     1       1.261  48.532  -9.526  1.00  0.00     0.185 C 
HETATM   29  C29 UNL     1       2.284  48.409  -8.358  1.00  0.00     0.384 C 
HETATM   30  N2  UNL     1       3.334  47.444  -8.655  1.00  0.00     0.128 N 
HETATM   31  C30 UNL     1      -0.262  51.492 -11.176  1.00  0.00     0.181 C 
HETATM   32  C31 UNL     1      -0.475  52.740 -10.201  1.00  0.00     0.087 C 
HETATM   33  C32 UNL     1      -1.521  53.645 -10.892  1.00  0.00     0.049 C 
HETATM   34  C33 UNL     1       0.851  53.510  -9.872  1.00  0.00     0.035 C 
HETATM   35  C34 UNL     1       1.137  54.962 -10.441  1.00  0.00     0.016 C 
HETATM   36  C35 UNL     1       2.184  55.579  -9.468  1.00  0.00     0.026 C 
HETATM   37  C36 UNL     1       3.304  56.459  -9.991  1.00  0.00     0.013 C 
HETATM   38  C37 UNL     1       4.237  56.834  -8.804  1.00  0.00     0.043 C 
HETATM   39  C38 UNL     1       2.772  54.352  -8.782  1.00  0.00     0.096 C 
HETATM   40  C39 UNL     1       1.473  53.570  -8.397  1.00  0.00     0.005 C 
HETATM   41  C46 UNL     1       2.004  52.216  -7.849  1.00  0.00     0.016 C 
HETATM   42  C47 UNL     1       3.042  52.342  -6.697  1.00  0.00     0.029 C 
HETATM   43  H38 UNL     1       2.886  46.569  -8.931  1.00  0.00     0.320 HD
ENDROOT
BRANCH   1  44
HETATM   44  O2  UNL     1       8.358  54.656  -3.691  1.00  0.00    -0.386 OA
BRANCH  44  45
HETATM   45  C4  UNL     1       9.766  54.713  -3.471  1.00  0.00     0.170 C 
BRANCH  45  46
HETATM   46  C3  UNL     1      10.357  56.024  -3.976  1.00  0.00     0.052 C 
BRANCH  46  47
HETATM   47  C2  UNL     1      11.853  55.917  -4.239  1.00  0.00     0.169 C 
BRANCH  47  48
HETATM   48  O1  UNL     1      12.194  54.570  -4.572  1.00  0.00    -0.396 OA
HETATM   49  C1  UNL     1      13.086  54.485  -5.676  1.00  0.00     0.201 C 
ENDBRANCH  47  48
ENDBRANCH  46  47
ENDBRANCH  45  46
ENDBRANCH  44  45
ENDBRANCH   1  44
BRANCH  39  50
HETATM   50  O9  UNL     1       3.473  53.617  -9.836  1.00  0.00    -0.384 OA
HETATM   51  H53 UNL     1       4.399  53.917  -9.872  1.00  0.00     0.211 HD
ENDBRANCH  39  50
BRANCH  40  52
HETATM   52  C40 UNL     1       0.471  54.251  -7.293  1.00  0.00    -0.002 C 
HETATM   53  C41 UNL     1       0.999  55.411  -6.407  1.00  0.00     0.005 C 
HETATM   54  C42 UNL     1      -0.068  56.035  -5.499  1.00  0.00     0.000 C 
HETATM   55  C43 UNL     1      -0.736  55.001  -4.610  1.00  0.00     0.000 C 
HETATM   56  C44 UNL     1      -1.307  53.884  -5.462  1.00  0.00     0.000 C 
HETATM   57  C45 UNL     1      -0.230  53.261  -6.347  1.00  0.00     0.005 C 
ENDBRANCH  40  52
BRANCH  32  58
HETATM   58  O8  UNL     1      -1.057  52.254  -8.989  1.00  0.00    -0.387 OA
HETATM   59  H44 UNL     1      -1.118  51.276  -9.071  1.00  0.00     0.210 HD
ENDBRANCH  32  58
BRANCH  31  60
HETATM   60  O7  UNL     1      -1.510  50.779 -11.276  1.00  0.00    -0.390 OA
HETATM   61  H40 UNL     1      -2.152  51.343 -11.740  1.00  0.00     0.210 HD
ENDBRANCH  31  60
BRANCH  29  62
HETATM   62  O6  UNL     1       1.631  47.957  -7.191  1.00  0.00    -0.366 OA
HETATM   63  H37 UNL     1       2.126  47.152  -6.944  1.00  0.00     0.212 HD
ENDBRANCH  29  62
TORSDOF 10
ENDMDL
MODEL 7
REMARK minimizedAffinity -7.73608828
REMARK CNNscore 0.159434929
REMARK CNNaffinity 6.70757866
REMARK  10 active torsions:
REMARK  status: ('A' for Active; 'I' for Inactive)
REMARK    1  A    between atoms: O1_2  and  C2_3 
REMARK    2  A    between atoms: C2_3  and  C3_4 
REMARK    3  A    between atoms: C3_4  and  C4_5 
REMARK    4  A    between atoms: C4_5  and  O2_6 
REMARK    5  A    between atoms: O2_6  and  C5_7 
REMARK    6  A    between atoms: C29_35  and  O6_36 
REMARK    7  A    between atoms: C30_38  and  O7_39 
REMARK    8  A    between atoms: C31_40  and  O8_42 
REMARK    9  A    between atoms: C38_48  and  O9_49 
REMARK   10  A    between atoms: C39_50  and  C40_51 
ROOT
HETATM    1  C5  UNL     1     -11.281  46.603 -26.977  1.00  0.00     0.122 C 
HETATM    2  C6  UNL     1     -12.541  47.304 -27.507  1.00  0.00     0.033 C 
HETATM    3  C7  UNL     1     -13.834  46.594 -27.111  1.00  0.00     0.014 C 
HETATM    4  C8  UNL     1     -13.898  45.113 -27.626  1.00  0.00    -0.010 C 
HETATM    5  C9  UNL     1     -14.286  45.207 -29.130  1.00  0.00     0.018 C 
HETATM    6  C10 UNL     1     -12.472  44.463 -27.639  1.00  0.00     0.073 C 
HETATM    7  C11 UNL     1     -11.510  45.121 -26.642  1.00  0.00     0.045 C 
HETATM    8  C12 UNL     1     -12.417  42.938 -27.541  1.00  0.00     0.161 C 
HETATM    9  O3  UNL     1     -11.338  42.344 -27.588  1.00  0.00    -0.292 OA
HETATM   10  C13 UNL     1     -13.669  42.136 -27.402  1.00  0.00    -0.005 C 
HETATM   11  C14 UNL     1     -14.818  42.758 -27.062  1.00  0.00    -0.013 C 
HETATM   12  C15 UNL     1     -14.944  44.252 -26.753  1.00  0.00     0.058 C 
HETATM   13  C16 UNL     1     -14.566  44.407 -25.300  1.00  0.00    -0.091 C 
HETATM   14  C17 UNL     1     -14.223  44.680 -24.179  1.00  0.00    -0.104 C 
HETATM   15  C18 UNL     1     -13.683  45.207 -22.919  1.00  0.00     0.115 C 
HETATM   16  C19 UNL     1     -14.452  44.567 -21.814  1.00  0.00     0.090 A 
HETATM   17  C20 UNL     1     -14.536  45.273 -20.498  1.00  0.00     0.120 A 
HETATM   18  N1  UNL     1     -15.709  45.017 -21.287  1.00  0.00    -0.243 NA
HETATM   19  C21 UNL     1     -16.460  46.068 -21.828  1.00  0.00     0.233 C 
HETATM   20  O4  UNL     1     -15.977  47.112 -22.261  1.00  0.00    -0.277 OA
HETATM   21  C22 UNL     1     -17.984  45.809 -21.658  1.00  0.00     0.309 C 
HETATM   22  C23 UNL     1     -18.332  44.316 -21.837  1.00  0.00     0.053 C 
HETATM   23  C24 UNL     1     -19.823  44.127 -22.143  1.00  0.00     0.028 C 
HETATM   24  C25 UNL     1     -20.179  42.670 -22.418  1.00  0.00     0.020 C 
HETATM   25  C26 UNL     1     -21.652  42.420 -22.090  1.00  0.00     0.013 C 
HETATM   26  C27 UNL     1     -19.793  42.562 -23.900  1.00  0.00     0.158 C 
HETATM   27  O5  UNL     1     -20.170  43.821 -24.494  1.00  0.00    -0.373 OA
HETATM   28  C28 UNL     1     -20.181  44.836 -23.458  1.00  0.00     0.185 C 
HETATM   29  C29 UNL     1     -19.193  46.002 -23.760  1.00  0.00     0.384 C 
HETATM   30  N2  UNL     1     -18.783  46.694 -22.546  1.00  0.00     0.128 N 
HETATM   31  C30 UNL     1     -20.314  41.329 -24.680  1.00  0.00     0.181 C 
HETATM   32  C31 UNL     1     -19.771  41.142 -26.171  1.00  0.00     0.087 C 
HETATM   33  C32 UNL     1     -20.340  39.791 -26.663  1.00  0.00     0.049 C 
HETATM   34  C33 UNL     1     -18.207  41.201 -26.278  1.00  0.00     0.035 C 
HETATM   35  C34 UNL     1     -17.343  39.912 -26.603  1.00  0.00     0.016 C 
HETATM   36  C35 UNL     1     -16.007  40.457 -27.188  1.00  0.00     0.026 C 
HETATM   37  C36 UNL     1     -14.686  39.789 -26.856  1.00  0.00     0.013 C 
HETATM   38  C37 UNL     1     -13.535  40.617 -27.498  1.00  0.00     0.043 C 
HETATM   39  C38 UNL     1     -15.989  41.901 -26.702  1.00  0.00     0.096 C 
HETATM   40  C39 UNL     1     -17.437  42.362 -27.071  1.00  0.00     0.005 C 
HETATM   41  C46 UNL     1     -17.549  43.778 -26.439  1.00  0.00     0.016 C 
HETATM   42  C47 UNL     1     -16.431  44.771 -26.868  1.00  0.00     0.029 C 
HETATM   43  H38 UNL     1     -19.627  46.963 -22.038  1.00  0.00     0.320 HD
ENDROOT
BRANCH   1  44
HETATM   44  O2  UNL     1     -10.303  46.711 -28.021  1.00  0.00    -0.386 OA
BRANCH  44  45
HETATM   45  C4  UNL     1      -9.534  47.913 -28.006  1.00  0.00     0.170 C 
BRANCH  45  46
HETATM   46  C3  UNL     1      -8.573  47.975 -29.187  1.00  0.00     0.052 C 
BRANCH  46  47
HETATM   47  C2  UNL     1      -7.404  47.012 -29.029  1.00  0.00     0.169 C 
BRANCH  47  48
HETATM   48  O1  UNL     1      -6.458  47.542 -28.099  1.00  0.00    -0.396 OA
HETATM   49  C1  UNL     1      -5.291  48.051 -28.730  1.00  0.00     0.201 C 
ENDBRANCH  47  48
ENDBRANCH  46  47
ENDBRANCH  45  46
ENDBRANCH  44  45
ENDBRANCH   1  44
BRANCH  39  50
HETATM   50  O9  UNL     1     -15.875  41.818 -25.244  1.00  0.00    -0.384 OA
HETATM   51  H53 UNL     1     -14.933  41.828 -24.998  1.00  0.00     0.211 HD
ENDBRANCH  39  50
BRANCH  40  52
HETATM   52  C40 UNL     1     -17.832  42.440 -28.660  1.00  0.00    -0.002 C 
HETATM   53  C41 UNL     1     -18.689  43.630 -29.167  1.00  0.00     0.005 C 
HETATM   54  C42 UNL     1     -18.891  43.647 -30.688  1.00  0.00     0.000 C 
HETATM   55  C43 UNL     1     -19.498  42.352 -31.197  1.00  0.00     0.000 C 
HETATM   56  C44 UNL     1     -18.644  41.178 -30.757  1.00  0.00     0.000 C 
HETATM   57  C45 UNL     1     -18.466  41.165 -29.241  1.00  0.00     0.005 C 
ENDBRANCH  40  52
BRANCH  32  58
HETATM   58  O8  UNL     1     -20.343  42.173 -26.979  1.00  0.00    -0.387 OA
HETATM   59  H44 UNL     1     -20.874  42.746 -26.381  1.00  0.00     0.210 HD
ENDBRANCH  32  58
BRANCH  31  60
HETATM   60  O7  UNL     1     -21.752  41.415 -24.731  1.00  0.00    -0.390 OA
HETATM   61  H40 UNL     1     -22.103  40.553 -25.011  1.00  0.00     0.210 HD
ENDBRANCH  31  60
BRANCH  29  62
HETATM   62  O6  UNL     1     -19.818  46.961 -24.587  1.00  0.00    -0.366 OA
HETATM   63  H37 UNL     1     -19.738  47.792 -24.079  1.00  0.00     0.212 HD
ENDBRANCH  29  62
TORSDOF 10
ENDMDL
MODEL 8
REMARK minimizedAffinity -7.78400326
REMARK CNNscore 0.152966052
REMARK CNNaffinity 6.08796549
REMARK  10 active torsions:
REMARK  status: ('A' for Active; 'I' for Inactive)
REMARK    1  A    between atoms: O1_2  and  C2_3 
REMARK    2  A    between atoms: C2_3  and  C3_4 
REMARK    3  A    between atoms: C3_4  and  C4_5 
REMARK    4  A    between atoms: C4_5  and  O2_6 
REMARK    5  A    between atoms: O2_6  and  C5_7 
REMARK    6  A    between atoms: C29_35  and  O6_36 
REMARK    7  A    between atoms: C30_38  and  O7_39 
REMARK    8  A    between atoms: C31_40  and  O8_42 
REMARK    9  A    between atoms: C38_48  and  O9_49 
REMARK   10  A    between atoms: C39_50  and  C40_51 
ROOT
HETATM    1  C5  UNL     1      -5.718  45.480 -20.589  1.00  0.00     0.122 C 
HETATM    2  C6  UNL     1      -6.239  46.908 -20.813  1.00  0.00     0.033 C 
HETATM    3  C7  UNL     1      -7.725  46.956 -21.163  1.00  0.00     0.014 C 
HETATM    4  C8  UNL     1      -8.071  46.147 -22.461  1.00  0.00    -0.010 C 
HETATM    5  C9  UNL     1      -7.654  47.059 -23.651  1.00  0.00     0.018 C 
HETATM    6  C10 UNL     1      -7.145  44.889 -22.600  1.00  0.00     0.073 C 
HETATM    7  C11 UNL     1      -6.592  44.407 -21.253  1.00  0.00     0.045 C 
HETATM    8  C12 UNL     1      -7.696  43.725 -23.425  1.00  0.00     0.161 C 
HETATM    9  O3  UNL     1      -7.015  42.717 -23.621  1.00  0.00    -0.292 OA
HETATM   10  C13 UNL     1      -9.062  43.791 -24.023  1.00  0.00    -0.005 C 
HETATM   11  C14 UNL     1      -9.926  44.737 -23.595  1.00  0.00    -0.013 C 
HETATM   12  C15 UNL     1      -9.633  45.748 -22.484  1.00  0.00     0.058 C 
HETATM   13  C16 UNL     1      -9.945  45.041 -21.187  1.00  0.00    -0.091 C 
HETATM   14  C17 UNL     1     -10.089  44.576 -20.086  1.00  0.00    -0.104 C 
HETATM   15  C18 UNL     1     -10.046  44.126 -18.689  1.00  0.00     0.115 C 
HETATM   16  C19 UNL     1     -11.412  43.636 -18.348  1.00  0.00     0.090 A 
HETATM   17  C20 UNL     1     -11.836  43.638 -16.914  1.00  0.00     0.120 A 
HETATM   18  N1  UNL     1     -12.511  44.439 -17.896  1.00  0.00    -0.243 NA
HETATM   19  C21 UNL     1     -12.489  45.838 -17.827  1.00  0.00     0.233 C 
HETATM   20  O4  UNL     1     -11.522  46.498 -17.454  1.00  0.00    -0.277 OA
HETATM   21  C22 UNL     1     -13.895  46.432 -18.126  1.00  0.00     0.309 C 
HETATM   22  C23 UNL     1     -14.631  45.632 -19.221  1.00  0.00     0.053 C 
HETATM   23  C24 UNL     1     -15.765  46.457 -19.844  1.00  0.00     0.028 C 
HETATM   24  C25 UNL     1     -16.451  45.727 -20.993  1.00  0.00     0.020 C 
HETATM   25  C26 UNL     1     -17.885  46.233 -21.154  1.00  0.00     0.013 C 
HETATM   26  C27 UNL     1     -15.489  46.054 -22.145  1.00  0.00     0.158 C 
HETATM   27  O5  UNL     1     -15.066  47.414 -21.926  1.00  0.00    -0.373 OA
HETATM   28  C28 UNL     1     -15.190  47.715 -20.512  1.00  0.00     0.185 C 
HETATM   29  C29 UNL     1     -13.829  48.125 -19.873  1.00  0.00     0.384 C 
HETATM   30  N2  UNL     1     -13.812  47.884 -18.436  1.00  0.00     0.128 N 
HETATM   31  C30 UNL     1     -15.994  45.787 -23.586  1.00  0.00     0.181 C 
HETATM   32  C31 UNL     1     -14.930  45.972 -24.763  1.00  0.00     0.087 C 
HETATM   33  C32 UNL     1     -15.649  45.528 -26.058  1.00  0.00     0.049 C 
HETATM   34  C33 UNL     1     -13.593  45.186 -24.528  1.00  0.00     0.035 C 
HETATM   35  C34 UNL     1     -13.208  43.916 -25.395  1.00  0.00     0.016 C 
HETATM   36  C35 UNL     1     -11.659  43.805 -25.283  1.00  0.00     0.026 C 
HETATM   37  C36 UNL     1     -10.984  42.449 -25.183  1.00  0.00     0.013 C 
HETATM   38  C37 UNL     1      -9.457  42.668 -24.981  1.00  0.00     0.043 C 
HETATM   39  C38 UNL     1     -11.350  44.626 -24.038  1.00  0.00     0.096 C 
HETATM   40  C39 UNL     1     -12.185  45.919 -24.314  1.00  0.00     0.005 C 
HETATM   41  C46 UNL     1     -12.058  46.732 -22.995  1.00  0.00     0.016 C 
HETATM   42  C47 UNL     1     -10.597  46.999 -22.534  1.00  0.00     0.029 C 
HETATM   43  H38 UNL     1     -14.633  48.336 -18.032  1.00  0.00     0.320 HD
ENDROOT
BRANCH   1  44
HETATM   44  O2  UNL     1      -4.403  45.449 -21.162  1.00  0.00    -0.386 OA
BRANCH  44  45
HETATM   45  C4  UNL     1      -3.439  46.273 -20.509  1.00  0.00     0.170 C 
BRANCH  45  46
HETATM   46  C3  UNL     1      -2.648  47.108 -21.509  1.00  0.00     0.052 C 
BRANCH  46  47
HETATM   47  C2  UNL     1      -1.363  47.661 -20.908  1.00  0.00     0.169 C 
BRANCH  47  48
HETATM   48  O1  UNL     1      -1.557  47.947 -19.522  1.00  0.00    -0.396 OA
HETATM   49  C1  UNL     1      -1.105  49.245 -19.159  1.00  0.00     0.201 C 
ENDBRANCH  47  48
ENDBRANCH  46  47
ENDBRANCH  45  46
ENDBRANCH  44  45
ENDBRANCH   1  44
BRANCH  39  50
HETATM   50  O9  UNL     1     -11.963  43.894 -22.928  1.00  0.00    -0.384 OA
HETATM   51  H53 UNL     1     -11.312  43.272 -22.558  1.00  0.00     0.211 HD
ENDBRANCH  39  50
BRANCH  40  52
HETATM   52  C40 UNL     1     -11.739  46.860 -25.581  1.00  0.00    -0.002 C 
HETATM   53  C41 UNL     1     -12.491  46.714 -26.931  1.00  0.00     0.005 C 
HETATM   54  C42 UNL     1     -12.056  47.728 -27.997  1.00  0.00     0.000 C 
HETATM   55  C43 UNL     1     -10.561  47.677 -28.257  1.00  0.00     0.000 C 
HETATM   56  C44 UNL     1      -9.807  47.873 -26.955  1.00  0.00     0.000 C 
HETATM   57  C45 UNL     1     -10.237  46.845 -25.911  1.00  0.00     0.005 C 
ENDBRANCH  40  52
BRANCH  32  58
HETATM   58  O8  UNL     1     -14.647  47.368 -24.882  1.00  0.00    -0.387 OA
HETATM   59  H44 UNL     1     -15.148  47.825 -24.170  1.00  0.00     0.210 HD
ENDBRANCH  32  58
BRANCH  31  60
HETATM   60  O7  UNL     1     -17.103  46.672 -23.836  1.00  0.00    -0.390 OA
HETATM   61  H40 UNL     1     -17.568  46.368 -24.633  1.00  0.00     0.210 HD
ENDBRANCH  31  60
BRANCH  29  62
HETATM   62  O6  UNL     1     -13.606  49.506 -20.059  1.00  0.00    -0.366 OA
HETATM   63  H37 UNL     1     -13.478  49.845 -19.152  1.00  0.00     0.212 HD
ENDBRANCH  29  62
TORSDOF 10
ENDMDL
MODEL 9
REMARK minimizedAffinity -7.30000305
REMARK CNNscore 0.15222086
REMARK CNNaffinity 6.24223948
REMARK  10 active torsions:
REMARK  status: ('A' for Active; 'I' for Inactive)
REMARK    1  A    between atoms: O1_2  and  C2_3 
REMARK    2  A    between atoms: C2_3  and  C3_4 
REMARK    3  A    between atoms: C3_4  and  C4_5 
REMARK    4  A    between atoms: C4_5  and  O2_6 
REMARK    5  A    between atoms: O2_6  and  C5_7 
REMARK    6  A    between atoms: C29_35  and  O6_36 
REMARK    7  A    between atoms: C30_38  and  O7_39 
REMARK    8  A    between atoms: C31_40  and  O8_42 
REMARK    9  A    between atoms: C38_48  and  O9_49 
REMARK   10  A    between atoms: C39_50  and  C40_51 
ROOT
HETATM    1  C5  UNL     1     -11.427  46.915 -27.122  1.00  0.00     0.122 C 
HETATM    2  C6  UNL     1     -12.801  47.565 -27.345  1.00  0.00     0.033 C 
HETATM    3  C7  UNL     1     -13.944  46.788 -26.694  1.00  0.00     0.014 C 
HETATM    4  C8  UNL     1     -14.057  45.316 -27.223  1.00  0.00    -0.010 C 
HETATM    5  C9  UNL     1     -14.770  45.417 -28.602  1.00  0.00     0.018 C 
HETATM    6  C10 UNL     1     -12.642  44.734 -27.564  1.00  0.00     0.073 C 
HETATM    7  C11 UNL     1     -11.514  45.420 -26.785  1.00  0.00     0.045 C 
HETATM    8  C12 UNL     1     -12.503  43.211 -27.522  1.00  0.00     0.161 C 
HETATM    9  O3  UNL     1     -11.437  42.670 -27.820  1.00  0.00    -0.292 OA
HETATM   10  C13 UNL     1     -13.658  42.349 -27.135  1.00  0.00    -0.005 C 
HETATM   11  C14 UNL     1     -14.730  42.910 -26.534  1.00  0.00    -0.013 C 
HETATM   12  C15 UNL     1     -14.848  44.391 -26.165  1.00  0.00     0.058 C 
HETATM   13  C16 UNL     1     -14.167  44.539 -24.827  1.00  0.00    -0.091 C 
HETATM   14  C17 UNL     1     -13.598  44.809 -23.801  1.00  0.00    -0.104 C 
HETATM   15  C18 UNL     1     -12.817  45.339 -22.676  1.00  0.00     0.115 C 
HETATM   16  C19 UNL     1     -13.296  44.646 -21.447  1.00  0.00     0.090 A 
HETATM   17  C20 UNL     1     -13.119  45.324 -20.126  1.00  0.00     0.120 A 
HETATM   18  N1  UNL     1     -14.424  45.027 -20.646  1.00  0.00    -0.243 NA
HETATM   19  C21 UNL     1     -15.319  46.050 -20.981  1.00  0.00     0.233 C 
HETATM   20  O4  UNL     1     -14.989  47.123 -21.481  1.00  0.00    -0.277 OA
HETATM   21  C22 UNL     1     -16.756  45.716 -20.488  1.00  0.00     0.309 C 
HETATM   22  C23 UNL     1     -17.072  44.212 -20.627  1.00  0.00     0.053 C 
HETATM   23  C24 UNL     1     -18.585  43.958 -20.605  1.00  0.00     0.028 C 
HETATM   24  C25 UNL     1     -18.931  42.491 -20.833  1.00  0.00     0.020 C 
HETATM   25  C26 UNL     1     -20.283  42.166 -20.198  1.00  0.00     0.013 C 
HETATM   26  C27 UNL     1     -18.875  42.427 -22.367  1.00  0.00     0.158 C 
HETATM   27  O5  UNL     1     -19.427  43.676 -22.829  1.00  0.00    -0.373 OA
HETATM   28  C28 UNL     1     -19.253  44.672 -21.789  1.00  0.00     0.185 C 
HETATM   29  C29 UNL     1     -18.406  45.888 -22.269  1.00  0.00     0.384 C 
HETATM   30  N2  UNL     1     -17.768  46.578 -21.155  1.00  0.00     0.128 N 
HETATM   31  C30 UNL     1     -19.502  41.184 -23.047  1.00  0.00     0.181 C 
HETATM   32  C31 UNL     1     -19.293  41.047 -24.624  1.00  0.00     0.087 C 
HETATM   33  C32 UNL     1     -19.899  39.680 -25.017  1.00  0.00     0.049 C 
HETATM   34  C33 UNL     1     -17.795  41.182 -25.070  1.00  0.00     0.035 C 
HETATM   35  C34 UNL     1     -16.970  39.941 -25.611  1.00  0.00     0.016 C 
HETATM   36  C35 UNL     1     -15.819  40.558 -26.459  1.00  0.00     0.026 C 
HETATM   37  C36 UNL     1     -14.430  39.948 -26.442  1.00  0.00     0.013 C 
HETATM   38  C37 UNL     1     -13.486  40.839 -27.298  1.00  0.00     0.043 C 
HETATM   39  C38 UNL     1     -15.756  41.993 -25.950  1.00  0.00     0.096 C 
HETATM   40  C39 UNL     1     -17.268  42.391 -25.980  1.00  0.00     0.005 C 
HETATM   41  C46 UNL     1     -17.298  43.789 -25.302  1.00  0.00     0.016 C 
HETATM   42  C47 UNL     1     -16.345  44.841 -25.938  1.00  0.00     0.029 C 
HETATM   43  H38 UNL     1     -18.491  46.798 -20.469  1.00  0.00     0.320 HD
ENDROOT
BRANCH   1  44
HETATM   44  O2  UNL     1     -10.708  47.088 -28.352  1.00  0.00    -0.386 OA
BRANCH  44  45
HETATM   45  C4  UNL     1     -11.459  47.676 -29.413  1.00  0.00     0.170 C 
BRANCH  45  46
HETATM   46  C3  UNL     1     -10.810  47.418 -30.766  1.00  0.00     0.052 C 
BRANCH  46  47
HETATM   47  C2  UNL     1      -9.442  48.079 -30.885  1.00  0.00     0.169 C 
BRANCH  47  48
HETATM   48  O1  UNL     1      -8.994  48.031 -32.240  1.00  0.00    -0.396 OA
HETATM   49  C1  UNL     1      -7.590  47.840 -32.350  1.00  0.00     0.201 C 
ENDBRANCH  47  48
ENDBRANCH  46  47
ENDBRANCH  45  46
ENDBRANCH  44  45
ENDBRANCH   1  44
BRANCH  39  50
HETATM   50  O9  UNL     1     -15.321  41.891 -24.555  1.00  0.00    -0.384 OA
HETATM   51  H53 UNL     1     -14.349  41.941 -24.520  1.00  0.00     0.211 HD
ENDBRANCH  39  50
BRANCH  40  52
HETATM   52  C40 UNL     1     -18.006  42.477 -27.442  1.00  0.00    -0.002 C 
HETATM   53  C41 UNL     1     -17.135  42.555 -28.724  1.00  0.00     0.005 C 
HETATM   54  C42 UNL     1     -17.943  42.515 -30.027  1.00  0.00     0.000 C 
HETATM   55  C43 UNL     1     -18.994  43.609 -30.080  1.00  0.00     0.000 C 
HETATM   56  C44 UNL     1     -19.892  43.517 -28.860  1.00  0.00     0.000 C 
HETATM   57  C45 UNL     1     -19.075  43.575 -27.572  1.00  0.00     0.005 C 
ENDBRANCH  40  52
BRANCH  32  58
HETATM   58  O8  UNL     1     -20.071  42.064 -25.260  1.00  0.00    -0.387 OA
HETATM   59  H44 UNL     1     -20.482  42.601 -24.545  1.00  0.00     0.210 HD
ENDBRANCH  32  58
BRANCH  31  60
HETATM   60  O7  UNL     1     -20.919  41.202 -22.779  1.00  0.00    -0.390 OA
HETATM   61  H40 UNL     1     -21.286  40.329 -22.999  1.00  0.00     0.210 HD
ENDBRANCH  31  60
BRANCH  29  62
HETATM   62  O6  UNL     1     -19.237  46.830 -22.913  1.00  0.00    -0.366 OA
HETATM   63  H37 UNL     1     -19.083  47.655 -22.413  1.00  0.00     0.212 HD
ENDBRANCH  29  62
TORSDOF 10
ENDMDL
