MODEL 1
REMARK minimizedAffinity -9.10648823
REMARK  4 active torsions:
REMARK  status: ('A' for Active; 'I' for Inactive)
REMARK    1  A    between atoms: C13_14  and  O2_15 
REMARK    2  A    between atoms: C22_24  and  O3_25 
REMARK    3  A    between atoms: C22_24  and  C23_26 
REMARK    4  A    between atoms: C23_26  and  O4_27 
ROOT
HETATM    1  C1  UNL     1      -4.840   8.424  13.153  1.00  0.00     0.078 C 
HETATM    2  C2  UNL     1      -4.108   7.837  14.363  1.00  0.00     0.157 C 
HETATM    3  C3  UNL     1      -4.995   8.056  15.595  1.00  0.00     0.078 C 
HETATM    4  O1  UNL     1      -3.938   6.430  14.266  1.00  0.00    -0.355 OA
HETATM    5  C4  UNL     1      -2.947   6.047  13.323  1.00  0.00     0.183 C 
HETATM    6  C5  UNL     1      -1.559   6.635  13.677  1.00  0.00     0.011 C 
HETATM    7  C6  UNL     1      -1.115   5.987  15.012  1.00  0.00     0.020 C 
HETATM    8  C7  UNL     1      -1.734   8.155  13.920  1.00  0.00     0.136 C 
HETATM    9  C8  UNL     1      -1.582   8.972  12.641  1.00  0.00     0.034 C 
HETATM   10  C9  UNL     1      -0.139   8.919  12.138  1.00  0.00     0.013 C 
HETATM   11  C10 UNL     1       0.524   7.503  12.221  1.00  0.00    -0.029 C 
HETATM   12  C11 UNL     1       1.542   7.565  13.398  1.00  0.00     0.016 C 
HETATM   13  C12 UNL     1      -0.553   6.360  12.477  1.00  0.00     0.036 C 
HETATM   14  C13 UNL     1       0.088   4.936  12.468  1.00  0.00     0.124 C 
HETATM   15  C14 UNL     1       0.949   4.646  11.226  1.00  0.00     0.037 C 
HETATM   16  C15 UNL     1       1.924   5.777  10.955  1.00  0.00    -0.002 C 
HETATM   17  C16 UNL     1       2.773   5.691   9.684  1.00  0.00     0.013 C 
HETATM   18  C17 UNL     1       3.032   7.171   9.285  1.00  0.00     0.023 C 
HETATM   19  C18 UNL     1       2.517   7.978  10.503  1.00  0.00     0.018 C 
HETATM   20  C19 UNL     1       1.252   7.168  10.857  1.00  0.00    -0.028 C 
HETATM   21  C20 UNL     1       0.260   7.208   9.616  1.00  0.00     0.014 C 
HETATM   22  C21 UNL     1       0.785   7.972   8.391  1.00  0.00     0.041 C 
HETATM   23  C22 UNL     1       2.250   7.640   8.037  1.00  0.00     0.083 C 
HETATM   24  O5  UNL     1      -2.898   8.519  14.654  1.00  0.00    -0.350 OA
ENDROOT
BRANCH  23  25
HETATM   25  O3  UNL     1       2.855   8.882   7.611  1.00  0.00    -0.387 OA
HETATM   26  H35 UNL     1       2.525   9.019   6.699  1.00  0.00     0.210 HD
ENDBRANCH  23  25
BRANCH  23  27
HETATM   27  C23 UNL     1       2.363   6.683   6.831  1.00  0.00     0.202 C 
BRANCH  27  28
HETATM   28  O4  UNL     1       2.757   5.388   7.301  1.00  0.00    -0.398 OA
HETATM   29  H38 UNL     1       2.810   4.811   6.519  1.00  0.00     0.209 HD
ENDBRANCH  27  28
ENDBRANCH  23  27
BRANCH  14  30
HETATM   30  O2  UNL     1      -0.937   3.946  12.504  1.00  0.00    -0.395 OA
HETATM   31  H22 UNL     1      -0.506   3.081  12.623  1.00  0.00     0.210 HD
ENDBRANCH  14  30
TORSDOF 4
ENDMDL
MODEL 2
REMARK minimizedAffinity -8.77119255
REMARK  4 active torsions:
REMARK  status: ('A' for Active; 'I' for Inactive)
REMARK    1  A    between atoms: C13_14  and  O2_15 
REMARK    2  A    between atoms: C22_24  and  O3_25 
REMARK    3  A    between atoms: C22_24  and  C23_26 
REMARK    4  A    between atoms: C23_26  and  O4_27 
ROOT
HETATM    1  C1  UNL     1      -6.035   6.865  13.411  1.00  0.00     0.078 C 
HETATM    2  C2  UNL     1      -5.509   7.452  14.724  1.00  0.00     0.157 C 
HETATM    3  C3  UNL     1      -6.721   7.807  15.594  1.00  0.00     0.078 C 
HETATM    4  O1  UNL     1      -4.765   6.509  15.481  1.00  0.00    -0.355 OA
HETATM    5  C4  UNL     1      -3.478   6.242  14.940  1.00  0.00     0.183 C 
HETATM    6  C5  UNL     1      -2.613   7.524  14.858  1.00  0.00     0.011 C 
HETATM    7  C6  UNL     1      -2.347   7.991  16.310  1.00  0.00     0.020 C 
HETATM    8  C7  UNL     1      -3.449   8.619  14.149  1.00  0.00     0.136 C 
HETATM    9  C8  UNL     1      -3.281   8.594  12.634  1.00  0.00     0.034 C 
HETATM   10  C9  UNL     1      -1.863   9.010  12.244  1.00  0.00     0.013 C 
HETATM   11  C10 UNL     1      -0.738   8.399  13.146  1.00  0.00    -0.029 C 
HETATM   12  C11 UNL     1      -0.216   9.561  14.042  1.00  0.00     0.016 C 
HETATM   13  C12 UNL     1      -1.284   7.206  14.045  1.00  0.00     0.036 C 
HETATM   14  C13 UNL     1      -0.148   6.530  14.877  1.00  0.00     0.124 C 
HETATM   15  C14 UNL     1       1.073   6.108  14.043  1.00  0.00     0.037 C 
HETATM   16  C15 UNL     1       1.540   7.235  13.139  1.00  0.00    -0.002 C 
HETATM   17  C16 UNL     1       2.676   6.933  12.159  1.00  0.00     0.013 C 
HETATM   18  C17 UNL     1       2.417   7.881  10.954  1.00  0.00     0.023 C 
HETATM   19  C18 UNL     1       1.294   8.820  11.459  1.00  0.00     0.018 C 
HETATM   20  C19 UNL     1       0.421   7.816  12.240  1.00  0.00    -0.028 C 
HETATM   21  C20 UNL     1      -0.101   6.704  11.232  1.00  0.00     0.014 C 
HETATM   22  C21 UNL     1       0.398   6.855   9.787  1.00  0.00     0.041 C 
HETATM   23  C22 UNL     1       1.905   7.166   9.682  1.00  0.00     0.083 C 
HETATM   24  O5  UNL     1      -4.818   8.677  14.536  1.00  0.00    -0.350 OA
ENDROOT
BRANCH  23  25
HETATM   25  O3  UNL     1       2.050   8.106   8.593  1.00  0.00    -0.387 OA
HETATM   26  H35 UNL     1       1.970   7.561   7.782  1.00  0.00     0.210 HD
ENDBRANCH  23  25
BRANCH  23  27
HETATM   27  C23 UNL     1       2.737   5.929   9.282  1.00  0.00     0.202 C 
BRANCH  27  28
HETATM   28  O4  UNL     1       2.567   5.689   7.878  1.00  0.00    -0.398 OA
HETATM   29  H38 UNL     1       3.110   4.910   7.661  1.00  0.00     0.209 HD
ENDBRANCH  27  28
ENDBRANCH  23  27
BRANCH  14  30
HETATM   30  O2  UNL     1      -0.647   5.354  15.509  1.00  0.00    -0.395 OA
HETATM   31  H22 UNL     1       0.042   5.029  16.115  1.00  0.00     0.210 HD
ENDBRANCH  14  30
TORSDOF 4
ENDMDL
MODEL 3
REMARK minimizedAffinity -8.68306541
REMARK  4 active torsions:
REMARK  status: ('A' for Active; 'I' for Inactive)
REMARK    1  A    between atoms: C13_14  and  O2_15 
REMARK    2  A    between atoms: C22_24  and  O3_25 
REMARK    3  A    between atoms: C22_24  and  C23_26 
REMARK    4  A    between atoms: C23_26  and  O4_27 
ROOT
HETATM    1  C1  UNL     1       3.123   7.175   9.144  1.00  0.00     0.078 C 
HETATM    2  C2  UNL     1       3.214   7.851  10.516  1.00  0.00     0.157 C 
HETATM    3  C3  UNL     1       4.590   8.519  10.617  1.00  0.00     0.078 C 
HETATM    4  O1  UNL     1       2.271   8.903  10.667  1.00  0.00    -0.355 OA
HETATM    5  C4  UNL     1       0.938   8.444  10.842  1.00  0.00     0.183 C 
HETATM    6  C5  UNL     1       0.800   7.545  12.095  1.00  0.00     0.011 C 
HETATM    7  C6  UNL     1       1.082   8.435  13.331  1.00  0.00     0.020 C 
HETATM    8  C7  UNL     1       1.903   6.459  12.027  1.00  0.00     0.136 C 
HETATM    9  C8  UNL     1       1.451   5.213  11.273  1.00  0.00     0.034 C 
HETATM   10  C9  UNL     1       0.363   4.477  12.056  1.00  0.00     0.013 C 
HETATM   11  C10 UNL     1      -0.716   5.411  12.700  1.00  0.00    -0.029 C 
HETATM   12  C11 UNL     1      -0.426   5.423  14.230  1.00  0.00     0.016 C 
HETATM   13  C12 UNL     1      -0.648   6.887  12.110  1.00  0.00     0.036 C 
HETATM   14  C13 UNL     1      -1.780   7.800  12.678  1.00  0.00     0.124 C 
HETATM   15  C14 UNL     1      -3.190   7.197  12.556  1.00  0.00     0.037 C 
HETATM   16  C15 UNL     1      -3.224   5.765  13.060  1.00  0.00    -0.002 C 
HETATM   17  C16 UNL     1      -4.532   4.987  12.897  1.00  0.00     0.013 C 
HETATM   18  C17 UNL     1      -4.089   3.503  12.751  1.00  0.00     0.023 C 
HETATM   19  C18 UNL     1      -2.578   3.534  13.092  1.00  0.00     0.018 C 
HETATM   20  C19 UNL     1      -2.164   4.849  12.400  1.00  0.00    -0.028 C 
HETATM   21  C20 UNL     1      -2.451   4.717  10.843  1.00  0.00     0.014 C 
HETATM   22  C21 UNL     1      -3.087   3.387  10.412  1.00  0.00     0.041 C 
HETATM   23  C22 UNL     1      -4.245   2.931  11.323  1.00  0.00     0.083 C 
HETATM   24  O5  UNL     1       3.176   6.919  11.587  1.00  0.00    -0.350 OA
ENDROOT
BRANCH  23  25
HETATM   25  O3  UNL     1      -4.129   1.495  11.438  1.00  0.00    -0.387 OA
HETATM   26  H35 UNL     1      -4.482   1.149  10.592  1.00  0.00     0.210 HD
ENDBRANCH  23  25
BRANCH  23  27
HETATM   27  C23 UNL     1      -5.629   3.191  10.692  1.00  0.00     0.202 C 
BRANCH  27  28
HETATM   28  O4  UNL     1      -5.513   3.109   9.266  1.00  0.00    -0.398 OA
HETATM   29  H38 UNL     1      -6.403   3.270   8.904  1.00  0.00     0.209 HD
ENDBRANCH  27  28
ENDBRANCH  23  27
BRANCH  14  30
HETATM   30  O2  UNL     1      -1.797   9.041  11.978  1.00  0.00    -0.395 OA
HETATM   31  H22 UNL     1      -2.424   9.629  12.435  1.00  0.00     0.210 HD
ENDBRANCH  14  30
TORSDOF 4
ENDMDL
MODEL 4
REMARK minimizedAffinity -8.6710701
REMARK  4 active torsions:
REMARK  status: ('A' for Active; 'I' for Inactive)
REMARK    1  A    between atoms: C13_14  and  O2_15 
REMARK    2  A    between atoms: C22_24  and  O3_25 
REMARK    3  A    between atoms: C22_24  and  C23_26 
REMARK    4  A    between atoms: C23_26  and  O4_27 
ROOT
HETATM    1  C1  UNL     1       1.564   5.101  11.006  1.00  0.00     0.078 C 
HETATM    2  C2  UNL     1       1.841   6.372  11.816  1.00  0.00     0.157 C 
HETATM    3  C3  UNL     1       3.353   6.625  11.784  1.00  0.00     0.078 C 
HETATM    4  O1  UNL     1       1.252   7.526  11.234  1.00  0.00    -0.355 OA
HETATM    5  C4  UNL     1      -0.158   7.580  11.394  1.00  0.00     0.183 C 
HETATM    6  C5  UNL     1      -0.567   7.583  12.888  1.00  0.00     0.011 C 
HETATM    7  C6  UNL     1      -0.043   8.903  13.504  1.00  0.00     0.020 C 
HETATM    8  C7  UNL     1       0.164   6.408  13.584  1.00  0.00     0.136 C 
HETATM    9  C8  UNL     1      -0.632   5.108  13.528  1.00  0.00     0.034 C 
HETATM   10  C9  UNL     1      -1.895   5.214  14.382  1.00  0.00     0.013 C 
HETATM   11  C10 UNL     1      -2.652   6.578  14.251  1.00  0.00    -0.029 C 
HETATM   12  C11 UNL     1      -2.384   7.357  15.573  1.00  0.00     0.016 C 
HETATM   13  C12 UNL     1      -2.145   7.418  12.998  1.00  0.00     0.036 C 
HETATM   14  C13 UNL     1      -2.960   8.737  12.806  1.00  0.00     0.124 C 
HETATM   15  C14 UNL     1      -4.484   8.532  12.780  1.00  0.00     0.037 C 
HETATM   16  C15 UNL     1      -4.945   7.671  13.943  1.00  0.00    -0.002 C 
HETATM   17  C16 UNL     1      -6.424   7.279  13.992  1.00  0.00     0.013 C 
HETATM   18  C17 UNL     1      -6.441   5.904  14.719  1.00  0.00     0.023 C 
HETATM   19  C18 UNL     1      -4.992   5.747  15.243  1.00  0.00     0.018 C 
HETATM   20  C19 UNL     1      -4.200   6.318  14.049  1.00  0.00    -0.028 C 
HETATM   21  C20 UNL     1      -4.501   5.428  12.767  1.00  0.00     0.014 C 
HETATM   22  C21 UNL     1      -5.500   4.283  12.994  1.00  0.00     0.041 C 
HETATM   23  C22 UNL     1      -6.748   4.702  13.797  1.00  0.00     0.083 C 
HETATM   24  O5  UNL     1       1.520   6.224  13.191  1.00  0.00    -0.350 OA
ENDROOT
BRANCH  23  25
HETATM   25  O3  UNL     1      -7.065   3.588  14.662  1.00  0.00    -0.387 OA
HETATM   26  H35 UNL     1      -7.498   2.933  14.076  1.00  0.00     0.210 HD
ENDBRANCH  23  25
BRANCH  23  27
HETATM   27  C23 UNL     1      -7.988   4.902  12.900  1.00  0.00     0.202 C 
BRANCH  27  28
HETATM   28  O4  UNL     1      -8.898   3.815  13.114  1.00  0.00    -0.398 OA
HETATM   29  H38 UNL     1      -9.668   3.978  12.541  1.00  0.00     0.209 HD
ENDBRANCH  27  28
ENDBRANCH  23  27
BRANCH  14  30
HETATM   30  O2  UNL     1      -2.601   9.349  11.570  1.00  0.00    -0.395 OA
HETATM   31  H22 UNL     1      -3.029  10.223  11.539  1.00  0.00     0.210 HD
ENDBRANCH  14  30
TORSDOF 4
ENDMDL
MODEL 5
REMARK minimizedAffinity -8.55091095
REMARK  4 active torsions:
REMARK  status: ('A' for Active; 'I' for Inactive)
REMARK    1  A    between atoms: C13_14  and  O2_15 
REMARK    2  A    between atoms: C22_24  and  O3_25 
REMARK    3  A    between atoms: C22_24  and  C23_26 
REMARK    4  A    between atoms: C23_26  and  O4_27 
ROOT
HETATM    1  C1  UNL     1      -1.188  10.711  18.427  1.00  0.00     0.078 C 
HETATM    2  C2  UNL     1      -0.276  10.695  17.196  1.00  0.00     0.157 C 
HETATM    3  C3  UNL     1       0.824  11.740  17.418  1.00  0.00     0.078 C 
HETATM    4  O1  UNL     1       0.404   9.458  17.040  1.00  0.00    -0.355 OA
HETATM    5  C4  UNL     1      -0.436   8.407  16.586  1.00  0.00     0.183 C 
HETATM    6  C5  UNL     1      -1.076   8.735  15.214  1.00  0.00     0.011 C 
HETATM    7  C6  UNL     1       0.072   8.805  14.178  1.00  0.00     0.020 C 
HETATM    8  C7  UNL     1      -1.718  10.142  15.312  1.00  0.00     0.136 C 
HETATM    9  C8  UNL     1      -3.162  10.094  15.800  1.00  0.00     0.034 C 
HETATM   10  C9  UNL     1      -4.060   9.434  14.755  1.00  0.00     0.013 C 
HETATM   11  C10 UNL     1      -3.442   8.165  14.078  1.00  0.00    -0.029 C 
HETATM   12  C11 UNL     1      -3.045   8.589  12.633  1.00  0.00     0.016 C 
HETATM   13  C12 UNL     1      -2.170   7.632  14.870  1.00  0.00     0.036 C 
HETATM   14  C13 UNL     1      -1.603   6.313  14.255  1.00  0.00     0.124 C 
HETATM   15  C14 UNL     1      -2.659   5.212  14.058  1.00  0.00     0.037 C 
HETATM   16  C15 UNL     1      -3.895   5.751  13.362  1.00  0.00    -0.002 C 
HETATM   17  C16 UNL     1      -5.086   4.803  13.197  1.00  0.00     0.013 C 
HETATM   18  C17 UNL     1      -6.332   5.732  13.207  1.00  0.00     0.023 C 
HETATM   19  C18 UNL     1      -5.729   7.157  13.127  1.00  0.00     0.018 C 
HETATM   20  C19 UNL     1      -4.506   6.994  14.053  1.00  0.00    -0.028 C 
HETATM   21  C20 UNL     1      -5.018   6.612  15.509  1.00  0.00     0.014 C 
HETATM   22  C21 UNL     1      -6.541   6.458  15.640  1.00  0.00     0.041 C 
HETATM   23  C22 UNL     1      -7.181   5.645  14.496  1.00  0.00     0.083 C 
HETATM   24  O5  UNL     1      -0.946  11.109  16.015  1.00  0.00    -0.350 OA
ENDROOT
BRANCH  23  25
HETATM   25  O3  UNL     1      -8.445   6.282  14.203  1.00  0.00    -0.387 OA
HETATM   26  H35 UNL     1      -9.042   5.991  14.924  1.00  0.00     0.210 HD
ENDBRANCH  23  25
BRANCH  23  27
HETATM   27  C23 UNL     1      -7.527   4.201  14.920  1.00  0.00     0.202 C 
BRANCH  27  28
HETATM   28  O4  UNL     1      -8.264   3.571  13.864  1.00  0.00    -0.398 OA
HETATM   29  H38 UNL     1      -8.457   2.664  14.161  1.00  0.00     0.209 HD
ENDBRANCH  27  28
ENDBRANCH  23  27
BRANCH  14  30
HETATM   30  O2  UNL     1      -0.596   5.777  15.108  1.00  0.00    -0.395 OA
HETATM   31  H22 UNL     1      -0.179   5.031  14.640  1.00  0.00     0.210 HD
ENDBRANCH  14  30
TORSDOF 4
ENDMDL
MODEL 6
REMARK minimizedAffinity -8.5347023
REMARK  4 active torsions:
REMARK  status: ('A' for Active; 'I' for Inactive)
REMARK    1  A    between atoms: C13_14  and  O2_15 
REMARK    2  A    between atoms: C22_24  and  O3_25 
REMARK    3  A    between atoms: C22_24  and  C23_26 
REMARK    4  A    between atoms: C23_26  and  O4_27 
ROOT
HETATM    1  C1  UNL     1       3.454  11.116  16.955  1.00  0.00     0.078 C 
HETATM    2  C2  UNL     1       2.151  10.498  17.473  1.00  0.00     0.157 C 
HETATM    3  C3  UNL     1       2.068  10.780  18.978  1.00  0.00     0.078 C 
HETATM    4  O1  UNL     1       0.999  11.109  16.910  1.00  0.00    -0.355 OA
HETATM    5  C4  UNL     1       0.777  10.750  15.553  1.00  0.00     0.183 C 
HETATM    6  C5  UNL     1       0.591   9.221  15.387  1.00  0.00     0.011 C 
HETATM    7  C6  UNL     1      -0.716   8.836  16.123  1.00  0.00     0.020 C 
HETATM    8  C7  UNL     1       1.769   8.517  16.106  1.00  0.00     0.136 C 
HETATM    9  C8  UNL     1       2.974   8.314  15.194  1.00  0.00     0.034 C 
HETATM   10  C9  UNL     1       2.652   7.300  14.097  1.00  0.00     0.013 C 
HETATM   11  C10 UNL     1       1.232   7.466  13.458  1.00  0.00    -0.029 C 
HETATM   12  C11 UNL     1       0.368   6.290  14.002  1.00  0.00     0.016 C 
HETATM   13  C12 UNL     1       0.573   8.863  13.838  1.00  0.00     0.036 C 
HETATM   14  C13 UNL     1      -0.803   9.075  13.130  1.00  0.00     0.124 C 
HETATM   15  C14 UNL     1      -0.763   8.854  11.608  1.00  0.00     0.037 C 
HETATM   16  C15 UNL     1      -0.070   7.549  11.258  1.00  0.00    -0.002 C 
HETATM   17  C16 UNL     1       0.153   7.241   9.775  1.00  0.00     0.013 C 
HETATM   18  C17 UNL     1       1.444   6.375   9.745  1.00  0.00     0.023 C 
HETATM   19  C18 UNL     1       1.709   6.055  11.237  1.00  0.00     0.018 C 
HETATM   20  C19 UNL     1       1.340   7.408  11.880  1.00  0.00    -0.028 C 
HETATM   21  C20 UNL     1       2.307   8.528  11.300  1.00  0.00     0.014 C 
HETATM   22  C21 UNL     1       3.311   8.034  10.247  1.00  0.00     0.041 C 
HETATM   23  C22 UNL     1       2.687   7.105   9.185  1.00  0.00     0.083 C 
HETATM   24  O5  UNL     1       2.135   9.083  17.360  1.00  0.00    -0.350 OA
ENDROOT
BRANCH  23  25
HETATM   25  O3  UNL     1       3.674   6.087   8.906  1.00  0.00    -0.387 OA
HETATM   26  H35 UNL     1       4.330   6.530   8.327  1.00  0.00     0.210 HD
ENDBRANCH  23  25
BRANCH  23  27
HETATM   27  C23 UNL     1       2.437   7.827   7.844  1.00  0.00     0.202 C 
BRANCH  27  28
HETATM   28  O4  UNL     1       3.285   8.981   7.771  1.00  0.00    -0.398 OA
HETATM   29  H38 UNL     1       3.108   9.404   6.913  1.00  0.00     0.209 HD
ENDBRANCH  27  28
ENDBRANCH  23  27
BRANCH  14  30
HETATM   30  O2  UNL     1      -1.255  10.409  13.344  1.00  0.00    -0.395 OA
HETATM   31  H22 UNL     1      -2.164  10.471  13.000  1.00  0.00     0.210 HD
ENDBRANCH  14  30
TORSDOF 4
ENDMDL
MODEL 7
REMARK minimizedAffinity -8.06556511
REMARK  4 active torsions:
REMARK  status: ('A' for Active; 'I' for Inactive)
REMARK    1  A    between atoms: C13_14  and  O2_15 
REMARK    2  A    between atoms: C22_24  and  O3_25 
REMARK    3  A    between atoms: C22_24  and  C23_26 
REMARK    4  A    between atoms: C23_26  and  O4_27 
ROOT
HETATM    1  C1  UNL     1      -0.538   8.174  10.914  1.00  0.00     0.078 C 
HETATM    2  C2  UNL     1      -0.066   8.425  12.350  1.00  0.00     0.157 C 
HETATM    3  C3  UNL     1       1.446   8.673  12.307  1.00  0.00     0.078 C 
HETATM    4  O1  UNL     1      -0.626   9.604  12.908  1.00  0.00    -0.355 OA
HETATM    5  C4  UNL     1      -1.999   9.469  13.250  1.00  0.00     0.183 C 
HETATM    6  C5  UNL     1      -2.223   8.341  14.287  1.00  0.00     0.011 C 
HETATM    7  C6  UNL     1      -1.525   8.777  15.598  1.00  0.00     0.020 C 
HETATM    8  C7  UNL     1      -1.510   7.067  13.767  1.00  0.00     0.136 C 
HETATM    9  C8  UNL     1      -2.408   6.216  12.876  1.00  0.00     0.034 C 
HETATM   10  C9  UNL     1      -3.546   5.602  13.690  1.00  0.00     0.013 C 
HETATM   11  C10 UNL     1      -4.203   6.578  14.723  1.00  0.00    -0.029 C 
HETATM   12  C11 UNL     1      -3.717   6.119  16.130  1.00  0.00     0.016 C 
HETATM   13  C12 UNL     1      -3.785   8.090  14.457  1.00  0.00     0.036 C 
HETATM   14  C13 UNL     1      -4.509   9.079  15.424  1.00  0.00     0.124 C 
HETATM   15  C14 UNL     1      -6.037   8.906  15.467  1.00  0.00     0.037 C 
HETATM   16  C15 UNL     1      -6.421   7.450  15.653  1.00  0.00    -0.002 C 
HETATM   17  C16 UNL     1      -7.910   7.097  15.600  1.00  0.00     0.013 C 
HETATM   18  C17 UNL     1      -7.949   5.641  15.057  1.00  0.00     0.023 C 
HETATM   19  C18 UNL     1      -6.465   5.198  15.081  1.00  0.00     0.018 C 
HETATM   20  C19 UNL     1      -5.780   6.499  14.613  1.00  0.00    -0.028 C 
HETATM   21  C20 UNL     1      -6.303   6.853  13.155  1.00  0.00     0.014 C 
HETATM   22  C21 UNL     1      -7.355   5.886  12.592  1.00  0.00     0.041 C 
HETATM   23  C22 UNL     1      -8.460   5.518  13.603  1.00  0.00     0.083 C 
HETATM   24  O5  UNL     1      -0.230   7.288  13.185  1.00  0.00    -0.350 OA
ENDROOT
BRANCH  23  25
HETATM   25  O3  UNL     1      -8.759   4.120  13.386  1.00  0.00    -0.387 OA
HETATM   26  H35 UNL     1      -9.310   4.107  12.576  1.00  0.00     0.210 HD
ENDBRANCH  23  25
BRANCH  23  27
HETATM   27  C23 UNL     1      -9.779   6.275  13.337  1.00  0.00     0.202 C 
BRANCH  27  28
HETATM   28  O4  UNL     1      -9.921   7.318  14.311  1.00  0.00    -0.398 OA
HETATM   29  H38 UNL     1     -10.755   7.777  14.108  1.00  0.00     0.209 HD
ENDBRANCH  27  28
ENDBRANCH  23  27
BRANCH  14  30
HETATM   30  O2  UNL     1      -4.254  10.422  15.020  1.00  0.00    -0.395 OA
HETATM   31  H22 UNL     1      -4.611  11.011  15.709  1.00  0.00     0.210 HD
ENDBRANCH  14  30
TORSDOF 4
ENDMDL
MODEL 8
REMARK minimizedAffinity -7.96289492
REMARK  4 active torsions:
REMARK  status: ('A' for Active; 'I' for Inactive)
REMARK    1  A    between atoms: C13_14  and  O2_15 
REMARK    2  A    between atoms: C22_24  and  O3_25 
REMARK    3  A    between atoms: C22_24  and  C23_26 
REMARK    4  A    between atoms: C23_26  and  O4_27 
ROOT
HETATM    1  C1  UNL     1       0.550   7.604   8.105  1.00  0.00     0.078 C 
HETATM    2  C2  UNL     1       1.747   7.283   9.006  1.00  0.00     0.157 C 
HETATM    3  C3  UNL     1       2.968   7.073   8.102  1.00  0.00     0.078 C 
HETATM    4  O1  UNL     1       2.091   8.366   9.859  1.00  0.00    -0.355 OA
HETATM    5  C4  UNL     1       1.176   8.552  10.929  1.00  0.00     0.183 C 
HETATM    6  C5  UNL     1       1.080   7.295  11.829  1.00  0.00     0.011 C 
HETATM    7  C6  UNL     1       2.460   7.112  12.508  1.00  0.00     0.020 C 
HETATM    8  C7  UNL     1       0.834   6.071  10.912  1.00  0.00     0.136 C 
HETATM    9  C8  UNL     1      -0.648   5.815  10.663  1.00  0.00     0.034 C 
HETATM   10  C9  UNL     1      -1.339   5.362  11.949  1.00  0.00     0.013 C 
HETATM   11  C10 UNL     1      -0.906   6.152  13.229  1.00  0.00    -0.029 C 
HETATM   12  C11 UNL     1      -0.003   5.188  14.054  1.00  0.00     0.016 C 
HETATM   13  C12 UNL     1      -0.113   7.481  12.864  1.00  0.00     0.036 C 
HETATM   14  C13 UNL     1       0.240   8.323  14.131  1.00  0.00     0.124 C 
HETATM   15  C14 UNL     1      -0.961   8.606  15.048  1.00  0.00     0.037 C 
HETATM   16  C15 UNL     1      -1.748   7.339  15.333  1.00  0.00    -0.002 C 
HETATM   17  C16 UNL     1      -3.043   7.475  16.139  1.00  0.00     0.013 C 
HETATM   18  C17 UNL     1      -3.944   6.314  15.631  1.00  0.00     0.023 C 
HETATM   19  C18 UNL     1      -2.991   5.463  14.755  1.00  0.00     0.018 C 
HETATM   20  C19 UNL     1      -2.185   6.579  14.057  1.00  0.00    -0.028 C 
HETATM   21  C20 UNL     1      -3.186   7.473  13.205  1.00  0.00     0.014 C 
HETATM   22  C21 UNL     1      -4.664   7.063  13.305  1.00  0.00     0.041 C 
HETATM   23  C22 UNL     1      -5.128   6.768  14.746  1.00  0.00     0.083 C 
HETATM   24  O5  UNL     1       1.591   6.058   9.706  1.00  0.00    -0.350 OA
ENDROOT
BRANCH  23  25
HETATM   25  O3  UNL     1      -6.033   5.645  14.658  1.00  0.00    -0.387 OA
HETATM   26  H35 UNL     1      -6.872   6.027  14.324  1.00  0.00     0.210 HD
ENDBRANCH  23  25
BRANCH  23  27
HETATM   27  C23 UNL     1      -5.953   7.925  15.349  1.00  0.00     0.202 C 
BRANCH  27  28
HETATM   28  O4  UNL     1      -6.676   7.437  16.487  1.00  0.00    -0.398 OA
HETATM   29  H38 UNL     1      -7.175   8.192  16.845  1.00  0.00     0.209 HD
ENDBRANCH  27  28
ENDBRANCH  23  27
BRANCH  14  30
HETATM   30  O2  UNL     1       0.771   9.586  13.739  1.00  0.00    -0.395 OA
HETATM   31  H22 UNL     1       1.095  10.032  14.542  1.00  0.00     0.210 HD
ENDBRANCH  14  30
TORSDOF 4
ENDMDL
MODEL 9
REMARK minimizedAffinity -7.9258728
REMARK  4 active torsions:
REMARK  status: ('A' for Active; 'I' for Inactive)
REMARK    1  A    between atoms: C13_14  and  O2_15 
REMARK    2  A    between atoms: C22_24  and  O3_25 
REMARK    3  A    between atoms: C22_24  and  C23_26 
REMARK    4  A    between atoms: C23_26  and  O4_27 
ROOT
HETATM    1  C1  UNL     1       2.918   8.193   9.218  1.00  0.00     0.078 C 
HETATM    2  C2  UNL     1       2.398   6.771   9.447  1.00  0.00     0.157 C 
HETATM    3  C3  UNL     1       2.889   5.901   8.284  1.00  0.00     0.078 C 
HETATM    4  O1  UNL     1       2.940   6.176  10.618  1.00  0.00    -0.355 OA
HETATM    5  C4  UNL     1       2.398   6.703  11.821  1.00  0.00     0.183 C 
HETATM    6  C5  UNL     1       0.864   6.503  11.895  1.00  0.00     0.011 C 
HETATM    7  C6  UNL     1       0.604   4.978  11.972  1.00  0.00     0.020 C 
HETATM    8  C7  UNL     1       0.251   7.025  10.571  1.00  0.00     0.136 C 
HETATM    9  C8  UNL     1      -0.095   8.509  10.632  1.00  0.00     0.034 C 
HETATM   10  C9  UNL     1      -1.248   8.752  11.605  1.00  0.00     0.013 C 
HETATM   11  C10 UNL     1      -1.154   7.936  12.938  1.00  0.00    -0.029 C 
HETATM   12  C11 UNL     1      -2.229   6.814  12.842  1.00  0.00     0.016 C 
HETATM   13  C12 UNL     1       0.292   7.305  13.143  1.00  0.00     0.036 C 
HETATM   14  C13 UNL     1       0.422   6.568  14.514  1.00  0.00     0.124 C 
HETATM   15  C14 UNL     1      -0.010   7.416  15.723  1.00  0.00     0.037 C 
HETATM   16  C15 UNL     1      -1.360   8.067  15.485  1.00  0.00    -0.002 C 
HETATM   17  C16 UNL     1      -1.877   9.038  16.550  1.00  0.00     0.013 C 
HETATM   18  C17 UNL     1      -2.757  10.051  15.764  1.00  0.00     0.023 C 
HETATM   19  C18 UNL     1      -2.868   9.424  14.351  1.00  0.00     0.018 C 
HETATM   20  C19 UNL     1      -1.433   8.886  14.172  1.00  0.00    -0.028 C 
HETATM   21  C20 UNL     1      -0.419  10.109  14.236  1.00  0.00     0.014 C 
HETATM   22  C21 UNL     1      -1.071  11.476  14.493  1.00  0.00     0.041 C 
HETATM   23  C22 UNL     1      -2.130  11.456  15.614  1.00  0.00     0.083 C 
HETATM   24  O5  UNL     1       0.982   6.692   9.396  1.00  0.00    -0.350 OA
ENDROOT
BRANCH  23  25
HETATM   25  O3  UNL     1      -3.191  12.339  15.185  1.00  0.00    -0.387 OA
HETATM   26  H35 UNL     1      -2.843  13.241  15.347  1.00  0.00     0.210 HD
ENDBRANCH  23  25
BRANCH  23  27
HETATM   27  C23 UNL     1      -1.600  12.049  16.937  1.00  0.00     0.202 C 
BRANCH  27  28
HETATM   28  O4  UNL     1      -2.708  12.293  17.814  1.00  0.00    -0.398 OA
HETATM   29  H38 UNL     1      -2.337  12.657  18.638  1.00  0.00     0.209 HD
ENDBRANCH  27  28
ENDBRANCH  23  27
BRANCH  14  30
HETATM   30  O2  UNL     1       1.780   6.194  14.733  1.00  0.00    -0.395 OA
HETATM   31  H22 UNL     1       1.806   5.632  15.528  1.00  0.00     0.210 HD
ENDBRANCH  14  30
TORSDOF 4
ENDMDL
