MODEL 1
REMARK minimizedAffinity -8.84629822
REMARK CNNscore 0.647139609
REMARK CNNaffinity 7.05669785
REMARK  11 active torsions:
REMARK  status: ('A' for Active; 'I' for Inactive)
REMARK    1  A    between atoms: C3_3  and  O1_4 
REMARK    2  A    between atoms: N1_14  and  O2_16 
REMARK    3  A    between atoms: O2_16  and  C13_17 
REMARK    4  A    between atoms: C13_17  and  C14_18 
REMARK       I    between atoms: C14_18  and  N2_20 
REMARK    5  A    between atoms: N2_20  and  C15_21 
REMARK    6  A    between atoms: C15_21  and  C16_22 
REMARK    7  A    between atoms: C15_21  and  C19_27 
REMARK    8  A    between atoms: C16_22  and  O5_24 
REMARK    9  A    between atoms: O5_24  and  C17_25 
REMARK   10  A    between atoms: C19_27  and  O6_28 
REMARK   11  A    between atoms: C19_27  and  C20_29 
ROOT
HETATM    1  C1  UNL     1     -10.411  40.367 -35.998  1.00  0.00     0.015 C 
HETATM    2  C2  UNL     1     -10.708  41.289 -35.288  1.00  0.00    -0.078 C 
HETATM    3  C3  UNL     1     -11.087  42.417 -34.408  1.00  0.00     0.128 C 
HETATM    4  C4  UNL     1     -10.910  42.009 -32.937  1.00  0.00     0.052 C 
HETATM    5  C5  UNL     1      -9.507  42.474 -32.529  1.00  0.00     0.010 C 
HETATM    6  C6  UNL     1      -8.925  43.245 -33.732  1.00  0.00     0.002 C 
HETATM    7  C7  UNL     1      -7.962  44.401 -33.381  1.00  0.00    -0.004 C 
HETATM    8  C8  UNL     1      -6.815  43.914 -32.481  1.00  0.00     0.010 C 
HETATM    9  C9  UNL     1      -5.815  45.028 -32.197  1.00  0.00     0.035 C 
HETATM   10  C10 UNL     1      -6.496  46.235 -31.597  1.00  0.00    -0.069 C 
HETATM   11  C11 UNL     1      -6.047  46.745 -30.436  1.00  0.00     0.030 C 
HETATM   12  C12 UNL     1      -6.643  47.977 -29.848  1.00  0.00     0.032 C 
HETATM   13  N1  UNL     1      -6.430  48.439 -28.655  1.00  0.00    -0.271 N 
ATOM     14  H1  UNL     1      -6.854  49.292 -28.290  1.00  0.00     0.194 HD
HETATM   15  C26 UNL     1      -7.557  48.779 -30.746  1.00  0.00     0.060 C 
HETATM   16  C27 UNL     1      -8.465  47.838 -31.520  1.00  0.00     0.020 C 
HETATM   17  C28 UNL     1      -7.689  46.799 -32.382  1.00  0.00    -0.016 C 
HETATM   18  C29 UNL     1      -7.140  47.516 -33.639  1.00  0.00     0.020 C 
HETATM   19  C30 UNL     1      -8.677  45.624 -32.752  1.00  0.00     0.002 C 
HETATM   20  C31 UNL     1      -9.849  46.068 -33.648  1.00  0.00     0.007 C 
HETATM   21  C32 UNL     1     -10.830  44.927 -33.922  1.00  0.00     0.014 C 
HETATM   22  C33 UNL     1     -10.166  43.671 -34.549  1.00  0.00     0.003 C 
HETATM   23  C34 UNL     1      -9.805  43.986 -36.016  1.00  0.00     0.020 C 
ENDROOT
BRANCH   3  24
HETATM   24  O1  UNL     1     -12.449  42.736 -34.655  1.00  0.00    -0.377 OA
HETATM   25  H2  UNL     1     -12.535  42.871 -35.614  1.00  0.00     0.211 HD
ENDBRANCH   3  24
BRANCH  13  26
HETATM   26  O2  UNL     1      -5.550  47.629 -27.924  1.00  0.00    -0.271 OA
BRANCH  26  27
HETATM   27  C13 UNL     1      -5.307  48.233 -26.657  1.00  0.00     0.303 C 
BRANCH  27  28
HETATM   28  C14 UNL     1      -3.932  48.884 -26.609  1.00  0.00     0.244 C 
HETATM   29  O3  UNL     1      -2.935  48.356 -27.097  1.00  0.00    -0.271 OA
HETATM   30  N2  UNL     1      -3.881  50.078 -25.921  1.00  0.00    -0.343 N 
HETATM   31  H16 UNL     1      -4.676  50.287 -25.322  1.00  0.00     0.163 HD
BRANCH  30  32
HETATM   32  C15 UNL     1      -2.591  50.666 -25.514  1.00  0.00     0.217 C 
BRANCH  32  33
HETATM   33  C16 UNL     1      -2.742  51.455 -24.202  1.00  0.00     0.284 C 
HETATM   34  O4  UNL     1      -2.998  52.653 -24.140  1.00  0.00    -0.263 OA
BRANCH  33  35
HETATM   35  O5  UNL     1      -2.599  50.649 -23.105  1.00  0.00    -0.320 OA
BRANCH  35  36
HETATM   36  C17 UNL     1      -3.623  49.662 -22.913  1.00  0.00     0.174 C 
HETATM   37  C18 UNL     1      -4.314  49.878 -21.580  1.00  0.00     0.034 C 
ENDBRANCH  35  36
ENDBRANCH  33  35
ENDBRANCH  32  33
BRANCH  32  38
HETATM   38  C19 UNL     1      -2.064  51.570 -26.649  1.00  0.00     0.183 C 
BRANCH  38  39
HETATM   39  O6  UNL     1      -2.653  52.878 -26.580  1.00  0.00    -0.388 OA
HETATM   40  H24 UNL     1      -2.116  53.456 -27.152  1.00  0.00     0.210 HD
ENDBRANCH  38  39
BRANCH  38  41
HETATM   41  C20 UNL     1      -0.556  51.648 -26.780  1.00  0.00    -0.027 A 
HETATM   42  C21 UNL     1       0.283  51.641 -25.654  1.00  0.00     0.010 A 
HETATM   43  C22 UNL     1       1.670  51.701 -25.799  1.00  0.00     0.001 A 
HETATM   44  C23 UNL     1       2.238  51.770 -27.069  1.00  0.00     0.000 A 
HETATM   45  C24 UNL     1       1.420  51.779 -28.196  1.00  0.00     0.001 A 
HETATM   46  C25 UNL     1       0.031  51.717 -28.053  1.00  0.00     0.010 A 
ENDBRANCH  38  41
ENDBRANCH  32  38
ENDBRANCH  30  32
ENDBRANCH  27  28
ENDBRANCH  26  27
ENDBRANCH  13  26
TORSDOF 11
ENDMDL
MODEL 2
REMARK minimizedAffinity -8.63312721
REMARK CNNscore 0.418374926
REMARK CNNaffinity 6.96238565
REMARK  11 active torsions:
REMARK  status: ('A' for Active; 'I' for Inactive)
REMARK    1  A    between atoms: C3_3  and  O1_4 
REMARK    2  A    between atoms: N1_14  and  O2_16 
REMARK    3  A    between atoms: O2_16  and  C13_17 
REMARK    4  A    between atoms: C13_17  and  C14_18 
REMARK       I    between atoms: C14_18  and  N2_20 
REMARK    5  A    between atoms: N2_20  and  C15_21 
REMARK    6  A    between atoms: C15_21  and  C16_22 
REMARK    7  A    between atoms: C15_21  and  C19_27 
REMARK    8  A    between atoms: C16_22  and  O5_24 
REMARK    9  A    between atoms: O5_24  and  C17_25 
REMARK   10  A    between atoms: C19_27  and  O6_28 
REMARK   11  A    between atoms: C19_27  and  C20_29 
ROOT
HETATM    1  C1  UNL     1       2.591  51.773 -27.412  1.00  0.00     0.015 C 
HETATM    2  C2  UNL     1       1.547  52.243 -27.047  1.00  0.00    -0.078 C 
HETATM    3  C3  UNL     1       0.263  52.834 -26.611  1.00  0.00     0.128 C 
HETATM    4  C4  UNL     1      -0.785  52.678 -27.724  1.00  0.00     0.052 C 
HETATM    5  C5  UNL     1      -1.549  51.384 -27.414  1.00  0.00     0.010 C 
HETATM    6  C6  UNL     1      -1.012  50.860 -26.067  1.00  0.00     0.002 C 
HETATM    7  C7  UNL     1      -2.034  50.102 -25.190  1.00  0.00    -0.004 C 
HETATM    8  C8  UNL     1      -2.682  48.946 -25.968  1.00  0.00     0.010 C 
HETATM    9  C9  UNL     1      -3.631  48.141 -25.089  1.00  0.00     0.035 C 
HETATM   10  C10 UNL     1      -4.682  49.027 -24.465  1.00  0.00    -0.069 C 
HETATM   11  C11 UNL     1      -5.985  48.723 -24.615  1.00  0.00     0.030 C 
HETATM   12  C12 UNL     1      -7.050  49.528 -23.956  1.00  0.00     0.032 C 
HETATM   13  N1  UNL     1      -8.324  49.452 -24.187  1.00  0.00    -0.271 N 
ATOM     14  H1  UNL     1      -9.025  50.018 -23.708  1.00  0.00     0.194 HD
HETATM   15  C26 UNL     1      -6.599  50.502 -22.891  1.00  0.00     0.060 C 
HETATM   16  C27 UNL     1      -5.339  51.216 -23.356  1.00  0.00     0.020 C 
HETATM   17  C28 UNL     1      -4.167  50.246 -23.688  1.00  0.00    -0.016 C 
HETATM   18  C29 UNL     1      -3.552  49.744 -22.360  1.00  0.00     0.020 C 
HETATM   19  C30 UNL     1      -3.115  51.026 -24.573  1.00  0.00     0.002 C 
HETATM   20  C31 UNL     1      -2.445  52.201 -23.834  1.00  0.00     0.007 C 
HETATM   21  C32 UNL     1      -1.494  52.983 -24.740  1.00  0.00     0.014 C 
HETATM   22  C33 UNL     1      -0.390  52.105 -25.393  1.00  0.00     0.003 C 
HETATM   23  C34 UNL     1       0.634  51.716 -24.307  1.00  0.00     0.020 C 
ENDROOT
BRANCH   3  24
HETATM   24  O1  UNL     1       0.475  54.212 -26.345  1.00  0.00    -0.377 OA
HETATM   25  H2  UNL     1       1.223  54.266 -25.726  1.00  0.00     0.211 HD
ENDBRANCH   3  24
BRANCH  13  26
HETATM   26  O2  UNL     1      -8.626  48.500 -25.171  1.00  0.00    -0.271 OA
BRANCH  26  27
HETATM   27  C13 UNL     1      -9.601  49.043 -26.057  1.00  0.00     0.303 C 
BRANCH  27  28
HETATM   28  C14 UNL     1     -10.690  48.026 -26.370  1.00  0.00     0.244 C 
HETATM   29  O3  UNL     1     -11.884  48.316 -26.361  1.00  0.00    -0.271 OA
HETATM   30  N2  UNL     1     -10.236  46.745 -26.600  1.00  0.00    -0.343 N 
HETATM   31  H16 UNL     1      -9.282  46.546 -26.312  1.00  0.00     0.163 HD
BRANCH  30  32
HETATM   32  C15 UNL     1     -11.165  45.598 -26.600  1.00  0.00     0.217 C 
BRANCH  32  33
HETATM   33  C16 UNL     1     -10.681  44.505 -25.633  1.00  0.00     0.284 C 
HETATM   34  O4  UNL     1     -11.339  44.070 -24.694  1.00  0.00    -0.263 OA
BRANCH  33  35
HETATM   35  O5  UNL     1      -9.438  44.041 -25.971  1.00  0.00    -0.320 OA
BRANCH  35  36
HETATM   36  C17 UNL     1      -8.708  43.383 -24.926  1.00  0.00     0.174 C 
HETATM   37  C18 UNL     1      -8.721  41.881 -25.144  1.00  0.00     0.034 C 
ENDBRANCH  35  36
ENDBRANCH  33  35
ENDBRANCH  32  33
BRANCH  32  38
HETATM   38  C19 UNL     1     -11.295  45.051 -28.039  1.00  0.00     0.183 C 
BRANCH  38  39
HETATM   39  O6  UNL     1     -10.003  44.883 -28.643  1.00  0.00    -0.388 OA
HETATM   40  H24 UNL     1     -10.135  44.324 -29.430  1.00  0.00     0.210 HD
ENDBRANCH  38  39
BRANCH  38  41
HETATM   41  C20 UNL     1     -12.145  43.805 -28.192  1.00  0.00    -0.027 A 
HETATM   42  C21 UNL     1     -11.601  42.593 -28.647  1.00  0.00     0.010 A 
HETATM   43  C22 UNL     1     -12.400  41.456 -28.769  1.00  0.00     0.001 A 
HETATM   44  C23 UNL     1     -13.752  41.512 -28.440  1.00  0.00     0.000 A 
HETATM   45  C24 UNL     1     -14.308  42.706 -27.989  1.00  0.00     0.001 A 
HETATM   46  C25 UNL     1     -13.509  43.846 -27.864  1.00  0.00     0.010 A 
ENDBRANCH  38  41
ENDBRANCH  32  38
ENDBRANCH  30  32
ENDBRANCH  27  28
ENDBRANCH  26  27
ENDBRANCH  13  26
TORSDOF 11
ENDMDL
MODEL 3
REMARK minimizedAffinity -8.41327763
REMARK CNNscore 0.407508492
REMARK CNNaffinity 6.58968592
REMARK  11 active torsions:
REMARK  status: ('A' for Active; 'I' for Inactive)
REMARK    1  A    between atoms: C3_3  and  O1_4 
REMARK    2  A    between atoms: N1_14  and  O2_16 
REMARK    3  A    between atoms: O2_16  and  C13_17 
REMARK    4  A    between atoms: C13_17  and  C14_18 
REMARK       I    between atoms: C14_18  and  N2_20 
REMARK    5  A    between atoms: N2_20  and  C15_21 
REMARK    6  A    between atoms: C15_21  and  C16_22 
REMARK    7  A    between atoms: C15_21  and  C19_27 
REMARK    8  A    between atoms: C16_22  and  O5_24 
REMARK    9  A    between atoms: O5_24  and  C17_25 
REMARK   10  A    between atoms: C19_27  and  O6_28 
REMARK   11  A    between atoms: C19_27  and  C20_29 
ROOT
HETATM    1  C1  UNL     1      -7.235  38.844 -35.113  1.00  0.00     0.015 C 
HETATM    2  C2  UNL     1      -7.772  39.534 -34.290  1.00  0.00    -0.078 C 
HETATM    3  C3  UNL     1      -8.437  40.370 -33.266  1.00  0.00     0.128 C 
HETATM    4  C4  UNL     1      -7.699  40.234 -31.925  1.00  0.00     0.052 C 
HETATM    5  C5  UNL     1      -6.693  41.390 -31.871  1.00  0.00     0.010 C 
HETATM    6  C6  UNL     1      -6.931  42.249 -33.129  1.00  0.00     0.002 C 
HETATM    7  C7  UNL     1      -6.656  43.761 -32.967  1.00  0.00    -0.004 C 
HETATM    8  C8  UNL     1      -5.237  44.013 -32.435  1.00  0.00     0.010 C 
HETATM    9  C9  UNL     1      -4.927  45.502 -32.349  1.00  0.00     0.035 C 
HETATM   10  C10 UNL     1      -5.953  46.227 -31.511  1.00  0.00    -0.069 C 
HETATM   11  C11 UNL     1      -5.550  46.988 -30.477  1.00  0.00     0.030 C 
HETATM   12  C12 UNL     1      -6.523  47.777 -29.671  1.00  0.00     0.032 C 
HETATM   13  N1  UNL     1      -6.280  48.378 -28.547  1.00  0.00    -0.271 N 
ATOM     14  H1  UNL     1      -6.974  48.915 -28.026  1.00  0.00     0.194 HD
HETATM   15  C26 UNL     1      -7.917  47.915 -30.239  1.00  0.00     0.060 C 
HETATM   16  C27 UNL     1      -8.368  46.580 -30.808  1.00  0.00     0.020 C 
HETATM   17  C28 UNL     1      -7.420  46.027 -31.914  1.00  0.00    -0.016 C 
HETATM   18  C29 UNL     1      -7.672  46.819 -33.219  1.00  0.00     0.020 C 
HETATM   19  C30 UNL     1      -7.710  44.484 -32.089  1.00  0.00     0.002 C 
HETATM   20  C31 UNL     1      -9.128  44.183 -32.613  1.00  0.00     0.007 C 
HETATM   21  C32 UNL     1      -9.405  42.682 -32.696  1.00  0.00     0.014 C 
HETATM   22  C33 UNL     1      -8.375  41.903 -33.560  1.00  0.00     0.003 C 
HETATM   23  C34 UNL     1      -8.625  42.240 -35.044  1.00  0.00     0.020 C 
ENDROOT
BRANCH   3  24
HETATM   24  O1  UNL     1      -9.775  39.917 -33.124  1.00  0.00    -0.377 OA
HETATM   25  H2  UNL     1     -10.165  39.910 -34.014  1.00  0.00     0.211 HD
ENDBRANCH   3  24
BRANCH  13  26
HETATM   26  O2  UNL     1      -4.952  48.203 -28.131  1.00  0.00    -0.271 OA
BRANCH  26  27
HETATM   27  C13 UNL     1      -4.859  48.500 -26.741  1.00  0.00     0.303 C 
BRANCH  27  28
HETATM   28  C14 UNL     1      -3.453  48.949 -26.365  1.00  0.00     0.244 C 
HETATM   29  O3  UNL     1      -2.472  48.221 -26.493  1.00  0.00    -0.271 OA
HETATM   30  N2  UNL     1      -3.379  50.209 -25.809  1.00  0.00    -0.343 N 
HETATM   31  H16 UNL     1      -4.254  50.613 -25.486  1.00  0.00     0.163 HD
BRANCH  30  32
HETATM   32  C15 UNL     1      -2.161  50.659 -25.108  1.00  0.00     0.217 C 
BRANCH  32  33
HETATM   33  C16 UNL     1      -2.448  50.897 -23.616  1.00  0.00     0.284 C 
HETATM   34  O4  UNL     1      -3.535  51.241 -23.166  1.00  0.00    -0.263 OA
BRANCH  33  35
HETATM   35  O5  UNL     1      -1.351  50.635 -22.840  1.00  0.00    -0.320 OA
BRANCH  35  36
HETATM   36  C17 UNL     1      -1.348  51.232 -21.535  1.00  0.00     0.174 C 
HETATM   37  C18 UNL     1      -0.380  52.400 -21.497  1.00  0.00     0.034 C 
ENDBRANCH  35  36
ENDBRANCH  33  35
ENDBRANCH  32  33
BRANCH  32  38
HETATM   38  C19 UNL     1      -1.632  51.943 -25.784  1.00  0.00     0.183 C 
BRANCH  38  39
HETATM   39  O6  UNL     1      -1.728  53.068 -24.897  1.00  0.00    -0.388 OA
HETATM   40  H24 UNL     1      -1.171  53.771 -25.278  1.00  0.00     0.210 HD
ENDBRANCH  38  39
BRANCH  38  41
HETATM   41  C20 UNL     1      -0.251  51.839 -26.400  1.00  0.00    -0.027 A 
HETATM   42  C21 UNL     1      -0.067  51.777 -27.791  1.00  0.00     0.010 A 
HETATM   43  C22 UNL     1       1.215  51.694 -28.336  1.00  0.00     0.001 A 
HETATM   44  C23 UNL     1       2.330  51.669 -27.502  1.00  0.00     0.000 A 
HETATM   45  C24 UNL     1       2.165  51.728 -26.121  1.00  0.00     0.001 A 
HETATM   46  C25 UNL     1       0.882  51.814 -25.572  1.00  0.00     0.010 A 
ENDBRANCH  38  41
ENDBRANCH  32  38
ENDBRANCH  30  32
ENDBRANCH  27  28
ENDBRANCH  26  27
ENDBRANCH  13  26
TORSDOF 11
ENDMDL
MODEL 4
REMARK minimizedAffinity -7.93669844
REMARK CNNscore 0.355976403
REMARK CNNaffinity 6.08141088
REMARK  11 active torsions:
REMARK  status: ('A' for Active; 'I' for Inactive)
REMARK    1  A    between atoms: C3_3  and  O1_4 
REMARK    2  A    between atoms: N1_14  and  O2_16 
REMARK    3  A    between atoms: O2_16  and  C13_17 
REMARK    4  A    between atoms: C13_17  and  C14_18 
REMARK       I    between atoms: C14_18  and  N2_20 
REMARK    5  A    between atoms: N2_20  and  C15_21 
REMARK    6  A    between atoms: C15_21  and  C16_22 
REMARK    7  A    between atoms: C15_21  and  C19_27 
REMARK    8  A    between atoms: C16_22  and  O5_24 
REMARK    9  A    between atoms: O5_24  and  C17_25 
REMARK   10  A    between atoms: C19_27  and  O6_28 
REMARK   11  A    between atoms: C19_27  and  C20_29 
ROOT
HETATM    1  C1  UNL     1       0.193  53.684 -19.684  1.00  0.00     0.015 C 
HETATM    2  C2  UNL     1      -0.225  52.586 -19.433  1.00  0.00    -0.078 C 
HETATM    3  C3  UNL     1      -0.735  51.236 -19.108  1.00  0.00     0.128 C 
HETATM    4  C4  UNL     1      -1.896  51.347 -18.108  1.00  0.00     0.052 C 
HETATM    5  C5  UNL     1      -3.181  51.370 -18.945  1.00  0.00     0.010 C 
HETATM    6  C6  UNL     1      -2.762  51.162 -20.414  1.00  0.00     0.002 C 
HETATM    7  C7  UNL     1      -3.780  50.410 -21.300  1.00  0.00    -0.004 C 
HETATM    8  C8  UNL     1      -5.160  51.083 -21.251  1.00  0.00     0.010 C 
HETATM    9  C9  UNL     1      -6.151  50.399 -22.184  1.00  0.00     0.035 C 
HETATM   10  C10 UNL     1      -6.260  48.924 -21.879  1.00  0.00    -0.069 C 
HETATM   11  C11 UNL     1      -7.468  48.380 -21.642  1.00  0.00     0.030 C 
HETATM   12  C12 UNL     1      -7.627  46.918 -21.410  1.00  0.00     0.032 C 
HETATM   13  N1  UNL     1      -8.696  46.320 -20.981  1.00  0.00    -0.271 N 
ATOM     14  H1  UNL     1      -8.768  45.313 -20.839  1.00  0.00     0.194 HD
HETATM   15  C26 UNL     1      -6.436  46.047 -21.740  1.00  0.00     0.060 C 
HETATM   16  C27 UNL     1      -5.164  46.720 -21.251  1.00  0.00     0.020 C 
HETATM   17  C28 UNL     1      -4.942  48.137 -21.858  1.00  0.00    -0.016 C 
HETATM   18  C29 UNL     1      -4.455  47.977 -23.317  1.00  0.00     0.020 C 
HETATM   19  C30 UNL     1      -3.890  48.901 -20.960  1.00  0.00     0.002 C 
HETATM   20  C31 UNL     1      -2.491  48.255 -20.971  1.00  0.00     0.007 C 
HETATM   21  C32 UNL     1      -1.519  48.969 -20.032  1.00  0.00     0.014 C 
HETATM   22  C33 UNL     1      -1.373  50.489 -20.323  1.00  0.00     0.003 C 
HETATM   23  C34 UNL     1      -0.565  50.664 -21.626  1.00  0.00     0.020 C 
ENDROOT
BRANCH   3  24
HETATM   24  O1  UNL     1       0.325  50.488 -18.530  1.00  0.00    -0.377 OA
HETATM   25  H2  UNL     1       1.076  50.544 -19.145  1.00  0.00     0.211 HD
ENDBRANCH   3  24
BRANCH  13  26
HETATM   26  O2  UNL     1      -9.741  47.221 -20.733  1.00  0.00    -0.271 OA
BRANCH  26  27
HETATM   27  C13 UNL     1     -10.983  46.575 -20.994  1.00  0.00     0.303 C 
BRANCH  27  28
HETATM   28  C14 UNL     1     -12.121  47.230 -20.223  1.00  0.00     0.244 C 
HETATM   29  O3  UNL     1     -12.021  48.349 -19.724  1.00  0.00    -0.271 OA
HETATM   30  N2  UNL     1     -13.244  46.446 -20.072  1.00  0.00    -0.343 N 
HETATM   31  H16 UNL     1     -13.131  45.454 -20.266  1.00  0.00     0.163 HD
BRANCH  30  32
HETATM   32  C15 UNL     1     -14.293  46.799 -19.097  1.00  0.00     0.217 C 
BRANCH  32  33
HETATM   33  C16 UNL     1     -13.669  47.290 -17.779  1.00  0.00     0.284 C 
HETATM   34  O4  UNL     1     -12.874  46.642 -17.106  1.00  0.00    -0.263 OA
BRANCH  33  35
HETATM   35  O5  UNL     1     -14.075  48.559 -17.467  1.00  0.00    -0.320 OA
BRANCH  35  36
HETATM   36  C17 UNL     1     -15.233  49.038 -18.166  1.00  0.00     0.174 C 
HETATM   37  C18 UNL     1     -15.766  50.291 -17.496  1.00  0.00     0.034 C 
ENDBRANCH  35  36
ENDBRANCH  33  35
ENDBRANCH  32  33
BRANCH  32  38
HETATM   38  C19 UNL     1     -15.200  45.572 -18.860  1.00  0.00     0.183 C 
BRANCH  38  39
HETATM   39  O6  UNL     1     -14.962  44.999 -17.564  1.00  0.00    -0.388 OA
HETATM   40  H24 UNL     1     -15.710  44.402 -17.383  1.00  0.00     0.210 HD
ENDBRANCH  38  39
BRANCH  38  41
HETATM   41  C20 UNL     1     -16.680  45.792 -19.105  1.00  0.00    -0.027 A 
HETATM   42  C21 UNL     1     -17.198  47.067 -19.384  1.00  0.00     0.010 A 
HETATM   43  C22 UNL     1     -18.563  47.244 -19.620  1.00  0.00     0.001 A 
HETATM   44  C23 UNL     1     -19.427  46.153 -19.578  1.00  0.00     0.000 A 
HETATM   45  C24 UNL     1     -18.929  44.883 -19.301  1.00  0.00     0.001 A 
HETATM   46  C25 UNL     1     -17.563  44.702 -19.068  1.00  0.00     0.010 A 
ENDBRANCH  38  41
ENDBRANCH  32  38
ENDBRANCH  30  32
ENDBRANCH  27  28
ENDBRANCH  26  27
ENDBRANCH  13  26
TORSDOF 11
ENDMDL
MODEL 5
REMARK minimizedAffinity -10.3203363
REMARK CNNscore 0.317678392
REMARK CNNaffinity 7.27405977
REMARK  11 active torsions:
REMARK  status: ('A' for Active; 'I' for Inactive)
REMARK    1  A    between atoms: C3_3  and  O1_4 
REMARK    2  A    between atoms: N1_14  and  O2_16 
REMARK    3  A    between atoms: O2_16  and  C13_17 
REMARK    4  A    between atoms: C13_17  and  C14_18 
REMARK       I    between atoms: C14_18  and  N2_20 
REMARK    5  A    between atoms: N2_20  and  C15_21 
REMARK    6  A    between atoms: C15_21  and  C16_22 
REMARK    7  A    between atoms: C15_21  and  C19_27 
REMARK    8  A    between atoms: C16_22  and  O5_24 
REMARK    9  A    between atoms: O5_24  and  C17_25 
REMARK   10  A    between atoms: C19_27  and  O6_28 
REMARK   11  A    between atoms: C19_27  and  C20_29 
ROOT
HETATM    1  C1  UNL     1       1.148  48.712 -14.745  1.00  0.00     0.015 C 
HETATM    2  C2  UNL     1       0.315  49.363 -15.314  1.00  0.00    -0.078 C 
HETATM    3  C3  UNL     1      -0.703  50.180 -16.011  1.00  0.00     0.128 C 
HETATM    4  C4  UNL     1      -0.034  51.015 -17.113  1.00  0.00     0.052 C 
HETATM    5  C5  UNL     1      -0.153  50.196 -18.404  1.00  0.00     0.010 C 
HETATM    6  C6  UNL     1      -0.987  48.944 -18.064  1.00  0.00     0.002 C 
HETATM    7  C7  UNL     1      -1.868  48.396 -19.209  1.00  0.00    -0.004 C 
HETATM    8  C8  UNL     1      -1.033  48.128 -20.470  1.00  0.00     0.010 C 
HETATM    9  C9  UNL     1      -1.876  47.511 -21.579  1.00  0.00     0.035 C 
HETATM   10  C10 UNL     1      -3.075  48.372 -21.899  1.00  0.00    -0.069 C 
HETATM   11  C11 UNL     1      -3.293  48.765 -23.167  1.00  0.00     0.030 C 
HETATM   12  C12 UNL     1      -4.502  49.553 -23.537  1.00  0.00     0.032 C 
HETATM   13  N1  UNL     1      -4.714  50.148 -24.670  1.00  0.00    -0.271 N 
ATOM     14  H1  UNL     1      -5.560  50.675 -24.887  1.00  0.00     0.194 HD
HETATM   15  C26 UNL     1      -5.598  49.634 -22.499  1.00  0.00     0.060 C 
HETATM   16  C27 UNL     1      -4.985  49.858 -21.127  1.00  0.00     0.020 C 
HETATM   17  C28 UNL     1      -3.975  48.747 -20.713  1.00  0.00    -0.016 C 
HETATM   18  C29 UNL     1      -4.772  47.487 -20.298  1.00  0.00     0.020 C 
HETATM   19  C30 UNL     1      -3.083  49.303 -19.533  1.00  0.00     0.002 C 
HETATM   20  C31 UNL     1      -3.881  49.594 -18.247  1.00  0.00     0.007 C 
HETATM   21  C32 UNL     1      -3.006  50.205 -17.152  1.00  0.00     0.014 C 
HETATM   22  C33 UNL     1      -1.767  49.341 -16.789  1.00  0.00     0.003 C 
HETATM   23  C34 UNL     1      -2.245  48.103 -16.002  1.00  0.00     0.020 C 
ENDROOT
BRANCH   3  24
HETATM   24  O1  UNL     1      -1.309  51.042 -15.059  1.00  0.00    -0.377 OA
HETATM   25  H2  UNL     1      -1.614  50.480 -14.327  1.00  0.00     0.211 HD
ENDBRANCH   3  24
BRANCH  13  26
HETATM   26  O2  UNL     1      -3.643  49.984 -25.561  1.00  0.00    -0.271 OA
BRANCH  26  27
HETATM   27  C13 UNL     1      -2.437  50.381 -24.915  1.00  0.00     0.303 C 
BRANCH  27  28
HETATM   28  C14 UNL     1      -2.195  51.876 -25.067  1.00  0.00     0.244 C 
HETATM   29  O3  UNL     1      -3.072  52.651 -25.441  1.00  0.00    -0.271 OA
HETATM   30  N2  UNL     1      -0.901  52.280 -24.816  1.00  0.00    -0.343 N 
HETATM   31  H16 UNL     1      -0.196  51.548 -24.793  1.00  0.00     0.163 HD
BRANCH  30  32
HETATM   32  C15 UNL     1      -0.430  53.619 -25.222  1.00  0.00     0.217 C 
BRANCH  32  33
HETATM   33  C16 UNL     1      -0.130  53.657 -26.729  1.00  0.00     0.284 C 
HETATM   34  O4  UNL     1      -0.086  54.682 -27.401  1.00  0.00    -0.263 OA
BRANCH  33  35
HETATM   35  O5  UNL     1       0.128  52.409 -27.228  1.00  0.00    -0.320 OA
BRANCH  35  36
HETATM   36  C17 UNL     1       1.465  52.185 -27.700  1.00  0.00     0.174 C 
HETATM   37  C18 UNL     1       2.289  51.495 -26.629  1.00  0.00     0.034 C 
ENDBRANCH  35  36
ENDBRANCH  33  35
ENDBRANCH  32  33
BRANCH  32  38
HETATM   38  C19 UNL     1       0.821  53.989 -24.395  1.00  0.00     0.183 C 
BRANCH  38  39
HETATM   39  O6  UNL     1       1.173  55.368 -24.585  1.00  0.00    -0.388 OA
HETATM   40  H24 UNL     1       1.798  55.596 -23.874  1.00  0.00     0.210 HD
ENDBRANCH  38  39
BRANCH  38  41
HETATM   41  C20 UNL     1       0.765  53.628 -22.924  1.00  0.00    -0.027 A 
HETATM   42  C21 UNL     1       0.142  52.452 -22.476  1.00  0.00     0.010 A 
HETATM   43  C22 UNL     1       0.114  52.134 -21.118  1.00  0.00     0.001 A 
HETATM   44  C23 UNL     1       0.705  52.986 -20.188  1.00  0.00     0.000 A 
HETATM   45  C24 UNL     1       1.326  54.157 -20.615  1.00  0.00     0.001 A 
HETATM   46  C25 UNL     1       1.358  54.476 -21.975  1.00  0.00     0.010 A 
ENDBRANCH  38  41
ENDBRANCH  32  38
ENDBRANCH  30  32
ENDBRANCH  27  28
ENDBRANCH  26  27
ENDBRANCH  13  26
TORSDOF 11
ENDMDL
MODEL 6
REMARK minimizedAffinity -7.93854809
REMARK CNNscore 0.312912494
REMARK CNNaffinity 5.8414073
REMARK  11 active torsions:
REMARK  status: ('A' for Active; 'I' for Inactive)
REMARK    1  A    between atoms: C3_3  and  O1_4 
REMARK    2  A    between atoms: N1_14  and  O2_16 
REMARK    3  A    between atoms: O2_16  and  C13_17 
REMARK    4  A    between atoms: C13_17  and  C14_18 
REMARK       I    between atoms: C14_18  and  N2_20 
REMARK    5  A    between atoms: N2_20  and  C15_21 
REMARK    6  A    between atoms: C15_21  and  C16_22 
REMARK    7  A    between atoms: C15_21  and  C19_27 
REMARK    8  A    between atoms: C16_22  and  O5_24 
REMARK    9  A    between atoms: O5_24  and  C17_25 
REMARK   10  A    between atoms: C19_27  and  O6_28 
REMARK   11  A    between atoms: C19_27  and  C20_29 
ROOT
HETATM    1  C1  UNL     1      -4.102  42.859 -32.662  1.00  0.00     0.015 C 
HETATM    2  C2  UNL     1      -5.266  43.142 -32.743  1.00  0.00    -0.078 C 
HETATM    3  C3  UNL     1      -6.704  43.476 -32.849  1.00  0.00     0.128 C 
HETATM    4  C4  UNL     1      -7.528  42.502 -31.993  1.00  0.00     0.052 C 
HETATM    5  C5  UNL     1      -7.716  43.183 -30.631  1.00  0.00     0.010 C 
HETATM    6  C6  UNL     1      -7.095  44.590 -30.745  1.00  0.00     0.002 C 
HETATM    7  C7  UNL     1      -7.770  45.689 -29.895  1.00  0.00    -0.004 C 
HETATM    8  C8  UNL     1      -7.842  45.280 -28.416  1.00  0.00     0.010 C 
HETATM    9  C9  UNL     1      -8.432  46.391 -27.556  1.00  0.00     0.035 C 
HETATM   10  C10 UNL     1      -9.789  46.815 -28.065  1.00  0.00    -0.069 C 
HETATM   11  C11 UNL     1     -10.843  46.820 -27.228  1.00  0.00     0.030 C 
HETATM   12  C12 UNL     1     -12.181  47.301 -27.670  1.00  0.00     0.032 C 
HETATM   13  N1  UNL     1     -13.297  47.168 -27.023  1.00  0.00    -0.271 N 
ATOM     14  H1  UNL     1     -14.195  47.517 -27.357  1.00  0.00     0.194 HD
HETATM   15  C26 UNL     1     -12.231  48.044 -28.986  1.00  0.00     0.060 C 
HETATM   16  C27 UNL     1     -11.346  47.341 -30.001  1.00  0.00     0.020 C 
HETATM   17  C28 UNL     1      -9.863  47.214 -29.546  1.00  0.00    -0.016 C 
HETATM   18  C29 UNL     1      -9.179  48.592 -29.706  1.00  0.00     0.020 C 
HETATM   19  C30 UNL     1      -9.169  46.099 -30.424  1.00  0.00     0.002 C 
HETATM   20  C31 UNL     1      -9.081  46.463 -31.919  1.00  0.00     0.007 C 
HETATM   21  C32 UNL     1      -8.478  45.333 -32.753  1.00  0.00     0.014 C 
HETATM   22  C33 UNL     1      -7.076  44.876 -32.265  1.00  0.00     0.003 C 
HETATM   23  C34 UNL     1      -6.049  45.969 -32.629  1.00  0.00     0.020 C 
ENDROOT
BRANCH   3  24
HETATM   24  O1  UNL     1      -7.088  43.357 -34.211  1.00  0.00    -0.377 OA
HETATM   25  H2  UNL     1      -6.466  43.899 -34.726  1.00  0.00     0.211 HD
ENDBRANCH   3  24
BRANCH  13  26
HETATM   26  O2  UNL     1     -13.126  46.487 -25.809  1.00  0.00    -0.271 OA
BRANCH  26  27
HETATM   27  C13 UNL     1     -14.296  45.722 -25.536  1.00  0.00     0.303 C 
BRANCH  27  28
HETATM   28  C14 UNL     1     -15.361  46.567 -24.851  1.00  0.00     0.244 C 
HETATM   29  O3  UNL     1     -15.184  47.750 -24.570  1.00  0.00    -0.271 OA
HETATM   30  N2  UNL     1     -16.511  45.886 -24.515  1.00  0.00    -0.343 N 
HETATM   31  H16 UNL     1     -16.455  44.870 -24.528  1.00  0.00     0.163 HD
BRANCH  30  32
HETATM   32  C15 UNL     1     -17.492  46.466 -23.578  1.00  0.00     0.217 C 
BRANCH  32  33
HETATM   33  C16 UNL     1     -17.395  45.791 -22.200  1.00  0.00     0.284 C 
HETATM   34  O4  UNL     1     -16.617  44.883 -21.926  1.00  0.00    -0.263 OA
BRANCH  33  35
HETATM   35  O5  UNL     1     -18.255  46.355 -21.296  1.00  0.00    -0.320 OA
BRANCH  35  36
HETATM   36  C17 UNL     1     -17.968  46.099 -19.913  1.00  0.00     0.174 C 
HETATM   37  C18 UNL     1     -19.257  46.042 -19.114  1.00  0.00     0.034 C 
ENDBRANCH  35  36
ENDBRANCH  33  35
ENDBRANCH  32  33
BRANCH  32  38
HETATM   38  C19 UNL     1     -18.911  46.318 -24.171  1.00  0.00     0.183 C 
BRANCH  38  39
HETATM   39  O6  UNL     1     -19.282  47.490 -24.913  1.00  0.00    -0.388 OA
HETATM   40  H24 UNL     1     -20.058  47.246 -25.449  1.00  0.00     0.210 HD
ENDBRANCH  38  39
BRANCH  38  41
HETATM   41  C20 UNL     1     -19.159  45.054 -24.970  1.00  0.00    -0.027 A 
HETATM   42  C21 UNL     1     -19.396  43.821 -24.343  1.00  0.00     0.010 A 
HETATM   43  C22 UNL     1     -19.635  42.672 -25.099  1.00  0.00     0.001 A 
HETATM   44  C23 UNL     1     -19.638  42.738 -26.490  1.00  0.00     0.000 A 
HETATM   45  C24 UNL     1     -19.402  43.953 -27.128  1.00  0.00     0.001 A 
HETATM   46  C25 UNL     1     -19.166  45.106 -26.373  1.00  0.00     0.010 A 
ENDBRANCH  38  41
ENDBRANCH  32  38
ENDBRANCH  30  32
ENDBRANCH  27  28
ENDBRANCH  26  27
ENDBRANCH  13  26
TORSDOF 11
ENDMDL
MODEL 7
REMARK minimizedAffinity -9.64321995
REMARK CNNscore 0.312399536
REMARK CNNaffinity 6.78970957
REMARK  11 active torsions:
REMARK  status: ('A' for Active; 'I' for Inactive)
REMARK    1  A    between atoms: C3_3  and  O1_4 
REMARK    2  A    between atoms: N1_14  and  O2_16 
REMARK    3  A    between atoms: O2_16  and  C13_17 
REMARK    4  A    between atoms: C13_17  and  C14_18 
REMARK       I    between atoms: C14_18  and  N2_20 
REMARK    5  A    between atoms: N2_20  and  C15_21 
REMARK    6  A    between atoms: C15_21  and  C16_22 
REMARK    7  A    between atoms: C15_21  and  C19_27 
REMARK    8  A    between atoms: C16_22  and  O5_24 
REMARK    9  A    between atoms: O5_24  and  C17_25 
REMARK   10  A    between atoms: C19_27  and  O6_28 
REMARK   11  A    between atoms: C19_27  and  C20_29 
ROOT
HETATM    1  C1  UNL     1       2.573  51.840 -27.382  1.00  0.00     0.015 C 
HETATM    2  C2  UNL     1       1.524  52.300 -27.018  1.00  0.00    -0.078 C 
HETATM    3  C3  UNL     1       0.233  52.878 -26.582  1.00  0.00     0.128 C 
HETATM    4  C4  UNL     1      -0.811  52.713 -27.697  1.00  0.00     0.052 C 
HETATM    5  C5  UNL     1      -1.563  51.412 -27.389  1.00  0.00     0.010 C 
HETATM    6  C6  UNL     1      -1.023  50.891 -26.042  1.00  0.00     0.002 C 
HETATM    7  C7  UNL     1      -2.039  50.122 -25.167  1.00  0.00    -0.004 C 
HETATM    8  C8  UNL     1      -2.675  48.961 -25.947  1.00  0.00     0.010 C 
HETATM    9  C9  UNL     1      -3.617  48.147 -25.070  1.00  0.00     0.035 C 
HETATM   10  C10 UNL     1      -4.678  49.022 -24.446  1.00  0.00    -0.069 C 
HETATM   11  C11 UNL     1      -5.977  48.705 -24.598  1.00  0.00     0.030 C 
HETATM   12  C12 UNL     1      -7.050  49.499 -23.939  1.00  0.00     0.032 C 
HETATM   13  N1  UNL     1      -8.323  49.411 -24.171  1.00  0.00    -0.271 N 
ATOM     14  H1  UNL     1      -9.030  49.970 -23.693  1.00  0.00     0.194 HD
HETATM   15  C26 UNL     1      -6.609  50.477 -22.873  1.00  0.00     0.060 C 
HETATM   16  C27 UNL     1      -5.357  51.203 -23.335  1.00  0.00     0.020 C 
HETATM   17  C28 UNL     1      -4.174  50.245 -23.667  1.00  0.00    -0.016 C 
HETATM   18  C29 UNL     1      -3.557  49.747 -22.338  1.00  0.00     0.020 C 
HETATM   19  C30 UNL     1      -3.129  51.035 -24.550  1.00  0.00     0.002 C 
HETATM   20  C31 UNL     1      -2.471  52.216 -23.809  1.00  0.00     0.007 C 
HETATM   21  C32 UNL     1      -1.526  53.008 -24.714  1.00  0.00     0.014 C 
HETATM   22  C33 UNL     1      -0.414  52.142 -25.366  1.00  0.00     0.003 C 
HETATM   23  C34 UNL     1       0.613  51.762 -24.280  1.00  0.00     0.020 C 
ENDROOT
BRANCH   3  24
HETATM   24  O1  UNL     1       0.432  54.258 -26.314  1.00  0.00    -0.377 OA
HETATM   25  H2  UNL     1       1.179  54.318 -25.695  1.00  0.00     0.211 HD
ENDBRANCH   3  24
BRANCH  13  26
HETATM   26  O2  UNL     1      -8.616  48.458 -25.157  1.00  0.00    -0.271 OA
BRANCH  26  27
HETATM   27  C13 UNL     1      -9.530  49.023 -26.092  1.00  0.00     0.303 C 
BRANCH  27  28
HETATM   28  C14 UNL     1     -10.688  48.075 -26.373  1.00  0.00     0.244 C 
HETATM   29  O3  UNL     1     -11.478  47.722 -25.501  1.00  0.00    -0.271 OA
HETATM   30  N2  UNL     1     -10.742  47.596 -27.665  1.00  0.00    -0.343 N 
HETATM   31  H16 UNL     1      -9.902  47.715 -28.226  1.00  0.00     0.163 HD
BRANCH  30  32
HETATM   32  C15 UNL     1     -11.593  46.443 -28.013  1.00  0.00     0.217 C 
BRANCH  32  33
HETATM   33  C16 UNL     1     -10.938  45.594 -29.115  1.00  0.00     0.284 C 
HETATM   34  O4  UNL     1     -11.536  44.777 -29.808  1.00  0.00    -0.263 OA
BRANCH  33  35
HETATM   35  O5  UNL     1      -9.610  45.891 -29.263  1.00  0.00    -0.320 OA
BRANCH  35  36
HETATM   36  C17 UNL     1      -9.282  46.781 -30.340  1.00  0.00     0.174 C 
HETATM   37  C18 UNL     1     -10.232  46.566 -31.504  1.00  0.00     0.034 C 
ENDBRANCH  35  36
ENDBRANCH  33  35
ENDBRANCH  32  33
BRANCH  32  38
HETATM   38  C19 UNL     1     -12.983  46.953 -28.455  1.00  0.00     0.183 C 
BRANCH  38  39
HETATM   39  O6  UNL     1     -13.077  47.011 -29.887  1.00  0.00    -0.388 OA
HETATM   40  H24 UNL     1     -14.024  47.101 -30.099  1.00  0.00     0.210 HD
ENDBRANCH  38  39
BRANCH  38  41
HETATM   41  C20 UNL     1     -14.170  46.230 -27.850  1.00  0.00    -0.027 A 
HETATM   42  C21 UNL     1     -14.558  46.439 -26.517  1.00  0.00     0.010 A 
HETATM   43  C22 UNL     1     -15.663  45.772 -25.984  1.00  0.00     0.001 A 
HETATM   44  C23 UNL     1     -16.393  44.887 -26.773  1.00  0.00     0.000 A 
HETATM   45  C24 UNL     1     -16.020  44.667 -28.097  1.00  0.00     0.001 A 
HETATM   46  C25 UNL     1     -14.916  45.336 -28.633  1.00  0.00     0.010 A 
ENDBRANCH  38  41
ENDBRANCH  32  38
ENDBRANCH  30  32
ENDBRANCH  27  28
ENDBRANCH  26  27
ENDBRANCH  13  26
TORSDOF 11
ENDMDL
MODEL 8
REMARK minimizedAffinity -10.1521235
REMARK CNNscore 0.286549658
REMARK CNNaffinity 6.85295486
REMARK  11 active torsions:
REMARK  status: ('A' for Active; 'I' for Inactive)
REMARK    1  A    between atoms: C3_3  and  O1_4 
REMARK    2  A    between atoms: N1_14  and  O2_16 
REMARK    3  A    between atoms: O2_16  and  C13_17 
REMARK    4  A    between atoms: C13_17  and  C14_18 
REMARK       I    between atoms: C14_18  and  N2_20 
REMARK    5  A    between atoms: N2_20  and  C15_21 
REMARK    6  A    between atoms: C15_21  and  C16_22 
REMARK    7  A    between atoms: C15_21  and  C19_27 
REMARK    8  A    between atoms: C16_22  and  O5_24 
REMARK    9  A    between atoms: O5_24  and  C17_25 
REMARK   10  A    between atoms: C19_27  and  O6_28 
REMARK   11  A    between atoms: C19_27  and  C20_29 
ROOT
HETATM    1  C1  UNL     1       2.565  51.814 -27.240  1.00  0.00     0.015 C 
HETATM    2  C2  UNL     1       1.515  52.277 -26.885  1.00  0.00    -0.078 C 
HETATM    3  C3  UNL     1       0.223  52.859 -26.460  1.00  0.00     0.128 C 
HETATM    4  C4  UNL     1      -0.815  52.692 -27.580  1.00  0.00     0.052 C 
HETATM    5  C5  UNL     1      -1.572  51.393 -27.272  1.00  0.00     0.010 C 
HETATM    6  C6  UNL     1      -1.041  50.877 -25.919  1.00  0.00     0.002 C 
HETATM    7  C7  UNL     1      -2.064  50.113 -25.049  1.00  0.00    -0.004 C 
HETATM    8  C8  UNL     1      -2.696  48.950 -25.828  1.00  0.00     0.010 C 
HETATM    9  C9  UNL     1      -3.645  48.140 -24.954  1.00  0.00     0.035 C 
HETATM   10  C10 UNL     1      -4.709  49.020 -24.340  1.00  0.00    -0.069 C 
HETATM   11  C11 UNL     1      -6.007  48.705 -24.499  1.00  0.00     0.030 C 
HETATM   12  C12 UNL     1      -7.083  49.503 -23.850  1.00  0.00     0.032 C 
HETATM   13  N1  UNL     1      -8.356  49.417 -24.090  1.00  0.00    -0.271 N 
ATOM     14  H1  UNL     1      -9.064  49.979 -23.618  1.00  0.00     0.194 HD
HETATM   15  C26 UNL     1      -6.648  50.484 -22.785  1.00  0.00     0.060 C 
HETATM   16  C27 UNL     1      -5.391  51.206 -23.242  1.00  0.00     0.020 C 
HETATM   17  C28 UNL     1      -4.208  50.245 -23.562  1.00  0.00    -0.016 C 
HETATM   18  C29 UNL     1      -3.600  49.751 -22.228  1.00  0.00     0.020 C 
HETATM   19  C30 UNL     1      -3.156  51.030 -24.442  1.00  0.00     0.002 C 
HETATM   20  C31 UNL     1      -2.501  52.212 -23.701  1.00  0.00     0.007 C 
HETATM   21  C32 UNL     1      -1.549  52.999 -24.603  1.00  0.00     0.014 C 
HETATM   22  C33 UNL     1      -0.434  52.129 -25.245  1.00  0.00     0.003 C 
HETATM   23  C34 UNL     1       0.586  51.751 -24.150  1.00  0.00     0.020 C 
ENDROOT
BRANCH   3  24
HETATM   24  O1  UNL     1       0.422  54.240 -26.195  1.00  0.00    -0.377 OA
HETATM   25  H2  UNL     1       1.165  54.301 -25.571  1.00  0.00     0.211 HD
ENDBRANCH   3  24
BRANCH  13  26
HETATM   26  O2  UNL     1      -8.643  48.460 -25.074  1.00  0.00    -0.271 OA
BRANCH  26  27
HETATM   27  C13 UNL     1      -9.323  49.094 -26.153  1.00  0.00     0.303 C 
BRANCH  27  28
HETATM   28  C14 UNL     1      -9.167  48.305 -27.445  1.00  0.00     0.244 C 
HETATM   29  O3  UNL     1      -9.389  47.098 -27.512  1.00  0.00    -0.271 OA
HETATM   30  N2  UNL     1      -8.695  49.036 -28.515  1.00  0.00    -0.343 N 
HETATM   31  H16 UNL     1      -8.277  49.937 -28.297  1.00  0.00     0.163 HD
BRANCH  30  32
HETATM   32  C15 UNL     1      -8.192  48.367 -29.730  1.00  0.00     0.217 C 
BRANCH  32  33
HETATM   33  C16 UNL     1      -9.188  47.302 -30.218  1.00  0.00     0.284 C 
HETATM   34  O4  UNL     1      -9.074  46.099 -30.009  1.00  0.00    -0.263 OA
BRANCH  33  35
HETATM   35  O5  UNL     1     -10.246  47.863 -30.881  1.00  0.00    -0.320 OA
BRANCH  35  36
HETATM   36  C17 UNL     1     -11.529  47.270 -30.631  1.00  0.00     0.174 C 
HETATM   37  C18 UNL     1     -12.163  47.896 -29.403  1.00  0.00     0.034 C 
ENDBRANCH  35  36
ENDBRANCH  33  35
ENDBRANCH  32  33
BRANCH  32  38
HETATM   38  C19 UNL     1      -6.811  47.741 -29.430  1.00  0.00     0.183 C 
BRANCH  38  39
HETATM   39  O6  UNL     1      -6.930  46.661 -28.490  1.00  0.00    -0.388 OA
HETATM   40  H24 UNL     1      -6.092  46.166 -28.529  1.00  0.00     0.210 HD
ENDBRANCH  38  39
BRANCH  38  41
HETATM   41  C20 UNL     1      -5.998  47.335 -30.642  1.00  0.00    -0.027 A 
HETATM   42  C21 UNL     1      -5.827  45.987 -30.997  1.00  0.00     0.010 A 
HETATM   43  C22 UNL     1      -5.083  45.637 -32.125  1.00  0.00     0.001 A 
HETATM   44  C23 UNL     1      -4.500  46.625 -32.913  1.00  0.00     0.000 A 
HETATM   45  C24 UNL     1      -4.658  47.967 -32.574  1.00  0.00     0.001 A 
HETATM   46  C25 UNL     1      -5.404  48.321 -31.446  1.00  0.00     0.010 A 
ENDBRANCH  38  41
ENDBRANCH  32  38
ENDBRANCH  30  32
ENDBRANCH  27  28
ENDBRANCH  26  27
ENDBRANCH  13  26
TORSDOF 11
ENDMDL
MODEL 9
REMARK minimizedAffinity -9.90401649
REMARK CNNscore 0.276235193
REMARK CNNaffinity 6.87708998
REMARK  11 active torsions:
REMARK  status: ('A' for Active; 'I' for Inactive)
REMARK    1  A    between atoms: C3_3  and  O1_4 
REMARK    2  A    between atoms: N1_14  and  O2_16 
REMARK    3  A    between atoms: O2_16  and  C13_17 
REMARK    4  A    between atoms: C13_17  and  C14_18 
REMARK       I    between atoms: C14_18  and  N2_20 
REMARK    5  A    between atoms: N2_20  and  C15_21 
REMARK    6  A    between atoms: C15_21  and  C16_22 
REMARK    7  A    between atoms: C15_21  and  C19_27 
REMARK    8  A    between atoms: C16_22  and  O5_24 
REMARK    9  A    between atoms: O5_24  and  C17_25 
REMARK   10  A    between atoms: C19_27  and  O6_28 
REMARK   11  A    between atoms: C19_27  and  C20_29 
ROOT
HETATM    1  C1  UNL     1       2.365  51.840 -27.714  1.00  0.00     0.015 C 
HETATM    2  C2  UNL     1       1.358  52.306 -27.254  1.00  0.00    -0.078 C 
HETATM    3  C3  UNL     1       0.117  52.891 -26.699  1.00  0.00     0.128 C 
HETATM    4  C4  UNL     1      -1.016  52.778 -27.730  1.00  0.00     0.052 C 
HETATM    5  C5  UNL     1      -1.766  51.481 -27.402  1.00  0.00     0.010 C 
HETATM    6  C6  UNL     1      -1.130  50.909 -26.118  1.00  0.00     0.002 C 
HETATM    7  C7  UNL     1      -2.087  50.130 -25.188  1.00  0.00    -0.004 C 
HETATM    8  C8  UNL     1      -2.805  49.005 -25.949  1.00  0.00     0.010 C 
HETATM    9  C9  UNL     1      -3.689  48.179 -25.024  1.00  0.00     0.035 C 
HETATM   10  C10 UNL     1      -4.680  49.051 -24.291  1.00  0.00    -0.069 C 
HETATM   11  C11 UNL     1      -5.993  48.761 -24.347  1.00  0.00     0.030 C 
HETATM   12  C12 UNL     1      -6.995  49.552 -23.581  1.00  0.00     0.032 C 
HETATM   13  N1  UNL     1      -8.284  49.492 -23.712  1.00  0.00    -0.271 N 
ATOM     14  H1  UNL     1      -8.939  50.048 -23.162  1.00  0.00     0.194 HD
HETATM   15  C26 UNL     1      -6.452  50.488 -22.525  1.00  0.00     0.060 C 
HETATM   16  C27 UNL     1      -5.227  51.207 -23.064  1.00  0.00     0.020 C 
HETATM   17  C28 UNL     1      -4.093  50.241 -23.518  1.00  0.00    -0.016 C 
HETATM   18  C29 UNL     1      -3.381  49.691 -22.259  1.00  0.00     0.020 C 
HETATM   19  C30 UNL     1      -3.107  51.041 -24.459  1.00  0.00     0.002 C 
HETATM   20  C31 UNL     1      -2.370  52.187 -23.738  1.00  0.00     0.007 C 
HETATM   21  C32 UNL     1      -1.485  52.991 -24.691  1.00  0.00     0.014 C 
HETATM   22  C33 UNL     1      -0.445  52.128 -25.457  1.00  0.00     0.003 C 
HETATM   23  C34 UNL     1       0.658  51.697 -24.468  1.00  0.00     0.020 C 
ENDROOT
BRANCH   3  24
HETATM   24  O1  UNL     1       0.363  54.259 -26.406  1.00  0.00    -0.377 OA
HETATM   25  H2  UNL     1       1.158  54.287 -25.847  1.00  0.00     0.211 HD
ENDBRANCH   3  24
BRANCH  13  26
HETATM   26  O2  UNL     1      -8.672  48.575 -24.700  1.00  0.00    -0.271 OA
BRANCH  26  27
HETATM   27  C13 UNL     1      -9.107  49.291 -25.852  1.00  0.00     0.303 C 
BRANCH  27  28
HETATM   28  C14 UNL     1     -10.225  48.550 -26.573  1.00  0.00     0.244 C 
HETATM   29  O3  UNL     1     -11.400  48.627 -26.223  1.00  0.00    -0.271 OA
HETATM   30  N2  UNL     1      -9.807  47.738 -27.606  1.00  0.00    -0.343 N 
HETATM   31  H16 UNL     1      -8.814  47.522 -27.637  1.00  0.00     0.163 HD
BRANCH  30  32
HETATM   32  C15 UNL     1     -10.708  46.724 -28.187  1.00  0.00     0.217 C 
BRANCH  32  33
HETATM   33  C16 UNL     1      -9.965  45.396 -28.407  1.00  0.00     0.284 C 
HETATM   34  O4  UNL     1     -10.432  44.430 -29.001  1.00  0.00    -0.263 OA
BRANCH  33  35
HETATM   35  O5  UNL     1      -8.696  45.433 -27.895  1.00  0.00    -0.320 OA
BRANCH  35  36
HETATM   36  C17 UNL     1      -7.662  45.830 -28.808  1.00  0.00     0.174 C 
HETATM   37  C18 UNL     1      -7.212  44.642 -29.637  1.00  0.00     0.034 C 
ENDBRANCH  35  36
ENDBRANCH  33  35
ENDBRANCH  32  33
BRANCH  32  38
HETATM   38  C19 UNL     1     -11.289  47.262 -29.514  1.00  0.00     0.183 C 
BRANCH  38  39
HETATM   39  O6  UNL     1     -12.141  48.394 -29.280  1.00  0.00    -0.388 OA
HETATM   40  H24 UNL     1     -12.275  48.825 -30.143  1.00  0.00     0.210 HD
ENDBRANCH  38  39
BRANCH  38  41
HETATM   41  C20 UNL     1     -10.277  47.546 -30.606  1.00  0.00    -0.027 A 
HETATM   42  C21 UNL     1      -9.382  48.625 -30.518  1.00  0.00     0.010 A 
HETATM   43  C22 UNL     1      -8.449  48.860 -31.530  1.00  0.00     0.001 A 
HETATM   44  C23 UNL     1      -8.399  48.024 -32.643  1.00  0.00     0.000 A 
HETATM   45  C24 UNL     1      -9.280  46.951 -32.746  1.00  0.00     0.001 A 
HETATM   46  C25 UNL     1     -10.213  46.712 -31.733  1.00  0.00     0.010 A 
ENDBRANCH  38  41
ENDBRANCH  32  38
ENDBRANCH  30  32
ENDBRANCH  27  28
ENDBRANCH  26  27
ENDBRANCH  13  26
TORSDOF 11
ENDMDL
