MODEL 1
REMARK minimizedAffinity -9.55960274
REMARK  6 active torsions:
REMARK  status: ('A' for Active; 'I' for Inactive)
REMARK    1  A    between atoms: C2_2  and  C9_11 
REMARK    2  A    between atoms: C3_3  and  C4_4 
REMARK    3  A    between atoms: C4_4  and  O1_5 
REMARK    4  A    between atoms: C4_4  and  C5_6 
REMARK    5  A    between atoms: C16_18  and  O3_19 
REMARK    6  A    between atoms: C18_21  and  C19_22 
ROOT
HETATM    1  C9  UNL     1       0.035  51.255 -21.021  1.00  0.00     0.019 C 
HETATM    2  C10 UNL     1      -0.035  51.656 -19.518  1.00  0.00     0.010 C 
HETATM    3  C11 UNL     1      -1.464  51.325 -19.042  1.00  0.00     0.011 C 
HETATM    4  C12 UNL     1      -1.954  50.221 -20.004  1.00  0.00    -0.032 C 
HETATM    5  C13 UNL     1      -1.220  48.907 -19.577  1.00  0.00     0.016 C 
HETATM    6  C14 UNL     1      -1.406  50.793 -21.336  1.00  0.00     0.005 C 
HETATM    7  C15 UNL     1      -1.616  49.820 -22.485  1.00  0.00     0.038 C 
HETATM    8  C16 UNL     1      -3.105  49.451 -22.642  1.00  0.00     0.124 C 
HETATM    9  C17 UNL     1      -3.783  48.961 -21.322  1.00  0.00     0.039 C 
HETATM   10  C18 UNL     1      -5.272  48.407 -21.463  1.00  0.00     0.025 C 
HETATM   11  C20 UNL     1      -5.289  47.128 -22.375  1.00  0.00     0.025 C 
HETATM   12  C21 UNL     1      -6.389  46.108 -22.103  1.00  0.00     0.080 C 
HETATM   13  C22 UNL     1      -7.566  46.720 -21.397  1.00  0.00     0.135 C 
HETATM   14  O5  UNL     1      -8.697  46.617 -21.868  1.00  0.00    -0.297 OA
HETATM   15  C23 UNL     1      -7.279  47.366 -20.041  1.00  0.00     0.018 C 
HETATM   16  C24 UNL     1      -8.410  48.348 -19.688  1.00  0.00     0.023 C 
HETATM   17  C25 UNL     1      -7.343  46.229 -18.993  1.00  0.00     0.023 C 
HETATM   18  C26 UNL     1      -5.827  47.985 -20.055  1.00  0.00     0.016 C 
HETATM   19  C27 UNL     1      -5.607  49.035 -18.954  1.00  0.00     0.008 C 
HETATM   20  C28 UNL     1      -4.133  49.434 -18.833  1.00  0.00     0.011 C 
HETATM   21  C29 UNL     1      -3.534  50.000 -20.142  1.00  0.00    -0.029 C 
HETATM   22  C30 UNL     1      -4.247  51.359 -20.416  1.00  0.00     0.016 C 
ENDROOT
BRANCH   1  23
HETATM   23  C2  UNL     1       0.545  52.299 -22.016  1.00  0.00    -0.081 C 
HETATM   24  C1  UNL     1       1.367  53.412 -21.411  1.00  0.00     0.043 C 
HETATM   25  C3  UNL     1       0.287  52.257 -23.343  1.00  0.00     0.010 C 
BRANCH  25  26
HETATM   26  C4  UNL     1       0.794  53.198 -24.407  1.00  0.00     0.173 C 
BRANCH  26  27
HETATM   27  O1  UNL     1       1.180  54.396 -23.731  1.00  0.00    -0.389 OA
HETATM   28  H6  UNL     1       1.966  54.167 -23.208  1.00  0.00     0.210 HD
ENDBRANCH  26  27
BRANCH  26  29
HETATM   29  C5  UNL     1      -0.240  53.553 -25.438  1.00  0.00     0.188 A 
HETATM   30  O2  UNL     1       0.207  54.432 -26.484  1.00  0.00    -0.367 OA
HETATM   31  C6  UNL     1      -0.160  53.106 -26.893  1.00  0.00     0.083 A 
HETATM   32  C7  UNL     1      -1.422  53.052 -27.695  1.00  0.00     0.048 C 
HETATM   33  C8  UNL     1       0.991  52.292 -27.395  1.00  0.00     0.048 C 
ENDBRANCH  26  29
ENDBRANCH  25  26
ENDBRANCH   1  23
BRANCH   8  34
HETATM   34  O3  UNL     1      -3.195  48.467 -23.667  1.00  0.00    -0.395 OA
HETATM   35  H26 UNL     1      -2.538  47.772 -23.469  1.00  0.00     0.210 HD
ENDBRANCH   8  34
BRANCH  10  36
HETATM   36  C19 UNL     1      -6.107  49.454 -22.211  1.00  0.00     0.241 C 
HETATM   37  O4  UNL     1      -6.964  50.165 -21.703  1.00  0.00    -0.306 OA
ENDBRANCH  10  36
TORSDOF 6
ENDMDL
MODEL 2
REMARK minimizedAffinity -9.46249199
REMARK  6 active torsions:
REMARK  status: ('A' for Active; 'I' for Inactive)
REMARK    1  A    between atoms: C2_2  and  C9_11 
REMARK    2  A    between atoms: C3_3  and  C4_4 
REMARK    3  A    between atoms: C4_4  and  O1_5 
REMARK    4  A    between atoms: C4_4  and  C5_6 
REMARK    5  A    between atoms: C16_18  and  O3_19 
REMARK    6  A    between atoms: C18_21  and  C19_22 
ROOT
HETATM    1  C9  UNL     1      -0.523  51.957 -23.280  1.00  0.00     0.019 C 
HETATM    2  C10 UNL     1       0.411  53.203 -23.282  1.00  0.00     0.010 C 
HETATM    3  C11 UNL     1       0.709  53.529 -21.804  1.00  0.00     0.011 C 
HETATM    4  C12 UNL     1       0.509  52.193 -21.057  1.00  0.00    -0.032 C 
HETATM    5  C13 UNL     1       1.755  51.309 -21.392  1.00  0.00     0.016 C 
HETATM    6  C14 UNL     1      -0.772  51.698 -21.777  1.00  0.00     0.005 C 
HETATM    7  C15 UNL     1      -1.143  50.290 -21.340  1.00  0.00     0.038 C 
HETATM    8  C16 UNL     1      -1.332  50.208 -19.811  1.00  0.00     0.124 C 
HETATM    9  C17 UNL     1      -0.134  50.784 -18.990  1.00  0.00     0.039 C 
HETATM   10  C18 UNL     1      -0.201  50.572 -17.410  1.00  0.00     0.025 C 
HETATM   11  C20 UNL     1      -0.170  49.039 -17.070  1.00  0.00     0.025 C 
HETATM   12  C21 UNL     1       0.436  48.649 -15.726  1.00  0.00     0.080 C 
HETATM   13  C22 UNL     1       0.409  49.784 -14.742  1.00  0.00     0.135 C 
HETATM   14  O5  UNL     1      -0.116  49.641 -13.639  1.00  0.00    -0.297 OA
HETATM   15  C23 UNL     1       1.150  51.055 -15.158  1.00  0.00     0.018 C 
HETATM   16  C24 UNL     1       0.636  52.246 -14.329  1.00  0.00     0.023 C 
HETATM   17  C25 UNL     1       2.630  50.848 -14.757  1.00  0.00     0.023 C 
HETATM   18  C26 UNL     1       1.050  51.229 -16.723  1.00  0.00     0.016 C 
HETATM   19  C27 UNL     1       1.341  52.664 -17.193  1.00  0.00     0.008 C 
HETATM   20  C28 UNL     1       1.480  52.749 -18.715  1.00  0.00     0.011 C 
HETATM   21  C29 UNL     1       0.230  52.254 -19.481  1.00  0.00    -0.029 C 
HETATM   22  C30 UNL     1      -0.918  53.262 -19.174  1.00  0.00     0.016 C 
ENDROOT
BRANCH   1  23
HETATM   23  C2  UNL     1      -1.823  52.037 -24.082  1.00  0.00    -0.081 C 
HETATM   24  C1  UNL     1      -3.042  52.434 -23.285  1.00  0.00     0.043 C 
HETATM   25  C3  UNL     1      -1.904  51.770 -25.405  1.00  0.00     0.010 C 
BRANCH  25  26
HETATM   26  C4  UNL     1      -3.120  51.882 -26.291  1.00  0.00     0.173 C 
BRANCH  26  27
HETATM   27  O1  UNL     1      -4.252  51.880 -25.420  1.00  0.00    -0.389 OA
HETATM   28  H6  UNL     1      -4.219  52.724 -24.937  1.00  0.00     0.210 HD
ENDBRANCH  26  27
BRANCH  26  29
HETATM   29  C5  UNL     1      -3.268  50.739 -27.255  1.00  0.00     0.188 A 
HETATM   30  O2  UNL     1      -2.218  49.758 -27.216  1.00  0.00    -0.367 OA
HETATM   31  C6  UNL     1      -3.520  49.301 -26.818  1.00  0.00     0.083 A 
HETATM   32  C7  UNL     1      -4.150  48.356 -27.793  1.00  0.00     0.048 C 
HETATM   33  C8  UNL     1      -3.611  48.932 -25.371  1.00  0.00     0.048 C 
ENDBRANCH  26  29
ENDBRANCH  25  26
ENDBRANCH   1  23
BRANCH   8  34
HETATM   34  O3  UNL     1      -1.577  48.845 -19.484  1.00  0.00    -0.395 OA
HETATM   35  H26 UNL     1      -0.889  48.307 -19.921  1.00  0.00     0.210 HD
ENDBRANCH   8  34
BRANCH  10  36
HETATM   36  C19 UNL     1      -1.563  51.073 -16.914  1.00  0.00     0.241 C 
HETATM   37  O4  UNL     1      -2.560  51.208 -17.611  1.00  0.00    -0.306 OA
ENDBRANCH  10  36
TORSDOF 6
ENDMDL
MODEL 3
REMARK minimizedAffinity -9.40768242
REMARK  6 active torsions:
REMARK  status: ('A' for Active; 'I' for Inactive)
REMARK    1  A    between atoms: C2_2  and  C9_11 
REMARK    2  A    between atoms: C3_3  and  C4_4 
REMARK    3  A    between atoms: C4_4  and  O1_5 
REMARK    4  A    between atoms: C4_4  and  C5_6 
REMARK    5  A    between atoms: C16_18  and  O3_19 
REMARK    6  A    between atoms: C18_21  and  C19_22 
ROOT
HETATM    1  C9  UNL     1      -4.267  47.831 -19.934  1.00  0.00     0.019 C 
HETATM    2  C10 UNL     1      -4.794  46.780 -20.955  1.00  0.00     0.010 C 
HETATM    3  C11 UNL     1      -4.525  47.358 -22.359  1.00  0.00     0.011 C 
HETATM    4  C12 UNL     1      -3.352  48.342 -22.162  1.00  0.00    -0.032 C 
HETATM    5  C13 UNL     1      -2.068  47.466 -21.984  1.00  0.00     0.016 C 
HETATM    6  C14 UNL     1      -3.802  49.000 -20.833  1.00  0.00     0.005 C 
HETATM    7  C15 UNL     1      -2.738  49.943 -20.295  1.00  0.00     0.038 C 
HETATM    8  C16 UNL     1      -2.379  51.032 -21.327  1.00  0.00     0.124 C 
HETATM    9  C17 UNL     1      -2.011  50.473 -22.739  1.00  0.00     0.039 C 
HETATM   10  C18 UNL     1      -1.470  51.539 -23.795  1.00  0.00     0.025 C 
HETATM   11  C20 UNL     1      -0.119  52.161 -23.290  1.00  0.00     0.025 C 
HETATM   12  C21 UNL     1       0.858  52.635 -24.360  1.00  0.00     0.080 C 
HETATM   13  C22 UNL     1       0.172  52.925 -25.665  1.00  0.00     0.135 C 
HETATM   14  O5  UNL     1       0.298  54.022 -26.205  1.00  0.00    -0.297 OA
HETATM   15  C23 UNL     1      -0.581  51.758 -26.305  1.00  0.00     0.018 C 
HETATM   16  C24 UNL     1      -1.606  52.300 -27.317  1.00  0.00     0.023 C 
HETATM   17  C25 UNL     1       0.463  50.960 -27.122  1.00  0.00     0.023 C 
HETATM   18  C26 UNL     1      -1.176  50.836 -25.170  1.00  0.00     0.016 C 
HETATM   19  C27 UNL     1      -2.311  49.925 -25.663  1.00  0.00     0.008 C 
HETATM   20  C28 UNL     1      -2.698  48.877 -24.617  1.00  0.00     0.011 C 
HETATM   21  C29 UNL     1      -3.143  49.484 -23.265  1.00  0.00    -0.029 C 
HETATM   22  C30 UNL     1      -4.484  50.234 -23.526  1.00  0.00     0.016 C 
ENDROOT
BRANCH   1  23
HETATM   23  C2  UNL     1      -5.216  48.290 -18.826  1.00  0.00    -0.081 C 
HETATM   24  C1  UNL     1      -4.540  48.795 -17.574  1.00  0.00     0.043 C 
HETATM   25  C3  UNL     1      -6.563  48.251 -18.930  1.00  0.00     0.010 C 
BRANCH  25  26
HETATM   26  C4  UNL     1      -7.576  48.737 -17.923  1.00  0.00     0.173 C 
BRANCH  26  27
HETATM   27  O1  UNL     1      -7.605  47.761 -16.881  1.00  0.00    -0.389 OA
HETATM   28  H6  UNL     1      -6.749  47.832 -16.424  1.00  0.00     0.210 HD
ENDBRANCH  26  27
BRANCH  26  29
HETATM   29  C5  UNL     1      -8.965  48.866 -18.483  1.00  0.00     0.188 A 
HETATM   30  O2  UNL     1      -9.102  48.538 -19.876  1.00  0.00    -0.367 OA
HETATM   31  C6  UNL     1      -9.792  47.677 -18.957  1.00  0.00     0.083 A 
HETATM   32  C7  UNL     1     -11.281  47.815 -19.006  1.00  0.00     0.048 C 
HETATM   33  C8  UNL     1      -9.247  46.284 -18.915  1.00  0.00     0.048 C 
ENDBRANCH  26  29
ENDBRANCH  25  26
ENDBRANCH   1  23
BRANCH   8  34
HETATM   34  O3  UNL     1      -1.314  51.802 -20.782  1.00  0.00    -0.395 OA
HETATM   35  H26 UNL     1      -0.629  51.181 -20.469  1.00  0.00     0.210 HD
ENDBRANCH   8  34
BRANCH  10  36
HETATM   36  C19 UNL     1      -2.462  52.707 -23.854  1.00  0.00     0.241 C 
HETATM   37  O4  UNL     1      -3.267  52.902 -24.755  1.00  0.00    -0.306 OA
ENDBRANCH  10  36
TORSDOF 6
ENDMDL
MODEL 4
REMARK minimizedAffinity -9.355443
REMARK  6 active torsions:
REMARK  status: ('A' for Active; 'I' for Inactive)
REMARK    1  A    between atoms: C2_2  and  C9_11 
REMARK    2  A    between atoms: C3_3  and  C4_4 
REMARK    3  A    between atoms: C4_4  and  O1_5 
REMARK    4  A    between atoms: C4_4  and  C5_6 
REMARK    5  A    between atoms: C16_18  and  O3_19 
REMARK    6  A    between atoms: C18_21  and  C19_22 
ROOT
HETATM    1  C9  UNL     1      -0.815  50.264 -22.460  1.00  0.00     0.019 C 
HETATM    2  C10 UNL     1      -0.645  49.912 -20.953  1.00  0.00     0.010 C 
HETATM    3  C11 UNL     1      -2.028  49.449 -20.451  1.00  0.00     0.011 C 
HETATM    4  C12 UNL     1      -2.758  48.948 -21.716  1.00  0.00    -0.032 C 
HETATM    5  C13 UNL     1      -2.126  47.562 -22.070  1.00  0.00     0.016 C 
HETATM    6  C14 UNL     1      -2.328  50.059 -22.706  1.00  0.00     0.005 C 
HETATM    7  C15 UNL     1      -2.792  49.751 -24.121  1.00  0.00     0.038 C 
HETATM    8  C16 UNL     1      -4.321  49.556 -24.179  1.00  0.00     0.124 C 
HETATM    9  C17 UNL     1      -4.872  48.526 -23.140  1.00  0.00     0.039 C 
HETATM   10  C18 UNL     1      -6.419  48.160 -23.268  1.00  0.00     0.025 C 
HETATM   11  C20 UNL     1      -6.696  47.463 -24.649  1.00  0.00     0.025 C 
HETATM   12  C21 UNL     1      -7.857  46.477 -24.696  1.00  0.00     0.080 C 
HETATM   13  C22 UNL     1      -8.858  46.727 -23.603  1.00  0.00     0.135 C 
HETATM   14  O5  UNL     1     -10.044  46.901 -23.872  1.00  0.00    -0.297 OA
HETATM   15  C23 UNL     1      -8.326  46.646 -22.171  1.00  0.00     0.018 C 
HETATM   16  C24 UNL     1      -9.286  47.388 -21.223  1.00  0.00     0.023 C 
HETATM   17  C25 UNL     1      -8.379  45.153 -21.769  1.00  0.00     0.023 C 
HETATM   18  C26 UNL     1      -6.829  47.145 -22.141  1.00  0.00     0.016 C 
HETATM   19  C27 UNL     1      -6.352  47.543 -20.735  1.00  0.00     0.008 C 
HETATM   20  C28 UNL     1      -4.840  47.783 -20.692  1.00  0.00     0.011 C 
HETATM   21  C29 UNL     1      -4.358  48.877 -21.674  1.00  0.00    -0.029 C 
HETATM   22  C30 UNL     1      -4.945  50.229 -21.169  1.00  0.00     0.016 C 
ENDROOT
BRANCH   1  23
HETATM   23  C2  UNL     1      -0.327  51.635 -22.934  1.00  0.00    -0.081 C 
HETATM   24  C1  UNL     1       0.056  52.593 -21.831  1.00  0.00     0.043 C 
HETATM   25  C3  UNL     1      -0.242  51.990 -24.235  1.00  0.00     0.010 C 
BRANCH  25  26
HETATM   26  C4  UNL     1       0.284  53.286 -24.800  1.00  0.00     0.173 C 
BRANCH  26  27
HETATM   27  O1  UNL     1      -0.819  54.194 -24.814  1.00  0.00    -0.389 OA
HETATM   28  H6  UNL     1      -1.015  54.391 -23.882  1.00  0.00     0.210 HD
ENDBRANCH  26  27
BRANCH  26  29
HETATM   29  C5  UNL     1       0.806  53.162 -26.203  1.00  0.00     0.188 A 
HETATM   30  O2  UNL     1       1.995  52.367 -26.351  1.00  0.00    -0.367 OA
HETATM   31  C6  UNL     1       0.813  51.851 -26.982  1.00  0.00     0.083 A 
HETATM   32  C7  UNL     1       0.856  51.907 -28.477  1.00  0.00     0.048 C 
HETATM   33  C8  UNL     1       0.311  50.580 -26.371  1.00  0.00     0.048 C 
ENDBRANCH  26  29
ENDBRANCH  25  26
ENDBRANCH   1  23
BRANCH   8  34
HETATM   34  O3  UNL     1      -4.652  49.174 -25.510  1.00  0.00    -0.395 OA
HETATM   35  H26 UNL     1      -4.056  48.445 -25.766  1.00  0.00     0.210 HD
ENDBRANCH   8  34
BRANCH  10  36
HETATM   36  C19 UNL     1      -7.222  49.466 -23.301  1.00  0.00     0.241 C 
HETATM   37  O4  UNL     1      -7.607  50.080 -22.314  1.00  0.00    -0.306 OA
ENDBRANCH  10  36
TORSDOF 6
ENDMDL
MODEL 5
REMARK minimizedAffinity -9.33124065
REMARK  6 active torsions:
REMARK  status: ('A' for Active; 'I' for Inactive)
REMARK    1  A    between atoms: C2_2  and  C9_11 
REMARK    2  A    between atoms: C3_3  and  C4_4 
REMARK    3  A    between atoms: C4_4  and  O1_5 
REMARK    4  A    between atoms: C4_4  and  C5_6 
REMARK    5  A    between atoms: C16_18  and  O3_19 
REMARK    6  A    between atoms: C18_21  and  C19_22 
ROOT
HETATM    1  C9  UNL     1      -0.563  49.523 -18.070  1.00  0.00     0.019 C 
HETATM    2  C10 UNL     1      -1.809  48.593 -17.984  1.00  0.00     0.010 C 
HETATM    3  C11 UNL     1      -2.603  48.802 -19.291  1.00  0.00     0.011 C 
HETATM    4  C12 UNL     1      -1.557  49.300 -20.311  1.00  0.00    -0.032 C 
HETATM    5  C13 UNL     1      -0.704  48.052 -20.714  1.00  0.00     0.016 C 
HETATM    6  C14 UNL     1      -0.771  50.279 -19.402  1.00  0.00     0.005 C 
HETATM    7  C15 UNL     1       0.452  50.835 -20.114  1.00  0.00     0.038 C 
HETATM    8  C16 UNL     1       0.063  51.536 -21.432  1.00  0.00     0.124 C 
HETATM    9  C17 UNL     1      -0.825  50.666 -22.378  1.00  0.00     0.039 C 
HETATM   10  C18 UNL     1      -1.115  51.275 -23.823  1.00  0.00     0.025 C 
HETATM   11  C20 UNL     1       0.227  51.426 -24.625  1.00  0.00     0.025 C 
HETATM   12  C21 UNL     1       0.132  51.330 -26.144  1.00  0.00     0.080 C 
HETATM   13  C22 UNL     1      -1.250  51.643 -26.645  1.00  0.00     0.135 C 
HETATM   14  O5  UNL     1      -1.423  52.516 -27.492  1.00  0.00    -0.297 OA
HETATM   15  C23 UNL     1      -2.376  50.751 -26.119  1.00  0.00     0.018 C 
HETATM   16  C24 UNL     1      -3.727  51.467 -26.302  1.00  0.00     0.023 C 
HETATM   17  C25 UNL     1      -2.411  49.506 -27.036  1.00  0.00     0.023 C 
HETATM   18  C26 UNL     1      -2.042  50.306 -24.642  1.00  0.00     0.016 C 
HETATM   19  C27 UNL     1      -3.274  49.813 -23.866  1.00  0.00     0.008 C 
HETATM   20  C28 UNL     1      -2.888  49.161 -22.536  1.00  0.00     0.011 C 
HETATM   21  C29 UNL     1      -2.089  50.095 -21.596  1.00  0.00    -0.029 C 
HETATM   22  C30 UNL     1      -3.058  51.236 -21.162  1.00  0.00     0.016 C 
ENDROOT
BRANCH   1  23
HETATM   23  C2  UNL     1      -0.294  50.468 -16.898  1.00  0.00    -0.081 C 
HETATM   24  C1  UNL     1      -1.479  50.723 -15.997  1.00  0.00     0.043 C 
HETATM   25  C3  UNL     1       0.903  51.051 -16.666  1.00  0.00     0.010 C 
BRANCH  25  26
HETATM   26  C4  UNL     1       1.282  51.942 -15.509  1.00  0.00     0.173 C 
BRANCH  26  27
HETATM   27  O1  UNL     1       1.333  53.271 -16.027  1.00  0.00    -0.389 OA
HETATM   28  H6  UNL     1       0.415  53.513 -16.235  1.00  0.00     0.210 HD
ENDBRANCH  26  27
BRANCH  26  29
HETATM   29  C5  UNL     1       2.624  51.617 -14.915  1.00  0.00     0.188 A 
HETATM   30  O2  UNL     1       2.770  51.921 -13.517  1.00  0.00    -0.367 OA
HETATM   31  C6  UNL     1       2.836  50.530 -13.867  1.00  0.00     0.083 A 
HETATM   32  C7  UNL     1       4.201  49.937 -13.719  1.00  0.00     0.048 C 
HETATM   33  C8  UNL     1       1.691  49.723 -13.340  1.00  0.00     0.048 C 
ENDBRANCH  26  29
ENDBRANCH  25  26
ENDBRANCH   1  23
BRANCH   8  34
HETATM   34  O3  UNL     1       1.268  51.934 -22.075  1.00  0.00    -0.395 OA
HETATM   35  H26 UNL     1       1.865  51.162 -22.090  1.00  0.00     0.210 HD
ENDBRANCH   8  34
BRANCH  10  36
HETATM   36  C19 UNL     1      -1.649  52.702 -23.647  1.00  0.00     0.241 C 
HETATM   37  O4  UNL     1      -2.749  53.093 -24.016  1.00  0.00    -0.306 OA
ENDBRANCH  10  36
TORSDOF 6
ENDMDL
MODEL 6
REMARK minimizedAffinity -9.03464031
REMARK  6 active torsions:
REMARK  status: ('A' for Active; 'I' for Inactive)
REMARK    1  A    between atoms: C2_2  and  C9_11 
REMARK    2  A    between atoms: C3_3  and  C4_4 
REMARK    3  A    between atoms: C4_4  and  O1_5 
REMARK    4  A    between atoms: C4_4  and  C5_6 
REMARK    5  A    between atoms: C16_18  and  O3_19 
REMARK    6  A    between atoms: C18_21  and  C19_22 
ROOT
HETATM    1  C9  UNL     1      -1.839  48.388 -18.243  1.00  0.00     0.019 C 
HETATM    2  C10 UNL     1      -2.767  47.261 -18.784  1.00  0.00     0.010 C 
HETATM    3  C11 UNL     1      -3.183  47.680 -20.209  1.00  0.00     0.011 C 
HETATM    4  C12 UNL     1      -2.062  48.629 -20.683  1.00  0.00    -0.032 C 
HETATM    5  C13 UNL     1      -0.832  47.724 -21.021  1.00  0.00     0.016 C 
HETATM    6  C14 UNL     1      -1.854  49.438 -19.378  1.00  0.00     0.005 C 
HETATM    7  C15 UNL     1      -0.672  50.387 -19.496  1.00  0.00     0.038 C 
HETATM    8  C16 UNL     1      -0.842  51.348 -20.690  1.00  0.00     0.124 C 
HETATM    9  C17 UNL     1      -1.162  50.633 -22.042  1.00  0.00     0.039 C 
HETATM   10  C18 UNL     1      -1.180  51.562 -23.339  1.00  0.00     0.025 C 
HETATM   11  C20 UNL     1       0.245  52.176 -23.583  1.00  0.00     0.025 C 
HETATM   12  C21 UNL     1       0.613  52.497 -25.028  1.00  0.00     0.080 C 
HETATM   13  C22 UNL     1      -0.602  52.680 -25.894  1.00  0.00     0.135 C 
HETATM   14  O5  UNL     1      -0.751  53.710 -26.548  1.00  0.00    -0.297 OA
HETATM   15  C23 UNL     1      -1.553  51.486 -25.983  1.00  0.00     0.018 C 
HETATM   16  C24 UNL     1      -2.936  51.964 -26.463  1.00  0.00     0.023 C 
HETATM   17  C25 UNL     1      -0.996  50.566 -27.095  1.00  0.00     0.023 C 
HETATM   18  C26 UNL     1      -1.547  50.711 -24.608  1.00  0.00     0.016 C 
HETATM   19  C27 UNL     1      -2.772  49.802 -24.420  1.00  0.00     0.008 C 
HETATM   20  C28 UNL     1      -2.621  48.883 -23.205  1.00  0.00     0.011 C 
HETATM   21  C29 UNL     1      -2.398  49.643 -21.876  1.00  0.00    -0.029 C 
HETATM   22  C30 UNL     1      -3.715  50.418 -21.572  1.00  0.00     0.016 C 
ENDROOT
BRANCH   1  23
HETATM   23  C2  UNL     1      -2.174  48.997 -16.880  1.00  0.00    -0.081 C 
HETATM   24  C1  UNL     1      -3.204  50.100 -16.908  1.00  0.00     0.043 C 
HETATM   25  C3  UNL     1      -1.600  48.600 -15.722  1.00  0.00     0.010 C 
BRANCH  25  26
HETATM   26  C4  UNL     1      -1.908  49.092 -14.329  1.00  0.00     0.173 C 
BRANCH  26  27
HETATM   27  O1  UNL     1      -3.245  49.592 -14.368  1.00  0.00    -0.389 OA
HETATM   28  H6  UNL     1      -3.818  48.815 -14.488  1.00  0.00     0.210 HD
ENDBRANCH  26  27
BRANCH  26  29
HETATM   29  C5  UNL     1      -1.005  50.202 -13.871  1.00  0.00     0.188 A 
HETATM   30  O2  UNL     1      -0.887  51.315 -14.773  1.00  0.00    -0.367 OA
HETATM   31  C6  UNL     1      -1.506  51.595 -13.509  1.00  0.00     0.083 A 
HETATM   32  C7  UNL     1      -0.670  52.444 -12.604  1.00  0.00     0.048 C 
HETATM   33  C8  UNL     1      -2.955  51.953 -13.616  1.00  0.00     0.048 C 
ENDBRANCH  26  29
ENDBRANCH  25  26
ENDBRANCH   1  23
BRANCH   8  34
HETATM   34  O3  UNL     1       0.347  52.125 -20.785  1.00  0.00    -0.395 OA
HETATM   35  H26 UNL     1       1.106  51.511 -20.756  1.00  0.00     0.210 HD
ENDBRANCH   8  34
BRANCH  10  36
HETATM   36  C19 UNL     1      -2.099  52.758 -23.062  1.00  0.00     0.241 C 
HETATM   37  O4  UNL     1      -3.285  52.819 -23.361  1.00  0.00    -0.306 OA
ENDBRANCH  10  36
TORSDOF 6
ENDMDL
MODEL 7
REMARK minimizedAffinity -8.96617985
REMARK  6 active torsions:
REMARK  status: ('A' for Active; 'I' for Inactive)
REMARK    1  A    between atoms: C2_2  and  C9_11 
REMARK    2  A    between atoms: C3_3  and  C4_4 
REMARK    3  A    between atoms: C4_4  and  O1_5 
REMARK    4  A    between atoms: C4_4  and  C5_6 
REMARK    5  A    between atoms: C16_18  and  O3_19 
REMARK    6  A    between atoms: C18_21  and  C19_22 
ROOT
HETATM    1  C9  UNL     1      -3.457  49.118 -27.275  1.00  0.00     0.019 C 
HETATM    2  C10 UNL     1      -3.080  50.455 -27.980  1.00  0.00     0.010 C 
HETATM    3  C11 UNL     1      -2.670  51.438 -26.864  1.00  0.00     0.011 C 
HETATM    4  C12 UNL     1      -2.214  50.539 -25.694  1.00  0.00    -0.032 C 
HETATM    5  C13 UNL     1      -0.807  49.981 -26.089  1.00  0.00     0.016 C 
HETATM    6  C14 UNL     1      -3.318  49.454 -25.772  1.00  0.00     0.005 C 
HETATM    7  C15 UNL     1      -3.046  48.315 -24.802  1.00  0.00     0.038 C 
HETATM    8  C16 UNL     1      -2.916  48.832 -23.355  1.00  0.00     0.124 C 
HETATM    9  C17 UNL     1      -1.899  50.006 -23.186  1.00  0.00     0.039 C 
HETATM   10  C18 UNL     1      -1.600  50.465 -21.688  1.00  0.00     0.025 C 
HETATM   11  C20 UNL     1      -0.931  49.291 -20.888  1.00  0.00     0.025 C 
HETATM   12  C21 UNL     1       0.005  49.684 -19.750  1.00  0.00     0.080 C 
HETATM   13  C22 UNL     1      -0.275  51.070 -19.240  1.00  0.00     0.135 C 
HETATM   14  O5  UNL     1      -0.501  51.261 -18.048  1.00  0.00    -0.297 OA
HETATM   15  C23 UNL     1      -0.155  52.201 -20.262  1.00  0.00     0.018 C 
HETATM   16  C24 UNL     1      -0.925  53.435 -19.758  1.00  0.00     0.023 C 
HETATM   17  C25 UNL     1       1.339  52.601 -20.298  1.00  0.00     0.023 C 
HETATM   18  C26 UNL     1      -0.590  51.669 -21.683  1.00  0.00     0.016 C 
HETATM   19  C27 UNL     1      -0.951  52.794 -22.666  1.00  0.00     0.008 C 
HETATM   20  C28 UNL     1      -1.127  52.269 -24.094  1.00  0.00     0.011 C 
HETATM   21  C29 UNL     1      -2.211  51.173 -24.224  1.00  0.00    -0.029 C 
HETATM   22  C30 UNL     1      -3.581  51.854 -23.926  1.00  0.00     0.016 C 
ENDROOT
BRANCH   1  23
HETATM   23  C2  UNL     1      -4.811  48.490 -27.611  1.00  0.00    -0.081 C 
HETATM   24  C1  UNL     1      -5.640  48.083 -26.417  1.00  0.00     0.043 C 
HETATM   25  C3  UNL     1      -5.253  48.295 -28.873  1.00  0.00     0.010 C 
BRANCH  25  26
HETATM   26  C4  UNL     1      -6.591  47.746 -29.303  1.00  0.00     0.173 C 
BRANCH  26  27
HETATM   27  O1  UNL     1      -7.507  48.841 -29.255  1.00  0.00    -0.389 OA
HETATM   28  H6  UNL     1      -7.244  49.442 -29.973  1.00  0.00     0.210 HD
ENDBRANCH  26  27
BRANCH  26  29
HETATM   29  C5  UNL     1      -7.111  46.660 -28.404  1.00  0.00     0.188 A 
HETATM   30  O2  UNL     1      -8.512  46.365 -28.539  1.00  0.00    -0.367 OA
HETATM   31  C6  UNL     1      -7.610  45.314 -28.918  1.00  0.00     0.083 A 
HETATM   32  C7  UNL     1      -7.616  44.148 -27.981  1.00  0.00     0.048 C 
HETATM   33  C8  UNL     1      -7.635  45.001 -30.381  1.00  0.00     0.048 C 
ENDBRANCH  26  29
ENDBRANCH  25  26
ENDBRANCH   1  23
BRANCH   8  34
HETATM   34  O3  UNL     1      -2.564  47.722 -22.536  1.00  0.00    -0.395 OA
HETATM   35  H26 UNL     1      -1.813  47.266 -22.961  1.00  0.00     0.210 HD
ENDBRANCH   8  34
BRANCH  10  36
HETATM   36  C19 UNL     1      -2.938  50.728 -20.988  1.00  0.00     0.241 C 
HETATM   37  O4  UNL     1      -3.527  49.928 -20.272  1.00  0.00    -0.306 OA
ENDBRANCH  10  36
TORSDOF 6
ENDMDL
MODEL 8
REMARK minimizedAffinity -8.95056915
REMARK  6 active torsions:
REMARK  status: ('A' for Active; 'I' for Inactive)
REMARK    1  A    between atoms: C2_2  and  C9_11 
REMARK    2  A    between atoms: C3_3  and  C4_4 
REMARK    3  A    between atoms: C4_4  and  O1_5 
REMARK    4  A    between atoms: C4_4  and  C5_6 
REMARK    5  A    between atoms: C16_18  and  O3_19 
REMARK    6  A    between atoms: C18_21  and  C19_22 
ROOT
HETATM    1  C9  UNL     1      -5.171  48.856 -25.193  1.00  0.00     0.019 C 
HETATM    2  C10 UNL     1      -6.135  47.872 -24.467  1.00  0.00     0.010 C 
HETATM    3  C11 UNL     1      -5.548  47.642 -23.058  1.00  0.00     0.011 C 
HETATM    4  C12 UNL     1      -4.695  48.898 -22.778  1.00  0.00    -0.032 C 
HETATM    5  C13 UNL     1      -5.702  50.053 -22.462  1.00  0.00     0.016 C 
HETATM    6  C14 UNL     1      -4.031  49.063 -24.168  1.00  0.00     0.005 C 
HETATM    7  C15 UNL     1      -3.217  50.344 -24.246  1.00  0.00     0.038 C 
HETATM    8  C16 UNL     1      -2.143  50.392 -23.140  1.00  0.00     0.124 C 
HETATM    9  C17 UNL     1      -2.696  50.132 -21.702  1.00  0.00     0.039 C 
HETATM   10  C18 UNL     1      -1.662  50.337 -20.505  1.00  0.00     0.025 C 
HETATM   11  C20 UNL     1      -1.196  51.835 -20.446  1.00  0.00     0.025 C 
HETATM   12  C21 UNL     1      -0.794  52.373 -19.077  1.00  0.00     0.080 C 
HETATM   13  C22 UNL     1      -0.399  51.275 -18.130  1.00  0.00     0.135 C 
HETATM   14  O5  UNL     1       0.694  51.298 -17.569  1.00  0.00    -0.297 OA
HETATM   15  C23 UNL     1      -1.465  50.216 -17.844  1.00  0.00     0.018 C 
HETATM   16  C24 UNL     1      -0.793  48.945 -17.294  1.00  0.00     0.023 C 
HETATM   17  C25 UNL     1      -2.343  50.778 -16.700  1.00  0.00     0.023 C 
HETATM   18  C26 UNL     1      -2.352  50.007 -19.132  1.00  0.00     0.016 C 
HETATM   19  C27 UNL     1      -3.129  48.681 -19.124  1.00  0.00     0.008 C 
HETATM   20  C28 UNL     1      -4.161  48.616 -20.253  1.00  0.00     0.011 C 
HETATM   21  C29 UNL     1      -3.550  48.788 -21.663  1.00  0.00    -0.029 C 
HETATM   22  C30 UNL     1      -2.660  47.536 -21.926  1.00  0.00     0.016 C 
ENDROOT
BRANCH   1  23
HETATM   23  C2  UNL     1      -4.649  48.457 -26.574  1.00  0.00    -0.081 C 
HETATM   24  C1  UNL     1      -3.147  48.354 -26.685  1.00  0.00     0.043 C 
HETATM   25  C3  UNL     1      -5.450  48.216 -27.636  1.00  0.00     0.010 C 
BRANCH  25  26
HETATM   26  C4  UNL     1      -5.037  47.757 -29.012  1.00  0.00     0.173 C 
BRANCH  26  27
HETATM   27  O1  UNL     1      -4.913  48.937 -29.807  1.00  0.00    -0.389 OA
HETATM   28  H6  UNL     1      -4.138  49.413 -29.461  1.00  0.00     0.210 HD
ENDBRANCH  26  27
BRANCH  26  29
HETATM   29  C5  UNL     1      -6.039  46.851 -29.670  1.00  0.00     0.188 A 
HETATM   30  O2  UNL     1      -7.008  46.259 -28.789  1.00  0.00    -0.367 OA
HETATM   31  C6  UNL     1      -7.525  47.175 -29.767  1.00  0.00     0.083 A 
HETATM   32  C7  UNL     1      -8.333  46.516 -30.839  1.00  0.00     0.048 C 
HETATM   33  C8  UNL     1      -8.088  48.430 -29.175  1.00  0.00     0.048 C 
ENDBRANCH  26  29
ENDBRANCH  25  26
ENDBRANCH   1  23
BRANCH   8  34
HETATM   34  O3  UNL     1      -1.501  51.660 -23.224  1.00  0.00    -0.395 OA
HETATM   35  H26 UNL     1      -2.197  52.343 -23.260  1.00  0.00     0.210 HD
ENDBRANCH   8  34
BRANCH  10  36
HETATM   36  C19 UNL     1      -0.398  49.527 -20.816  1.00  0.00     0.241 C 
HETATM   37  O4  UNL     1      -0.252  48.333 -20.585  1.00  0.00    -0.306 OA
ENDBRANCH  10  36
TORSDOF 6
ENDMDL
MODEL 9
REMARK minimizedAffinity -8.75986671
REMARK  6 active torsions:
REMARK  status: ('A' for Active; 'I' for Inactive)
REMARK    1  A    between atoms: C2_2  and  C9_11 
REMARK    2  A    between atoms: C3_3  and  C4_4 
REMARK    3  A    between atoms: C4_4  and  O1_5 
REMARK    4  A    between atoms: C4_4  and  C5_6 
REMARK    5  A    between atoms: C16_18  and  O3_19 
REMARK    6  A    between atoms: C18_21  and  C19_22 
ROOT
HETATM    1  C9  UNL     1      -0.199  51.649 -20.682  1.00  0.00     0.019 C 
HETATM    2  C10 UNL     1      -0.526  52.451 -19.388  1.00  0.00     0.010 C 
HETATM    3  C11 UNL     1      -1.784  51.800 -18.775  1.00  0.00     0.011 C 
HETATM    4  C12 UNL     1      -1.777  50.351 -19.308  1.00  0.00    -0.032 C 
HETATM    5  C13 UNL     1      -0.668  49.592 -18.509  1.00  0.00     0.016 C 
HETATM    6  C14 UNL     1      -1.358  50.630 -20.774  1.00  0.00     0.005 C 
HETATM    7  C15 UNL     1      -1.120  49.337 -21.537  1.00  0.00     0.038 C 
HETATM    8  C16 UNL     1      -2.369  48.432 -21.509  1.00  0.00     0.124 C 
HETATM    9  C17 UNL     1      -2.937  48.175 -20.076  1.00  0.00     0.039 C 
HETATM   10  C18 UNL     1      -4.122  47.113 -19.972  1.00  0.00     0.025 C 
HETATM   11  C20 UNL     1      -3.617  45.695 -20.420  1.00  0.00     0.025 C 
HETATM   12  C21 UNL     1      -4.310  44.491 -19.790  1.00  0.00     0.080 C 
HETATM   13  C22 UNL     1      -5.680  44.832 -19.274  1.00  0.00     0.135 C 
HETATM   14  O5  UNL     1      -6.661  44.190 -19.642  1.00  0.00    -0.297 OA
HETATM   15  C23 UNL     1      -5.747  45.930 -18.212  1.00  0.00     0.018 C 
HETATM   16  C24 UNL     1      -7.175  46.501 -18.152  1.00  0.00     0.023 C 
HETATM   17  C25 UNL     1      -5.494  45.238 -16.851  1.00  0.00     0.023 C 
HETATM   18  C26 UNL     1      -4.607  46.988 -18.482  1.00  0.00     0.016 C 
HETATM   19  C27 UNL     1      -4.857  48.337 -17.789  1.00  0.00     0.008 C 
HETATM   20  C28 UNL     1      -3.631  49.251 -17.862  1.00  0.00     0.011 C 
HETATM   21  C29 UNL     1      -3.164  49.550 -19.306  1.00  0.00    -0.029 C 
HETATM   22  C30 UNL     1      -4.282  50.404 -19.976  1.00  0.00     0.016 C 
ENDROOT
BRANCH   1  23
HETATM   23  C2  UNL     1      -0.008  52.435 -21.980  1.00  0.00    -0.081 C 
HETATM   24  C1  UNL     1       1.056  53.505 -21.930  1.00  0.00     0.043 C 
HETATM   25  C3  UNL     1      -0.730  52.214 -23.102  1.00  0.00     0.010 C 
BRANCH  25  26
HETATM   26  C4  UNL     1      -0.573  52.888 -24.442  1.00  0.00     0.173 C 
BRANCH  26  27
HETATM   27  O1  UNL     1      -1.888  53.247 -24.866  1.00  0.00    -0.389 OA
HETATM   28  H6  UNL     1      -2.179  53.955 -24.266  1.00  0.00     0.210 HD
ENDBRANCH  26  27
BRANCH  26  29
HETATM   29  C5  UNL     1       0.033  52.001 -25.493  1.00  0.00     0.188 A 
HETATM   30  O2  UNL     1      -0.812  51.713 -26.620  1.00  0.00    -0.367 OA
HETATM   31  C6  UNL     1       0.370  52.479 -26.901  1.00  0.00     0.083 A 
HETATM   32  C7  UNL     1       1.400  51.730 -27.684  1.00  0.00     0.048 C 
HETATM   33  C8  UNL     1       0.086  53.884 -27.335  1.00  0.00     0.048 C 
ENDBRANCH  26  29
ENDBRANCH  25  26
ENDBRANCH   1  23
BRANCH   8  34
HETATM   34  O3  UNL     1      -2.026  47.211 -22.156  1.00  0.00    -0.395 OA
HETATM   35  H26 UNL     1      -1.186  46.897 -21.770  1.00  0.00     0.210 HD
ENDBRANCH   8  34
BRANCH  10  36
HETATM   36  C19 UNL     1      -5.207  47.499 -20.985  1.00  0.00     0.241 C 
HETATM   37  O4  UNL     1      -5.320  47.029 -22.110  1.00  0.00    -0.306 OA
ENDBRANCH  10  36
TORSDOF 6
ENDMDL
