MODEL 1
REMARK minimizedAffinity -7.57274961
REMARK CNNscore 0.762715161
REMARK CNNaffinity 7.14242983
REMARK  5 active torsions:
REMARK  status: ('A' for Active; 'I' for Inactive)
REMARK    1  A    between atoms: C2_2  and  C3_3 
REMARK    2  A    between atoms: C2_2  and  C9_12 
REMARK    3  A    between atoms: C3_3  and  C4_4 
REMARK    4  A    between atoms: C6_6  and  C7_7 
REMARK    5  A    between atoms: C7_7  and  O1_8 
ROOT
HETATM    1  C9  UNL     1      -1.888  53.336  -9.566  1.00  0.00    -0.002 C 
HETATM    2  C10 UNL     1      -1.936  52.574  -8.208  1.00  0.00     0.007 C 
HETATM    3  C11 UNL     1      -0.558  52.739  -7.538  1.00  0.00     0.015 C 
HETATM    4  C12 UNL     1       0.146  53.844  -8.351  1.00  0.00    -0.013 C 
HETATM    5  C13 UNL     1      -0.364  55.201  -7.768  1.00  0.00     0.021 C 
HETATM    6  C14 UNL     1       1.668  53.915  -8.306  1.00  0.00    -0.070 C 
HETATM    7  C15 UNL     1       2.367  53.528  -7.229  1.00  0.00    -0.022 C 
HETATM    8  C16 UNL     1       3.840  53.685  -7.077  1.00  0.00     0.034 C 
HETATM    9  C17 UNL     1       4.642  54.231  -8.300  1.00  0.00     0.013 C 
HETATM   10  C18 UNL     1       6.022  54.818  -7.796  1.00  0.00     0.018 C 
HETATM   11  C19 UNL     1       7.071  54.986  -8.913  1.00  0.00     0.023 C 
HETATM   12  C20 UNL     1       6.677  53.879  -6.749  1.00  0.00     0.023 C 
HETATM   13  C21 UNL     1       5.760  56.191  -7.156  1.00  0.00     0.135 C 
HETATM   14  O4  UNL     1       6.340  56.550  -6.130  1.00  0.00    -0.297 OA
HETATM   15  C22 UNL     1       4.847  57.158  -7.889  1.00  0.00     0.080 C 
HETATM   16  C23 UNL     1       3.546  56.518  -8.368  1.00  0.00     0.017 C 
HETATM   17  C24 UNL     1       3.760  55.212  -9.172  1.00  0.00    -0.031 C 
HETATM   18  C25 UNL     1       4.443  55.551 -10.521  1.00  0.00     0.016 C 
HETATM   19  C26 UNL     1       2.387  54.484  -9.525  1.00  0.00     0.024 C 
HETATM   20  C27 UNL     1       1.431  55.300 -10.441  1.00  0.00     0.010 C 
HETATM   21  C28 UNL     1       0.050  54.668 -10.739  1.00  0.00     0.011 C 
HETATM   22  C29 UNL     1      -0.352  53.515  -9.801  1.00  0.00    -0.029 C 
HETATM   23  C30 UNL     1       0.223  52.177 -10.364  1.00  0.00     0.016 C 
ENDROOT
BRANCH   1  24
HETATM   24  C2  UNL     1      -2.765  52.654 -10.656  1.00  0.00    -0.011 C 
HETATM   25  C1  UNL     1      -3.860  53.575 -11.202  1.00  0.00     0.010 C 
BRANCH  24  26
HETATM   26  C3  UNL     1      -3.370  51.301 -10.177  1.00  0.00     0.041 C 
BRANCH  26  27
HETATM   27  C4  UNL     1      -4.607  50.808 -10.943  1.00  0.00     0.156 A 
HETATM   28  C5  UNL     1      -5.650  50.272 -10.040  1.00  0.00     0.021 A 
HETATM   29  C6  UNL     1      -5.876  48.979 -10.273  1.00  0.00     0.039 A 
HETATM   30  C8  UNL     1      -4.981  48.593 -11.364  1.00  0.00     0.291 A 
HETATM   31  O2  UNL     1      -4.897  47.478 -11.843  1.00  0.00    -0.260 OA
HETATM   32  O3  UNL     1      -4.267  49.682 -11.759  1.00  0.00    -0.308 OA
BRANCH  29  33
HETATM   33  C7  UNL     1      -6.808  48.004  -9.675  1.00  0.00     0.208 C 
BRANCH  33  34
HETATM   34  O1  UNL     1      -7.113  48.380  -8.335  1.00  0.00    -0.396 OA
HETATM   35  H11 UNL     1      -7.771  47.741  -8.011  1.00  0.00     0.209 HD
ENDBRANCH  33  34
ENDBRANCH  29  33
ENDBRANCH  26  27
ENDBRANCH  24  26
ENDBRANCH   1  24
TORSDOF 5
ENDMDL
MODEL 2
REMARK minimizedAffinity -7.87685871
REMARK CNNscore 0.536547422
REMARK CNNaffinity 5.84565735
REMARK  5 active torsions:
REMARK  status: ('A' for Active; 'I' for Inactive)
REMARK    1  A    between atoms: C2_2  and  C3_3 
REMARK    2  A    between atoms: C2_2  and  C9_12 
REMARK    3  A    between atoms: C3_3  and  C4_4 
REMARK    4  A    between atoms: C6_6  and  C7_7 
REMARK    5  A    between atoms: C7_7  and  O1_8 
ROOT
HETATM    1  C9  UNL     1       7.120  65.273 -35.577  1.00  0.00    -0.002 C 
HETATM    2  C10 UNL     1       8.195  65.632 -36.646  1.00  0.00     0.007 C 
HETATM    3  C11 UNL     1       7.486  66.414 -37.768  1.00  0.00     0.015 C 
HETATM    4  C12 UNL     1       6.103  66.771 -37.188  1.00  0.00    -0.013 C 
HETATM    5  C13 UNL     1       6.311  68.066 -36.339  1.00  0.00     0.021 C 
HETATM    6  C14 UNL     1       4.970  67.085 -38.159  1.00  0.00    -0.070 C 
HETATM    7  C15 UNL     1       5.196  67.640 -39.359  1.00  0.00    -0.022 C 
HETATM    8  C16 UNL     1       4.129  68.080 -40.299  1.00  0.00     0.034 C 
HETATM    9  C17 UNL     1       2.648  67.772 -39.913  1.00  0.00     0.013 C 
HETATM   10  C18 UNL     1       1.690  68.747 -40.709  1.00  0.00     0.018 C 
HETATM   11  C19 UNL     1       0.223  68.275 -40.757  1.00  0.00     0.023 C 
HETATM   12  C20 UNL     1       2.133  68.876 -42.191  1.00  0.00     0.023 C 
HETATM   13  C21 UNL     1       1.740  70.130 -40.040  1.00  0.00     0.135 C 
HETATM   14  O4  UNL     1       1.752  71.170 -40.700  1.00  0.00    -0.297 OA
HETATM   15  C22 UNL     1       1.654  70.194 -38.526  1.00  0.00     0.080 C 
HETATM   16  C23 UNL     1       2.587  69.210 -37.824  1.00  0.00     0.017 C 
HETATM   17  C24 UNL     1       2.457  67.757 -38.343  1.00  0.00    -0.031 C 
HETATM   18  C25 UNL     1       1.070  67.195 -37.942  1.00  0.00     0.016 C 
HETATM   19  C26 UNL     1       3.546  66.784 -37.707  1.00  0.00     0.024 C 
HETATM   20  C27 UNL     1       3.445  66.608 -36.166  1.00  0.00     0.010 C 
HETATM   21  C28 UNL     1       4.535  65.739 -35.494  1.00  0.00     0.011 C 
HETATM   22  C29 UNL     1       5.781  65.478 -36.360  1.00  0.00    -0.029 C 
HETATM   23  C30 UNL     1       5.528  64.221 -37.249  1.00  0.00     0.016 C 
ENDROOT
BRANCH   1  24
HETATM   24  C2  UNL     1       7.411  63.911 -34.883  1.00  0.00    -0.011 C 
HETATM   25  C1  UNL     1       6.140  63.198 -34.414  1.00  0.00     0.010 C 
BRANCH  24  26
HETATM   26  C3  UNL     1       8.435  64.041 -33.715  1.00  0.00     0.041 C 
BRANCH  26  27
HETATM   27  C4  UNL     1       9.715  63.203 -33.846  1.00  0.00     0.156 A 
HETATM   28  C5  UNL     1       9.647  61.947 -33.065  1.00  0.00     0.021 A 
HETATM   29  C6  UNL     1      10.579  61.916 -32.114  1.00  0.00     0.039 A 
HETATM   30  C8  UNL     1      11.325  63.170 -32.225  1.00  0.00     0.291 A 
HETATM   31  O2  UNL     1      12.251  63.503 -31.509  1.00  0.00    -0.260 OA
HETATM   32  O3  UNL     1      10.821  63.896 -33.260  1.00  0.00    -0.308 OA
BRANCH  29  33
HETATM   33  C7  UNL     1      10.940  60.906 -31.100  1.00  0.00     0.208 C 
BRANCH  33  34
HETATM   34  O1  UNL     1      11.692  59.857 -31.705  1.00  0.00    -0.396 OA
HETATM   35  H11 UNL     1      11.952  59.254 -30.988  1.00  0.00     0.209 HD
ENDBRANCH  33  34
ENDBRANCH  29  33
ENDBRANCH  26  27
ENDBRANCH  24  26
ENDBRANCH   1  24
TORSDOF 5
ENDMDL
MODEL 3
REMARK minimizedAffinity -8.1899004
REMARK CNNscore 0.342008621
REMARK CNNaffinity 6.38311625
REMARK  5 active torsions:
REMARK  status: ('A' for Active; 'I' for Inactive)
REMARK    1  A    between atoms: C2_2  and  C3_3 
REMARK    2  A    between atoms: C2_2  and  C9_12 
REMARK    3  A    between atoms: C3_3  and  C4_4 
REMARK    4  A    between atoms: C6_6  and  C7_7 
REMARK    5  A    between atoms: C7_7  and  O1_8 
ROOT
HETATM    1  C9  UNL     1      -2.064  49.353 -20.586  1.00  0.00    -0.002 C 
HETATM    2  C10 UNL     1      -1.371  48.027 -21.020  1.00  0.00     0.007 C 
HETATM    3  C11 UNL     1      -2.482  47.016 -21.358  1.00  0.00     0.015 C 
HETATM    4  C12 UNL     1      -3.773  47.856 -21.426  1.00  0.00    -0.013 C 
HETATM    5  C13 UNL     1      -3.815  48.468 -22.863  1.00  0.00     0.021 C 
HETATM    6  C14 UNL     1      -5.109  47.145 -21.235  1.00  0.00    -0.070 C 
HETATM    7  C15 UNL     1      -5.293  45.868 -21.598  1.00  0.00    -0.022 C 
HETATM    8  C16 UNL     1      -6.601  45.157 -21.550  1.00  0.00     0.034 C 
HETATM    9  C17 UNL     1      -7.816  45.913 -20.928  1.00  0.00     0.013 C 
HETATM   10  C18 UNL     1      -9.158  45.251 -21.441  1.00  0.00     0.018 C 
HETATM   11  C19 UNL     1     -10.393  45.605 -20.587  1.00  0.00     0.023 C 
HETATM   12  C20 UNL     1      -9.063  43.702 -21.409  1.00  0.00     0.023 C 
HETATM   13  C21 UNL     1      -9.408  45.716 -22.885  1.00  0.00     0.135 C 
HETATM   14  O4  UNL     1      -9.838  44.950 -23.748  1.00  0.00    -0.297 OA
HETATM   15  C22 UNL     1      -9.224  47.189 -23.202  1.00  0.00     0.080 C 
HETATM   16  C23 UNL     1      -7.920  47.767 -22.656  1.00  0.00     0.017 C 
HETATM   17  C24 UNL     1      -7.696  47.474 -21.153  1.00  0.00    -0.031 C 
HETATM   18  C25 UNL     1      -8.743  48.254 -20.319  1.00  0.00     0.016 C 
HETATM   19  C26 UNL     1      -6.262  47.951 -20.647  1.00  0.00     0.024 C 
HETATM   20  C27 UNL     1      -6.013  49.483 -20.739  1.00  0.00     0.010 C 
HETATM   21  C28 UNL     1      -4.603  49.981 -20.339  1.00  0.00     0.011 C 
HETATM   22  C29 UNL     1      -3.523  48.886 -20.271  1.00  0.00    -0.029 C 
HETATM   23  C30 UNL     1      -3.542  48.241 -18.850  1.00  0.00     0.016 C 
ENDROOT
BRANCH   1  24
HETATM   24  C2  UNL     1      -1.245  50.121 -19.507  1.00  0.00    -0.011 C 
HETATM   25  C1  UNL     1      -2.116  51.025 -18.631  1.00  0.00     0.010 C 
BRANCH  24  26
HETATM   26  C3  UNL     1      -0.054  50.920 -20.115  1.00  0.00     0.041 C 
BRANCH  26  27
HETATM   27  C4  UNL     1      -0.393  52.309 -20.676  1.00  0.00     0.156 A 
HETATM   28  C5  UNL     1      -0.384  52.335 -22.156  1.00  0.00     0.021 A 
HETATM   29  C6  UNL     1       0.551  53.163 -22.621  1.00  0.00     0.039 A 
HETATM   30  C8  UNL     1       1.214  53.738 -21.450  1.00  0.00     0.291 A 
HETATM   31  O2  UNL     1       2.134  54.534 -21.483  1.00  0.00    -0.260 OA
HETATM   32  O3  UNL     1       0.630  53.247 -20.324  1.00  0.00    -0.308 OA
BRANCH  29  33
HETATM   33  C7  UNL     1       0.950  53.555 -23.987  1.00  0.00     0.208 C 
BRANCH  33  34
HETATM   34  O1  UNL     1       1.296  54.937 -24.015  1.00  0.00    -0.396 OA
HETATM   35  H11 UNL     1       1.604  55.127 -24.917  1.00  0.00     0.209 HD
ENDBRANCH  33  34
ENDBRANCH  29  33
ENDBRANCH  26  27
ENDBRANCH  24  26
ENDBRANCH   1  24
TORSDOF 5
ENDMDL
MODEL 4
REMARK minimizedAffinity -7.96866083
REMARK CNNscore 0.337167591
REMARK CNNaffinity 5.66547775
REMARK  5 active torsions:
REMARK  status: ('A' for Active; 'I' for Inactive)
REMARK    1  A    between atoms: C2_2  and  C3_3 
REMARK    2  A    between atoms: C2_2  and  C9_12 
REMARK    3  A    between atoms: C3_3  and  C4_4 
REMARK    4  A    between atoms: C6_6  and  C7_7 
REMARK    5  A    between atoms: C7_7  and  O1_8 
ROOT
HETATM    1  C9  UNL     1       4.021  66.744 -37.740  1.00  0.00    -0.002 C 
HETATM    2  C10 UNL     1       3.178  66.450 -36.464  1.00  0.00     0.007 C 
HETATM    3  C11 UNL     1       1.784  67.070 -36.678  1.00  0.00     0.015 C 
HETATM    4  C12 UNL     1       1.736  67.425 -38.177  1.00  0.00    -0.013 C 
HETATM    5  C13 UNL     1       1.328  66.112 -38.919  1.00  0.00     0.021 C 
HETATM    6  C14 UNL     1       0.746  68.490 -38.637  1.00  0.00    -0.070 C 
HETATM    7  C15 UNL     1      -0.422  68.692 -38.011  1.00  0.00    -0.022 C 
HETATM    8  C16 UNL     1      -1.480  69.629 -38.481  1.00  0.00     0.034 C 
HETATM    9  C17 UNL     1      -1.162  70.520 -39.721  1.00  0.00     0.013 C 
HETATM   10  C18 UNL     1      -2.519  71.013 -40.369  1.00  0.00     0.018 C 
HETATM   11  C19 UNL     1      -2.355  72.224 -41.310  1.00  0.00     0.023 C 
HETATM   12  C20 UNL     1      -3.523  71.468 -39.278  1.00  0.00     0.023 C 
HETATM   13  C21 UNL     1      -3.126  69.848 -41.167  1.00  0.00     0.135 C 
HETATM   14  O4  UNL     1      -4.337  69.620 -41.163  1.00  0.00    -0.297 OA
HETATM   15  C22 UNL     1      -2.206  69.043 -42.068  1.00  0.00     0.080 C 
HETATM   16  C23 UNL     1      -0.906  68.623 -41.385  1.00  0.00     0.017 C 
HETATM   17  C24 UNL     1      -0.159  69.796 -40.706  1.00  0.00    -0.031 C 
HETATM   18  C25 UNL     1       0.372  70.761 -41.795  1.00  0.00     0.016 C 
HETATM   19  C26 UNL     1       1.108  69.307 -39.872  1.00  0.00     0.024 C 
HETATM   20  C27 UNL     1       2.225  68.630 -40.716  1.00  0.00     0.010 C 
HETATM   21  C28 UNL     1       3.436  68.064 -39.936  1.00  0.00     0.011 C 
HETATM   22  C29 UNL     1       3.212  67.897 -38.422  1.00  0.00    -0.029 C 
HETATM   23  C30 UNL     1       3.560  69.239 -37.706  1.00  0.00     0.016 C 
ENDROOT
BRANCH   1  24
HETATM   24  C2  UNL     1       5.530  66.941 -37.418  1.00  0.00    -0.011 C 
HETATM   25  C1  UNL     1       6.448  66.456 -38.543  1.00  0.00     0.010 C 
BRANCH  24  26
HETATM   26  C3  UNL     1       5.940  66.304 -36.057  1.00  0.00     0.041 C 
BRANCH  26  27
HETATM   27  C4  UNL     1       5.473  67.048 -34.797  1.00  0.00     0.156 A 
HETATM   28  C5  UNL     1       6.580  67.769 -34.128  1.00  0.00     0.021 A 
HETATM   29  C6  UNL     1       6.795  67.297 -32.901  1.00  0.00     0.039 A 
HETATM   30  C8  UNL     1       5.821  66.225 -32.693  1.00  0.00     0.291 A 
HETATM   31  O2  UNL     1       5.722  65.550 -31.686  1.00  0.00    -0.260 OA
HETATM   32  O3  UNL     1       5.041  66.113 -33.803  1.00  0.00    -0.308 OA
BRANCH  29  33
HETATM   33  C7  UNL     1       7.746  67.674 -31.837  1.00  0.00     0.208 C 
BRANCH  33  34
HETATM   34  O1  UNL     1       8.247  66.504 -31.196  1.00  0.00    -0.396 OA
HETATM   35  H11 UNL     1       8.907  66.804 -30.548  1.00  0.00     0.209 HD
ENDBRANCH  33  34
ENDBRANCH  29  33
ENDBRANCH  26  27
ENDBRANCH  24  26
ENDBRANCH   1  24
TORSDOF 5
ENDMDL
MODEL 5
REMARK minimizedAffinity -8.60159683
REMARK CNNscore 0.312082767
REMARK CNNaffinity 5.51113176
REMARK  5 active torsions:
REMARK  status: ('A' for Active; 'I' for Inactive)
REMARK    1  A    between atoms: C2_2  and  C3_3 
REMARK    2  A    between atoms: C2_2  and  C9_12 
REMARK    3  A    between atoms: C3_3  and  C4_4 
REMARK    4  A    between atoms: C6_6  and  C7_7 
REMARK    5  A    between atoms: C7_7  and  O1_8 
ROOT
HETATM    1  C9  UNL     1       3.622  66.938 -37.548  1.00  0.00    -0.002 C 
HETATM    2  C10 UNL     1       2.631  67.036 -36.350  1.00  0.00     0.007 C 
HETATM    3  C11 UNL     1       1.326  67.658 -36.881  1.00  0.00     0.015 C 
HETATM    4  C12 UNL     1       1.462  67.613 -38.415  1.00  0.00    -0.013 C 
HETATM    5  C13 UNL     1       1.020  66.178 -38.847  1.00  0.00     0.021 C 
HETATM    6  C14 UNL     1       0.620  68.577 -39.245  1.00  0.00    -0.070 C 
HETATM    7  C15 UNL     1      -0.584  69.002 -38.836  1.00  0.00    -0.022 C 
HETATM    8  C16 UNL     1      -1.503  69.843 -39.651  1.00  0.00     0.034 C 
HETATM    9  C17 UNL     1      -0.984  70.362 -41.029  1.00  0.00     0.013 C 
HETATM   10  C18 UNL     1      -2.219  70.746 -41.939  1.00  0.00     0.018 C 
HETATM   11  C19 UNL     1      -1.856  71.659 -43.128  1.00  0.00     0.023 C 
HETATM   12  C20 UNL     1      -3.286  71.527 -41.128  1.00  0.00     0.023 C 
HETATM   13  C21 UNL     1      -2.841  69.450 -42.485  1.00  0.00     0.135 C 
HETATM   14  O4  UNL     1      -4.061  69.302 -42.570  1.00  0.00    -0.297 OA
HETATM   15  C22 UNL     1      -1.907  68.387 -43.036  1.00  0.00     0.080 C 
HETATM   16  C23 UNL     1      -0.725  68.085 -42.118  1.00  0.00     0.017 C 
HETATM   17  C24 UNL     1       0.048  69.349 -41.670  1.00  0.00    -0.031 C 
HETATM   18  C25 UNL     1       0.769  69.965 -42.895  1.00  0.00     0.016 C 
HETATM   19  C26 UNL     1       1.176  69.022 -40.593  1.00  0.00     0.024 C 
HETATM   20  C27 UNL     1       2.311  68.086 -41.097  1.00  0.00     0.010 C 
HETATM   21  C28 UNL     1       3.381  67.672 -40.060  1.00  0.00     0.011 C 
HETATM   22  C29 UNL     1       2.990  67.918 -38.591  1.00  0.00    -0.029 C 
HETATM   23  C30 UNL     1       3.379  69.378 -38.199  1.00  0.00     0.016 C 
ENDROOT
BRANCH   1  24
HETATM   24  C2  UNL     1       5.102  67.125 -37.105  1.00  0.00    -0.011 C 
HETATM   25  C1  UNL     1       6.104  66.690 -38.179  1.00  0.00     0.010 C 
BRANCH  24  26
HETATM   26  C3  UNL     1       5.413  66.431 -35.746  1.00  0.00     0.041 C 
BRANCH  26  27
HETATM   27  C4  UNL     1       5.011  64.953 -35.637  1.00  0.00     0.156 A 
HETATM   28  C5  UNL     1       4.100  64.701 -34.497  1.00  0.00     0.021 A 
HETATM   29  C6  UNL     1       4.652  63.876 -33.608  1.00  0.00     0.039 A 
HETATM   30  C8  UNL     1       5.975  63.532 -34.129  1.00  0.00     0.291 A 
HETATM   31  O2  UNL     1       6.780  62.804 -33.580  1.00  0.00    -0.260 OA
HETATM   32  O3  UNL     1       6.155  64.151 -35.328  1.00  0.00    -0.308 OA
BRANCH  29  33
HETATM   33  C7  UNL     1       4.166  63.306 -32.337  1.00  0.00     0.208 C 
BRANCH  33  34
HETATM   34  O1  UNL     1       3.791  61.944 -32.525  1.00  0.00    -0.396 OA
HETATM   35  H11 UNL     1       3.536  61.603 -31.652  1.00  0.00     0.209 HD
ENDBRANCH  33  34
ENDBRANCH  29  33
ENDBRANCH  26  27
ENDBRANCH  24  26
ENDBRANCH   1  24
TORSDOF 5
ENDMDL
MODEL 6
REMARK minimizedAffinity -7.54555941
REMARK CNNscore 0.296658009
REMARK CNNaffinity 6.04781914
REMARK  5 active torsions:
REMARK  status: ('A' for Active; 'I' for Inactive)
REMARK    1  A    between atoms: C2_2  and  C3_3 
REMARK    2  A    between atoms: C2_2  and  C9_12 
REMARK    3  A    between atoms: C3_3  and  C4_4 
REMARK    4  A    between atoms: C6_6  and  C7_7 
REMARK    5  A    between atoms: C7_7  and  O1_8 
ROOT
HETATM    1  C9  UNL     1       3.990  55.079  -8.610  1.00  0.00    -0.002 C 
HETATM    2  C10 UNL     1       5.499  55.076  -8.999  1.00  0.00     0.007 C 
HETATM    3  C11 UNL     1       6.244  55.941  -7.965  1.00  0.00     0.015 C 
HETATM    4  C12 UNL     1       5.225  56.162  -6.828  1.00  0.00    -0.013 C 
HETATM    5  C13 UNL     1       5.313  54.896  -5.917  1.00  0.00     0.021 C 
HETATM    6  C14 UNL     1       5.423  57.358  -5.903  1.00  0.00    -0.070 C 
HETATM    7  C15 UNL     1       6.640  57.846  -5.621  1.00  0.00    -0.022 C 
HETATM    8  C16 UNL     1       6.907  58.929  -4.635  1.00  0.00     0.034 C 
HETATM    9  C17 UNL     1       5.679  59.624  -3.969  1.00  0.00     0.013 C 
HETATM   10  C18 UNL     1       6.140  60.319  -2.625  1.00  0.00     0.018 C 
HETATM   11  C19 UNL     1       5.153  61.383  -2.103  1.00  0.00     0.023 C 
HETATM   12  C20 UNL     1       7.488  61.062  -2.816  1.00  0.00     0.023 C 
HETATM   13  C21 UNL     1       6.306  59.232  -1.550  1.00  0.00     0.135 C 
HETATM   14  O4  UNL     1       7.238  59.253  -0.744  1.00  0.00    -0.297 OA
HETATM   15  C22 UNL     1       5.217  58.182  -1.423  1.00  0.00     0.080 C 
HETATM   16  C23 UNL     1       4.804  57.573  -2.761  1.00  0.00     0.017 C 
HETATM   17  C24 UNL     1       4.458  58.628  -3.839  1.00  0.00    -0.031 C 
HETATM   18  C25 UNL     1       3.158  59.366  -3.430  1.00  0.00     0.016 C 
HETATM   19  C26 UNL     1       4.182  57.972  -5.265  1.00  0.00     0.024 C 
HETATM   20  C27 UNL     1       2.960  57.012  -5.318  1.00  0.00     0.010 C 
HETATM   21  C28 UNL     1       2.706  56.287  -6.661  1.00  0.00     0.011 C 
HETATM   22  C29 UNL     1       3.892  56.305  -7.642  1.00  0.00    -0.029 C 
HETATM   23  C30 UNL     1       3.825  57.608  -8.498  1.00  0.00     0.016 C 
ENDROOT
BRANCH   1  24
HETATM   24  C2  UNL     1       3.060  54.998  -9.855  1.00  0.00    -0.011 C 
HETATM   25  C1  UNL     1       3.307  56.129 -10.857  1.00  0.00     0.010 C 
BRANCH  24  26
HETATM   26  C3  UNL     1       1.552  54.918  -9.473  1.00  0.00     0.041 C 
BRANCH  26  27
HETATM   27  C4  UNL     1       0.556  55.045 -10.635  1.00  0.00     0.156 A 
HETATM   28  C5  UNL     1      -0.836  55.224 -10.163  1.00  0.00     0.021 A 
HETATM   29  C6  UNL     1      -1.613  54.213 -10.549  1.00  0.00     0.039 A 
HETATM   30  C8  UNL     1      -0.758  53.303 -11.312  1.00  0.00     0.291 A 
HETATM   31  O2  UNL     1      -1.119  52.256 -11.817  1.00  0.00    -0.260 OA
HETATM   32  O3  UNL     1       0.499  53.820 -11.373  1.00  0.00    -0.308 OA
BRANCH  29  33
HETATM   33  C7  UNL     1      -3.049  53.926 -10.361  1.00  0.00     0.208 C 
BRANCH  33  34
HETATM   34  O1  UNL     1      -3.720  53.960 -11.618  1.00  0.00    -0.396 OA
HETATM   35  H11 UNL     1      -4.643  53.709 -11.446  1.00  0.00     0.209 HD
ENDBRANCH  33  34
ENDBRANCH  29  33
ENDBRANCH  26  27
ENDBRANCH  24  26
ENDBRANCH   1  24
TORSDOF 5
ENDMDL
MODEL 7
REMARK minimizedAffinity -8.19479847
REMARK CNNscore 0.290737152
REMARK CNNaffinity 5.48960543
REMARK  5 active torsions:
REMARK  status: ('A' for Active; 'I' for Inactive)
REMARK    1  A    between atoms: C2_2  and  C3_3 
REMARK    2  A    between atoms: C2_2  and  C9_12 
REMARK    3  A    between atoms: C3_3  and  C4_4 
REMARK    4  A    between atoms: C6_6  and  C7_7 
REMARK    5  A    between atoms: C7_7  and  O1_8 
ROOT
HETATM    1  C9  UNL     1       1.140  69.299 -39.642  1.00  0.00    -0.002 C 
HETATM    2  C10 UNL     1      -0.049  68.920 -38.709  1.00  0.00     0.007 C 
HETATM    3  C11 UNL     1       0.513  68.025 -37.588  1.00  0.00     0.015 C 
HETATM    4  C12 UNL     1       2.044  68.163 -37.702  1.00  0.00    -0.013 C 
HETATM    5  C13 UNL     1       2.419  69.467 -36.927  1.00  0.00     0.021 C 
HETATM    6  C14 UNL     1       2.915  67.060 -37.111  1.00  0.00    -0.070 C 
HETATM    7  C15 UNL     1       2.530  66.344 -36.045  1.00  0.00    -0.022 C 
HETATM    8  C16 UNL     1       3.383  65.341 -35.349  1.00  0.00     0.034 C 
HETATM    9  C17 UNL     1       4.777  65.017 -35.971  1.00  0.00     0.013 C 
HETATM   10  C18 UNL     1       5.709  64.385 -34.859  1.00  0.00     0.018 C 
HETATM   11  C19 UNL     1       6.931  63.634 -35.424  1.00  0.00     0.023 C 
HETATM   12  C20 UNL     1       4.934  63.340 -34.013  1.00  0.00     0.023 C 
HETATM   13  C21 UNL     1       6.205  65.516 -33.943  1.00  0.00     0.135 C 
HETATM   14  O4  UNL     1       6.290  65.372 -32.722  1.00  0.00    -0.297 OA
HETATM   15  C22 UNL     1       6.708  66.792 -34.593  1.00  0.00     0.080 C 
HETATM   16  C23 UNL     1       5.773  67.331 -35.673  1.00  0.00     0.017 C 
HETATM   17  C24 UNL     1       5.372  66.272 -36.728  1.00  0.00    -0.031 C 
HETATM   18  C25 UNL     1       6.618  65.895 -37.569  1.00  0.00     0.016 C 
HETATM   19  C26 UNL     1       4.278  66.815 -37.750  1.00  0.00     0.024 C 
HETATM   20  C27 UNL     1       4.738  68.015 -38.626  1.00  0.00     0.010 C 
HETATM   21  C28 UNL     1       3.680  68.630 -39.572  1.00  0.00     0.011 C 
HETATM   22  C29 UNL     1       2.224  68.239 -39.258  1.00  0.00    -0.029 C 
HETATM   23  C30 UNL     1       1.889  66.900 -39.986  1.00  0.00     0.016 C 
ENDROOT
BRANCH   1  24
HETATM   24  C2  UNL     1       0.698  69.453 -41.126  1.00  0.00    -0.011 C 
HETATM   25  C1  UNL     1       1.782  70.079 -42.008  1.00  0.00     0.010 C 
BRANCH  24  26
HETATM   26  C3  UNL     1      -0.648  70.225 -41.274  1.00  0.00     0.041 C 
BRANCH  26  27
HETATM   27  C4  UNL     1      -1.432  69.969 -42.569  1.00  0.00     0.156 A 
HETATM   28  C5  UNL     1      -2.894  70.106 -42.376  1.00  0.00     0.021 A 
HETATM   29  C6  UNL     1      -3.525  68.956 -42.611  1.00  0.00     0.039 A 
HETATM   30  C8  UNL     1      -2.493  67.987 -42.982  1.00  0.00     0.291 A 
HETATM   31  O2  UNL     1      -2.692  66.818 -43.258  1.00  0.00    -0.260 OA
HETATM   32  O3  UNL     1      -1.281  68.605 -42.977  1.00  0.00    -0.308 OA
BRANCH  29  33
HETATM   33  C7  UNL     1      -4.949  68.572 -42.580  1.00  0.00     0.208 C 
BRANCH  33  34
HETATM   34  O1  UNL     1      -5.681  69.338 -43.533  1.00  0.00    -0.396 OA
HETATM   35  H11 UNL     1      -6.595  69.008 -43.512  1.00  0.00     0.209 HD
ENDBRANCH  33  34
ENDBRANCH  29  33
ENDBRANCH  26  27
ENDBRANCH  24  26
ENDBRANCH   1  24
TORSDOF 5
ENDMDL
MODEL 8
REMARK minimizedAffinity -8.86074352
REMARK CNNscore 0.286450386
REMARK CNNaffinity 5.54749918
REMARK  5 active torsions:
REMARK  status: ('A' for Active; 'I' for Inactive)
REMARK    1  A    between atoms: C2_2  and  C3_3 
REMARK    2  A    between atoms: C2_2  and  C9_12 
REMARK    3  A    between atoms: C3_3  and  C4_4 
REMARK    4  A    between atoms: C6_6  and  C7_7 
REMARK    5  A    between atoms: C7_7  and  O1_8 
ROOT
HETATM    1  C9  UNL     1       5.160  66.487 -34.804  1.00  0.00    -0.002 C 
HETATM    2  C10 UNL     1       6.310  67.431 -35.266  1.00  0.00     0.007 C 
HETATM    3  C11 UNL     1       5.846  68.125 -36.560  1.00  0.00     0.015 C 
HETATM    4  C12 UNL     1       4.337  67.825 -36.649  1.00  0.00    -0.013 C 
HETATM    5  C13 UNL     1       3.630  68.894 -35.755  1.00  0.00     0.021 C 
HETATM    6  C14 UNL     1       3.663  67.911 -38.014  1.00  0.00    -0.070 C 
HETATM    7  C15 UNL     1       4.089  68.752 -38.967  1.00  0.00    -0.022 C 
HETATM    8  C16 UNL     1       3.403  68.969 -40.271  1.00  0.00     0.034 C 
HETATM    9  C17 UNL     1       2.169  68.073 -40.600  1.00  0.00     0.013 C 
HETATM   10  C18 UNL     1       1.291  68.782 -41.708  1.00  0.00     0.018 C 
HETATM   11  C19 UNL     1       0.308  67.834 -42.424  1.00  0.00     0.023 C 
HETATM   12  C20 UNL     1       2.184  69.377 -42.829  1.00  0.00     0.023 C 
HETATM   13  C21 UNL     1       0.489  69.912 -41.042  1.00  0.00     0.135 C 
HETATM   14  O4  UNL     1       0.324  71.002 -41.592  1.00  0.00    -0.297 OA
HETATM   15  C22 UNL     1      -0.206  69.614 -39.726  1.00  0.00     0.080 C 
HETATM   16  C23 UNL     1       0.692  68.907 -38.713  1.00  0.00     0.017 C 
HETATM   17  C24 UNL     1       1.398  67.653 -39.283  1.00  0.00    -0.031 C 
HETATM   18  C25 UNL     1       0.340  66.556 -39.565  1.00  0.00     0.016 C 
HETATM   19  C26 UNL     1       2.445  67.026 -38.259  1.00  0.00     0.024 C 
HETATM   20  C27 UNL     1       1.828  66.499 -36.933  1.00  0.00     0.010 C 
HETATM   21  C28 UNL     1       2.818  65.960 -35.873  1.00  0.00     0.011 C 
HETATM   22  C29 UNL     1       4.288  66.359 -36.097  1.00  0.00    -0.029 C 
HETATM   23  C30 UNL     1       4.959  65.317 -37.046  1.00  0.00     0.016 C 
ENDROOT
BRANCH   1  24
HETATM   24  C2  UNL     1       5.694  65.207 -34.098  1.00  0.00    -0.011 C 
HETATM   25  C1  UNL     1       4.886  64.833 -32.853  1.00  0.00     0.010 C 
BRANCH  24  26
HETATM   26  C3  UNL     1       7.213  65.297 -33.765  1.00  0.00     0.041 C 
BRANCH  26  27
HETATM   27  C4  UNL     1       8.112  64.246 -34.434  1.00  0.00     0.156 A 
HETATM   28  C5  UNL     1       7.333  63.127 -35.012  1.00  0.00     0.021 A 
HETATM   29  C6  UNL     1       7.636  61.970 -34.424  1.00  0.00     0.039 A 
HETATM   30  C8  UNL     1       8.651  62.273 -33.415  1.00  0.00     0.291 A 
HETATM   31  O2  UNL     1       9.164  61.462 -32.667  1.00  0.00    -0.260 OA
HETATM   32  O3  UNL     1       8.934  63.604 -33.455  1.00  0.00    -0.308 OA
BRANCH  29  33
HETATM   33  C7  UNL     1       7.168  60.587 -34.638  1.00  0.00     0.208 C 
BRANCH  33  34
HETATM   34  O1  UNL     1       7.886  59.992 -35.715  1.00  0.00    -0.396 OA
HETATM   35  H11 UNL     1       7.582  59.070 -35.775  1.00  0.00     0.209 HD
ENDBRANCH  33  34
ENDBRANCH  29  33
ENDBRANCH  26  27
ENDBRANCH  24  26
ENDBRANCH   1  24
TORSDOF 5
ENDMDL
MODEL 9
REMARK minimizedAffinity -8.13162994
REMARK CNNscore 0.250336438
REMARK CNNaffinity 5.48687315
REMARK  5 active torsions:
REMARK  status: ('A' for Active; 'I' for Inactive)
REMARK    1  A    between atoms: C2_2  and  C3_3 
REMARK    2  A    between atoms: C2_2  and  C9_12 
REMARK    3  A    between atoms: C3_3  and  C4_4 
REMARK    4  A    between atoms: C6_6  and  C7_7 
REMARK    5  A    between atoms: C7_7  and  O1_8 
ROOT
HETATM    1  C9  UNL     1       7.139  65.113 -35.396  1.00  0.00    -0.002 C 
HETATM    2  C10 UNL     1       8.239  65.516 -36.423  1.00  0.00     0.007 C 
HETATM    3  C11 UNL     1       7.551  66.313 -37.547  1.00  0.00     0.015 C 
HETATM    4  C12 UNL     1       6.145  66.633 -37.000  1.00  0.00    -0.013 C 
HETATM    5  C13 UNL     1       6.306  67.910 -36.115  1.00  0.00     0.021 C 
HETATM    6  C14 UNL     1       5.037  66.952 -37.998  1.00  0.00    -0.070 C 
HETATM    7  C15 UNL     1       5.289  67.539 -39.177  1.00  0.00    -0.022 C 
HETATM    8  C16 UNL     1       4.243  67.985 -40.139  1.00  0.00     0.034 C 
HETATM    9  C17 UNL     1       2.758  67.643 -39.805  1.00  0.00     0.013 C 
HETATM   10  C18 UNL     1       1.806  68.621 -40.607  1.00  0.00     0.018 C 
HETATM   11  C19 UNL     1       0.350  68.126 -40.711  1.00  0.00     0.023 C 
HETATM   12  C20 UNL     1       2.291  68.793 -42.071  1.00  0.00     0.023 C 
HETATM   13  C21 UNL     1       1.814  69.988 -39.903  1.00  0.00     0.135 C 
HETATM   14  O4  UNL     1       1.828  71.044 -40.539  1.00  0.00    -0.297 OA
HETATM   15  C22 UNL     1       1.681  70.014 -38.392  1.00  0.00     0.080 C 
HETATM   16  C23 UNL     1       2.609  69.028 -37.686  1.00  0.00     0.017 C 
HETATM   17  C24 UNL     1       2.519  67.587 -38.243  1.00  0.00    -0.031 C 
HETATM   18  C25 UNL     1       1.130  66.993 -37.897  1.00  0.00     0.016 C 
HETATM   19  C26 UNL     1       3.605  66.616 -37.597  1.00  0.00     0.024 C 
HETATM   20  C27 UNL     1       3.461  66.402 -36.064  1.00  0.00     0.010 C 
HETATM   21  C28 UNL     1       4.545  65.535 -35.380  1.00  0.00     0.011 C 
HETATM   22  C29 UNL     1       5.821  65.315 -36.214  1.00  0.00    -0.029 C 
HETATM   23  C30 UNL     1       5.616  64.076 -37.140  1.00  0.00     0.016 C 
ENDROOT
BRANCH   1  24
HETATM   24  C2  UNL     1       7.433  63.740 -34.725  1.00  0.00    -0.011 C 
HETATM   25  C1  UNL     1       6.227  63.177 -33.968  1.00  0.00     0.010 C 
BRANCH  24  26
HETATM   26  C3  UNL     1       8.692  63.777 -33.809  1.00  0.00     0.041 C 
BRANCH  26  27
HETATM   27  C4  UNL     1       9.737  62.679 -34.057  1.00  0.00     0.156 A 
HETATM   28  C5  UNL     1      11.085  63.235 -34.316  1.00  0.00     0.021 A 
HETATM   29  C6  UNL     1      11.513  62.920 -35.538  1.00  0.00     0.039 A 
HETATM   30  C8  UNL     1      10.452  62.124 -36.155  1.00  0.00     0.291 A 
HETATM   31  O2  UNL     1      10.481  61.665 -37.282  1.00  0.00    -0.260 OA
HETATM   32  O3  UNL     1       9.435  61.972 -35.264  1.00  0.00    -0.308 OA
BRANCH  29  33
HETATM   33  C7  UNL     1      12.766  63.206 -36.263  1.00  0.00     0.208 C 
BRANCH  33  34
HETATM   34  O1  UNL     1      13.834  62.445 -35.706  1.00  0.00    -0.396 OA
HETATM   35  H11 UNL     1      14.618  62.625 -36.252  1.00  0.00     0.209 HD
ENDBRANCH  33  34
ENDBRANCH  29  33
ENDBRANCH  26  27
ENDBRANCH  24  26
ENDBRANCH   1  24
TORSDOF 5
ENDMDL
