MODEL 1
REMARK minimizedAffinity -7.51990128
REMARK CNNscore 0.648431778
REMARK CNNaffinity 6.02415037
REMARK  9 active torsions:
REMARK  status: ('A' for Active; 'I' for Inactive)
REMARK    1  A    between atoms: C3_4  and  O2_5 
REMARK    2  A    between atoms: O2_5  and  C4_6 
REMARK    3  A    between atoms: C11_13  and  O3_14 
REMARK    4  A    between atoms: C15_18  and  C16_19 
REMARK    5  A    between atoms: C23_28  and  O6_29 
REMARK    6  A    between atoms: C24_30  and  C25_31 
REMARK    7  A    between atoms: C28_35  and  O8_36 
REMARK    8  A    between atoms: C29_37  and  O9_38 
REMARK    9  A    between atoms: C30_39  and  O10_40 
ROOT
HETATM    1  C4  UNL     1      -1.293   7.809  13.870  1.00  0.00     0.148 C 
HETATM    2  C5  UNL     1      -1.358   9.283  13.603  1.00  0.00     0.009 C 
HETATM    3  C6  UNL     1      -1.388  10.241  14.553  1.00  0.00    -0.065 C 
HETATM    4  C7  UNL     1      -1.407  11.694  14.144  1.00  0.00     0.036 C 
HETATM    5  C8  UNL     1      -2.508  12.459  14.859  1.00  0.00     0.012 C 
HETATM    6  C9  UNL     1      -2.398  12.312  16.390  1.00  0.00     0.029 C 
HETATM    7  C10 UNL     1      -2.504  10.814  16.791  1.00  0.00     0.041 C 
HETATM    8  C11 UNL     1      -2.518  10.671  18.332  1.00  0.00     0.125 C 
HETATM    9  C12 UNL     1      -3.575  11.557  18.991  1.00  0.00     0.045 C 
HETATM   10  C13 UNL     1      -3.462  13.065  18.650  1.00  0.00    -0.003 C 
HETATM   11  C14 UNL     1      -2.233  13.637  19.380  1.00  0.00     0.019 C 
HETATM   12  C15 UNL     1      -4.822  13.751  19.064  1.00  0.00     0.032 C 
HETATM   13  C21 UNL     1      -5.680  13.781  17.775  1.00  0.00     0.013 C 
HETATM   14  C22 UNL     1      -4.870  13.067  16.690  1.00  0.00     0.040 C 
HETATM   15  C23 UNL     1      -3.405  13.246  17.111  1.00  0.00     0.070 C 
HETATM   16  C24 UNL     1      -1.411   9.929  16.060  1.00  0.00     0.043 C 
HETATM   17  C26 UNL     1      -1.671   8.411  16.290  1.00  0.00     0.025 C 
HETATM   18  C27 UNL     1      -0.903   7.519  15.316  1.00  0.00     0.037 C 
ENDROOT
BRANCH   1  19
HETATM   19  O2  UNL     1      -0.286   7.279  13.004  1.00  0.00    -0.349 OA
BRANCH  19  20
HETATM   20  C3  UNL     1       0.648   8.259  12.568  1.00  0.00     0.292 C 
HETATM   21  O1  UNL     1       0.400   8.697  11.226  1.00  0.00    -0.351 OA
HETATM   22  C2  UNL     1       0.525   7.648  10.251  1.00  0.00     0.152 C 
HETATM   23  C1  UNL     1       0.163   8.245   8.895  1.00  0.00     0.042 C 
HETATM   24  C30 UNL     1       1.941   7.057  10.246  1.00  0.00     0.178 C 
HETATM   25  C29 UNL     1       2.317   6.598  11.659  1.00  0.00     0.183 C 
HETATM   26  C28 UNL     1       2.086   7.715  12.679  1.00  0.00     0.204 C 
BRANCH  24  27
HETATM   27  O10 UNL     1       2.036   5.949   9.348  1.00  0.00    -0.390 OA
HETATM   28  H40 UNL     1       2.873   5.498   9.575  1.00  0.00     0.210 HD
ENDBRANCH  24  27
BRANCH  25  29
HETATM   29  O9  UNL     1       3.703   6.207  11.652  1.00  0.00    -0.390 OA
HETATM   30  H38 UNL     1       4.205   7.017  11.884  1.00  0.00     0.210 HD
ENDBRANCH  25  29
BRANCH  26  31
HETATM   31  O8  UNL     1       3.058   8.755  12.432  1.00  0.00    -0.388 OA
HETATM   32  H36 UNL     1       2.643   9.401  11.825  1.00  0.00     0.210 HD
ENDBRANCH  26  31
ENDBRANCH  19  20
ENDBRANCH   1  19
BRANCH  16  33
HETATM   33  C25 UNL     1      -0.011  10.262  16.610  1.00  0.00     0.245 C 
HETATM   34  O7  UNL     1       1.037  10.118  15.984  1.00  0.00    -0.306 OA
ENDBRANCH  16  33
BRANCH   8  35
HETATM   35  O3  UNL     1      -2.853   9.336  18.693  1.00  0.00    -0.395 OA
HETATM   36  H15 UNL     1      -2.448   9.157  19.561  1.00  0.00     0.210 HD
ENDBRANCH   8  35
BRANCH  15  37
HETATM   37  O6  UNL     1      -3.054  14.598  16.783  1.00  0.00    -0.389 OA
HETATM   38  H29 UNL     1      -2.113  14.734  16.985  1.00  0.00     0.210 HD
ENDBRANCH  15  37
BRANCH  12  39
HETATM   39  C16 UNL     1      -4.770  15.080  19.801  1.00  0.00    -0.030 A 
HETATM   40  C17 UNL     1      -4.804  16.247  19.140  1.00  0.00     0.153 A 
HETATM   41  O4  UNL     1      -4.769  17.507  19.756  1.00  0.00    -0.287 OA
HETATM   42  C18 UNL     1      -4.693  17.597  21.120  1.00  0.00     0.287 A 
HETATM   43  O5  UNL     1      -4.672  18.670  21.711  1.00  0.00    -0.260 OA
HETATM   44  C19 UNL     1      -4.635  16.330  21.871  1.00  0.00     0.083 A 
HETATM   45  C20 UNL     1      -4.670  15.151  21.241  1.00  0.00     0.015 A 
ENDBRANCH  12  39
TORSDOF 9
ENDMDL
MODEL 2
REMARK minimizedAffinity -9.19384575
REMARK CNNscore 0.5833745
REMARK CNNaffinity 6.2719779
REMARK  9 active torsions:
REMARK  status: ('A' for Active; 'I' for Inactive)
REMARK    1  A    between atoms: C3_4  and  O2_5 
REMARK    2  A    between atoms: O2_5  and  C4_6 
REMARK    3  A    between atoms: C11_13  and  O3_14 
REMARK    4  A    between atoms: C15_18  and  C16_19 
REMARK    5  A    between atoms: C23_28  and  O6_29 
REMARK    6  A    between atoms: C24_30  and  C25_31 
REMARK    7  A    between atoms: C28_35  and  O8_36 
REMARK    8  A    between atoms: C29_37  and  O9_38 
REMARK    9  A    between atoms: C30_39  and  O10_40 
ROOT
HETATM    1  C4  UNL     1      -0.013   7.821  11.774  1.00  0.00     0.148 C 
HETATM    2  C5  UNL     1       0.618   8.851  12.664  1.00  0.00     0.009 C 
HETATM    3  C6  UNL     1       0.138   9.234  13.864  1.00  0.00    -0.065 C 
HETATM    4  C7  UNL     1       0.900  10.252  14.679  1.00  0.00     0.036 C 
HETATM    5  C8  UNL     1      -0.008  11.371  15.162  1.00  0.00     0.012 C 
HETATM    6  C9  UNL     1      -1.217  10.821  15.946  1.00  0.00     0.029 C 
HETATM    7  C10 UNL     1      -2.051   9.871  15.041  1.00  0.00     0.041 C 
HETATM    8  C11 UNL     1      -3.332   9.414  15.781  1.00  0.00     0.125 C 
HETATM    9  C12 UNL     1      -4.135  10.589  16.338  1.00  0.00     0.045 C 
HETATM   10  C13 UNL     1      -3.342  11.525  17.286  1.00  0.00    -0.003 C 
HETATM   11  C14 UNL     1      -3.110  10.786  18.618  1.00  0.00     0.019 C 
HETATM   12  C15 UNL     1      -4.168  12.861  17.437  1.00  0.00     0.032 C 
HETATM   13  C21 UNL     1      -3.576  13.835  16.389  1.00  0.00     0.013 C 
HETATM   14  C22 UNL     1      -2.509  13.056  15.616  1.00  0.00     0.040 C 
HETATM   15  C23 UNL     1      -2.029  11.973  16.594  1.00  0.00     0.070 C 
HETATM   16  C24 UNL     1      -1.172   8.688  14.460  1.00  0.00     0.043 C 
HETATM   17  C26 UNL     1      -1.955   7.882  13.382  1.00  0.00     0.025 C 
HETATM   18  C27 UNL     1      -1.053   6.996  12.525  1.00  0.00     0.037 C 
ENDROOT
BRANCH   1  19
HETATM   19  O2  UNL     1       1.038   6.956  11.338  1.00  0.00    -0.349 OA
BRANCH  19  20
HETATM   20  C3  UNL     1       2.182   7.658  10.871  1.00  0.00     0.292 C 
HETATM   21  O1  UNL     1       2.059   8.063   9.502  1.00  0.00    -0.351 OA
HETATM   22  C2  UNL     1       1.939   6.958   8.588  1.00  0.00     0.152 C 
HETATM   23  C1  UNL     1       1.743   7.544   7.194  1.00  0.00     0.042 C 
HETATM   24  C30 UNL     1       3.173   6.048   8.649  1.00  0.00     0.178 C 
HETATM   25  C29 UNL     1       3.416   5.598  10.093  1.00  0.00     0.183 C 
HETATM   26  C28 UNL     1       3.449   6.796  11.044  1.00  0.00     0.204 C 
BRANCH  24  27
HETATM   27  O10 UNL     1       3.009   4.899   7.815  1.00  0.00    -0.390 OA
HETATM   28  H40 UNL     1       3.712   4.276   8.086  1.00  0.00     0.210 HD
ENDBRANCH  24  27
BRANCH  25  29
HETATM   29  O9  UNL     1       4.668   4.889  10.140  1.00  0.00    -0.390 OA
HETATM   30  H38 UNL     1       5.347   5.568  10.338  1.00  0.00     0.210 HD
ENDBRANCH  25  29
BRANCH  26  31
HETATM   31  O8  UNL     1       4.643   7.558  10.763  1.00  0.00    -0.388 OA
HETATM   32  H36 UNL     1       4.400   8.247  10.113  1.00  0.00     0.210 HD
ENDBRANCH  26  31
ENDBRANCH  19  20
ENDBRANCH   1  19
BRANCH  16  33
HETATM   33  C25 UNL     1      -0.781   7.718  15.591  1.00  0.00     0.245 C 
HETATM   34  O7  UNL     1       0.297   7.732  16.182  1.00  0.00    -0.306 OA
ENDBRANCH  16  33
BRANCH   8  35
HETATM   35  O3  UNL     1      -4.203   8.745  14.876  1.00  0.00    -0.395 OA
HETATM   36  H15 UNL     1      -4.739   8.119  15.395  1.00  0.00     0.210 HD
ENDBRANCH   8  35
BRANCH  15  37
HETATM   37  O6  UNL     1      -1.171  12.633  17.535  1.00  0.00    -0.389 OA
HETATM   38  H29 UNL     1      -0.801  11.967  18.140  1.00  0.00     0.210 HD
ENDBRANCH  15  37
BRANCH  12  39
HETATM   39  C16 UNL     1      -4.322  13.467  18.824  1.00  0.00    -0.030 A 
HETATM   40  C17 UNL     1      -3.452  14.377  19.289  1.00  0.00     0.153 A 
HETATM   41  O4  UNL     1      -3.539  14.982  20.552  1.00  0.00    -0.287 OA
HETATM   42  C18 UNL     1      -4.562  14.648  21.398  1.00  0.00     0.287 A 
HETATM   43  O5  UNL     1      -4.694  15.154  22.506  1.00  0.00    -0.260 OA
HETATM   44  C19 UNL     1      -5.522  13.637  20.920  1.00  0.00     0.083 A 
HETATM   45  C20 UNL     1      -5.399  13.086  19.708  1.00  0.00     0.015 A 
ENDBRANCH  12  39
TORSDOF 9
ENDMDL
MODEL 3
REMARK minimizedAffinity -8.32220745
REMARK CNNscore 0.533228159
REMARK CNNaffinity 6.31438446
REMARK  9 active torsions:
REMARK  status: ('A' for Active; 'I' for Inactive)
REMARK    1  A    between atoms: C3_4  and  O2_5 
REMARK    2  A    between atoms: O2_5  and  C4_6 
REMARK    3  A    between atoms: C11_13  and  O3_14 
REMARK    4  A    between atoms: C15_18  and  C16_19 
REMARK    5  A    between atoms: C23_28  and  O6_29 
REMARK    6  A    between atoms: C24_30  and  C25_31 
REMARK    7  A    between atoms: C28_35  and  O8_36 
REMARK    8  A    between atoms: C29_37  and  O9_38 
REMARK    9  A    between atoms: C30_39  and  O10_40 
ROOT
HETATM    1  C4  UNL     1      -6.913  -9.440   8.004  1.00  0.00     0.148 C 
HETATM    2  C5  UNL     1      -7.680 -10.344   7.086  1.00  0.00     0.009 C 
HETATM    3  C6  UNL     1      -7.186 -10.911   5.967  1.00  0.00    -0.065 C 
HETATM    4  C7  UNL     1      -8.056 -11.840   5.156  1.00  0.00     0.036 C 
HETATM    5  C8  UNL     1      -8.045 -11.469   3.682  1.00  0.00     0.012 C 
HETATM    6  C9  UNL     1      -6.609 -11.421   3.122  1.00  0.00     0.029 C 
HETATM    7  C10 UNL     1      -5.769 -10.367   3.898  1.00  0.00     0.041 C 
HETATM    8  C11 UNL     1      -4.366 -10.226   3.260  1.00  0.00     0.125 C 
HETATM    9  C12 UNL     1      -4.431  -9.967   1.755  1.00  0.00     0.045 C 
HETATM   10  C13 UNL     1      -5.219 -11.031   0.948  1.00  0.00    -0.003 C 
HETATM   11  C14 UNL     1      -4.381 -12.322   0.898  1.00  0.00     0.019 C 
HETATM   12  C15 UNL     1      -5.528 -10.419  -0.473  1.00  0.00     0.032 C 
HETATM   13  C21 UNL     1      -6.949  -9.814  -0.364  1.00  0.00     0.013 C 
HETATM   14  C22 UNL     1      -7.398 -10.003   1.087  1.00  0.00     0.040 C 
HETATM   15  C23 UNL     1      -6.620 -11.231   1.582  1.00  0.00     0.070 C 
HETATM   16  C24 UNL     1      -5.756 -10.655   5.456  1.00  0.00     0.043 C 
HETATM   17  C26 UNL     1      -5.110  -9.475   6.240  1.00  0.00     0.025 C 
HETATM   18  C27 UNL     1      -5.413  -9.515   7.737  1.00  0.00     0.037 C 
ENDROOT
BRANCH   1  19
HETATM   19  O2  UNL     1      -7.169  -9.893   9.335  1.00  0.00    -0.349 OA
BRANCH  19  20
HETATM   20  C3  UNL     1      -5.985 -10.223  10.051  1.00  0.00     0.292 C 
HETATM   21  O1  UNL     1      -6.046 -11.525  10.646  1.00  0.00    -0.351 OA
HETATM   22  C2  UNL     1      -7.087 -11.654  11.630  1.00  0.00     0.152 C 
HETATM   23  C1  UNL     1      -7.074 -13.101  12.113  1.00  0.00     0.042 C 
HETATM   24  C30 UNL     1      -6.884 -10.670  12.790  1.00  0.00     0.178 C 
HETATM   25  C29 UNL     1      -6.761  -9.244  12.244  1.00  0.00     0.183 C 
HETATM   26  C28 UNL     1      -5.705  -9.167  11.139  1.00  0.00     0.204 C 
BRANCH  24  27
HETATM   27  O10 UNL     1      -7.972 -10.731  13.715  1.00  0.00    -0.390 OA
HETATM   28  H40 UNL     1      -7.885  -9.934  14.274  1.00  0.00     0.210 HD
ENDBRANCH  24  27
BRANCH  25  29
HETATM   29  O9  UNL     1      -6.406  -8.373  13.335  1.00  0.00    -0.390 OA
HETATM   30  H38 UNL     1      -5.426  -8.352  13.346  1.00  0.00     0.210 HD
ENDBRANCH  25  29
BRANCH  26  31
HETATM   31  O8  UNL     1      -4.409  -9.371  11.743  1.00  0.00    -0.388 OA
HETATM   32  H36 UNL     1      -4.210 -10.327  11.687  1.00  0.00     0.210 HD
ENDBRANCH  26  31
ENDBRANCH  19  20
ENDBRANCH   1  19
BRANCH  16  33
HETATM   33  C25 UNL     1      -4.939 -11.927   5.749  1.00  0.00     0.245 C 
HETATM   34  O7  UNL     1      -5.369 -12.910   6.350  1.00  0.00    -0.306 OA
ENDBRANCH  16  33
BRANCH   8  35
HETATM   35  O3  UNL     1      -3.691  -9.102   3.816  1.00  0.00    -0.395 OA
HETATM   36  H15 UNL     1      -2.735  -9.276   3.755  1.00  0.00     0.210 HD
ENDBRANCH   8  35
BRANCH  15  37
HETATM   37  O6  UNL     1      -7.266 -12.375   1.009  1.00  0.00    -0.389 OA
HETATM   38  H29 UNL     1      -6.834 -13.179   1.344  1.00  0.00     0.210 HD
ENDBRANCH  15  37
BRANCH  12  39
HETATM   39  C16 UNL     1      -5.323 -11.294  -1.701  1.00  0.00    -0.030 A 
HETATM   40  C17 UNL     1      -6.363 -11.751  -2.414  1.00  0.00     0.153 A 
HETATM   41  O4  UNL     1      -6.247 -12.552  -3.560  1.00  0.00    -0.287 OA
HETATM   42  C18 UNL     1      -5.008 -12.918  -4.012  1.00  0.00     0.287 A 
HETATM   43  O5  UNL     1      -4.846 -13.605  -5.013  1.00  0.00    -0.260 OA
HETATM   44  C19 UNL     1      -3.847 -12.446  -3.236  1.00  0.00     0.083 A 
HETATM   45  C20 UNL     1      -4.006 -11.684  -2.148  1.00  0.00     0.015 A 
ENDBRANCH  12  39
TORSDOF 9
ENDMDL
MODEL 4
REMARK minimizedAffinity -7.57206678
REMARK CNNscore 0.454032987
REMARK CNNaffinity 5.65608263
REMARK  9 active torsions:
REMARK  status: ('A' for Active; 'I' for Inactive)
REMARK    1  A    between atoms: C3_4  and  O2_5 
REMARK    2  A    between atoms: O2_5  and  C4_6 
REMARK    3  A    between atoms: C11_13  and  O3_14 
REMARK    4  A    between atoms: C15_18  and  C16_19 
REMARK    5  A    between atoms: C23_28  and  O6_29 
REMARK    6  A    between atoms: C24_30  and  C25_31 
REMARK    7  A    between atoms: C28_35  and  O8_36 
REMARK    8  A    between atoms: C29_37  and  O9_38 
REMARK    9  A    between atoms: C30_39  and  O10_40 
ROOT
HETATM    1  C4  UNL     1       2.348  14.996  -1.099  1.00  0.00     0.148 C 
HETATM    2  C5  UNL     1       2.911  14.575   0.227  1.00  0.00     0.009 C 
HETATM    3  C6  UNL     1       2.233  14.578   1.392  1.00  0.00    -0.065 C 
HETATM    4  C7  UNL     1       2.909  14.084   2.648  1.00  0.00     0.036 C 
HETATM    5  C8  UNL     1       2.750  15.072   3.792  1.00  0.00     0.012 C 
HETATM    6  C9  UNL     1       1.266  15.404   4.051  1.00  0.00     0.029 C 
HETATM    7  C10 UNL     1       0.628  16.024   2.776  1.00  0.00     0.041 C 
HETATM    8  C11 UNL     1      -0.825  16.473   3.069  1.00  0.00     0.125 C 
HETATM    9  C12 UNL     1      -0.922  17.372   4.300  1.00  0.00     0.045 C 
HETATM   10  C13 UNL     1      -0.340  16.757   5.600  1.00  0.00    -0.003 C 
HETATM   11  C14 UNL     1      -1.292  15.647   6.081  1.00  0.00     0.019 C 
HETATM   12  C15 UNL     1      -0.153  17.930   6.639  1.00  0.00     0.032 C 
HETATM   13  C21 UNL     1       1.319  18.384   6.493  1.00  0.00     0.013 C 
HETATM   14  C22 UNL     1       1.925  17.557   5.356  1.00  0.00     0.040 C 
HETATM   15  C23 UNL     1       1.105  16.259   5.336  1.00  0.00     0.070 C 
HETATM   16  C24 UNL     1       0.781  15.074   1.518  1.00  0.00     0.043 C 
HETATM   17  C26 UNL     1       0.346  15.798   0.210  1.00  0.00     0.025 C 
HETATM   18  C27 UNL     1       0.826  15.088  -1.054  1.00  0.00     0.037 C 
ENDROOT
BRANCH   1  19
HETATM   19  O2  UNL     1       2.724  13.991  -2.043  1.00  0.00    -0.349 OA
BRANCH  19  20
HETATM   20  C3  UNL     1       4.114  13.690  -2.015  1.00  0.00     0.292 C 
HETATM   21  O1  UNL     1       4.903  14.668  -2.704  1.00  0.00    -0.351 OA
HETATM   22  C2  UNL     1       4.601  14.758  -4.107  1.00  0.00     0.152 C 
HETATM   23  C1  UNL     1       5.459  15.881  -4.682  1.00  0.00     0.042 C 
HETATM   24  C30 UNL     1       4.864  13.426  -4.821  1.00  0.00     0.178 C 
HETATM   25  C29 UNL     1       4.092  12.302  -4.122  1.00  0.00     0.183 C 
HETATM   26  C28 UNL     1       4.373  12.295  -2.618  1.00  0.00     0.204 C 
BRANCH  24  27
HETATM   27  O10 UNL     1       4.469  13.489  -6.194  1.00  0.00    -0.390 OA
HETATM   28  H40 UNL     1       4.448  12.562  -6.503  1.00  0.00     0.210 HD
ENDBRANCH  24  27
BRANCH  25  29
HETATM   29  O9  UNL     1       4.490  11.049  -4.710  1.00  0.00    -0.390 OA
HETATM   30  H38 UNL     1       5.247  10.735  -4.171  1.00  0.00     0.210 HD
ENDBRANCH  25  29
BRANCH  26  31
HETATM   31  O8  UNL     1       5.744  11.887  -2.421  1.00  0.00    -0.388 OA
HETATM   32  H36 UNL     1       6.287  12.699  -2.386  1.00  0.00     0.210 HD
ENDBRANCH  26  31
ENDBRANCH  19  20
ENDBRANCH   1  19
BRANCH  16  33
HETATM   33  C25 UNL     1      -0.106  13.826   1.690  1.00  0.00     0.245 C 
HETATM   34  O7  UNL     1      -1.028  13.516   0.938  1.00  0.00    -0.306 OA
ENDBRANCH  16  33
BRANCH   8  35
HETATM   35  O3  UNL     1      -1.320  17.249   1.983  1.00  0.00    -0.395 OA
HETATM   36  H15 UNL     1      -2.289  17.146   1.969  1.00  0.00     0.210 HD
ENDBRANCH   8  35
BRANCH  15  37
HETATM   37  O6  UNL     1       1.569  15.472   6.441  1.00  0.00    -0.389 OA
HETATM   38  H29 UNL     1       1.110  14.615   6.429  1.00  0.00     0.210 HD
ENDBRANCH  15  37
BRANCH  12  39
HETATM   39  C16 UNL     1      -0.587  17.698   8.079  1.00  0.00    -0.030 A 
HETATM   40  C17 UNL     1      -1.867  17.842   8.454  1.00  0.00     0.153 A 
HETATM   41  O4  UNL     1      -2.337  17.635   9.760  1.00  0.00    -0.287 OA
HETATM   42  C18 UNL     1      -1.465  17.265  10.747  1.00  0.00     0.287 A 
HETATM   43  O5  UNL     1      -1.822  17.059  11.901  1.00  0.00    -0.260 OA
HETATM   44  C19 UNL     1      -0.048  17.119  10.367  1.00  0.00     0.083 A 
HETATM   45  C20 UNL     1       0.355  17.327   9.110  1.00  0.00     0.015 A 
ENDBRANCH  12  39
TORSDOF 9
ENDMDL
MODEL 5
REMARK minimizedAffinity -9.62068272
REMARK CNNscore 0.450960428
REMARK CNNaffinity 6.60568237
REMARK  9 active torsions:
REMARK  status: ('A' for Active; 'I' for Inactive)
REMARK    1  A    between atoms: C3_4  and  O2_5 
REMARK    2  A    between atoms: O2_5  and  C4_6 
REMARK    3  A    between atoms: C11_13  and  O3_14 
REMARK    4  A    between atoms: C15_18  and  C16_19 
REMARK    5  A    between atoms: C23_28  and  O6_29 
REMARK    6  A    between atoms: C24_30  and  C25_31 
REMARK    7  A    between atoms: C28_35  and  O8_36 
REMARK    8  A    between atoms: C29_37  and  O9_38 
REMARK    9  A    between atoms: C30_39  and  O10_40 
ROOT
HETATM    1  C4  UNL     1      -4.409   6.478  14.247  1.00  0.00     0.148 C 
HETATM    2  C5  UNL     1      -5.320   6.952  15.340  1.00  0.00     0.009 C 
HETATM    3  C6  UNL     1      -6.656   6.765  15.370  1.00  0.00    -0.065 C 
HETATM    4  C7  UNL     1      -7.449   7.256  16.556  1.00  0.00     0.036 C 
HETATM    5  C8  UNL     1      -8.655   8.072  16.120  1.00  0.00     0.012 C 
HETATM    6  C9  UNL     1      -9.548   7.284  15.141  1.00  0.00     0.029 C 
HETATM    7  C10 UNL     1      -8.735   6.897  13.873  1.00  0.00     0.041 C 
HETATM    8  C11 UNL     1      -9.658   6.215  12.833  1.00  0.00     0.125 C 
HETATM    9  C12 UNL     1     -10.907   7.041  12.530  1.00  0.00     0.045 C 
HETATM   10  C13 UNL     1     -11.766   7.398  13.771  1.00  0.00    -0.003 C 
HETATM   11  C14 UNL     1     -12.477   6.120  14.253  1.00  0.00     0.019 C 
HETATM   12  C15 UNL     1     -12.753   8.555  13.350  1.00  0.00     0.032 C 
HETATM   13  C21 UNL     1     -12.053   9.870  13.769  1.00  0.00     0.013 C 
HETATM   14  C22 UNL     1     -10.684   9.481  14.332  1.00  0.00     0.040 C 
HETATM   15  C23 UNL     1     -10.867   8.049  14.854  1.00  0.00     0.070 C 
HETATM   16  C24 UNL     1      -7.433   6.071  14.236  1.00  0.00     0.043 C 
HETATM   17  C26 UNL     1      -6.516   5.889  12.991  1.00  0.00     0.025 C 
HETATM   18  C27 UNL     1      -5.098   5.452  13.352  1.00  0.00     0.037 C 
ENDROOT
BRANCH   1  19
HETATM   19  O2  UNL     1      -3.290   5.858  14.885  1.00  0.00    -0.349 OA
BRANCH  19  20
HETATM   20  C3  UNL     1      -2.304   6.790  15.311  1.00  0.00     0.292 C 
HETATM   21  O1  UNL     1      -2.237   7.945  14.467  1.00  0.00    -0.351 OA
HETATM   22  C2  UNL     1      -1.858   7.642  13.113  1.00  0.00     0.152 C 
HETATM   23  C1  UNL     1      -1.902   8.949  12.327  1.00  0.00     0.042 C 
HETATM   24  C30 UNL     1      -0.467   6.996  13.054  1.00  0.00     0.178 C 
HETATM   25  C29 UNL     1      -0.427   5.768  13.969  1.00  0.00     0.183 C 
HETATM   26  C28 UNL     1      -0.920   6.113  15.375  1.00  0.00     0.204 C 
BRANCH  24  27
HETATM   27  O10 UNL     1      -0.135   6.605  11.720  1.00  0.00    -0.390 OA
HETATM   28  H40 UNL     1       0.635   6.008  11.806  1.00  0.00     0.210 HD
ENDBRANCH  24  27
BRANCH  25  29
HETATM   29  O9  UNL     1       0.930   5.288  14.019  1.00  0.00    -0.390 OA
HETATM   30  H38 UNL     1       1.344   5.749  14.780  1.00  0.00     0.210 HD
ENDBRANCH  25  29
BRANCH  26  31
HETATM   31  O8  UNL     1       0.057   6.979  15.992  1.00  0.00    -0.388 OA
HETATM   32  H36 UNL     1      -0.217   7.901  15.811  1.00  0.00     0.210 HD
ENDBRANCH  26  31
ENDBRANCH  19  20
ENDBRANCH   1  19
BRANCH  16  33
HETATM   33  C25 UNL     1      -7.823   4.673  14.750  1.00  0.00     0.245 C 
HETATM   34  O7  UNL     1      -7.790   3.646  14.074  1.00  0.00    -0.306 OA
ENDBRANCH  16  33
BRANCH   8  35
HETATM   35  O3  UNL     1      -8.973   6.080  11.592  1.00  0.00    -0.395 OA
HETATM   36  H15 UNL     1      -9.356   5.312  11.130  1.00  0.00     0.210 HD
ENDBRANCH   8  35
BRANCH  15  37
HETATM   37  O6  UNL     1     -11.582   8.160  16.092  1.00  0.00    -0.389 OA
HETATM   38  H29 UNL     1     -11.670   7.273  16.483  1.00  0.00     0.210 HD
ENDBRANCH  15  37
BRANCH  12  39
HETATM   39  C16 UNL     1     -14.207   8.463  13.789  1.00  0.00    -0.030 A 
HETATM   40  C17 UNL     1     -15.143   7.924  12.994  1.00  0.00     0.153 A 
HETATM   41  O4  UNL     1     -16.498   7.799  13.339  1.00  0.00    -0.287 OA
HETATM   42  C18 UNL     1     -16.935   8.247  14.556  1.00  0.00     0.287 A 
HETATM   43  O5  UNL     1     -18.103   8.151  14.913  1.00  0.00    -0.260 OA
HETATM   44  C19 UNL     1     -15.931   8.861  15.442  1.00  0.00     0.083 A 
HETATM   45  C20 UNL     1     -14.650   8.960  15.071  1.00  0.00     0.015 A 
ENDBRANCH  12  39
TORSDOF 9
ENDMDL
MODEL 6
REMARK minimizedAffinity -7.56542206
REMARK CNNscore 0.39777866
REMARK CNNaffinity 5.51325369
REMARK  9 active torsions:
REMARK  status: ('A' for Active; 'I' for Inactive)
REMARK    1  A    between atoms: C3_4  and  O2_5 
REMARK    2  A    between atoms: O2_5  and  C4_6 
REMARK    3  A    between atoms: C11_13  and  O3_14 
REMARK    4  A    between atoms: C15_18  and  C16_19 
REMARK    5  A    between atoms: C23_28  and  O6_29 
REMARK    6  A    between atoms: C24_30  and  C25_31 
REMARK    7  A    between atoms: C28_35  and  O8_36 
REMARK    8  A    between atoms: C29_37  and  O9_38 
REMARK    9  A    between atoms: C30_39  and  O10_40 
ROOT
HETATM    1  C4  UNL     1     -14.529   5.818  22.682  1.00  0.00     0.148 C 
HETATM    2  C5  UNL     1     -13.160   6.198  23.164  1.00  0.00     0.009 C 
HETATM    3  C6  UNL     1     -12.817   7.410  23.646  1.00  0.00    -0.065 C 
HETATM    4  C7  UNL     1     -11.410   7.643  24.141  1.00  0.00     0.036 C 
HETATM    5  C8  UNL     1     -10.810   8.903  23.540  1.00  0.00     0.012 C 
HETATM    6  C9  UNL     1     -11.703  10.134  23.798  1.00  0.00     0.029 C 
HETATM    7  C10 UNL     1     -13.108   9.914  23.170  1.00  0.00     0.041 C 
HETATM    8  C11 UNL     1     -13.967  11.194  23.317  1.00  0.00     0.125 C 
HETATM    9  C12 UNL     1     -13.253  12.440  22.796  1.00  0.00     0.045 C 
HETATM   10  C13 UNL     1     -11.870  12.714  23.443  1.00  0.00    -0.003 C 
HETATM   11  C14 UNL     1     -12.097  13.197  24.887  1.00  0.00     0.019 C 
HETATM   12  C15 UNL     1     -11.117  13.761  22.533  1.00  0.00     0.032 C 
HETATM   13  C21 UNL     1     -10.227  12.922  21.585  1.00  0.00     0.013 C 
HETATM   14  C22 UNL     1     -10.523  11.451  21.888  1.00  0.00     0.040 C 
HETATM   15  C23 UNL     1     -10.993  11.439  23.350  1.00  0.00     0.070 C 
HETATM   16  C24 UNL     1     -13.797   8.595  23.713  1.00  0.00     0.043 C 
HETATM   17  C26 UNL     1     -15.092   8.266  22.914  1.00  0.00     0.025 C 
HETATM   18  C27 UNL     1     -15.578   6.834  23.125  1.00  0.00     0.037 C 
ENDROOT
BRANCH   1  19
HETATM   19  O2  UNL     1     -14.834   4.551  23.268  1.00  0.00    -0.349 OA
BRANCH  19  20
HETATM   20  C3  UNL     1     -14.458   4.463  24.636  1.00  0.00     0.292 C 
HETATM   21  O1  UNL     1     -13.132   3.951  24.812  1.00  0.00    -0.351 OA
HETATM   22  C2  UNL     1     -12.971   2.606  24.326  1.00  0.00     0.152 C 
HETATM   23  C1  UNL     1     -11.504   2.231  24.512  1.00  0.00     0.042 C 
HETATM   24  C30 UNL     1     -13.899   1.632  25.063  1.00  0.00     0.178 C 
HETATM   25  C29 UNL     1     -15.347   2.125  24.970  1.00  0.00     0.183 C 
HETATM   26  C28 UNL     1     -15.460   3.585  25.412  1.00  0.00     0.204 C 
BRANCH  24  27
HETATM   27  O10 UNL     1     -13.810   0.317  24.512  1.00  0.00    -0.390 OA
HETATM   28  H40 UNL     1     -14.580  -0.169  24.868  1.00  0.00     0.210 HD
ENDBRANCH  24  27
BRANCH  25  29
HETATM   29  O9  UNL     1     -16.164   1.285  25.808  1.00  0.00    -0.390 OA
HETATM   30  H38 UNL     1     -16.172   1.720  26.687  1.00  0.00     0.210 HD
ENDBRANCH  25  29
BRANCH  26  31
HETATM   31  O8  UNL     1     -15.214   3.643  26.834  1.00  0.00    -0.388 OA
HETATM   32  H36 UNL     1     -14.259   3.816  26.956  1.00  0.00     0.210 HD
ENDBRANCH  26  31
ENDBRANCH  19  20
ENDBRANCH   1  19
BRANCH  16  33
HETATM   33  C25 UNL     1     -14.183   8.775  25.194  1.00  0.00     0.245 C 
HETATM   34  O7  UNL     1     -13.596   9.512  25.984  1.00  0.00    -0.306 OA
ENDBRANCH  16  33
BRANCH   8  35
HETATM   35  O3  UNL     1     -15.153  11.074  22.539  1.00  0.00    -0.395 OA
HETATM   36  H15 UNL     1     -15.835  11.629  22.959  1.00  0.00     0.210 HD
ENDBRANCH   8  35
BRANCH  15  37
HETATM   37  O6  UNL     1      -9.814  11.588  24.153  1.00  0.00    -0.389 OA
HETATM   38  H29 UNL     1     -10.065  11.530  25.091  1.00  0.00     0.210 HD
ENDBRANCH  15  37
BRANCH  12  39
HETATM   39  C16 UNL     1     -10.387  14.914  23.206  1.00  0.00    -0.030 A 
HETATM   40  C17 UNL     1     -10.965  16.116  23.352  1.00  0.00     0.153 A 
HETATM   41  O4  UNL     1     -10.354  17.217  23.970  1.00  0.00    -0.287 OA
HETATM   42  C18 UNL     1      -9.085  17.102  24.467  1.00  0.00     0.287 A 
HETATM   43  O5  UNL     1      -8.508  18.027  25.027  1.00  0.00    -0.260 OA
HETATM   44  C19 UNL     1      -8.418  15.798  24.304  1.00  0.00     0.083 A 
HETATM   45  C20 UNL     1      -9.039  14.775  23.707  1.00  0.00     0.015 A 
ENDBRANCH  12  39
TORSDOF 9
ENDMDL
MODEL 7
REMARK minimizedAffinity -9.3347826
REMARK CNNscore 0.372271627
REMARK CNNaffinity 5.97211838
REMARK  9 active torsions:
REMARK  status: ('A' for Active; 'I' for Inactive)
REMARK    1  A    between atoms: C3_4  and  O2_5 
REMARK    2  A    between atoms: O2_5  and  C4_6 
REMARK    3  A    between atoms: C11_13  and  O3_14 
REMARK    4  A    between atoms: C15_18  and  C16_19 
REMARK    5  A    between atoms: C23_28  and  O6_29 
REMARK    6  A    between atoms: C24_30  and  C25_31 
REMARK    7  A    between atoms: C28_35  and  O8_36 
REMARK    8  A    between atoms: C29_37  and  O9_38 
REMARK    9  A    between atoms: C30_39  and  O10_40 
ROOT
HETATM    1  C4  UNL     1       4.143   7.959  10.715  1.00  0.00     0.148 C 
HETATM    2  C5  UNL     1       5.170   9.049  10.631  1.00  0.00     0.009 C 
HETATM    3  C6  UNL     1       6.181   9.229  11.505  1.00  0.00    -0.065 C 
HETATM    4  C7  UNL     1       7.174  10.342  11.276  1.00  0.00     0.036 C 
HETATM    5  C8  UNL     1       7.370  11.180  12.528  1.00  0.00     0.012 C 
HETATM    6  C9  UNL     1       7.778  10.310  13.734  1.00  0.00     0.029 C 
HETATM    7  C10 UNL     1       6.678   9.250  14.022  1.00  0.00     0.041 C 
HETATM    8  C11 UNL     1       7.023   8.455  15.305  1.00  0.00     0.125 C 
HETATM    9  C12 UNL     1       7.320   9.367  16.495  1.00  0.00     0.045 C 
HETATM   10  C13 UNL     1       8.450  10.401  16.254  1.00  0.00    -0.003 C 
HETATM   11  C14 UNL     1       9.796   9.653  16.228  1.00  0.00     0.019 C 
HETATM   12  C15 UNL     1       8.350  11.491  17.391  1.00  0.00     0.032 C 
HETATM   13  C21 UNL     1       7.510  12.643  16.789  1.00  0.00     0.013 C 
HETATM   14  C22 UNL     1       7.080  12.191  15.391  1.00  0.00     0.040 C 
HETATM   15  C23 UNL     1       8.160  11.192  14.952  1.00  0.00     0.070 C 
HETATM   16  C24 UNL     1       6.379   8.349  12.753  1.00  0.00     0.043 C 
HETATM   17  C26 UNL     1       5.127   7.453  12.981  1.00  0.00     0.025 C 
HETATM   18  C27 UNL     1       4.569   6.864  11.687  1.00  0.00     0.037 C 
ENDROOT
BRANCH   1  19
HETATM   19  O2  UNL     1       4.031   7.398   9.405  1.00  0.00    -0.349 OA
BRANCH  19  20
HETATM   20  C3  UNL     1       3.012   6.411   9.305  1.00  0.00     0.292 C 
HETATM   21  O1  UNL     1       2.415   6.366   8.004  1.00  0.00    -0.351 OA
HETATM   22  C2  UNL     1       1.745   7.585   7.640  1.00  0.00     0.152 C 
HETATM   23  C1  UNL     1       1.231   7.411   6.215  1.00  0.00     0.042 C 
HETATM   24  C30 UNL     1       0.606   7.908   8.616  1.00  0.00     0.178 C 
HETATM   25  C29 UNL     1       1.142   7.934  10.051  1.00  0.00     0.183 C 
HETATM   26  C28 UNL     1       1.922   6.656  10.368  1.00  0.00     0.204 C 
BRANCH  24  27
HETATM   27  O10 UNL     1       0.007   9.170   8.312  1.00  0.00    -0.390 OA
HETATM   28  H40 UNL     1      -0.529   9.401   9.095  1.00  0.00     0.210 HD
ENDBRANCH  24  27
BRANCH  25  29
HETATM   29  O9  UNL     1       0.025   8.072  10.948  1.00  0.00    -0.390 OA
HETATM   30  H38 UNL     1      -0.250   7.156  11.168  1.00  0.00     0.210 HD
ENDBRANCH  25  29
BRANCH  26  31
HETATM   31  O8  UNL     1       0.984   5.559  10.418  1.00  0.00    -0.388 OA
HETATM   32  H36 UNL     1       0.954   5.163   9.524  1.00  0.00     0.210 HD
ENDBRANCH  26  31
ENDBRANCH  19  20
ENDBRANCH   1  19
BRANCH  16  33
HETATM   33  C25 UNL     1       7.580   7.428  12.468  1.00  0.00     0.245 C 
HETATM   34  O7  UNL     1       7.774   6.843  11.403  1.00  0.00    -0.306 OA
ENDBRANCH  16  33
BRANCH   8  35
HETATM   35  O3  UNL     1       5.910   7.659  15.697  1.00  0.00    -0.395 OA
HETATM   36  H15 UNL     1       6.257   6.891  16.186  1.00  0.00     0.210 HD
ENDBRANCH   8  35
BRANCH  15  37
HETATM   37  O6  UNL     1       9.304  11.973  14.580  1.00  0.00    -0.389 OA
HETATM   38  H29 UNL     1       9.993  11.376  14.242  1.00  0.00     0.210 HD
ENDBRANCH  15  37
BRANCH  12  39
HETATM   39  C16 UNL     1       9.632  11.951  18.069  1.00  0.00    -0.030 A 
HETATM   40  C17 UNL     1      10.348  12.977  17.586  1.00  0.00     0.153 A 
HETATM   41  O4  UNL     1      11.531  13.459  18.166  1.00  0.00    -0.287 OA
HETATM   42  C18 UNL     1      12.024  12.870  19.298  1.00  0.00     0.287 A 
HETATM   43  O5  UNL     1      13.045  13.257  19.853  1.00  0.00    -0.260 OA
HETATM   44  C19 UNL     1      11.267  11.727  19.841  1.00  0.00     0.083 A 
HETATM   45  C20 UNL     1      10.144  11.301  19.254  1.00  0.00     0.015 A 
ENDBRANCH  12  39
TORSDOF 9
ENDMDL
MODEL 8
REMARK minimizedAffinity -7.62871218
REMARK CNNscore 0.371571362
REMARK CNNaffinity 5.87127733
REMARK  9 active torsions:
REMARK  status: ('A' for Active; 'I' for Inactive)
REMARK    1  A    between atoms: C3_4  and  O2_5 
REMARK    2  A    between atoms: O2_5  and  C4_6 
REMARK    3  A    between atoms: C11_13  and  O3_14 
REMARK    4  A    between atoms: C15_18  and  C16_19 
REMARK    5  A    between atoms: C23_28  and  O6_29 
REMARK    6  A    between atoms: C24_30  and  C25_31 
REMARK    7  A    between atoms: C28_35  and  O8_36 
REMARK    8  A    between atoms: C29_37  and  O9_38 
REMARK    9  A    between atoms: C30_39  and  O10_40 
ROOT
HETATM    1  C4  UNL     1      -4.516 -10.418   2.041  1.00  0.00     0.148 C 
HETATM    2  C5  UNL     1      -5.940  -9.950   2.094  1.00  0.00     0.009 C 
HETATM    3  C6  UNL     1      -6.817 -10.020   1.072  1.00  0.00    -0.065 C 
HETATM    4  C7  UNL     1      -8.237  -9.551   1.276  1.00  0.00     0.036 C 
HETATM    5  C8  UNL     1      -8.674  -8.602   0.173  1.00  0.00     0.012 C 
HETATM    6  C9  UNL     1      -8.490  -9.231  -1.223  1.00  0.00     0.029 C 
HETATM    7  C10 UNL     1      -6.995  -9.591  -1.452  1.00  0.00     0.041 C 
HETATM    8  C11 UNL     1      -6.784 -10.108  -2.896  1.00  0.00     0.125 C 
HETATM    9  C12 UNL     1      -7.351  -9.154  -3.946  1.00  0.00     0.045 C 
HETATM   10  C13 UNL     1      -8.855  -8.818  -3.773  1.00  0.00    -0.003 C 
HETATM   11  C14 UNL     1      -9.679 -10.061  -4.159  1.00  0.00     0.019 C 
HETATM   12  C15 UNL     1      -9.165  -7.550  -4.660  1.00  0.00     0.032 C 
HETATM   13  C21 UNL     1      -9.041  -6.337  -3.706  1.00  0.00     0.013 C 
HETATM   14  C22 UNL     1      -8.598  -6.887  -2.348  1.00  0.00     0.040 C 
HETATM   15  C23 UNL     1      -9.114  -8.333  -2.323  1.00  0.00     0.070 C 
HETATM   16  C24 UNL     1      -6.441 -10.554  -0.322  1.00  0.00     0.043 C 
HETATM   17  C26 UNL     1      -4.897 -10.722  -0.434  1.00  0.00     0.025 C 
HETATM   18  C27 UNL     1      -4.266 -11.308   0.828  1.00  0.00     0.037 C 
ENDROOT
BRANCH   1  19
HETATM   19  O2  UNL     1      -4.290 -11.181   3.229  1.00  0.00    -0.349 OA
BRANCH  19  20
HETATM   20  C3  UNL     1      -3.101 -10.810   3.914  1.00  0.00     0.292 C 
HETATM   21  O1  UNL     1      -2.564 -11.877   4.704  1.00  0.00    -0.351 OA
HETATM   22  C2  UNL     1      -3.444 -12.306   5.757  1.00  0.00     0.152 C 
HETATM   23  C1  UNL     1      -2.773 -13.484   6.455  1.00  0.00     0.042 C 
HETATM   24  C30 UNL     1      -3.739 -11.163   6.738  1.00  0.00     0.178 C 
HETATM   25  C29 UNL     1      -4.279  -9.950   5.974  1.00  0.00     0.183 C 
HETATM   26  C28 UNL     1      -3.359  -9.581   4.808  1.00  0.00     0.204 C 
BRANCH  24  27
HETATM   27  O10 UNL     1      -4.692 -11.563   7.726  1.00  0.00    -0.390 OA
HETATM   28  H40 UNL     1      -4.992 -10.735   8.150  1.00  0.00     0.210 HD
ENDBRANCH  24  27
BRANCH  25  29
HETATM   29  O9  UNL     1      -4.386  -8.848   6.894  1.00  0.00    -0.390 OA
HETATM   30  H38 UNL     1      -3.526  -8.379   6.843  1.00  0.00     0.210 HD
ENDBRANCH  25  29
BRANCH  26  31
HETATM   31  O8  UNL     1      -2.126  -9.066   5.357  1.00  0.00    -0.388 OA
HETATM   32  H36 UNL     1      -1.507  -9.819   5.436  1.00  0.00     0.210 HD
ENDBRANCH  26  31
ENDBRANCH  19  20
ENDBRANCH   1  19
BRANCH  16  33
HETATM   33  C25 UNL     1      -7.083 -11.947  -0.457  1.00  0.00     0.245 C 
HETATM   34  O7  UNL     1      -7.961 -12.236  -1.269  1.00  0.00    -0.306 OA
ENDBRANCH  16  33
BRANCH   8  35
HETATM   35  O3  UNL     1      -5.392 -10.209  -3.176  1.00  0.00    -0.395 OA
HETATM   36  H15 UNL     1      -5.280 -10.902  -3.851  1.00  0.00     0.210 HD
ENDBRANCH   8  35
BRANCH  15  37
HETATM   37  O6  UNL     1     -10.524  -8.254  -2.071  1.00  0.00    -0.389 OA
HETATM   38  H29 UNL     1     -10.878  -9.156  -1.993  1.00  0.00     0.210 HD
ENDBRANCH  15  37
BRANCH  12  39
HETATM   39  C16 UNL     1     -10.432  -7.545  -5.502  1.00  0.00    -0.030 A 
HETATM   40  C17 UNL     1     -11.598  -7.107  -5.006  1.00  0.00     0.153 A 
HETATM   41  O4  UNL     1     -12.800  -7.066  -5.729  1.00  0.00    -0.287 OA
HETATM   42  C18 UNL     1     -12.829  -7.496  -7.028  1.00  0.00     0.287 A 
HETATM   43  O5  UNL     1     -13.847  -7.470  -7.710  1.00  0.00    -0.260 OA
HETATM   44  C19 UNL     1     -11.565  -8.001  -7.593  1.00  0.00     0.083 A 
HETATM   45  C20 UNL     1     -10.443  -8.022  -6.866  1.00  0.00     0.015 A 
ENDBRANCH  12  39
TORSDOF 9
ENDMDL
MODEL 9
REMARK minimizedAffinity -7.54424143
REMARK CNNscore 0.363791078
REMARK CNNaffinity 5.67427063
REMARK  9 active torsions:
REMARK  status: ('A' for Active; 'I' for Inactive)
REMARK    1  A    between atoms: C3_4  and  O2_5 
REMARK    2  A    between atoms: O2_5  and  C4_6 
REMARK    3  A    between atoms: C11_13  and  O3_14 
REMARK    4  A    between atoms: C15_18  and  C16_19 
REMARK    5  A    between atoms: C23_28  and  O6_29 
REMARK    6  A    between atoms: C24_30  and  C25_31 
REMARK    7  A    between atoms: C28_35  and  O8_36 
REMARK    8  A    between atoms: C29_37  and  O9_38 
REMARK    9  A    between atoms: C30_39  and  O10_40 
ROOT
HETATM    1  C4  UNL     1      -8.836 -10.773   8.402  1.00  0.00     0.148 C 
HETATM    2  C5  UNL     1      -8.177 -10.076   7.249  1.00  0.00     0.009 C 
HETATM    3  C6  UNL     1      -8.828  -9.499   6.219  1.00  0.00    -0.065 C 
HETATM    4  C7  UNL     1      -8.040  -8.790   5.144  1.00  0.00     0.036 C 
HETATM    5  C8  UNL     1      -8.460  -9.242   3.755  1.00  0.00     0.012 C 
HETATM    6  C9  UNL     1      -9.977  -9.070   3.539  1.00  0.00     0.029 C 
HETATM    7  C10 UNL     1     -10.763  -9.910   4.585  1.00  0.00     0.041 C 
HETATM    8  C11 UNL     1     -12.282  -9.840   4.295  1.00  0.00     0.125 C 
HETATM    9  C12 UNL     1     -12.618 -10.197   2.848  1.00  0.00     0.045 C 
HETATM   10  C13 UNL     1     -11.888  -9.340   1.782  1.00  0.00    -0.003 C 
HETATM   11  C14 UNL     1     -12.500  -7.927   1.792  1.00  0.00     0.019 C 
HETATM   12  C15 UNL     1     -12.026 -10.082   0.397  1.00  0.00     0.032 C 
HETATM   13  C21 UNL     1     -10.733 -10.920   0.245  1.00  0.00     0.013 C 
HETATM   14  C22 UNL     1      -9.928 -10.726   1.532  1.00  0.00     0.040 C 
HETATM   15  C23 UNL     1     -10.363  -9.352   2.063  1.00  0.00     0.070 C 
HETATM   16  C24 UNL     1     -10.360  -9.530   6.069  1.00  0.00     0.043 C 
HETATM   17  C26 UNL     1     -10.978 -10.527   7.093  1.00  0.00     0.025 C 
HETATM   18  C27 UNL     1     -10.326 -10.450   8.472  1.00  0.00     0.037 C 
ENDROOT
BRANCH   1  19
HETATM   19  O2  UNL     1      -8.203 -10.292   9.590  1.00  0.00    -0.349 OA
BRANCH  19  20
HETATM   20  C3  UNL     1      -7.606  -9.012   9.425  1.00  0.00     0.292 C 
HETATM   21  O1  UNL     1      -6.299  -9.084   8.842  1.00  0.00    -0.351 OA
HETATM   22  C2  UNL     1      -5.351  -9.801   9.653  1.00  0.00     0.152 C 
HETATM   23  C1  UNL     1      -4.041  -9.856   8.874  1.00  0.00     0.042 C 
HETATM   24  C30 UNL     1      -5.166  -9.129  11.020  1.00  0.00     0.178 C 
HETATM   25  C29 UNL     1      -6.526  -8.966  11.706  1.00  0.00     0.183 C 
HETATM   26  C28 UNL     1      -7.530  -8.278  10.779  1.00  0.00     0.204 C 
BRANCH  24  27
HETATM   27  O10 UNL     1      -4.301  -9.897  11.859  1.00  0.00    -0.390 OA
HETATM   28  H40 UNL     1      -4.423  -9.537  12.760  1.00  0.00     0.210 HD
ENDBRANCH  24  27
BRANCH  25  29
HETATM   29  O9  UNL     1      -6.337  -8.187  12.902  1.00  0.00    -0.390 OA
HETATM   30  H38 UNL     1      -6.468  -7.253  12.631  1.00  0.00     0.210 HD
ENDBRANCH  25  29
BRANCH  26  31
HETATM   31  O8  UNL     1      -7.114  -6.906  10.607  1.00  0.00    -0.388 OA
HETATM   32  H36 UNL     1      -6.551  -6.872   9.808  1.00  0.00     0.210 HD
ENDBRANCH  26  31
ENDBRANCH  19  20
ENDBRANCH   1  19
BRANCH  16  33
HETATM   33  C25 UNL     1     -10.873  -8.118   6.409  1.00  0.00     0.245 C 
HETATM   34  O7  UNL     1     -11.477  -7.824   7.439  1.00  0.00    -0.306 OA
ENDBRANCH  16  33
BRANCH   8  35
HETATM   35  O3  UNL     1     -12.973 -10.791   5.098  1.00  0.00    -0.395 OA
HETATM   36  H15 UNL     1     -13.877 -10.455   5.236  1.00  0.00     0.210 HD
ENDBRANCH   8  35
BRANCH  15  37
HETATM   37  O6  UNL     1      -9.700  -8.377   1.247  1.00  0.00    -0.389 OA
HETATM   38  H29 UNL     1      -9.908  -7.490   1.589  1.00  0.00     0.210 HD
ENDBRANCH  15  37
BRANCH  12  39
HETATM   39  C16 UNL     1     -12.377  -9.261  -0.835  1.00  0.00    -0.030 A 
HETATM   40  C17 UNL     1     -11.466  -8.481  -1.437  1.00  0.00     0.153 A 
HETATM   41  O4  UNL     1     -11.719  -7.706  -2.579  1.00  0.00    -0.287 OA
HETATM   42  C18 UNL     1     -12.964  -7.716  -3.147  1.00  0.00     0.287 A 
HETATM   43  O5  UNL     1     -13.236  -7.070  -4.152  1.00  0.00    -0.260 OA
HETATM   44  C19 UNL     1     -13.989  -8.550  -2.496  1.00  0.00     0.083 A 
HETATM   45  C20 UNL     1     -13.704  -9.272  -1.407  1.00  0.00     0.015 A 
ENDBRANCH  12  39
TORSDOF 9
ENDMDL
