MODEL 1
REMARK minimizedAffinity -9.4115715
REMARK  6 active torsions:
REMARK  status: ('A' for Active; 'I' for Inactive)
REMARK    1  A    between atoms: C2_2  and  N1_3 
REMARK    2  A    between atoms: N1_3  and  C3_4 
REMARK    3  A    between atoms: N1_3  and  C22_25 
REMARK    4  A    between atoms: C3_4  and  C4_5 
REMARK    5  A    between atoms: C5_6  and  C6_7 
REMARK    6  A    between atoms: C9_11  and  C10_12 
ROOT
HETATM    1  C6  UNL     1      -2.010   4.422  12.277  1.00  0.00    -0.033 C 
HETATM    2  C7  UNL     1      -3.208   3.912  11.803  1.00  0.00     0.036 C 
HETATM    3  C8  UNL     1      -4.430   4.435  12.252  1.00  0.00     0.043 C 
HETATM    4 CL1  UNL     1      -5.825   3.541  11.711  1.00  0.00    -0.084 Cl
HETATM    5  C9  UNL     1      -4.517   5.542  13.151  1.00  0.00    -0.010 C 
HETATM    6  C20 UNL     1      -3.283   5.960  13.690  1.00  0.00     0.043 C 
HETATM    7 CL2  UNL     1      -3.082   7.029  15.034  1.00  0.00    -0.084 Cl
HETATM    8  C21 UNL     1      -2.059   5.436  13.228  1.00  0.00     0.036 C 
ENDROOT
BRANCH   1   9
HETATM    9  C5  UNL     1      -0.740   3.881  11.790  1.00  0.00     0.009 C 
HETATM   10  C4  UNL     1       0.416   4.558  11.692  1.00  0.00    -0.007 C 
BRANCH  10  11
HETATM   11  C3  UNL     1       0.695   5.976  12.115  1.00  0.00     0.144 C 
BRANCH  11  12
HETATM   12  N1  UNL     1       0.342   6.961  11.084  1.00  0.00    -0.405 N 
BRANCH  12  13
HETATM   13  C2  UNL     1       0.192   8.309  11.643  1.00  0.00     0.113 C 
HETATM   14  C1  UNL     1      -1.230   8.823  11.824  1.00  0.00     0.026 C 
ENDBRANCH  12  13
BRANCH  12  15
HETATM   15  C22 UNL     1       1.037   6.812   9.786  1.00  0.00     0.079 C 
HETATM   16  C23 UNL     1       2.470   6.251   9.821  1.00  0.00     0.025 C 
HETATM   17  C24 UNL     1       3.004   5.911   8.421  1.00  0.00     0.002 C 
HETATM   18  C25 UNL     1       2.232   6.569   7.281  1.00  0.00     0.000 C 
HETATM   19  C26 UNL     1       1.828   7.993   7.627  1.00  0.00     0.002 C 
HETATM   20  C27 UNL     1       0.996   8.089   8.911  1.00  0.00     0.025 C 
ENDBRANCH  12  15
ENDBRANCH  11  12
ENDBRANCH  10  11
ENDBRANCH   1   9
BRANCH   5  21
HETATM   21  C10 UNL     1      -5.916   6.113  13.466  1.00  0.00     0.030 C 
HETATM   22  C11 UNL     1      -7.226   5.262  13.420  1.00  0.00    -0.005 C 
HETATM   23  C12 UNL     1      -7.429   4.390  14.681  1.00  0.00     0.010 C 
HETATM   24  C16 UNL     1      -8.427   6.245  13.355  1.00  0.00     0.010 C 
HETATM   25  C13 UNL     1      -7.465   5.254  15.944  1.00  0.00    -0.013 C 
HETATM   26  C14 UNL     1      -8.637   6.240  15.853  1.00  0.00     0.009 C 
HETATM   27  C19 UNL     1      -6.137   6.013  16.031  1.00  0.00     0.010 C 
HETATM   28  C15 UNL     1      -8.470   7.130  14.613  1.00  0.00    -0.013 C 
HETATM   29  C17 UNL     1      -7.153   7.909  14.742  1.00  0.00     0.010 C 
HETATM   30  C18 UNL     1      -5.961   6.931  14.809  1.00  0.00    -0.005 C 
ENDBRANCH   5  21
TORSDOF 6
ENDMDL
MODEL 2
REMARK minimizedAffinity -9.30914497
REMARK  6 active torsions:
REMARK  status: ('A' for Active; 'I' for Inactive)
REMARK    1  A    between atoms: C2_2  and  N1_3 
REMARK    2  A    between atoms: N1_3  and  C3_4 
REMARK    3  A    between atoms: N1_3  and  C22_25 
REMARK    4  A    between atoms: C3_4  and  C4_5 
REMARK    5  A    between atoms: C5_6  and  C6_7 
REMARK    6  A    between atoms: C9_11  and  C10_12 
ROOT
HETATM    1  C6  UNL     1      -2.101   4.743  12.467  1.00  0.00    -0.033 C 
HETATM    2  C7  UNL     1      -2.330   6.076  12.768  1.00  0.00     0.036 C 
HETATM    3  C8  UNL     1      -3.633   6.534  13.017  1.00  0.00     0.043 C 
HETATM    4 CL1  UNL     1      -3.757   8.266  13.174  1.00  0.00    -0.084 Cl
HETATM    5  C9  UNL     1      -4.769   5.669  13.042  1.00  0.00    -0.010 C 
HETATM    6  C20 UNL     1      -4.509   4.345  12.626  1.00  0.00     0.043 C 
HETATM    7 CL2  UNL     1      -5.705   3.163  12.229  1.00  0.00    -0.084 Cl
HETATM    8  C21 UNL     1      -3.197   3.890  12.387  1.00  0.00     0.036 C 
ENDROOT
BRANCH   1   9
HETATM    9  C5  UNL     1      -0.736   4.271  12.225  1.00  0.00     0.009 C 
HETATM   10  C4  UNL     1       0.281   5.017  11.764  1.00  0.00    -0.007 C 
BRANCH  10  11
HETATM   11  C3  UNL     1       0.283   6.492  11.460  1.00  0.00     0.144 C 
BRANCH  11  12
HETATM   12  N1  UNL     1       1.569   6.965  10.929  1.00  0.00    -0.405 N 
BRANCH  12  13
HETATM   13  C2  UNL     1       2.685   6.627  11.819  1.00  0.00     0.113 C 
HETATM   14  C1  UNL     1       3.770   7.681  11.991  1.00  0.00     0.026 C 
ENDBRANCH  12  13
BRANCH  12  15
HETATM   15  C22 UNL     1       1.761   6.810   9.470  1.00  0.00     0.079 C 
HETATM   16  C23 UNL     1       2.899   5.880   9.010  1.00  0.00     0.025 C 
HETATM   17  C24 UNL     1       2.858   5.600   7.501  1.00  0.00     0.002 C 
HETATM   18  C25 UNL     1       2.014   6.591   6.704  1.00  0.00     0.000 C 
HETATM   19  C26 UNL     1       2.181   8.011   7.221  1.00  0.00     0.002 C 
HETATM   20  C27 UNL     1       1.845   8.155   8.710  1.00  0.00     0.025 C 
ENDBRANCH  12  15
ENDBRANCH  11  12
ENDBRANCH  10  11
ENDBRANCH   1   9
BRANCH   5  21
HETATM   21  C10 UNL     1      -6.129   6.267  13.460  1.00  0.00     0.030 C 
HETATM   22  C11 UNL     1      -7.456   5.443  13.510  1.00  0.00    -0.005 C 
HETATM   23  C12 UNL     1      -7.582   4.570  14.781  1.00  0.00     0.010 C 
HETATM   24  C16 UNL     1      -8.638   6.449  13.536  1.00  0.00     0.010 C 
HETATM   25  C13 UNL     1      -7.508   5.430  16.044  1.00  0.00    -0.013 C 
HETATM   26  C14 UNL     1      -8.662   6.440  16.042  1.00  0.00     0.009 C 
HETATM   27  C19 UNL     1      -6.162   6.162  16.035  1.00  0.00     0.010 C 
HETATM   28  C15 UNL     1      -8.570   7.331  14.795  1.00  0.00    -0.013 C 
HETATM   29  C17 UNL     1      -7.231   8.083  14.828  1.00  0.00     0.010 C 
HETATM   30  C18 UNL     1      -6.058   7.080  14.805  1.00  0.00    -0.005 C 
ENDBRANCH   5  21
TORSDOF 6
ENDMDL
MODEL 3
REMARK minimizedAffinity -8.85531998
REMARK  6 active torsions:
REMARK  status: ('A' for Active; 'I' for Inactive)
REMARK    1  A    between atoms: C2_2  and  N1_3 
REMARK    2  A    between atoms: N1_3  and  C3_4 
REMARK    3  A    between atoms: N1_3  and  C22_25 
REMARK    4  A    between atoms: C3_4  and  C4_5 
REMARK    5  A    between atoms: C5_6  and  C6_7 
REMARK    6  A    between atoms: C9_11  and  C10_12 
ROOT
HETATM    1  C6  UNL     1      -2.608   6.103  13.810  1.00  0.00    -0.033 C 
HETATM    2  C7  UNL     1      -2.337   4.998  13.019  1.00  0.00     0.036 C 
HETATM    3  C8  UNL     1      -1.358   5.066  12.015  1.00  0.00     0.043 C 
HETATM    4 CL1  UNL     1      -1.296   3.658  10.989  1.00  0.00    -0.084 Cl
HETATM    5  C9  UNL     1      -0.553   6.225  11.793  1.00  0.00    -0.010 C 
HETATM    6  C20 UNL     1      -0.933   7.358  12.545  1.00  0.00     0.043 C 
HETATM    7 CL2  UNL     1      -0.390   8.975  12.271  1.00  0.00    -0.084 Cl
HETATM    8  C21 UNL     1      -1.910   7.279  13.557  1.00  0.00     0.036 C 
ENDROOT
BRANCH   1   9
HETATM    9  C5  UNL     1      -3.619   6.016  14.866  1.00  0.00     0.009 C 
HETATM   10  C4  UNL     1      -4.949   6.072  14.684  1.00  0.00    -0.007 C 
BRANCH  10  11
HETATM   11  C3  UNL     1      -5.702   6.163  13.383  1.00  0.00     0.144 C 
BRANCH  11  12
HETATM   12  N1  UNL     1      -6.870   5.272  13.335  1.00  0.00    -0.405 N 
BRANCH  12  13
HETATM   13  C2  UNL     1      -8.114   6.015  13.104  1.00  0.00     0.113 C 
HETATM   14  C1  UNL     1      -8.817   5.780  11.774  1.00  0.00     0.026 C 
ENDBRANCH  12  13
BRANCH  12  15
HETATM   15  C22 UNL     1      -6.674   3.990  12.623  1.00  0.00     0.079 C 
HETATM   16  C23 UNL     1      -7.223   2.722  13.304  1.00  0.00     0.025 C 
HETATM   17  C24 UNL     1      -7.185   1.495  12.381  1.00  0.00     0.002 C 
HETATM   18  C25 UNL     1      -6.253   1.643  11.181  1.00  0.00     0.000 C 
HETATM   19  C26 UNL     1      -4.970   2.367  11.555  1.00  0.00     0.002 C 
HETATM   20  C27 UNL     1      -5.213   3.750  12.170  1.00  0.00     0.025 C 
ENDBRANCH  12  15
ENDBRANCH  11  12
ENDBRANCH  10  11
ENDBRANCH   1   9
BRANCH   5  21
HETATM   21  C10 UNL     1       0.581   6.133  10.750  1.00  0.00     0.030 C 
HETATM   22  C11 UNL     1       0.907   7.269   9.727  1.00  0.00    -0.005 C 
HETATM   23  C12 UNL     1       1.729   8.426  10.345  1.00  0.00     0.010 C 
HETATM   24  C16 UNL     1       1.776   6.653   8.597  1.00  0.00     0.010 C 
HETATM   25  C13 UNL     1       3.049   7.910  10.923  1.00  0.00    -0.013 C 
HETATM   26  C14 UNL     1       3.883   7.278   9.802  1.00  0.00     0.009 C 
HETATM   27  C19 UNL     1       2.717   6.865  11.993  1.00  0.00     0.010 C 
HETATM   28  C15 UNL     1       3.103   6.119   9.165  1.00  0.00    -0.013 C 
HETATM   29  C17 UNL     1       2.816   5.068  10.247  1.00  0.00     0.010 C 
HETATM   30  C18 UNL     1       1.955   5.683  11.371  1.00  0.00    -0.005 C 
ENDBRANCH   5  21
TORSDOF 6
ENDMDL
MODEL 4
REMARK minimizedAffinity -8.63097477
REMARK  6 active torsions:
REMARK  status: ('A' for Active; 'I' for Inactive)
REMARK    1  A    between atoms: C2_2  and  N1_3 
REMARK    2  A    between atoms: N1_3  and  C3_4 
REMARK    3  A    between atoms: N1_3  and  C22_25 
REMARK    4  A    between atoms: C3_4  and  C4_5 
REMARK    5  A    between atoms: C5_6  and  C6_7 
REMARK    6  A    between atoms: C9_11  and  C10_12 
ROOT
HETATM    1  C6  UNL     1      -0.903   4.714  11.882  1.00  0.00    -0.033 C 
HETATM    2  C7  UNL     1      -0.984   5.777  12.767  1.00  0.00     0.036 C 
HETATM    3  C8  UNL     1      -2.207   6.106  13.372  1.00  0.00     0.043 C 
HETATM    4 CL1  UNL     1      -2.168   7.587  14.289  1.00  0.00    -0.084 Cl
HETATM    5  C9  UNL     1      -3.401   5.347  13.173  1.00  0.00    -0.010 C 
HETATM    6  C20 UNL     1      -3.302   4.342  12.186  1.00  0.00     0.043 C 
HETATM    7 CL2  UNL     1      -4.629   3.489  11.482  1.00  0.00    -0.084 Cl
HETATM    8  C21 UNL     1      -2.068   4.012  11.590  1.00  0.00     0.036 C 
ENDROOT
BRANCH   1   9
HETATM    9  C5  UNL     1       0.381   4.368  11.269  1.00  0.00     0.009 C 
HETATM   10  C4  UNL     1       1.531   5.044  11.425  1.00  0.00    -0.007 C 
BRANCH  10  11
HETATM   11  C3  UNL     1       1.788   6.244  12.299  1.00  0.00     0.144 C 
BRANCH  11  12
HETATM   12  N1  UNL     1       2.485   7.327  11.592  1.00  0.00    -0.405 N 
BRANCH  12  13
HETATM   13  C2  UNL     1       3.895   7.417  11.985  1.00  0.00     0.113 C 
HETATM   14  C1  UNL     1       4.872   6.508  11.252  1.00  0.00     0.026 C 
ENDBRANCH  12  13
BRANCH  12  15
HETATM   15  C22 UNL     1       2.142   7.490  10.163  1.00  0.00     0.079 C 
HETATM   16  C23 UNL     1       3.110   8.322   9.301  1.00  0.00     0.025 C 
HETATM   17  C24 UNL     1       2.796   8.227   7.801  1.00  0.00     0.002 C 
HETATM   18  C25 UNL     1       1.392   7.714   7.488  1.00  0.00     0.000 C 
HETATM   19  C26 UNL     1       0.363   8.272   8.458  1.00  0.00     0.002 C 
HETATM   20  C27 UNL     1       0.688   7.968   9.925  1.00  0.00     0.025 C 
ENDBRANCH  12  15
ENDBRANCH  11  12
ENDBRANCH  10  11
ENDBRANCH   1   9
BRANCH   5  21
HETATM   21  C10 UNL     1      -4.649   5.726  13.997  1.00  0.00     0.030 C 
HETATM   22  C11 UNL     1      -4.581   6.388  15.412  1.00  0.00    -0.005 C 
HETATM   23  C12 UNL     1      -4.298   7.908  15.359  1.00  0.00     0.010 C 
HETATM   24  C16 UNL     1      -5.969   6.211  16.085  1.00  0.00     0.010 C 
HETATM   25  C13 UNL     1      -5.370   8.635  14.544  1.00  0.00    -0.013 C 
HETATM   26  C14 UNL     1      -6.739   8.427  15.203  1.00  0.00     0.009 C 
HETATM   27  C19 UNL     1      -5.365   8.045  13.130  1.00  0.00     0.010 C 
HETATM   28  C15 UNL     1      -7.060   6.927  15.270  1.00  0.00    -0.013 C 
HETATM   29  C17 UNL     1      -7.088   6.367  13.840  1.00  0.00     0.010 C 
HETATM   30  C18 UNL     1      -5.708   6.547  13.172  1.00  0.00    -0.005 C 
ENDBRANCH   5  21
TORSDOF 6
ENDMDL
MODEL 5
REMARK minimizedAffinity -8.55035496
REMARK  6 active torsions:
REMARK  status: ('A' for Active; 'I' for Inactive)
REMARK    1  A    between atoms: C2_2  and  N1_3 
REMARK    2  A    between atoms: N1_3  and  C3_4 
REMARK    3  A    between atoms: N1_3  and  C22_25 
REMARK    4  A    between atoms: C3_4  and  C4_5 
REMARK    5  A    between atoms: C5_6  and  C6_7 
REMARK    6  A    between atoms: C9_11  and  C10_12 
ROOT
HETATM    1  C6  UNL     1      -5.069   4.559  12.781  1.00  0.00    -0.033 C 
HETATM    2  C7  UNL     1      -3.967   3.921  12.234  1.00  0.00     0.036 C 
HETATM    3  C8  UNL     1      -2.710   4.546  12.239  1.00  0.00     0.043 C 
HETATM    4 CL1  UNL     1      -1.491   3.693  11.331  1.00  0.00    -0.084 Cl
HETATM    5  C9  UNL     1      -2.476   5.815  12.852  1.00  0.00    -0.010 C 
HETATM    6  C20 UNL     1      -3.640   6.475  13.300  1.00  0.00     0.043 C 
HETATM    7 CL2  UNL     1      -3.737   8.134  13.772  1.00  0.00    -0.084 Cl
HETATM    8  C21 UNL     1      -4.897   5.838  13.300  1.00  0.00     0.036 C 
ENDROOT
BRANCH   1   9
HETATM    9  C5  UNL     1      -6.373   3.892  12.785  1.00  0.00     0.009 C 
HETATM   10  C4  UNL     1      -7.563   4.499  12.923  1.00  0.00    -0.007 C 
BRANCH  10  11
HETATM   11  C3  UNL     1      -7.842   5.975  13.033  1.00  0.00     0.144 C 
BRANCH  11  12
HETATM   12  N1  UNL     1      -8.434   6.350  14.324  1.00  0.00    -0.405 N 
BRANCH  12  13
HETATM   13  C2  UNL     1      -7.446   6.959  15.222  1.00  0.00     0.113 C 
HETATM   14  C1  UNL     1      -6.981   6.118  16.403  1.00  0.00     0.026 C 
ENDBRANCH  12  13
BRANCH  12  15
HETATM   15  C22 UNL     1      -9.789   6.942  14.265  1.00  0.00     0.079 C 
HETATM   16  C23 UNL     1     -10.489   6.950  12.893  1.00  0.00     0.025 C 
HETATM   17  C24 UNL     1     -11.966   7.358  12.987  1.00  0.00     0.002 C 
HETATM   18  C25 UNL     1     -12.336   8.073  14.285  1.00  0.00     0.000 C 
HETATM   19  C26 UNL     1     -11.241   9.030  14.728  1.00  0.00     0.002 C 
HETATM   20  C27 UNL     1      -9.878   8.349  14.905  1.00  0.00     0.025 C 
ENDBRANCH  12  15
ENDBRANCH  11  12
ENDBRANCH  10  11
ENDBRANCH   1   9
BRANCH   5  21
HETATM   21  C10 UNL     1      -1.025   6.336  12.912  1.00  0.00     0.030 C 
HETATM   22  C11 UNL     1       0.069   5.968  11.858  1.00  0.00    -0.005 C 
HETATM   23  C12 UNL     1      -0.046   6.788  10.551  1.00  0.00     0.010 C 
HETATM   24  C16 UNL     1       1.454   6.300  12.476  1.00  0.00     0.010 C 
HETATM   25  C13 UNL     1       0.052   8.288  10.837  1.00  0.00    -0.013 C 
HETATM   26  C14 UNL     1       1.412   8.597  11.475  1.00  0.00     0.009 C 
HETATM   27  C19 UNL     1      -1.082   8.659  11.797  1.00  0.00     0.010 C 
HETATM   28  C15 UNL     1       1.564   7.804  12.781  1.00  0.00    -0.013 C 
HETATM   29  C17 UNL     1       0.440   8.220  13.741  1.00  0.00     0.010 C 
HETATM   30  C18 UNL     1      -0.936   7.892  13.123  1.00  0.00    -0.005 C 
ENDBRANCH   5  21
TORSDOF 6
ENDMDL
MODEL 6
REMARK minimizedAffinity -8.54162216
REMARK  6 active torsions:
REMARK  status: ('A' for Active; 'I' for Inactive)
REMARK    1  A    between atoms: C2_2  and  N1_3 
REMARK    2  A    between atoms: N1_3  and  C3_4 
REMARK    3  A    between atoms: N1_3  and  C22_25 
REMARK    4  A    between atoms: C3_4  and  C4_5 
REMARK    5  A    between atoms: C5_6  and  C6_7 
REMARK    6  A    between atoms: C9_11  and  C10_12 
ROOT
HETATM    1  C6  UNL     1      -2.189   4.988  12.414  1.00  0.00    -0.033 C 
HETATM    2  C7  UNL     1      -2.365   6.299  12.828  1.00  0.00     0.036 C 
HETATM    3  C8  UNL     1      -3.648   6.783  13.127  1.00  0.00     0.043 C 
HETATM    4 CL1  UNL     1      -3.706   8.499  13.429  1.00  0.00    -0.084 Cl
HETATM    5  C9  UNL     1      -4.816   5.961  13.090  1.00  0.00    -0.010 C 
HETATM    6  C20 UNL     1      -4.609   4.668  12.563  1.00  0.00     0.043 C 
HETATM    7 CL2  UNL     1      -5.850   3.568  12.080  1.00  0.00    -0.084 Cl
HETATM    8  C21 UNL     1      -3.316   4.187  12.274  1.00  0.00     0.036 C 
ENDROOT
BRANCH   1   9
HETATM    9  C5  UNL     1      -0.844   4.489  12.121  1.00  0.00     0.009 C 
HETATM   10  C4  UNL     1       0.226   5.245  11.824  1.00  0.00    -0.007 C 
BRANCH  10  11
HETATM   11  C3  UNL     1       0.317   6.748  11.792  1.00  0.00     0.144 C 
BRANCH  11  12
HETATM   12  N1  UNL     1       0.994   7.254  10.591  1.00  0.00    -0.405 N 
BRANCH  12  13
HETATM   13  C2  UNL     1       0.221   8.314   9.934  1.00  0.00     0.113 C 
HETATM   14  C1  UNL     1      -0.047   8.147   8.444  1.00  0.00     0.026 C 
ENDBRANCH  12  13
BRANCH  12  15
HETATM   15  C22 UNL     1       2.461   7.417  10.697  1.00  0.00     0.079 C 
HETATM   16  C23 UNL     1       3.131   8.381   9.701  1.00  0.00     0.025 C 
HETATM   17  C24 UNL     1       4.601   8.661  10.050  1.00  0.00     0.002 C 
HETATM   18  C25 UNL     1       5.221   7.644  11.006  1.00  0.00     0.000 C 
HETATM   19  C26 UNL     1       4.757   6.230  10.696  1.00  0.00     0.002 C 
HETATM   20  C27 UNL     1       3.232   6.075  10.725  1.00  0.00     0.025 C 
ENDBRANCH  12  15
ENDBRANCH  11  12
ENDBRANCH  10  11
ENDBRANCH   1   9
BRANCH   5  21
HETATM   21  C10 UNL     1      -6.149   6.572  13.569  1.00  0.00     0.030 C 
HETATM   22  C11 UNL     1      -7.524   5.835  13.464  1.00  0.00    -0.005 C 
HETATM   23  C12 UNL     1      -7.739   4.786  14.580  1.00  0.00     0.010 C 
HETATM   24  C16 UNL     1      -8.645   6.898  13.623  1.00  0.00     0.010 C 
HETATM   25  C13 UNL     1      -7.650   5.434  15.963  1.00  0.00    -0.013 C 
HETATM   26  C14 UNL     1      -8.743   6.502  16.096  1.00  0.00     0.009 C 
HETATM   27  C19 UNL     1      -6.264   6.073  16.095  1.00  0.00     0.010 C 
HETATM   28  C15 UNL     1      -8.562   7.568  15.006  1.00  0.00    -0.013 C 
HETATM   29  C17 UNL     1      -7.182   8.220  15.182  1.00  0.00     0.010 C 
HETATM   30  C18 UNL     1      -6.070   7.161  15.026  1.00  0.00    -0.005 C 
ENDBRANCH   5  21
TORSDOF 6
ENDMDL
MODEL 7
REMARK minimizedAffinity -8.53084087
REMARK  6 active torsions:
REMARK  status: ('A' for Active; 'I' for Inactive)
REMARK    1  A    between atoms: C2_2  and  N1_3 
REMARK    2  A    between atoms: N1_3  and  C3_4 
REMARK    3  A    between atoms: N1_3  and  C22_25 
REMARK    4  A    between atoms: C3_4  and  C4_5 
REMARK    5  A    between atoms: C5_6  and  C6_7 
REMARK    6  A    between atoms: C9_11  and  C10_12 
ROOT
HETATM    1  C6  UNL     1      -2.701   6.295  14.200  1.00  0.00    -0.033 C 
HETATM    2  C7  UNL     1      -2.210   7.516  13.766  1.00  0.00     0.036 C 
HETATM    3  C8  UNL     1      -1.225   7.571  12.769  1.00  0.00     0.043 C 
HETATM    4 CL1  UNL     1      -0.581   9.168  12.496  1.00  0.00    -0.084 Cl
HETATM    5  C9  UNL     1      -0.724   6.409  12.107  1.00  0.00    -0.010 C 
HETATM    6  C20 UNL     1      -1.169   5.185  12.650  1.00  0.00     0.043 C 
HETATM    7 CL2  UNL     1      -0.503   3.628  12.303  1.00  0.00    -0.084 Cl
HETATM    8  C21 UNL     1      -2.166   5.137  13.645  1.00  0.00     0.036 C 
ENDROOT
BRANCH   1   9
HETATM    9  C5  UNL     1      -3.742   6.248  15.229  1.00  0.00     0.009 C 
HETATM   10  C4  UNL     1      -5.057   6.086  15.008  1.00  0.00    -0.007 C 
BRANCH  10  11
HETATM   11  C3  UNL     1      -5.751   5.848  13.693  1.00  0.00     0.144 C 
BRANCH  11  12
HETATM   12  N1  UNL     1      -6.457   4.560  13.645  1.00  0.00    -0.405 N 
BRANCH  12  13
HETATM   13  C2  UNL     1      -7.903   4.735  13.476  1.00  0.00     0.113 C 
HETATM   14  C1  UNL     1      -8.356   5.732  12.418  1.00  0.00     0.026 C 
ENDBRANCH  12  13
BRANCH  12  15
HETATM   15  C22 UNL     1      -5.785   3.485  12.881  1.00  0.00     0.079 C 
HETATM   16  C23 UNL     1      -4.697   3.915  11.879  1.00  0.00     0.025 C 
HETATM   17  C24 UNL     1      -3.902   2.724  11.324  1.00  0.00     0.002 C 
HETATM   18  C25 UNL     1      -4.588   1.373  11.513  1.00  0.00     0.000 C 
HETATM   19  C26 UNL     1      -6.089   1.471  11.290  1.00  0.00     0.002 C 
HETATM   20  C27 UNL     1      -6.768   2.505  12.196  1.00  0.00     0.025 C 
ENDBRANCH  12  15
ENDBRANCH  11  12
ENDBRANCH  10  11
ENDBRANCH   1   9
BRANCH   5  21
HETATM   21  C10 UNL     1       0.259   6.608  10.934  1.00  0.00     0.030 C 
HETATM   22  C11 UNL     1       0.634   8.008  10.350  1.00  0.00    -0.005 C 
HETATM   23  C12 UNL     1       1.683   8.761  11.203  1.00  0.00     0.010 C 
HETATM   24  C16 UNL     1       1.269   7.784   8.951  1.00  0.00     0.010 C 
HETATM   25  C13 UNL     1       2.968   7.941  11.338  1.00  0.00    -0.013 C 
HETATM   26  C14 UNL     1       3.568   7.701   9.947  1.00  0.00     0.009 C 
HETATM   27  C19 UNL     1       2.606   6.607  11.999  1.00  0.00     0.010 C 
HETATM   28  C15 UNL     1       2.557   6.950   9.069  1.00  0.00    -0.013 C 
HETATM   29  C17 UNL     1       2.240   5.600   9.731  1.00  0.00     0.010 C 
HETATM   30  C18 UNL     1       1.611   5.826  11.123  1.00  0.00    -0.005 C 
ENDBRANCH   5  21
TORSDOF 6
ENDMDL
MODEL 8
REMARK minimizedAffinity -8.52118397
REMARK  6 active torsions:
REMARK  status: ('A' for Active; 'I' for Inactive)
REMARK    1  A    between atoms: C2_2  and  N1_3 
REMARK    2  A    between atoms: N1_3  and  C3_4 
REMARK    3  A    between atoms: N1_3  and  C22_25 
REMARK    4  A    between atoms: C3_4  and  C4_5 
REMARK    5  A    between atoms: C5_6  and  C6_7 
REMARK    6  A    between atoms: C9_11  and  C10_12 
ROOT
HETATM    1  C6  UNL     1      -3.867   6.394  15.066  1.00  0.00    -0.033 C 
HETATM    2  C7  UNL     1      -2.892   7.201  15.629  1.00  0.00     0.036 C 
HETATM    3  C8  UNL     1      -1.638   7.335  15.013  1.00  0.00     0.043 C 
HETATM    4 CL1  UNL     1      -0.474   8.219  15.962  1.00  0.00    -0.084 Cl
HETATM    5  C9  UNL     1      -1.316   6.718  13.765  1.00  0.00    -0.010 C 
HETATM    6  C20 UNL     1      -2.294   5.823  13.282  1.00  0.00     0.043 C 
HETATM    7 CL2  UNL     1      -2.072   4.686  12.000  1.00  0.00    -0.084 Cl
HETATM    8  C21 UNL     1      -3.555   5.701  13.901  1.00  0.00     0.036 C 
ENDROOT
BRANCH   1   9
HETATM    9  C5  UNL     1      -5.178   6.274  15.708  1.00  0.00     0.009 C 
HETATM   10  C4  UNL     1      -6.361   6.222  15.072  1.00  0.00    -0.007 C 
BRANCH  10  11
HETATM   11  C3  UNL     1      -6.613   6.202  13.587  1.00  0.00     0.144 C 
BRANCH  11  12
HETATM   12  N1  UNL     1      -7.655   5.243  13.197  1.00  0.00    -0.405 N 
BRANCH  12  13
HETATM   13  C2  UNL     1      -8.828   5.912  12.626  1.00  0.00     0.113 C 
HETATM   14  C1  UNL     1      -8.927   5.948  11.106  1.00  0.00     0.026 C 
ENDBRANCH  12  13
BRANCH  12  15
HETATM   15  C22 UNL     1      -7.177   3.996  12.559  1.00  0.00     0.079 C 
HETATM   16  C23 UNL     1      -7.498   2.674  13.280  1.00  0.00     0.025 C 
HETATM   17  C24 UNL     1      -7.176   1.441  12.423  1.00  0.00     0.002 C 
HETATM   18  C25 UNL     1      -6.234   1.722  11.254  1.00  0.00     0.000 C 
HETATM   19  C26 UNL     1      -5.137   2.700  11.642  1.00  0.00     0.002 C 
HETATM   20  C27 UNL     1      -5.677   4.032  12.176  1.00  0.00     0.025 C 
ENDBRANCH  12  15
ENDBRANCH  11  12
ENDBRANCH  10  11
ENDBRANCH   1   9
BRANCH   5  21
HETATM   21  C10 UNL     1       0.047   7.049  13.122  1.00  0.00     0.030 C 
HETATM   22  C11 UNL     1       0.782   6.101  12.121  1.00  0.00    -0.005 C 
HETATM   23  C12 UNL     1       0.217   6.180  10.682  1.00  0.00     0.010 C 
HETATM   24  C16 UNL     1       2.267   6.549  12.046  1.00  0.00     0.010 C 
HETATM   25  C13 UNL     1       0.305   7.608  10.139  1.00  0.00    -0.013 C 
HETATM   26  C14 UNL     1       1.773   8.049  10.099  1.00  0.00     0.009 C 
HETATM   27  C19 UNL     1      -0.498   8.517  11.075  1.00  0.00     0.010 C 
HETATM   28  C15 UNL     1       2.371   7.988  11.512  1.00  0.00    -0.013 C 
HETATM   29  C17 UNL     1       1.575   8.936  12.422  1.00  0.00     0.010 C 
HETATM   30  C18 UNL     1       0.099   8.490  12.492  1.00  0.00    -0.005 C 
ENDBRANCH   5  21
TORSDOF 6
ENDMDL
MODEL 9
REMARK minimizedAffinity -8.43480682
REMARK  6 active torsions:
REMARK  status: ('A' for Active; 'I' for Inactive)
REMARK    1  A    between atoms: C2_2  and  N1_3 
REMARK    2  A    between atoms: N1_3  and  C3_4 
REMARK    3  A    between atoms: N1_3  and  C22_25 
REMARK    4  A    between atoms: C3_4  and  C4_5 
REMARK    5  A    between atoms: C5_6  and  C6_7 
REMARK    6  A    between atoms: C9_11  and  C10_12 
ROOT
HETATM    1  C6  UNL     1      -5.501   4.113  12.866  1.00  0.00    -0.033 C 
HETATM    2  C7  UNL     1      -5.159   5.425  13.150  1.00  0.00     0.036 C 
HETATM    3  C8  UNL     1      -3.872   5.903  12.858  1.00  0.00     0.043 C 
HETATM    4 CL1  UNL     1      -3.555   7.505  13.467  1.00  0.00    -0.084 Cl
HETATM    5  C9  UNL     1      -2.879   5.109  12.205  1.00  0.00    -0.010 C 
HETATM    6  C20 UNL     1      -3.230   3.754  12.032  1.00  0.00     0.043 C 
HETATM    7 CL2  UNL     1      -2.146   2.482  11.591  1.00  0.00    -0.084 Cl
HETATM    8  C21 UNL     1      -4.527   3.284  12.319  1.00  0.00     0.036 C 
ENDROOT
BRANCH   1   9
HETATM    9  C5  UNL     1      -6.852   3.629  13.159  1.00  0.00     0.009 C 
HETATM   10  C4  UNL     1      -7.904   4.396  13.490  1.00  0.00    -0.007 C 
BRANCH  10  11
HETATM   11  C3  UNL     1      -7.967   5.898  13.567  1.00  0.00     0.144 C 
BRANCH  11  12
HETATM   12  N1  UNL     1      -8.703   6.381  14.744  1.00  0.00    -0.405 N 
BRANCH  12  13
HETATM   13  C2  UNL     1      -7.804   6.950  15.754  1.00  0.00     0.113 C 
HETATM   14  C1  UNL     1      -6.815   5.996  16.409  1.00  0.00     0.026 C 
ENDBRANCH  12  13
BRANCH  12  15
HETATM   15  C22 UNL     1      -9.979   7.076  14.466  1.00  0.00     0.079 C 
HETATM   16  C23 UNL     1     -10.571   6.911  13.054  1.00  0.00     0.025 C 
HETATM   17  C24 UNL     1     -12.000   7.464  12.946  1.00  0.00     0.002 C 
HETATM   18  C25 UNL     1     -12.387   8.422  14.070  1.00  0.00     0.000 C 
HETATM   19  C26 UNL     1     -11.232   9.336  14.447  1.00  0.00     0.002 C 
HETATM   20  C27 UNL     1      -9.966   8.574  14.856  1.00  0.00     0.025 C 
ENDBRANCH  12  15
ENDBRANCH  11  12
ENDBRANCH  10  11
ENDBRANCH   1   9
BRANCH   5  21
HETATM   21  C10 UNL     1      -1.548   5.787  11.816  1.00  0.00     0.030 C 
HETATM   22  C11 UNL     1      -1.127   7.210  12.309  1.00  0.00    -0.005 C 
HETATM   23  C12 UNL     1      -0.571   7.213  13.753  1.00  0.00     0.010 C 
HETATM   24  C16 UNL     1       0.015   7.712  11.386  1.00  0.00     0.010 C 
HETATM   25  C13 UNL     1       0.643   6.288  13.873  1.00  0.00    -0.013 C 
HETATM   26  C14 UNL     1       1.752   6.778  12.933  1.00  0.00     0.009 C 
HETATM   27  C19 UNL     1       0.198   4.876  13.479  1.00  0.00     0.010 C 
HETATM   28  C15 UNL     1       1.239   6.786  11.485  1.00  0.00    -0.013 C 
HETATM   29  C17 UNL     1       0.836   5.354  11.101  1.00  0.00     0.010 C 
HETATM   30  C18 UNL     1      -0.297   4.855  12.022  1.00  0.00    -0.005 C 
ENDBRANCH   5  21
TORSDOF 6
ENDMDL
