MODEL 1
REMARK minimizedAffinity -10.939765
REMARK CNNscore 0.118901066
REMARK CNNaffinity 7.15412664
REMARK  14 active torsions:
REMARK  status: ('A' for Active; 'I' for Inactive)
REMARK       I    between atoms: N1_1  and  C1_2 
REMARK       I    between atoms: C1_2  and  N2_3 
REMARK    1  A    between atoms: N3_4  and  C2_6 
REMARK    2  A    between atoms: C2_6  and  C3_7 
REMARK    3  A    between atoms: C3_7  and  C4_8 
REMARK    4  A    between atoms: C4_8  and  C5_9 
REMARK    5  A    between atoms: C4_8  and  C6_11 
REMARK    6  A    between atoms: C5_9  and  O1_10 
REMARK    7  A    between atoms: C6_11  and  C7_12 
REMARK    8  A    between atoms: C21_27  and  S1_28 
REMARK    9  A    between atoms: C22_32  and  C23_33 
REMARK   10  A    between atoms: C24_34  and  C25_35 
REMARK   11  A    between atoms: C25_35  and  O6_36 
REMARK   12  A    between atoms: C25_35  and  C26_37 
REMARK   13  A    between atoms: C29_40  and  O7_41 
REMARK   14  A    between atoms: C33_45  and  NA1_51 
ROOT
HETATM    1  C2  UNL     1       1.762   6.757  11.122  1.00  0.00     0.171 C 
HETATM    2  O2  UNL     1       1.878   8.217  11.384  1.00  0.00    -0.316 OA
HETATM    3  C13 UNL     1       0.887   8.834  12.099  1.00  0.00     0.072 C 
HETATM    4  C14 UNL     1       1.221   9.301  13.369  1.00  0.00     0.037 C 
HETATM    5  C15 UNL     1       0.214   9.724  14.238  1.00  0.00     0.010 C 
HETATM    6  C16 UNL     1      -1.125   9.715  13.828  1.00  0.00    -0.058 C 
HETATM    7  C17 UNL     1      -1.430   9.375  12.504  1.00  0.00     0.010 C 
HETATM    8  C18 UNL     1      -0.424   8.952  11.633  1.00  0.00     0.037 C 
HETATM    9  C19 UNL     1      -2.232  10.070  14.789  1.00  0.00     0.040 C 
HETATM   10  C20 UNL     1      -2.516   9.011  15.881  1.00  0.00     0.028 C 
HETATM   11  C21 UNL     1      -3.721   8.036  15.679  1.00  0.00     0.138 C 
HETATM   12  C22 UNL     1      -3.447   6.851  14.705  1.00  0.00     0.031 C 
HETATM   13  C32 UNL     1      -2.268   5.927  15.168  1.00  0.00     0.041 C 
HETATM   14  C33 UNL     1      -1.173   5.775  14.132  1.00  0.00     0.029 C 
HETATM   15  C34 UNL     1      -1.472   5.499  12.794  1.00  0.00     0.137 C 
HETATM   16  C35 UNL     1      -0.503   5.663  11.802  1.00  0.00     0.012 C 
HETATM   17  C36 UNL     1       0.790   6.096  12.145  1.00  0.00    -0.003 C 
HETATM   18  C37 UNL     1       1.140   6.103  13.509  1.00  0.00     0.010 C 
HETATM   19  C38 UNL     1       0.164   5.965  14.493  1.00  0.00     0.001 C 
ENDROOT
BRANCH   1  20
HETATM   20  N3  UNL     1       3.096   6.121  11.194  1.00  0.00    -0.336 N 
HETATM   21  C1  UNL     1       4.187   6.742  11.414  1.00  0.00     0.124 C 
HETATM   22  N1  UNL     1       5.329   6.026  11.556  1.00  0.00    -0.279 NA
HETATM   23  N2  UNL     1       4.470   8.052  11.593  1.00  0.00    -0.279 NA
HETATM   24  H1  UNL     1       5.857   6.330  12.368  1.00  0.00     0.126 HD
HETATM   25  H2  UNL     1       5.084   5.046  11.650  1.00  0.00     0.126 HD
HETATM   26  H3  UNL     1       5.370   8.299  11.201  1.00  0.00     0.126 HD
HETATM   27  H4  UNL     1       3.756   8.686  11.233  1.00  0.00     0.126 HD
ATOM     28  H3  UNL     1       3.146   5.112  11.057  1.00  0.00     0.165 HD
ENDBRANCH   1  20
BRANCH   1  29
HETATM   29  C3  UNL     1       1.292   6.664   9.622  1.00  0.00     0.074 C 
BRANCH  29  30
HETATM   30  C4  UNL     1       2.340   7.061   8.538  1.00  0.00     0.018 C 
BRANCH  30  31
HETATM   31  C5  UNL     1       2.115   8.530   8.141  1.00  0.00     0.169 C 
BRANCH  31  32
HETATM   32  O1  UNL     1       0.785   8.941   8.439  1.00  0.00    -0.400 OA
HETATM   33  H10 UNL     1       0.767   9.909   8.359  1.00  0.00     0.209 HD
ENDBRANCH  31  32
ENDBRANCH  30  31
BRANCH  30  34
HETATM   34  C6  UNL     1       2.312   6.136   7.308  1.00  0.00     0.045 C 
BRANCH  34  35
HETATM   35  C7  UNL     1       3.214   4.931   7.440  1.00  0.00    -0.058 A 
HETATM   36  C8  UNL     1       3.768   4.602   8.686  1.00  0.00     0.007 A 
HETATM   37  C9  UNL     1       4.587   3.482   8.824  1.00  0.00     0.001 A 
HETATM   38  C10 UNL     1       4.870   2.688   7.715  1.00  0.00     0.000 A 
HETATM   39  C11 UNL     1       4.354   3.025   6.465  1.00  0.00     0.001 A 
HETATM   40  C12 UNL     1       3.531   4.142   6.325  1.00  0.00     0.007 A 
ENDBRANCH  34  35
ENDBRANCH  30  34
ENDBRANCH  29  30
ENDBRANCH   1  29
BRANCH  14  41
HETATM   41 NA1  UNL     1      -1.193   6.998  12.364  1.00  0.00    -0.379 Na
ATOM     42 2HA1 UNL     1      -1.330   7.991  12.178  1.00  0.00     0.091 HD
ATOM     43 1HA1 UNL     1      -0.485   7.318  11.703  1.00  0.00     0.091 HD
ENDBRANCH  14  41
BRANCH  12  44
HETATM   44  C23 UNL     1      -4.627   5.936  14.388  1.00  0.00    -0.022 C 
HETATM   45  C24 UNL     1      -5.726   6.261  13.681  1.00  0.00     0.006 C 
BRANCH  45  46
HETATM   46  C25 UNL     1      -6.884   5.333  13.442  1.00  0.00     0.173 C 
BRANCH  46  47
HETATM   47  O6  UNL     1      -7.865   6.051  12.677  1.00  0.00    -0.387 OA
HETATM   48  H31 UNL     1      -7.575   6.981  12.652  1.00  0.00     0.210 HD
ENDBRANCH  46  47
BRANCH  46  49
HETATM   49  C26 UNL     1      -6.504   4.027  12.763  1.00  0.00    -0.026 A 
HETATM   50  C27 UNL     1      -7.263   2.848  12.893  1.00  0.00     0.013 A 
HETATM   51  C28 UNL     1      -6.869   1.670  12.247  1.00  0.00     0.037 A 
HETATM   52  C29 UNL     1      -5.713   1.660  11.472  1.00  0.00     0.065 A 
HETATM   53  C30 UNL     1      -4.942   2.808  11.329  1.00  0.00     0.037 A 
HETATM   54  C31 UNL     1      -5.334   3.984  11.976  1.00  0.00     0.013 A 
BRANCH  52  55
HETATM   55  O7  UNL     1      -5.366   0.497  10.844  1.00  0.00    -0.361 OA
HETATM   56  H34 UNL     1      -4.569   0.678  10.317  1.00  0.00     0.217 HD
ENDBRANCH  52  55
ENDBRANCH  46  49
ENDBRANCH  45  46
ENDBRANCH  12  44
BRANCH  11  57
HETATM   57  S1  UNL     1      -5.236   8.965  15.271  1.00  0.00     0.106 S 
HETATM   58  O3  UNL     1      -5.054  10.261  15.929  1.00  0.00    -0.595 OA
HETATM   59  O4  UNL     1      -5.243   9.026  13.810  1.00  0.00    -0.595 OA
HETATM   60  O5  UNL     1      -6.317   8.175  15.855  1.00  0.00    -0.595 OA
ENDBRANCH  11  57
TORSDOF 14
ENDMDL
MODEL 2
REMARK minimizedAffinity -8.23069
REMARK CNNscore 0.118029207
REMARK CNNaffinity 6.48141289
REMARK  14 active torsions:
REMARK  status: ('A' for Active; 'I' for Inactive)
REMARK       I    between atoms: N1_1  and  C1_2 
REMARK       I    between atoms: C1_2  and  N2_3 
REMARK    1  A    between atoms: N3_4  and  C2_6 
REMARK    2  A    between atoms: C2_6  and  C3_7 
REMARK    3  A    between atoms: C3_7  and  C4_8 
REMARK    4  A    between atoms: C4_8  and  C5_9 
REMARK    5  A    between atoms: C4_8  and  C6_11 
REMARK    6  A    between atoms: C5_9  and  O1_10 
REMARK    7  A    between atoms: C6_11  and  C7_12 
REMARK    8  A    between atoms: C21_27  and  S1_28 
REMARK    9  A    between atoms: C22_32  and  C23_33 
REMARK   10  A    between atoms: C24_34  and  C25_35 
REMARK   11  A    between atoms: C25_35  and  O6_36 
REMARK   12  A    between atoms: C25_35  and  C26_37 
REMARK   13  A    between atoms: C29_40  and  O7_41 
REMARK   14  A    between atoms: C33_45  and  NA1_51 
ROOT
HETATM    1  C2  UNL     1      -8.925  -9.299  -1.053  1.00  0.00     0.171 C 
HETATM    2  O2  UNL     1      -9.995 -10.255  -1.449  1.00  0.00    -0.316 OA
HETATM    3  C13 UNL     1     -10.803  -9.930  -2.505  1.00  0.00     0.072 C 
HETATM    4  C14 UNL     1     -10.673 -10.699  -3.660  1.00  0.00     0.037 C 
HETATM    5  C15 UNL     1     -11.288 -10.283  -4.842  1.00  0.00     0.010 C 
HETATM    6  C16 UNL     1     -12.063  -9.117  -4.864  1.00  0.00    -0.058 C 
HETATM    7  C17 UNL     1     -12.297  -8.431  -3.665  1.00  0.00     0.010 C 
HETATM    8  C18 UNL     1     -11.683  -8.847  -2.482  1.00  0.00     0.037 C 
HETATM    9  C19 UNL     1     -12.647  -8.599  -6.154  1.00  0.00     0.040 C 
HETATM   10  C20 UNL     1     -11.622  -7.986  -7.138  1.00  0.00     0.028 C 
HETATM   11  C21 UNL     1     -11.479  -6.430  -7.193  1.00  0.00     0.138 C 
HETATM   12  C22 UNL     1     -10.633  -5.809  -6.041  1.00  0.00     0.031 C 
HETATM   13  C32 UNL     1      -9.158  -6.338  -6.000  1.00  0.00     0.041 C 
HETATM   14  C33 UNL     1      -8.767  -6.945  -4.668  1.00  0.00     0.029 C 
HETATM   15  C34 UNL     1      -9.054  -6.297  -3.462  1.00  0.00     0.137 C 
HETATM   16  C35 UNL     1      -8.974  -6.986  -2.250  1.00  0.00     0.012 C 
HETATM   17  C36 UNL     1      -8.589  -8.338  -2.232  1.00  0.00    -0.003 C 
HETATM   18  C37 UNL     1      -8.048  -8.883  -3.413  1.00  0.00     0.010 C 
HETATM   19  C38 UNL     1      -8.155  -8.201  -4.623  1.00  0.00     0.001 C 
ENDROOT
BRANCH   1  20
HETATM   20  N3  UNL     1      -7.714 -10.040  -0.632  1.00  0.00    -0.336 N 
HETATM   21  C1  UNL     1      -7.084  -9.843   0.458  1.00  0.00     0.124 C 
HETATM   22  N1  UNL     1      -6.048 -10.660   0.770  1.00  0.00    -0.279 NA
HETATM   23  N2  UNL     1      -7.261  -8.960   1.468  1.00  0.00    -0.279 NA
HETATM   24  H1  UNL     1      -6.110 -10.984   1.730  1.00  0.00     0.126 HD
HETATM   25  H2  UNL     1      -6.062 -11.452   0.137  1.00  0.00     0.126 HD
HETATM   26  H3  UNL     1      -6.380  -8.664   1.867  1.00  0.00     0.126 HD
HETATM   27  H4  UNL     1      -7.813  -8.141   1.213  1.00  0.00     0.126 HD
ATOM     28  H3  UNL     1      -7.358 -10.760  -1.260  1.00  0.00     0.165 HD
ENDBRANCH   1  20
BRANCH   1  29
HETATM   29  C3  UNL     1      -9.491  -8.585   0.230  1.00  0.00     0.074 C 
BRANCH  29  30
HETATM   30  C4  UNL     1     -11.038  -8.403   0.301  1.00  0.00     0.018 C 
BRANCH  30  31
HETATM   31  C5  UNL     1     -11.355  -6.918   0.541  1.00  0.00     0.169 C 
BRANCH  31  32
HETATM   32  O1  UNL     1     -12.751  -6.669   0.425  1.00  0.00    -0.400 OA
HETATM   33  H10 UNL     1     -12.907  -5.779   0.782  1.00  0.00     0.209 HD
ENDBRANCH  31  32
ENDBRANCH  30  31
BRANCH  30  34
HETATM   34  C6  UNL     1     -11.701  -9.298   1.363  1.00  0.00     0.045 C 
BRANCH  34  35
HETATM   35  C7  UNL     1     -11.189  -9.050   2.763  1.00  0.00    -0.058 A 
HETATM   36  C8  UNL     1     -10.145  -9.832   3.278  1.00  0.00     0.007 A 
HETATM   37  C9  UNL     1      -9.653  -9.601   4.563  1.00  0.00     0.001 A 
HETATM   38  C10 UNL     1     -10.209  -8.593   5.349  1.00  0.00     0.000 A 
HETATM   39  C11 UNL     1     -11.270  -7.834   4.861  1.00  0.00     0.001 A 
HETATM   40  C12 UNL     1     -11.762  -8.060   3.575  1.00  0.00     0.007 A 
ENDBRANCH  34  35
ENDBRANCH  30  34
ENDBRANCH  29  30
ENDBRANCH   1  29
BRANCH  14  41
HETATM   41 NA1  UNL     1     -10.263  -7.275  -3.160  1.00  0.00    -0.379 Na
ATOM     42 2HA1 UNL     1     -11.198  -7.681  -3.153  1.00  0.00     0.091 HD
ATOM     43 1HA1 UNL     1     -10.352  -7.901  -2.360  1.00  0.00     0.091 HD
ENDBRANCH  14  41
BRANCH  12  44
HETATM   44  C23 UNL     1     -10.558  -4.286  -5.988  1.00  0.00    -0.022 C 
HETATM   45  C24 UNL     1     -10.844  -3.506  -4.929  1.00  0.00     0.006 C 
BRANCH  45  46
HETATM   46  C25 UNL     1     -10.802  -2.003  -4.948  1.00  0.00     0.173 C 
BRANCH  46  47
HETATM   47  O6  UNL     1     -11.069  -1.545  -3.613  1.00  0.00    -0.387 OA
HETATM   48  H31 UNL     1     -11.349  -2.324  -3.099  1.00  0.00     0.210 HD
ENDBRANCH  46  47
BRANCH  46  49
HETATM   49  C26 UNL     1      -9.500  -1.425  -5.478  1.00  0.00    -0.026 A 
HETATM   50  C27 UNL     1      -9.456  -0.370  -6.410  1.00  0.00     0.013 A 
HETATM   51  C28 UNL     1      -8.230   0.127  -6.869  1.00  0.00     0.037 A 
HETATM   52  C29 UNL     1      -7.041  -0.429  -6.404  1.00  0.00     0.065 A 
HETATM   53  C30 UNL     1      -7.054  -1.473  -5.486  1.00  0.00     0.037 A 
HETATM   54  C31 UNL     1      -8.280  -1.971  -5.030  1.00  0.00     0.013 A 
BRANCH  52  55
HETATM   55  O7  UNL     1      -5.863   0.089  -6.861  1.00  0.00    -0.361 OA
HETATM   56  H34 UNL     1      -5.143  -0.379  -6.405  1.00  0.00     0.217 HD
ENDBRANCH  52  55
ENDBRANCH  46  49
ENDBRANCH  45  46
ENDBRANCH  12  44
BRANCH  11  57
HETATM   57  S1  UNL     1     -13.111  -5.643  -7.390  1.00  0.00     0.106 S 
HETATM   58  O3  UNL     1     -12.820  -4.357  -8.027  1.00  0.00    -0.595 OA
HETATM   59  O4  UNL     1     -13.865  -6.575  -8.230  1.00  0.00    -0.595 OA
HETATM   60  O5  UNL     1     -13.617  -5.503  -6.026  1.00  0.00    -0.595 OA
ENDBRANCH  11  57
TORSDOF 14
ENDMDL
MODEL 3
REMARK minimizedAffinity -9.00403404
REMARK CNNscore 0.104288839
REMARK CNNaffinity 6.26174545
REMARK  14 active torsions:
REMARK  status: ('A' for Active; 'I' for Inactive)
REMARK       I    between atoms: N1_1  and  C1_2 
REMARK       I    between atoms: C1_2  and  N2_3 
REMARK    1  A    between atoms: N3_4  and  C2_6 
REMARK    2  A    between atoms: C2_6  and  C3_7 
REMARK    3  A    between atoms: C3_7  and  C4_8 
REMARK    4  A    between atoms: C4_8  and  C5_9 
REMARK    5  A    between atoms: C4_8  and  C6_11 
REMARK    6  A    between atoms: C5_9  and  O1_10 
REMARK    7  A    between atoms: C6_11  and  C7_12 
REMARK    8  A    between atoms: C21_27  and  S1_28 
REMARK    9  A    between atoms: C22_32  and  C23_33 
REMARK   10  A    between atoms: C24_34  and  C25_35 
REMARK   11  A    between atoms: C25_35  and  O6_36 
REMARK   12  A    between atoms: C25_35  and  C26_37 
REMARK   13  A    between atoms: C29_40  and  O7_41 
REMARK   14  A    between atoms: C33_45  and  NA1_51 
ROOT
HETATM    1  C2  UNL     1      -2.210   8.420  14.513  1.00  0.00     0.171 C 
HETATM    2  O2  UNL     1      -0.955   9.142  14.169  1.00  0.00    -0.316 OA
HETATM    3  C13 UNL     1      -0.761  10.397  14.681  1.00  0.00     0.072 C 
HETATM    4  C14 UNL     1       0.253  10.544  15.625  1.00  0.00     0.037 C 
HETATM    5  C15 UNL     1       0.353  11.729  16.356  1.00  0.00     0.010 C 
HETATM    6  C16 UNL     1      -0.539  12.783  16.119  1.00  0.00    -0.058 C 
HETATM    7  C17 UNL     1      -1.464  12.672  15.073  1.00  0.00     0.010 C 
HETATM    8  C18 UNL     1      -1.563  11.487  14.341  1.00  0.00     0.037 C 
HETATM    9  C19 UNL     1      -0.511  14.028  16.971  1.00  0.00     0.040 C 
HETATM   10  C20 UNL     1      -1.042  13.848  18.413  1.00  0.00     0.028 C 
HETATM   11  C21 UNL     1      -2.503  14.300  18.732  1.00  0.00     0.138 C 
HETATM   12  C22 UNL     1      -3.611  13.302  18.279  1.00  0.00     0.031 C 
HETATM   13  C32 UNL     1      -3.483  11.889  18.945  1.00  0.00     0.041 C 
HETATM   14  C33 UNL     1      -3.395  10.752  17.947  1.00  0.00     0.029 C 
HETATM   15  C34 UNL     1      -4.273  10.669  16.862  1.00  0.00     0.137 C 
HETATM   16  C35 UNL     1      -4.001   9.813  15.793  1.00  0.00     0.012 C 
HETATM   17  C36 UNL     1      -2.843   9.015  15.806  1.00  0.00    -0.003 C 
HETATM   18  C37 UNL     1      -2.128   8.916  17.015  1.00  0.00     0.010 C 
HETATM   19  C38 UNL     1      -2.388   9.791  18.067  1.00  0.00     0.001 C 
ENDROOT
BRANCH   1  20
HETATM   20  N3  UNL     1      -1.931   6.978  14.694  1.00  0.00    -0.336 N 
HETATM   21  C1  UNL     1      -0.796   6.490  15.006  1.00  0.00     0.124 C 
HETATM   22  N1  UNL     1      -0.700   5.158  15.240  1.00  0.00    -0.279 NA
HETATM   23  N2  UNL     1       0.415   7.056  15.213  1.00  0.00    -0.279 NA
HETATM   24  H1  UNL     1      -0.185   4.969  16.094  1.00  0.00     0.126 HD
HETATM   25  H2  UNL     1      -1.637   4.776  15.311  1.00  0.00     0.126 HD
HETATM   26  H3  UNL     1       1.168   6.457  14.898  1.00  0.00     0.126 HD
HETATM   27  H4  UNL     1       0.517   7.982  14.797  1.00  0.00     0.126 HD
ATOM     28  H3  UNL     1      -2.704   6.327  14.558  1.00  0.00     0.165 HD
ENDBRANCH   1  20
BRANCH   1  29
HETATM   29  C3  UNL     1      -3.106   8.554  13.226  1.00  0.00     0.074 C 
BRANCH  29  30
HETATM   30  C4  UNL     1      -4.267   7.524  13.076  1.00  0.00     0.018 C 
BRANCH  30  31
HETATM   31  C5  UNL     1      -5.586   8.195  13.492  1.00  0.00     0.169 C 
BRANCH  31  32
HETATM   32  O1  UNL     1      -6.213   7.477  14.549  1.00  0.00    -0.400 OA
HETATM   33  H10 UNL     1      -6.916   8.048  14.897  1.00  0.00     0.209 HD
ENDBRANCH  31  32
ENDBRANCH  30  31
BRANCH  30  34
HETATM   34  C6  UNL     1      -4.024   6.225  13.864  1.00  0.00     0.045 C 
BRANCH  34  35
HETATM   35  C7  UNL     1      -4.230   4.974  13.042  1.00  0.00    -0.058 A 
HETATM   36  C8  UNL     1      -5.517   4.436  12.892  1.00  0.00     0.007 A 
HETATM   37  C9  UNL     1      -5.721   3.292  12.121  1.00  0.00     0.001 A 
HETATM   38  C10 UNL     1      -4.639   2.668  11.502  1.00  0.00     0.000 A 
HETATM   39  C11 UNL     1      -3.352   3.174  11.673  1.00  0.00     0.001 A 
HETATM   40  C12 UNL     1      -3.145   4.320  12.440  1.00  0.00     0.007 A 
ENDBRANCH  34  35
ENDBRANCH  30  34
ENDBRANCH  29  30
ENDBRANCH   1  29
BRANCH  14  41
HETATM   41 NA1  UNL     1      -3.165  11.181  15.853  1.00  0.00    -0.379 Na
ATOM     42 2HA1 UNL     1      -2.568  11.802  15.308  1.00  0.00     0.091 HD
ATOM     43 1HA1 UNL     1      -2.792  10.672  15.051  1.00  0.00     0.091 HD
ENDBRANCH  14  41
BRANCH  12  44
HETATM   44  C23 UNL     1      -5.058  13.750  18.468  1.00  0.00    -0.022 C 
HETATM   45  C24 UNL     1      -5.785  13.656  19.596  1.00  0.00     0.006 C 
BRANCH  45  46
HETATM   46  C25 UNL     1      -7.227  14.068  19.712  1.00  0.00     0.173 C 
BRANCH  46  47
HETATM   47  O6  UNL     1      -7.873  13.741  18.472  1.00  0.00    -0.387 OA
HETATM   48  H31 UNL     1      -7.169  13.482  17.849  1.00  0.00     0.210 HD
ENDBRANCH  46  47
BRANCH  46  49
HETATM   49  C26 UNL     1      -7.956  13.449  20.893  1.00  0.00    -0.026 A 
HETATM   50  C27 UNL     1      -9.235  12.869  20.783  1.00  0.00     0.013 A 
HETATM   51  C28 UNL     1      -9.865  12.311  21.902  1.00  0.00     0.037 A 
HETATM   52  C29 UNL     1      -9.225  12.334  23.138  1.00  0.00     0.065 A 
HETATM   53  C30 UNL     1      -7.964  12.902  23.277  1.00  0.00     0.037 A 
HETATM   54  C31 UNL     1      -7.336  13.462  22.159  1.00  0.00     0.013 A 
BRANCH  52  55
HETATM   55  O7  UNL     1      -9.862  11.768  24.206  1.00  0.00    -0.361 OA
HETATM   56  H34 UNL     1      -9.262  11.830  24.969  1.00  0.00     0.217 HD
ENDBRANCH  52  55
ENDBRANCH  46  49
ENDBRANCH  45  46
ENDBRANCH  12  44
BRANCH  11  57
HETATM   57  S1  UNL     1      -2.789  16.003  18.149  1.00  0.00     0.106 S 
HETATM   58  O3  UNL     1      -3.827  16.523  19.041  1.00  0.00    -0.595 OA
HETATM   59  O4  UNL     1      -1.488  16.659  18.290  1.00  0.00    -0.595 OA
HETATM   60  O5  UNL     1      -3.247  15.845  16.770  1.00  0.00    -0.595 OA
ENDBRANCH  11  57
TORSDOF 14
ENDMDL
MODEL 4
REMARK minimizedAffinity -9.36594105
REMARK CNNscore 0.0986403897
REMARK CNNaffinity 7.03014183
REMARK  14 active torsions:
REMARK  status: ('A' for Active; 'I' for Inactive)
REMARK       I    between atoms: N1_1  and  C1_2 
REMARK       I    between atoms: C1_2  and  N2_3 
REMARK    1  A    between atoms: N3_4  and  C2_6 
REMARK    2  A    between atoms: C2_6  and  C3_7 
REMARK    3  A    between atoms: C3_7  and  C4_8 
REMARK    4  A    between atoms: C4_8  and  C5_9 
REMARK    5  A    between atoms: C4_8  and  C6_11 
REMARK    6  A    between atoms: C5_9  and  O1_10 
REMARK    7  A    between atoms: C6_11  and  C7_12 
REMARK    8  A    between atoms: C21_27  and  S1_28 
REMARK    9  A    between atoms: C22_32  and  C23_33 
REMARK   10  A    between atoms: C24_34  and  C25_35 
REMARK   11  A    between atoms: C25_35  and  O6_36 
REMARK   12  A    between atoms: C25_35  and  C26_37 
REMARK   13  A    between atoms: C29_40  and  O7_41 
REMARK   14  A    between atoms: C33_45  and  NA1_51 
ROOT
HETATM    1  C2  UNL     1      -9.080   6.916  14.269  1.00  0.00     0.171 C 
HETATM    2  O2  UNL     1      -9.416   5.535  13.828  1.00  0.00    -0.316 OA
HETATM    3  C13 UNL     1      -8.429   4.769  13.267  1.00  0.00     0.072 C 
HETATM    4  C14 UNL     1      -7.993   3.666  13.999  1.00  0.00     0.037 C 
HETATM    5  C15 UNL     1      -6.842   2.984  13.604  1.00  0.00     0.010 C 
HETATM    6  C16 UNL     1      -6.143   3.381  12.457  1.00  0.00    -0.058 C 
HETATM    7  C17 UNL     1      -6.670   4.402  11.657  1.00  0.00     0.010 C 
HETATM    8  C18 UNL     1      -7.823   5.085  12.050  1.00  0.00     0.037 C 
HETATM    9  C19 UNL     1      -4.841   2.722  12.076  1.00  0.00     0.040 C 
HETATM   10  C20 UNL     1      -3.637   3.076  12.982  1.00  0.00     0.028 C 
HETATM   11  C21 UNL     1      -2.624   4.158  12.488  1.00  0.00     0.138 C 
HETATM   12  C22 UNL     1      -3.099   5.631  12.670  1.00  0.00     0.031 C 
HETATM   13  C32 UNL     1      -3.382   6.012  14.164  1.00  0.00     0.041 C 
HETATM   14  C33 UNL     1      -4.782   6.541  14.401  1.00  0.00     0.029 C 
HETATM   15  C34 UNL     1      -5.341   7.515  13.568  1.00  0.00     0.137 C 
HETATM   16  C35 UNL     1      -6.713   7.772  13.599  1.00  0.00     0.012 C 
HETATM   17  C36 UNL     1      -7.544   7.061  14.482  1.00  0.00    -0.003 C 
HETATM   18  C37 UNL     1      -6.927   6.292  15.488  1.00  0.00     0.010 C 
HETATM   19  C38 UNL     1      -5.562   6.019  15.436  1.00  0.00     0.001 C 
ENDROOT
BRANCH   1  20
HETATM   20  N3  UNL     1      -9.806   7.240  15.517  1.00  0.00    -0.336 N 
HETATM   21  C1  UNL     1      -9.821   8.387  16.073  1.00  0.00     0.124 C 
HETATM   22  N1  UNL     1     -10.608   8.575  17.160  1.00  0.00    -0.279 NA
HETATM   23  N2  UNL     1      -9.213   9.556  15.768  1.00  0.00    -0.279 NA
HETATM   24  H1  UNL     1     -11.151   9.430  17.079  1.00  0.00     0.126 HD
HETATM   25  H2  UNL     1     -11.230   7.780  17.248  1.00  0.00     0.126 HD
HETATM   26  H3  UNL     1      -8.952  10.072  16.599  1.00  0.00     0.126 HD
HETATM   27  H4  UNL     1      -8.400   9.456  15.159  1.00  0.00     0.126 HD
ATOM     28  H3  UNL     1     -10.332   6.491  15.967  1.00  0.00     0.165 HD
ENDBRANCH   1  20
BRANCH   1  29
HETATM   29  C3  UNL     1      -9.673   7.843  13.144  1.00  0.00     0.074 C 
BRANCH  29  30
HETATM   30  C4  UNL     1     -11.208   7.735  12.888  1.00  0.00     0.018 C 
BRANCH  30  31
HETATM   31  C5  UNL     1     -11.814   9.147  12.884  1.00  0.00     0.169 C 
BRANCH  31  32
HETATM   32  O1  UNL     1     -11.906   9.660  11.560  1.00  0.00    -0.400 OA
HETATM   33  H10 UNL     1     -12.472  10.448  11.604  1.00  0.00     0.209 HD
ENDBRANCH  31  32
ENDBRANCH  30  31
BRANCH  30  34
HETATM   34  C6  UNL     1     -11.922   6.820  13.899  1.00  0.00     0.045 C 
BRANCH  34  35
HETATM   35  C7  UNL     1     -13.425   6.980  13.899  1.00  0.00    -0.058 A 
HETATM   36  C8  UNL     1     -14.094   7.323  15.083  1.00  0.00     0.007 A 
HETATM   37  C9  UNL     1     -15.479   7.491  15.091  1.00  0.00     0.001 A 
HETATM   38  C10 UNL     1     -16.208   7.304  13.918  1.00  0.00     0.000 A 
HETATM   39  C11 UNL     1     -15.557   6.929  12.745  1.00  0.00     0.001 A 
HETATM   40  C12 UNL     1     -14.172   6.765  12.732  1.00  0.00     0.007 A 
ENDBRANCH  34  35
ENDBRANCH  30  34
ENDBRANCH  29  30
ENDBRANCH   1  29
BRANCH  14  41
HETATM   41 NA1  UNL     1      -6.245   6.444  12.830  1.00  0.00    -0.379 Na
ATOM     42 2HA1 UNL     1      -6.551   5.724  12.176  1.00  0.00     0.091 HD
ATOM     43 1HA1 UNL     1      -7.265   6.431  12.796  1.00  0.00     0.091 HD
ENDBRANCH  14  41
BRANCH  12  44
HETATM   44  C23 UNL     1      -2.194   6.720  12.100  1.00  0.00    -0.022 C 
HETATM   45  C24 UNL     1      -1.793   7.840  12.730  1.00  0.00     0.006 C 
BRANCH  45  46
HETATM   46  C25 UNL     1      -0.940   8.907  12.102  1.00  0.00     0.173 C 
BRANCH  46  47
HETATM   47  O6  UNL     1      -0.086   9.438  13.127  1.00  0.00    -0.387 OA
HETATM   48  H31 UNL     1      -0.397   9.067  13.973  1.00  0.00     0.210 HD
ENDBRANCH  46  47
BRANCH  46  49
HETATM   49  C26 UNL     1      -0.134   8.431  10.904  1.00  0.00    -0.026 A 
HETATM   50  C27 UNL     1      -0.491   8.730   9.576  1.00  0.00     0.013 A 
HETATM   51  C28 UNL     1       0.286   8.268   8.506  1.00  0.00     0.037 A 
HETATM   52  C29 UNL     1       1.420   7.500   8.756  1.00  0.00     0.065 A 
HETATM   53  C30 UNL     1       1.794   7.186  10.058  1.00  0.00     0.037 A 
HETATM   54  C31 UNL     1       1.017   7.646  11.126  1.00  0.00     0.013 A 
BRANCH  52  55
HETATM   55  O7  UNL     1       2.162   7.077   7.691  1.00  0.00    -0.361 OA
HETATM   56  H34 UNL     1       2.932   6.600   8.044  1.00  0.00     0.217 HD
ENDBRANCH  52  55
ENDBRANCH  46  49
ENDBRANCH  45  46
ENDBRANCH  12  44
BRANCH  11  57
HETATM   57  S1  UNL     1      -2.067   3.788  10.792  1.00  0.00     0.106 S 
HETATM   58  O3  UNL     1      -3.216   4.131   9.950  1.00  0.00    -0.595 OA
HETATM   59  O4  UNL     1      -0.899   4.647  10.596  1.00  0.00    -0.595 OA
HETATM   60  O5  UNL     1      -1.777   2.356  10.807  1.00  0.00    -0.595 OA
ENDBRANCH  11  57
TORSDOF 14
ENDMDL
MODEL 5
REMARK minimizedAffinity -8.88893604
REMARK CNNscore 0.096246846
REMARK CNNaffinity 6.90005541
REMARK  14 active torsions:
REMARK  status: ('A' for Active; 'I' for Inactive)
REMARK       I    between atoms: N1_1  and  C1_2 
REMARK       I    between atoms: C1_2  and  N2_3 
REMARK    1  A    between atoms: N3_4  and  C2_6 
REMARK    2  A    between atoms: C2_6  and  C3_7 
REMARK    3  A    between atoms: C3_7  and  C4_8 
REMARK    4  A    between atoms: C4_8  and  C5_9 
REMARK    5  A    between atoms: C4_8  and  C6_11 
REMARK    6  A    between atoms: C5_9  and  O1_10 
REMARK    7  A    between atoms: C6_11  and  C7_12 
REMARK    8  A    between atoms: C21_27  and  S1_28 
REMARK    9  A    between atoms: C22_32  and  C23_33 
REMARK   10  A    between atoms: C24_34  and  C25_35 
REMARK   11  A    between atoms: C25_35  and  O6_36 
REMARK   12  A    between atoms: C25_35  and  C26_37 
REMARK   13  A    between atoms: C29_40  and  O7_41 
REMARK   14  A    between atoms: C33_45  and  NA1_51 
ROOT
HETATM    1  C2  UNL     1      -1.328   9.190  15.158  1.00  0.00     0.171 C 
HETATM    2  O2  UNL     1      -0.608   7.955  14.744  1.00  0.00    -0.316 OA
HETATM    3  C13 UNL     1      -1.345   6.858  14.384  1.00  0.00     0.072 C 
HETATM    4  C14 UNL     1      -1.299   6.481  13.043  1.00  0.00     0.037 C 
HETATM    5  C15 UNL     1      -2.198   5.528  12.561  1.00  0.00     0.010 C 
HETATM    6  C16 UNL     1      -3.120   4.924  13.425  1.00  0.00    -0.058 C 
HETATM    7  C17 UNL     1      -3.061   5.213  14.794  1.00  0.00     0.010 C 
HETATM    8  C18 UNL     1      -2.162   6.165  15.278  1.00  0.00     0.037 C 
HETATM    9  C19 UNL     1      -4.165   3.972  12.900  1.00  0.00     0.040 C 
HETATM   10  C20 UNL     1      -5.301   4.631  12.081  1.00  0.00     0.028 C 
HETATM   11  C21 UNL     1      -6.667   4.907  12.788  1.00  0.00     0.138 C 
HETATM   12  C22 UNL     1      -6.689   6.172  13.698  1.00  0.00     0.031 C 
HETATM   13  C32 UNL     1      -6.373   7.498  12.924  1.00  0.00     0.041 C 
HETATM   14  C33 UNL     1      -5.211   8.277  13.505  1.00  0.00     0.029 C 
HETATM   15  C34 UNL     1      -5.110   8.514  14.880  1.00  0.00     0.137 C 
HETATM   16  C35 UNL     1      -3.908   8.954  15.438  1.00  0.00     0.012 C 
HETATM   17  C36 UNL     1      -2.789   9.176  14.616  1.00  0.00    -0.003 C 
HETATM   18  C37 UNL     1      -2.991   9.193  13.223  1.00  0.00     0.010 C 
HETATM   19  C38 UNL     1      -4.183   8.728  12.672  1.00  0.00     0.001 C 
ENDROOT
BRANCH   1  20
HETATM   20  N3  UNL     1      -0.608  10.385  14.667  1.00  0.00    -0.336 N 
HETATM   21  C1  UNL     1      -1.057  11.577  14.721  1.00  0.00     0.124 C 
HETATM   22  N1  UNL     1      -0.252  12.595  14.328  1.00  0.00    -0.279 NA
HETATM   23  N2  UNL     1      -2.228  12.092  15.157  1.00  0.00    -0.279 NA
HETATM   24  H1  UNL     1      -0.260  13.354  15.003  1.00  0.00     0.126 HD
HETATM   25  H2  UNL     1       0.690  12.238  14.221  1.00  0.00     0.126 HD
HETATM   26  H3  UNL     1      -2.518  12.889  14.604  1.00  0.00     0.126 HD
HETATM   27  H4  UNL     1      -2.989  11.414  15.204  1.00  0.00     0.126 HD
ATOM     28  H3  UNL     1       0.314  10.246  14.254  1.00  0.00     0.165 HD
ENDBRANCH   1  20
BRANCH   1  29
HETATM   29  C3  UNL     1      -1.215   9.203  16.728  1.00  0.00     0.074 C 
BRANCH  29  30
HETATM   30  C4  UNL     1      -0.297  10.297  17.351  1.00  0.00     0.018 C 
BRANCH  30  31
HETATM   31  C5  UNL     1       1.156   9.795  17.340  1.00  0.00     0.169 C 
BRANCH  31  32
HETATM   32  O1  UNL     1       1.766   9.967  18.614  1.00  0.00    -0.400 OA
HETATM   33  H10 UNL     1       2.592   9.456  18.600  1.00  0.00     0.209 HD
ENDBRANCH  31  32
ENDBRANCH  30  31
BRANCH  30  34
HETATM   34  C6  UNL     1      -0.736  10.715  18.767  1.00  0.00     0.045 C 
BRANCH  34  35
HETATM   35  C7  UNL     1      -1.808  11.780  18.775  1.00  0.00    -0.058 A 
HETATM   36  C8  UNL     1      -3.161  11.414  18.773  1.00  0.00     0.007 A 
HETATM   37  C9  UNL     1      -4.160  12.388  18.798  1.00  0.00     0.001 A 
HETATM   38  C10 UNL     1      -3.813  13.737  18.812  1.00  0.00     0.000 A 
HETATM   39  C11 UNL     1      -2.472  14.113  18.778  1.00  0.00     0.001 A 
HETATM   40  C12 UNL     1      -1.471  13.142  18.758  1.00  0.00     0.007 A 
ENDBRANCH  34  35
ENDBRANCH  30  34
ENDBRANCH  29  30
ENDBRANCH   1  29
BRANCH  14  41
HETATM   41 NA1  UNL     1      -3.996   7.401  15.047  1.00  0.00    -0.379 Na
ATOM     42 2HA1 UNL     1      -3.549   6.494  15.182  1.00  0.00     0.091 HD
ATOM     43 1HA1 UNL     1      -3.042   7.542  15.379  1.00  0.00     0.091 HD
ENDBRANCH  14  41
BRANCH  12  44
HETATM   44  C23 UNL     1      -7.966   6.420  14.497  1.00  0.00    -0.022 C 
HETATM   45  C24 UNL     1      -9.199   6.620  13.996  1.00  0.00     0.006 C 
BRANCH  45  46
HETATM   46  C25 UNL     1     -10.416   6.911  14.830  1.00  0.00     0.173 C 
BRANCH  46  47
HETATM   47  O6  UNL     1      -9.998   7.724  15.937  1.00  0.00    -0.387 OA
HETATM   48  H31 UNL     1      -9.023   7.738  15.924  1.00  0.00     0.210 HD
ENDBRANCH  46  47
BRANCH  46  49
HETATM   49  C26 UNL     1     -11.552   7.567  14.062  1.00  0.00    -0.026 A 
HETATM   50  C27 UNL     1     -12.770   6.915  13.794  1.00  0.00     0.013 A 
HETATM   51  C28 UNL     1     -13.786   7.563  13.081  1.00  0.00     0.037 A 
HETATM   52  C29 UNL     1     -13.590   8.865  12.628  1.00  0.00     0.065 A 
HETATM   53  C30 UNL     1     -12.396   9.533  12.876  1.00  0.00     0.037 A 
HETATM   54  C31 UNL     1     -11.381   8.884  13.585  1.00  0.00     0.013 A 
BRANCH  52  55
HETATM   55  O7  UNL     1     -14.607   9.473  11.949  1.00  0.00    -0.361 OA
HETATM   56  H34 UNL     1     -14.322  10.381  11.750  1.00  0.00     0.217 HD
ENDBRANCH  52  55
ENDBRANCH  46  49
ENDBRANCH  45  46
ENDBRANCH  12  44
BRANCH  11  57
HETATM   57  S1  UNL     1      -7.267   3.405  13.630  1.00  0.00     0.106 S 
HETATM   58  O3  UNL     1      -6.403   2.336  13.125  1.00  0.00    -0.595 OA
HETATM   59  O4  UNL     1      -7.097   3.695  15.055  1.00  0.00    -0.595 OA
HETATM   60  O5  UNL     1      -8.656   3.272  13.195  1.00  0.00    -0.595 OA
ENDBRANCH  11  57
TORSDOF 14
ENDMDL
MODEL 6
REMARK minimizedAffinity -10.0174103
REMARK CNNscore 0.0918246806
REMARK CNNaffinity 6.45549393
REMARK  14 active torsions:
REMARK  status: ('A' for Active; 'I' for Inactive)
REMARK       I    between atoms: N1_1  and  C1_2 
REMARK       I    between atoms: C1_2  and  N2_3 
REMARK    1  A    between atoms: N3_4  and  C2_6 
REMARK    2  A    between atoms: C2_6  and  C3_7 
REMARK    3  A    between atoms: C3_7  and  C4_8 
REMARK    4  A    between atoms: C4_8  and  C5_9 
REMARK    5  A    between atoms: C4_8  and  C6_11 
REMARK    6  A    between atoms: C5_9  and  O1_10 
REMARK    7  A    between atoms: C6_11  and  C7_12 
REMARK    8  A    between atoms: C21_27  and  S1_28 
REMARK    9  A    between atoms: C22_32  and  C23_33 
REMARK   10  A    between atoms: C24_34  and  C25_35 
REMARK   11  A    between atoms: C25_35  and  O6_36 
REMARK   12  A    between atoms: C25_35  and  C26_37 
REMARK   13  A    between atoms: C29_40  and  O7_41 
REMARK   14  A    between atoms: C33_45  and  NA1_51 
ROOT
HETATM    1  C2  UNL     1      -0.601  11.814  17.589  1.00  0.00     0.171 C 
HETATM    2  O2  UNL     1       0.777  11.500  17.123  1.00  0.00    -0.316 OA
HETATM    3  C13 UNL     1       0.951  10.451  16.260  1.00  0.00     0.072 C 
HETATM    4  C14 UNL     1       1.348  10.763  14.961  1.00  0.00     0.037 C 
HETATM    5  C15 UNL     1       1.318   9.778  13.972  1.00  0.00     0.010 C 
HETATM    6  C16 UNL     1       0.925   8.471  14.288  1.00  0.00    -0.058 C 
HETATM    7  C17 UNL     1       0.663   8.141  15.623  1.00  0.00     0.010 C 
HETATM    8  C18 UNL     1       0.694   9.126  16.613  1.00  0.00     0.037 C 
HETATM    9  C19 UNL     1       0.788   7.422  13.212  1.00  0.00     0.040 C 
HETATM   10  C20 UNL     1      -0.427   7.604  12.271  1.00  0.00     0.028 C 
HETATM   11  C21 UNL     1      -1.708   6.748  12.532  1.00  0.00     0.138 C 
HETATM   12  C22 UNL     1      -2.618   7.267  13.686  1.00  0.00     0.031 C 
HETATM   13  C32 UNL     1      -3.159   8.718  13.445  1.00  0.00     0.041 C 
HETATM   14  C33 UNL     1      -2.826   9.684  14.564  1.00  0.00     0.029 C 
HETATM   15  C34 UNL     1      -3.024   9.339  15.905  1.00  0.00     0.137 C 
HETATM   16  C35 UNL     1      -2.440  10.092  16.925  1.00  0.00     0.012 C 
HETATM   17  C36 UNL     1      -1.657  11.217  16.611  1.00  0.00    -0.003 C 
HETATM   18  C37 UNL     1      -1.697  11.696  15.288  1.00  0.00     0.010 C 
HETATM   19  C38 UNL     1      -2.258  10.927  14.271  1.00  0.00     0.001 C 
ENDROOT
BRANCH   1  20
HETATM   20  N3  UNL     1      -0.776  13.279  17.702  1.00  0.00    -0.336 N 
HETATM   21  C1  UNL     1      -0.177  14.141  16.979  1.00  0.00     0.124 C 
HETATM   22  N1  UNL     1      -0.504  15.449  17.117  1.00  0.00    -0.279 NA
HETATM   23  N2  UNL     1       0.751  14.025  16.002  1.00  0.00    -0.279 NA
HETATM   24  H1  UNL     1      -0.651  15.890  16.214  1.00  0.00     0.126 HD
HETATM   25  H2  UNL     1      -1.349  15.513  17.674  1.00  0.00     0.126 HD
HETATM   26  H3  UNL     1       1.407  14.796  16.013  1.00  0.00     0.126 HD
HETATM   27  H4  UNL     1       1.261  13.142  16.015  1.00  0.00     0.126 HD
ATOM     28  H3  UNL     1      -1.424  13.625  18.410  1.00  0.00     0.165 HD
ENDBRANCH   1  20
BRANCH   1  29
HETATM   29  C3  UNL     1      -0.664  11.234  19.051  1.00  0.00     0.074 C 
BRANCH  29  30
HETATM   30  C4  UNL     1       0.517  11.604  19.999  1.00  0.00     0.018 C 
BRANCH  30  31
HETATM   31  C5  UNL     1       0.853  13.093  19.818  1.00  0.00     0.169 C 
BRANCH  31  32
HETATM   32  O1  UNL     1       1.153  13.704  21.068  1.00  0.00    -0.400 OA
HETATM   33  H10 UNL     1       1.548  14.569  20.870  1.00  0.00     0.209 HD
ENDBRANCH  31  32
ENDBRANCH  30  31
BRANCH  30  34
HETATM   34  C6  UNL     1       1.758  10.718  19.788  1.00  0.00     0.045 C 
BRANCH  34  35
HETATM   35  C7  UNL     1       2.495  10.400  21.068  1.00  0.00    -0.058 A 
HETATM   36  C8  UNL     1       2.087   9.319  21.863  1.00  0.00     0.007 A 
HETATM   37  C9  UNL     1       2.771   9.005  23.038  1.00  0.00     0.001 A 
HETATM   38  C10 UNL     1       3.861   9.778  23.434  1.00  0.00     0.000 A 
HETATM   39  C11 UNL     1       4.253  10.875  22.671  1.00  0.00     0.001 A 
HETATM   40  C12 UNL     1       3.574  11.189  21.493  1.00  0.00     0.007 A 
ENDBRANCH  34  35
ENDBRANCH  30  34
ENDBRANCH  29  30
ENDBRANCH   1  29
BRANCH  14  41
HETATM   41 NA1  UNL     1      -1.476   9.089  16.127  1.00  0.00    -0.379 Na
ATOM     42 2HA1 UNL     1      -0.566   8.630  16.155  1.00  0.00     0.091 HD
ATOM     43 1HA1 UNL     1      -0.869   9.584  16.781  1.00  0.00     0.091 HD
ENDBRANCH  14  41
BRANCH  12  44
HETATM   44  C23 UNL     1      -3.821   6.402  14.053  1.00  0.00    -0.022 C 
HETATM   45  C24 UNL     1      -5.039   6.440  13.482  1.00  0.00     0.006 C 
BRANCH  45  46
HETATM   46  C25 UNL     1      -6.207   5.598  13.918  1.00  0.00     0.173 C 
BRANCH  46  47
HETATM   47  O6  UNL     1      -7.391   6.401  13.795  1.00  0.00    -0.387 OA
HETATM   48  H31 UNL     1      -7.095   7.311  13.606  1.00  0.00     0.210 HD
ENDBRANCH  46  47
BRANCH  46  49
HETATM   49  C26 UNL     1      -6.347   4.289  13.157  1.00  0.00    -0.026 A 
HETATM   50  C27 UNL     1      -7.242   3.273  13.543  1.00  0.00     0.013 A 
HETATM   51  C28 UNL     1      -7.333   2.085  12.809  1.00  0.00     0.037 A 
HETATM   52  C29 UNL     1      -6.527   1.902  11.688  1.00  0.00     0.065 A 
HETATM   53  C30 UNL     1      -5.632   2.887  11.285  1.00  0.00     0.037 A 
HETATM   54  C31 UNL     1      -5.540   4.072  12.021  1.00  0.00     0.013 A 
BRANCH  52  55
HETATM   55  O7  UNL     1      -6.652   0.736  10.985  1.00  0.00    -0.361 OA
HETATM   56  H34 UNL     1      -6.058   0.794  10.218  1.00  0.00     0.217 HD
ENDBRANCH  52  55
ENDBRANCH  46  49
ENDBRANCH  45  46
ENDBRANCH  12  44
BRANCH  11  57
HETATM   57  S1  UNL     1      -1.277   4.984  12.695  1.00  0.00     0.106 S 
HETATM   58  O3  UNL     1      -0.623   4.652  11.427  1.00  0.00    -0.595 OA
HETATM   59  O4  UNL     1      -0.395   4.931  13.861  1.00  0.00    -0.595 OA
HETATM   60  O5  UNL     1      -2.561   4.309  12.869  1.00  0.00    -0.595 OA
ENDBRANCH  11  57
TORSDOF 14
ENDMDL
MODEL 7
REMARK minimizedAffinity -7.93502808
REMARK CNNscore 0.0867273286
REMARK CNNaffinity 5.42875671
REMARK  14 active torsions:
REMARK  status: ('A' for Active; 'I' for Inactive)
REMARK       I    between atoms: N1_1  and  C1_2 
REMARK       I    between atoms: C1_2  and  N2_3 
REMARK    1  A    between atoms: N3_4  and  C2_6 
REMARK    2  A    between atoms: C2_6  and  C3_7 
REMARK    3  A    between atoms: C3_7  and  C4_8 
REMARK    4  A    between atoms: C4_8  and  C5_9 
REMARK    5  A    between atoms: C4_8  and  C6_11 
REMARK    6  A    between atoms: C5_9  and  O1_10 
REMARK    7  A    between atoms: C6_11  and  C7_12 
REMARK    8  A    between atoms: C21_27  and  S1_28 
REMARK    9  A    between atoms: C22_32  and  C23_33 
REMARK   10  A    between atoms: C24_34  and  C25_35 
REMARK   11  A    between atoms: C25_35  and  O6_36 
REMARK   12  A    between atoms: C25_35  and  C26_37 
REMARK   13  A    between atoms: C29_40  and  O7_41 
REMARK   14  A    between atoms: C33_45  and  NA1_51 
ROOT
HETATM    1  C2  UNL     1      -4.863 -10.871   5.623  1.00  0.00     0.171 C 
HETATM    2  O2  UNL     1      -4.111 -12.148   5.757  1.00  0.00    -0.316 OA
HETATM    3  C13 UNL     1      -3.873 -12.887   4.629  1.00  0.00     0.072 C 
HETATM    4  C14 UNL     1      -2.550 -12.978   4.202  1.00  0.00     0.037 C 
HETATM    5  C15 UNL     1      -2.263 -13.511   2.944  1.00  0.00     0.010 C 
HETATM    6  C16 UNL     1      -3.295 -13.988   2.126  1.00  0.00    -0.058 C 
HETATM    7  C17 UNL     1      -4.603 -14.017   2.626  1.00  0.00     0.010 C 
HETATM    8  C18 UNL     1      -4.891 -13.484   3.884  1.00  0.00     0.037 C 
HETATM    9  C19 UNL     1      -3.013 -14.470   0.725  1.00  0.00     0.040 C 
HETATM   10  C20 UNL     1      -2.664 -13.359  -0.293  1.00  0.00     0.028 C 
HETATM   11  C21 UNL     1      -3.783 -12.852  -1.259  1.00  0.00     0.138 C 
HETATM   12  C22 UNL     1      -4.793 -11.850  -0.623  1.00  0.00     0.031 C 
HETATM   13  C32 UNL     1      -4.115 -10.542  -0.089  1.00  0.00     0.041 C 
HETATM   14  C33 UNL     1      -4.394 -10.266   1.375  1.00  0.00     0.029 C 
HETATM   15  C34 UNL     1      -5.688 -10.357   1.897  1.00  0.00     0.137 C 
HETATM   16  C35 UNL     1      -5.895 -10.406   3.277  1.00  0.00     0.012 C 
HETATM   17  C36 UNL     1      -4.799 -10.351   4.156  1.00  0.00    -0.003 C 
HETATM   18  C37 UNL     1      -3.547  -9.991   3.622  1.00  0.00     0.010 C 
HETATM   19  C38 UNL     1      -3.341  -9.969   2.245  1.00  0.00     0.001 C 
ENDROOT
BRANCH   1  20
HETATM   20  N3  UNL     1      -4.313  -9.858   6.552  1.00  0.00    -0.336 N 
HETATM   21  C1  UNL     1      -3.087  -9.774   6.891  1.00  0.00     0.124 C 
HETATM   22  N1  UNL     1      -2.696  -8.736   7.671  1.00  0.00    -0.279 NA
HETATM   23  N2  UNL     1      -2.002 -10.522   6.587  1.00  0.00    -0.279 NA
HETATM   24  H1  UNL     1      -1.855  -8.298   7.308  1.00  0.00     0.126 HD
HETATM   25  H2  UNL     1      -3.450  -8.059   7.707  1.00  0.00     0.126 HD
HETATM   26  H3  UNL     1      -1.358 -10.583   7.366  1.00  0.00     0.126 HD
HETATM   27  H4  UNL     1      -2.225 -11.461   6.254  1.00  0.00     0.126 HD
ATOM     28  H3  UNL     1      -4.961  -9.179   6.949  1.00  0.00     0.165 HD
ENDBRANCH   1  20
BRANCH   1  29
HETATM   29  C3  UNL     1      -6.313 -11.214   6.131  1.00  0.00     0.074 C 
BRANCH  29  30
HETATM   30  C4  UNL     1      -6.945 -10.224   7.157  1.00  0.00     0.018 C 
BRANCH  30  31
HETATM   31  C5  UNL     1      -7.141  -8.859   6.477  1.00  0.00     0.169 C 
BRANCH  31  32
HETATM   32  O1  UNL     1      -6.275  -7.879   7.038  1.00  0.00    -0.400 OA
HETATM   33  H10 UNL     1      -6.299  -7.111   6.444  1.00  0.00     0.209 HD
ENDBRANCH  31  32
ENDBRANCH  30  31
BRANCH  30  34
HETATM   34  C6  UNL     1      -6.121 -10.093   8.451  1.00  0.00     0.045 C 
BRANCH  34  35
HETATM   35  C7  UNL     1      -6.958  -9.766   9.666  1.00  0.00    -0.058 A 
HETATM   36  C8  UNL     1      -6.526  -8.786  10.573  1.00  0.00     0.007 A 
HETATM   37  C9  UNL     1      -7.299  -8.463  11.688  1.00  0.00     0.001 A 
HETATM   38  C10 UNL     1      -8.504  -9.126  11.914  1.00  0.00     0.000 A 
HETATM   39  C11 UNL     1      -8.925 -10.125  11.040  1.00  0.00     0.001 A 
HETATM   40  C12 UNL     1      -8.157 -10.448   9.920  1.00  0.00     0.007 A 
ENDBRANCH  34  35
ENDBRANCH  30  34
ENDBRANCH  29  30
ENDBRANCH   1  29
BRANCH  14  41
HETATM   41 NA1  UNL     1      -5.377 -11.753   2.576  1.00  0.00    -0.379 Na
ATOM     42 2HA1 UNL     1      -5.265 -12.757   2.712  1.00  0.00     0.091 HD
ATOM     43 1HA1 UNL     1      -5.413 -11.964   3.573  1.00  0.00     0.091 HD
ENDBRANCH  14  41
BRANCH  12  44
HETATM   44  C23 UNL     1      -5.969 -11.415  -1.493  1.00  0.00    -0.022 C 
HETATM   45  C24 UNL     1      -7.249 -11.280  -1.101  1.00  0.00     0.006 C 
BRANCH  45  46
HETATM   46  C25 UNL     1      -8.380 -10.897  -2.015  1.00  0.00     0.173 C 
BRANCH  46  47
HETATM   47  O6  UNL     1      -9.609 -11.188  -1.331  1.00  0.00    -0.387 OA
HETATM   48  H31 UNL     1      -9.372 -11.688  -0.529  1.00  0.00     0.210 HD
ENDBRANCH  46  47
BRANCH  46  49
HETATM   49  C26 UNL     1      -8.337  -9.450  -2.480  1.00  0.00    -0.026 A 
HETATM   50  C27 UNL     1      -8.619  -8.365  -1.629  1.00  0.00     0.013 A 
HETATM   51  C28 UNL     1      -8.567  -7.050  -2.107  1.00  0.00     0.037 A 
HETATM   52  C29 UNL     1      -8.238  -6.811  -3.439  1.00  0.00     0.065 A 
HETATM   53  C30 UNL     1      -7.958  -7.863  -4.303  1.00  0.00     0.037 A 
HETATM   54  C31 UNL     1      -8.013  -9.177  -3.825  1.00  0.00     0.013 A 
BRANCH  52  55
HETATM   55  O7  UNL     1      -8.181  -5.515  -3.868  1.00  0.00    -0.361 OA
HETATM   56  H34 UNL     1      -7.896  -5.529  -4.798  1.00  0.00     0.217 HD
ENDBRANCH  52  55
ENDBRANCH  46  49
ENDBRANCH  45  46
ENDBRANCH  12  44
BRANCH  11  57
HETATM   57  S1  UNL     1      -4.594 -14.257  -2.091  1.00  0.00     0.106 S 
HETATM   58  O3  UNL     1      -5.103 -13.692  -3.343  1.00  0.00    -0.595 OA
HETATM   59  O4  UNL     1      -3.527 -15.242  -2.265  1.00  0.00    -0.595 OA
HETATM   60  O5  UNL     1      -5.656 -14.662  -1.174  1.00  0.00    -0.595 OA
ENDBRANCH  11  57
TORSDOF 14
ENDMDL
MODEL 8
REMARK minimizedAffinity -9.04071808
REMARK CNNscore 0.0842081159
REMARK CNNaffinity 6.32117844
REMARK  14 active torsions:
REMARK  status: ('A' for Active; 'I' for Inactive)
REMARK       I    between atoms: N1_1  and  C1_2 
REMARK       I    between atoms: C1_2  and  N2_3 
REMARK    1  A    between atoms: N3_4  and  C2_6 
REMARK    2  A    between atoms: C2_6  and  C3_7 
REMARK    3  A    between atoms: C3_7  and  C4_8 
REMARK    4  A    between atoms: C4_8  and  C5_9 
REMARK    5  A    between atoms: C4_8  and  C6_11 
REMARK    6  A    between atoms: C5_9  and  O1_10 
REMARK    7  A    between atoms: C6_11  and  C7_12 
REMARK    8  A    between atoms: C21_27  and  S1_28 
REMARK    9  A    between atoms: C22_32  and  C23_33 
REMARK   10  A    between atoms: C24_34  and  C25_35 
REMARK   11  A    between atoms: C25_35  and  O6_36 
REMARK   12  A    between atoms: C25_35  and  C26_37 
REMARK   13  A    between atoms: C29_40  and  O7_41 
REMARK   14  A    between atoms: C33_45  and  NA1_51 
ROOT
HETATM    1  C2  UNL     1       1.828  11.884  17.076  1.00  0.00     0.171 C 
HETATM    2  O2  UNL     1       3.053  11.713  16.249  1.00  0.00    -0.316 OA
HETATM    3  C13 UNL     1       3.041  10.779  15.248  1.00  0.00     0.072 C 
HETATM    4  C14 UNL     1       3.083  11.255  13.939  1.00  0.00     0.037 C 
HETATM    5  C15 UNL     1       2.839  10.384  12.877  1.00  0.00     0.010 C 
HETATM    6  C16 UNL     1       2.587   9.027  13.118  1.00  0.00    -0.058 C 
HETATM    7  C17 UNL     1       2.684   8.538  14.427  1.00  0.00     0.010 C 
HETATM    8  C18 UNL     1       2.929   9.409  15.490  1.00  0.00     0.037 C 
HETATM    9  C19 UNL     1       2.218   8.095  11.991  1.00  0.00     0.040 C 
HETATM   10  C20 UNL     1       0.799   8.299  11.410  1.00  0.00     0.028 C 
HETATM   11  C21 UNL     1      -0.343   7.337  11.874  1.00  0.00     0.138 C 
HETATM   12  C22 UNL     1      -0.948   7.666  13.271  1.00  0.00     0.031 C 
HETATM   13  C32 UNL     1      -1.584   9.096  13.350  1.00  0.00     0.041 C 
HETATM   14  C33 UNL     1      -1.013   9.955  14.461  1.00  0.00     0.029 C 
HETATM   15  C34 UNL     1      -0.852   9.453  15.757  1.00  0.00     0.137 C 
HETATM   16  C35 UNL     1      -0.056  10.129  16.684  1.00  0.00     0.012 C 
HETATM   17  C36 UNL     1       0.581  11.329  16.325  1.00  0.00    -0.003 C 
HETATM   18  C37 UNL     1       0.189  11.946  15.122  1.00  0.00     0.010 C 
HETATM   19  C38 UNL     1      -0.584  11.257  14.190  1.00  0.00     0.001 C 
ENDROOT
BRANCH   1  20
HETATM   20  N3  UNL     1       1.635  13.314  17.407  1.00  0.00    -0.336 N 
HETATM   21  C1  UNL     1       2.119  14.286  16.740  1.00  0.00     0.124 C 
HETATM   22  N1  UNL     1       1.782  15.551  17.092  1.00  0.00    -0.279 NA
HETATM   23  N2  UNL     1       2.920  14.336  15.651  1.00  0.00    -0.279 NA
HETATM   24  H1  UNL     1       1.512  16.100  16.281  1.00  0.00     0.126 HD
HETATM   25  H2  UNL     1       1.012  15.507  17.750  1.00  0.00     0.126 HD
HETATM   26  H3  UNL     1       3.554  15.124  15.687  1.00  0.00     0.126 HD
HETATM   27  H4  UNL     1       3.448  13.480  15.483  1.00  0.00     0.126 HD
ATOM     28  H3  UNL     1       1.074  13.538  18.228  1.00  0.00     0.165 HD
ENDBRANCH   1  20
BRANCH   1  29
HETATM   29  C3  UNL     1       2.159  11.146  18.426  1.00  0.00     0.074 C 
BRANCH  29  30
HETATM   30  C4  UNL     1       2.916  11.975  19.507  1.00  0.00     0.018 C 
BRANCH  30  31
HETATM   31  C5  UNL     1       4.323  11.385  19.694  1.00  0.00     0.169 C 
BRANCH  31  32
HETATM   32  O1  UNL     1       4.963  11.183  18.439  1.00  0.00    -0.400 OA
HETATM   33  H10 UNL     1       5.900  11.007  18.628  1.00  0.00     0.209 HD
ENDBRANCH  31  32
ENDBRANCH  30  31
BRANCH  30  34
HETATM   34  C6  UNL     1       2.158  12.054  20.845  1.00  0.00     0.045 C 
BRANCH  34  35
HETATM   35  C7  UNL     1       2.418  10.876  21.755  1.00  0.00    -0.058 A 
HETATM   36  C8  UNL     1       1.855   9.625  21.463  1.00  0.00     0.007 A 
HETATM   37  C9  UNL     1       2.103   8.526  22.286  1.00  0.00     0.001 A 
HETATM   38  C10 UNL     1       2.906   8.672  23.416  1.00  0.00     0.000 A 
HETATM   39  C11 UNL     1       3.441   9.918  23.734  1.00  0.00     0.001 A 
HETATM   40  C12 UNL     1       3.199  11.017  22.911  1.00  0.00     0.007 A 
ENDBRANCH  34  35
ENDBRANCH  30  34
ENDBRANCH  29  30
ENDBRANCH   1  29
BRANCH  14  41
HETATM   41 NA1  UNL     1       0.710   9.283  15.556  1.00  0.00    -0.379 Na
ATOM     42 2HA1 UNL     1       1.613   8.884  15.302  1.00  0.00     0.091 HD
ATOM     43 1HA1 UNL     1       1.444   9.742  16.095  1.00  0.00     0.091 HD
ENDBRANCH  14  41
BRANCH  12  44
HETATM   44  C23 UNL     1      -1.987   6.690  13.817  1.00  0.00    -0.022 C 
HETATM   45  C24 UNL     1      -3.296   6.656  13.506  1.00  0.00     0.006 C 
BRANCH  45  46
HETATM   46  C25 UNL     1      -4.287   5.702  14.113  1.00  0.00     0.173 C 
BRANCH  46  47
HETATM   47  O6  UNL     1      -5.408   6.474  14.571  1.00  0.00    -0.387 OA
HETATM   48  H31 UNL     1      -5.153   7.412  14.496  1.00  0.00     0.210 HD
ENDBRANCH  46  47
BRANCH  46  49
HETATM   49  C26 UNL     1      -4.730   4.588  13.178  1.00  0.00    -0.026 A 
HETATM   50  C27 UNL     1      -6.078   4.367  12.838  1.00  0.00     0.013 A 
HETATM   51  C28 UNL     1      -6.434   3.326  11.972  1.00  0.00     0.037 A 
HETATM   52  C29 UNL     1      -5.447   2.497  11.444  1.00  0.00     0.065 A 
HETATM   53  C30 UNL     1      -4.108   2.691  11.765  1.00  0.00     0.037 A 
HETATM   54  C31 UNL     1      -3.754   3.729  12.633  1.00  0.00     0.013 A 
BRANCH  52  55
HETATM   55  O7  UNL     1      -5.828   1.501  10.591  1.00  0.00    -0.361 OA
HETATM   56  H34 UNL     1      -5.020   1.055  10.285  1.00  0.00     0.217 HD
ENDBRANCH  52  55
ENDBRANCH  46  49
ENDBRANCH  45  46
ENDBRANCH  12  44
BRANCH  11  57
HETATM   57  S1  UNL     1       0.179   5.598  11.708  1.00  0.00     0.106 S 
HETATM   58  O3  UNL     1      -1.063   4.871  11.432  1.00  0.00    -0.595 OA
HETATM   59  O4  UNL     1       1.131   5.608  10.598  1.00  0.00    -0.595 OA
HETATM   60  O5  UNL     1       0.758   5.265  13.008  1.00  0.00    -0.595 OA
ENDBRANCH  11  57
TORSDOF 14
ENDMDL
MODEL 9
REMARK minimizedAffinity -8.7873745
REMARK CNNscore 0.0836438835
REMARK CNNaffinity 5.61857033
REMARK  14 active torsions:
REMARK  status: ('A' for Active; 'I' for Inactive)
REMARK       I    between atoms: N1_1  and  C1_2 
REMARK       I    between atoms: C1_2  and  N2_3 
REMARK    1  A    between atoms: N3_4  and  C2_6 
REMARK    2  A    between atoms: C2_6  and  C3_7 
REMARK    3  A    between atoms: C3_7  and  C4_8 
REMARK    4  A    between atoms: C4_8  and  C5_9 
REMARK    5  A    between atoms: C4_8  and  C6_11 
REMARK    6  A    between atoms: C5_9  and  O1_10 
REMARK    7  A    between atoms: C6_11  and  C7_12 
REMARK    8  A    between atoms: C21_27  and  S1_28 
REMARK    9  A    between atoms: C22_32  and  C23_33 
REMARK   10  A    between atoms: C24_34  and  C25_35 
REMARK   11  A    between atoms: C25_35  and  O6_36 
REMARK   12  A    between atoms: C25_35  and  C26_37 
REMARK   13  A    between atoms: C29_40  and  O7_41 
REMARK   14  A    between atoms: C33_45  and  NA1_51 
ROOT
HETATM    1  C2  UNL     1      -0.666   8.030  14.025  1.00  0.00     0.171 C 
HETATM    2  O2  UNL     1      -1.804   8.988  13.980  1.00  0.00    -0.316 OA
HETATM    3  C13 UNL     1      -1.762  10.092  14.788  1.00  0.00     0.072 C 
HETATM    4  C14 UNL     1      -1.622  11.329  14.161  1.00  0.00     0.037 C 
HETATM    5  C15 UNL     1      -1.338  12.463  14.922  1.00  0.00     0.010 C 
HETATM    6  C16 UNL     1      -1.228  12.371  16.315  1.00  0.00    -0.058 C 
HETATM    7  C17 UNL     1      -1.506  11.151  16.942  1.00  0.00     0.010 C 
HETATM    8  C18 UNL     1      -1.792  10.015  16.181  1.00  0.00     0.037 C 
HETATM    9  C19 UNL     1      -0.819  13.566  17.140  1.00  0.00     0.040 C 
HETATM   10  C20 UNL     1       0.667  13.976  17.008  1.00  0.00     0.028 C 
HETATM   11  C21 UNL     1       1.667  13.528  18.123  1.00  0.00     0.138 C 
HETATM   12  C22 UNL     1       2.143  12.048  18.018  1.00  0.00     0.031 C 
HETATM   13  C32 UNL     1       2.885  11.728  16.675  1.00  0.00     0.041 C 
HETATM   14  C33 UNL     1       2.271  10.579  15.901  1.00  0.00     0.029 C 
HETATM   15  C34 UNL     1       1.929   9.379  16.532  1.00  0.00     0.137 C 
HETATM   16  C35 UNL     1       1.096   8.455  15.896  1.00  0.00     0.012 C 
HETATM   17  C36 UNL     1       0.604   8.721  14.606  1.00  0.00    -0.003 C 
HETATM   18  C37 UNL     1       1.174   9.793  13.894  1.00  0.00     0.010 C 
HETATM   19  C38 UNL     1       1.983  10.725  14.541  1.00  0.00     0.001 C 
ENDROOT
BRANCH   1  20
HETATM   20  N3  UNL     1      -0.391   7.505  12.669  1.00  0.00    -0.336 N 
HETATM   21  C1  UNL     1       0.469   6.604  12.399  1.00  0.00     0.124 C 
HETATM   22  N1  UNL     1       0.551   6.140  11.128  1.00  0.00    -0.279 NA
HETATM   23  N2  UNL     1       1.353   5.927  13.167  1.00  0.00    -0.279 NA
HETATM   24  H1  UNL     1       0.578   5.125  11.106  1.00  0.00     0.126 HD
HETATM   25  H2  UNL     1      -0.255   6.474  10.611  1.00  0.00     0.126 HD
HETATM   26  H3  UNL     1       2.212   5.732  12.667  1.00  0.00     0.126 HD
HETATM   27  H4  UNL     1       1.570   6.384  14.053  1.00  0.00     0.126 HD
ATOM     28  H3  UNL     1      -0.928   7.893  11.894  1.00  0.00     0.165 HD
ENDBRANCH   1  20
BRANCH   1  29
HETATM   29  C3  UNL     1      -1.201   6.823  14.881  1.00  0.00     0.074 C 
BRANCH  29  30
HETATM   30  C4  UNL     1      -2.604   6.263  14.495  1.00  0.00     0.018 C 
BRANCH  30  31
HETATM   31  C5  UNL     1      -3.529   6.344  15.720  1.00  0.00     0.169 C 
BRANCH  31  32
HETATM   32  O1  UNL     1      -2.875   6.980  16.812  1.00  0.00    -0.400 OA
HETATM   33  H10 UNL     1      -3.560   7.181  17.470  1.00  0.00     0.209 HD
ENDBRANCH  31  32
ENDBRANCH  30  31
BRANCH  30  34
HETATM   34  C6  UNL     1      -2.545   4.832  13.929  1.00  0.00     0.045 C 
BRANCH  34  35
HETATM   35  C7  UNL     1      -3.810   4.414  13.215  1.00  0.00    -0.058 A 
HETATM   36  C8  UNL     1      -3.775   3.370  12.280  1.00  0.00     0.007 A 
HETATM   37  C9  UNL     1      -4.940   2.964  11.627  1.00  0.00     0.001 A 
HETATM   38  C10 UNL     1      -6.146   3.608  11.895  1.00  0.00     0.000 A 
HETATM   39  C11 UNL     1      -6.185   4.670  12.795  1.00  0.00     0.001 A 
HETATM   40  C12 UNL     1      -5.023   5.075  13.453  1.00  0.00     0.007 A 
ENDBRANCH  34  35
ENDBRANCH  30  34
ENDBRANCH  29  30
ENDBRANCH   1  29
BRANCH  14  41
HETATM   41 NA1  UNL     1       0.389   9.750  16.527  1.00  0.00    -0.379 Na
ATOM     42 2HA1 UNL     1      -0.512  10.139  16.805  1.00  0.00     0.091 HD
ATOM     43 1HA1 UNL     1      -0.359   9.232  16.065  1.00  0.00     0.091 HD
ENDBRANCH  14  41
BRANCH  12  44
HETATM   44  C23 UNL     1       3.031  11.532  19.147  1.00  0.00    -0.022 C 
HETATM   45  C24 UNL     1       4.341  11.790  19.318  1.00  0.00     0.006 C 
BRANCH  45  46
HETATM   46  C25 UNL     1       5.182  11.212  20.423  1.00  0.00     0.173 C 
BRANCH  46  47
HETATM   47  O6  UNL     1       6.200  12.174  20.742  1.00  0.00    -0.387 OA
HETATM   48  H31 UNL     1       6.157  12.866  20.057  1.00  0.00     0.210 HD
ENDBRANCH  46  47
BRANCH  46  49
HETATM   49  C26 UNL     1       4.393  10.814  21.660  1.00  0.00    -0.026 A 
HETATM   50  C27 UNL     1       3.960  11.746  22.623  1.00  0.00     0.013 A 
HETATM   51  C28 UNL     1       3.236  11.329  23.746  1.00  0.00     0.037 A 
HETATM   52  C29 UNL     1       2.943   9.978  23.917  1.00  0.00     0.065 A 
HETATM   53  C30 UNL     1       3.360   9.035  22.983  1.00  0.00     0.037 A 
HETATM   54  C31 UNL     1       4.086   9.453  21.863  1.00  0.00     0.013 A 
BRANCH  52  55
HETATM   55  O7  UNL     1       2.222   9.607  25.016  1.00  0.00    -0.361 OA
HETATM   56  H34 UNL     1       2.071   8.649  24.955  1.00  0.00     0.217 HD
ENDBRANCH  52  55
ENDBRANCH  46  49
ENDBRANCH  45  46
ENDBRANCH  12  44
BRANCH  11  57
HETATM   57  S1  UNL     1       1.023  13.961  19.772  1.00  0.00     0.106 S 
HETATM   58  O3  UNL     1       0.266  15.195  19.554  1.00  0.00    -0.595 OA
HETATM   59  O4  UNL     1       0.205  12.811  20.156  1.00  0.00    -0.595 OA
HETATM   60  O5  UNL     1       2.218  14.161  20.590  1.00  0.00    -0.595 OA
ENDBRANCH  11  57
TORSDOF 14
ENDMDL
