MODEL 1
REMARK minimizedAffinity -9.58481693
REMARK  2 active torsions:
REMARK  status: ('A' for Active; 'I' for Inactive)
REMARK    1  A    between atoms: C3_4  and  C4_5 
REMARK       I    between atoms: N3_16  and  C13_17 
REMARK       I    between atoms: C13_17  and  N4_19 
REMARK    2  A    between atoms: N4_19  and  C14_20 
ROOT
HETATM    1  C4  UNL     1       9.121  11.851  20.131  1.00  0.00    -0.020 A 
HETATM    2  C5  UNL     1      10.459  11.643  19.758  1.00  0.00     0.015 A 
HETATM    3  C6  UNL     1      10.786  10.858  18.645  1.00  0.00     0.033 A 
HETATM    4  C7  UNL     1       9.778  10.251  17.899  1.00  0.00     0.068 A 
HETATM    5  N2  UNL     1      10.144   9.453  16.797  1.00  0.00    -0.325 N 
HETATM    6  C8  UNL     1       9.369   8.392  16.376  1.00  0.00     0.222 C 
HETATM    7  O1  UNL     1       8.856   7.567  17.125  1.00  0.00    -0.273 OA
HETATM    8  C9  UNL     1       9.197   8.361  14.873  1.00  0.00     0.108 C 
HETATM    9  C10 UNL     1       7.822   7.801  14.476  1.00  0.00     0.001 C 
HETATM   10  C11 UNL     1       7.708   7.658  12.941  1.00  0.00     0.025 C 
HETATM   11  C12 UNL     1       6.530   8.387  12.314  1.00  0.00     0.128 C 
HETATM   12  N3  UNL     1       5.267   8.163  13.004  1.00  0.00    -0.334 N 
HETATM   13  C13 UNL     1       4.097   8.440  12.295  1.00  0.00     0.322 C 
HETATM   14  O2  UNL     1       4.137   8.966  11.185  1.00  0.00    -0.247 OA
HETATM   15  N4  UNL     1       2.942   8.058  12.939  1.00  0.00    -0.309 N 
HETATM   16  C20 UNL     1       5.319   7.876  14.441  1.00  0.00     0.132 C 
HETATM   17  C21 UNL     1       6.571   8.457  15.134  1.00  0.00     0.010 C 
HETATM   18  C22 UNL     1       6.461  10.005  15.182  1.00  0.00     0.033 C 
HETATM   19  C23 UNL     1       7.335  10.766  16.185  1.00  0.00     0.176 C 
HETATM   20  O3  UNL     1       7.377  10.091  17.446  1.00  0.00    -0.349 OA
HETATM   21  C24 UNL     1       8.434  10.519  18.218  1.00  0.00     0.096 A 
HETATM   22  C25 UNL     1       8.111  11.278  19.347  1.00  0.00     0.051 A 
HETATM   23  H7  UNL     1      11.076   9.535  16.416  1.00  0.00     0.169 HD
HETATM   24  H15 UNL     1       3.061   7.350  13.645  1.00  0.00     0.170 HD
ENDROOT
BRANCH  15  25
HETATM   25  C14 UNL     1       1.613   8.342  12.563  1.00  0.00     0.037 A 
HETATM   26  C15 UNL     1       0.587   8.594  13.475  1.00  0.00     0.029 A 
HETATM   27  C16 UNL     1      -0.715   8.847  13.030  1.00  0.00     0.004 A 
HETATM   28  C17 UNL     1      -1.002   8.848  11.668  1.00  0.00     0.024 A 
HETATM   29  C18 UNL     1       0.016   8.591  10.755  1.00  0.00     0.036 A 
HETATM   30 CL1  UNL     1      -0.334   8.575   9.069  1.00  0.00    -0.084 Cl
HETATM   31  C19 UNL     1       1.316   8.337  11.194  1.00  0.00     0.053 A 
ENDBRANCH  15  25
BRANCH   1  32
HETATM   32  C3  UNL     1       8.807  12.651  21.306  1.00  0.00     0.008 A 
HETATM   33  C2  UNL     1       8.868  14.028  21.383  1.00  0.00     0.123 A 
HETATM   34  N1  UNL     1       8.498  14.362  22.654  1.00  0.00    -0.307 N 
HETATM   35  C1  UNL     1       8.400  15.689  23.209  1.00  0.00     0.177 C 
HETATM   36  N5  UNL     1       8.213  13.301  23.426  1.00  0.00    -0.310 N 
HETATM   37  C26 UNL     1       8.392  12.263  22.604  1.00  0.00     0.120 A 
ATOM     38  H5  UNL     1       7.928  13.290  24.405  1.00  0.00     0.186 HD
ENDBRANCH   1  32
TORSDOF 2
ENDMDL
MODEL 2
REMARK minimizedAffinity -9.44515133
REMARK  2 active torsions:
REMARK  status: ('A' for Active; 'I' for Inactive)
REMARK    1  A    between atoms: C3_4  and  C4_5 
REMARK       I    between atoms: N3_16  and  C13_17 
REMARK       I    between atoms: C13_17  and  N4_19 
REMARK    2  A    between atoms: N4_19  and  C14_20 
ROOT
HETATM    1  C4  UNL     1      -5.402   5.035  12.970  1.00  0.00    -0.020 A 
HETATM    2  C5  UNL     1      -4.734   3.931  12.419  1.00  0.00     0.015 A 
HETATM    3  C6  UNL     1      -3.334   3.885  12.364  1.00  0.00     0.033 A 
HETATM    4  C7  UNL     1      -2.583   4.955  12.845  1.00  0.00     0.068 A 
HETATM    5  N2  UNL     1      -1.179   4.883  12.758  1.00  0.00    -0.325 N 
HETATM    6  C8  UNL     1      -0.396   6.013  12.638  1.00  0.00     0.222 C 
HETATM    7  O1  UNL     1      -0.647   6.953  11.892  1.00  0.00    -0.273 OA
HETATM    8  C9  UNL     1       0.811   5.983  13.550  1.00  0.00     0.108 C 
HETATM    9  C10 UNL     1       1.184   7.392  14.036  1.00  0.00     0.001 C 
HETATM   10  C11 UNL     1       2.489   7.361  14.862  1.00  0.00     0.025 C 
HETATM   11  C12 UNL     1       2.377   7.945  16.262  1.00  0.00     0.128 C 
HETATM   12  N3  UNL     1       1.702   9.236  16.306  1.00  0.00    -0.334 N 
HETATM   13  C13 UNL     1       1.907  10.022  17.442  1.00  0.00     0.322 C 
HETATM   14  O2  UNL     1       2.527   9.589  18.410  1.00  0.00    -0.247 OA
HETATM   15  N4  UNL     1       1.377  11.289  17.354  1.00  0.00    -0.309 N 
HETATM   16  C20 UNL     1       0.702   9.515  15.271  1.00  0.00     0.132 C 
HETATM   17  C21 UNL     1       0.053   8.241  14.690  1.00  0.00     0.010 C 
HETATM   18  C22 UNL     1      -0.860   7.591  15.765  1.00  0.00     0.033 C 
HETATM   19  C23 UNL     1      -1.931   6.596  15.305  1.00  0.00     0.176 C 
HETATM   20  O3  UNL     1      -2.577   7.050  14.112  1.00  0.00    -0.349 OA
HETATM   21  C24 UNL     1      -3.242   6.028  13.472  1.00  0.00     0.096 A 
HETATM   22  C25 UNL     1      -4.639   6.085  13.497  1.00  0.00     0.051 A 
HETATM   23  H7  UNL     1      -0.738   3.988  12.596  1.00  0.00     0.169 HD
HETATM   24  H15 UNL     1       1.215  11.621  16.417  1.00  0.00     0.170 HD
ENDROOT
BRANCH  15  25
HETATM   25  C14 UNL     1       1.277  12.252  18.379  1.00  0.00     0.037 A 
HETATM   26  C15 UNL     1       0.600  13.465  18.240  1.00  0.00     0.029 A 
HETATM   27  C16 UNL     1       0.561  14.384  19.293  1.00  0.00     0.004 A 
HETATM   28  C17 UNL     1       1.201  14.098  20.496  1.00  0.00     0.024 A 
HETATM   29  C18 UNL     1       1.882  12.893  20.639  1.00  0.00     0.036 A 
HETATM   30 CL1  UNL     1       2.689  12.539  22.118  1.00  0.00    -0.084 Cl
HETATM   31  C19 UNL     1       1.925  11.974  19.590  1.00  0.00     0.053 A 
ENDBRANCH  15  25
BRANCH   1  32
HETATM   32  C3  UNL     1      -6.858   5.071  12.993  1.00  0.00     0.008 A 
HETATM   33  C2  UNL     1      -7.632   6.182  13.262  1.00  0.00     0.123 A 
HETATM   34  N1  UNL     1      -8.933   5.777  13.182  1.00  0.00    -0.307 N 
HETATM   35  C1  UNL     1     -10.108   6.588  13.376  1.00  0.00     0.177 C 
HETATM   36  N5  UNL     1      -9.071   4.472  12.895  1.00  0.00    -0.310 N 
HETATM   37  C26 UNL     1      -7.811   4.047  12.772  1.00  0.00     0.120 A 
ATOM     38  H5  UNL     1      -9.932   3.935  12.796  1.00  0.00     0.186 HD
ENDBRANCH   1  32
TORSDOF 2
ENDMDL
MODEL 3
REMARK minimizedAffinity -9.05703259
REMARK  2 active torsions:
REMARK  status: ('A' for Active; 'I' for Inactive)
REMARK    1  A    between atoms: C3_4  and  C4_5 
REMARK       I    between atoms: N3_16  and  C13_17 
REMARK       I    between atoms: C13_17  and  N4_19 
REMARK    2  A    between atoms: N4_19  and  C14_20 
ROOT
HETATM    1  C4  UNL     1       1.192   7.173  10.424  1.00  0.00    -0.020 A 
HETATM    2  C5  UNL     1       0.221   7.881   9.698  1.00  0.00     0.015 A 
HETATM    3  C6  UNL     1      -0.689   8.730  10.343  1.00  0.00     0.033 A 
HETATM    4  C7  UNL     1      -0.651   8.868  11.729  1.00  0.00     0.068 A 
HETATM    5  N2  UNL     1      -1.591   9.716  12.346  1.00  0.00    -0.325 N 
HETATM    6  C8  UNL     1      -2.035   9.499  13.634  1.00  0.00     0.222 C 
HETATM    7  O1  UNL     1      -2.352   8.402  14.083  1.00  0.00    -0.273 OA
HETATM    8  C9  UNL     1      -2.070  10.768  14.457  1.00  0.00     0.108 C 
HETATM    9  C10 UNL     1      -1.756  10.490  15.935  1.00  0.00     0.001 C 
HETATM   10  C11 UNL     1      -1.920  11.771  16.783  1.00  0.00     0.025 C 
HETATM   11  C12 UNL     1      -0.691  12.171  17.586  1.00  0.00     0.128 C 
HETATM   12  N3  UNL     1      -0.090  11.068  18.325  1.00  0.00    -0.334 N 
HETATM   13  C13 UNL     1       0.761  11.399  19.381  1.00  0.00     0.322 C 
HETATM   14  O2  UNL     1       1.083  12.566  19.595  1.00  0.00    -0.247 OA
HETATM   15  N4  UNL     1       1.168  10.323  20.138  1.00  0.00    -0.309 N 
HETATM   16  C20 UNL     1      -0.248   9.717  17.778  1.00  0.00     0.132 C 
HETATM   17  C21 UNL     1      -0.451   9.698  16.247  1.00  0.00     0.010 C 
HETATM   18  C22 UNL     1       0.872  10.109  15.548  1.00  0.00     0.033 C 
HETATM   19  C23 UNL     1       1.057   9.747  14.070  1.00  0.00     0.176 C 
HETATM   20  O3  UNL     1       0.578   8.426  13.800  1.00  0.00    -0.349 OA
HETATM   21  C24 UNL     1       0.369   8.225  12.454  1.00  0.00     0.096 A 
HETATM   22  C25 UNL     1       1.255   7.355  11.811  1.00  0.00     0.051 A 
HETATM   23  H7  UNL     1      -2.093  10.389  11.784  1.00  0.00     0.169 HD
HETATM   24  H15 UNL     1       0.575   9.511  20.078  1.00  0.00     0.170 HD
ENDROOT
BRANCH  15  25
HETATM   25  C14 UNL     1       2.140  10.308  21.158  1.00  0.00     0.037 A 
HETATM   26  C15 UNL     1       2.512   9.159  21.857  1.00  0.00     0.029 A 
HETATM   27  C16 UNL     1       3.470   9.222  22.874  1.00  0.00     0.004 A 
HETATM   28  C17 UNL     1       4.064  10.438  23.202  1.00  0.00     0.024 A 
HETATM   29  C18 UNL     1       3.693  11.588  22.513  1.00  0.00     0.036 A 
HETATM   30 CL1  UNL     1       4.412  13.098  22.922  1.00  0.00    -0.084 Cl
HETATM   31  C19 UNL     1       2.737  11.530  21.498  1.00  0.00     0.053 A 
ENDBRANCH  15  25
BRANCH   1  32
HETATM   32  C3  UNL     1       2.109   6.277   9.734  1.00  0.00     0.008 A 
HETATM   33  C2  UNL     1       2.797   5.228  10.311  1.00  0.00     0.123 A 
HETATM   34  N1  UNL     1       3.540   4.658   9.318  1.00  0.00    -0.307 N 
HETATM   35  C1  UNL     1       4.418   3.521   9.435  1.00  0.00     0.177 C 
HETATM   36  N5  UNL     1       3.403   5.268   8.130  1.00  0.00    -0.310 N 
HETATM   37  C26 UNL     1       2.527   6.244   8.381  1.00  0.00     0.120 A 
ATOM     38  H5  UNL     1       3.859   5.039   7.246  1.00  0.00     0.186 HD
ENDBRANCH   1  32
TORSDOF 2
ENDMDL
MODEL 4
REMARK minimizedAffinity -9.05561733
REMARK  2 active torsions:
REMARK  status: ('A' for Active; 'I' for Inactive)
REMARK    1  A    between atoms: C3_4  and  C4_5 
REMARK       I    between atoms: N3_16  and  C13_17 
REMARK       I    between atoms: C13_17  and  N4_19 
REMARK    2  A    between atoms: N4_19  and  C14_20 
ROOT
HETATM    1  C4  UNL     1      -5.502   5.575  13.579  1.00  0.00    -0.020 A 
HETATM    2  C5  UNL     1      -6.381   6.640  13.835  1.00  0.00     0.015 A 
HETATM    3  C6  UNL     1      -5.919   7.847  14.376  1.00  0.00     0.033 A 
HETATM    4  C7  UNL     1      -4.570   8.000  14.686  1.00  0.00     0.068 A 
HETATM    5  N2  UNL     1      -4.142   9.220  15.245  1.00  0.00    -0.325 N 
HETATM    6  C8  UNL     1      -3.058   9.293  16.094  1.00  0.00     0.222 C 
HETATM    7  O1  UNL     1      -2.839   8.507  17.010  1.00  0.00    -0.273 OA
HETATM    8  C9  UNL     1      -2.138  10.449  15.763  1.00  0.00     0.108 C 
HETATM    9  C10 UNL     1      -0.672  10.107  16.069  1.00  0.00     0.001 C 
HETATM   10  C11 UNL     1       0.238  11.336  15.846  1.00  0.00     0.025 C 
HETATM   11  C12 UNL     1       1.386  11.116  14.872  1.00  0.00     0.128 C 
HETATM   12  N3  UNL     1       2.132   9.888  15.114  1.00  0.00    -0.334 N 
HETATM   13  C13 UNL     1       3.411   9.802  14.561  1.00  0.00     0.322 C 
HETATM   14  O2  UNL     1       3.835  10.672  13.803  1.00  0.00    -0.247 OA
HETATM   15  N4  UNL     1       4.124   8.693  14.957  1.00  0.00    -0.309 N 
HETATM   16  C20 UNL     1       1.414   8.766  15.726  1.00  0.00     0.132 C 
HETATM   17  C21 UNL     1      -0.105   8.793  15.453  1.00  0.00     0.010 C 
HETATM   18  C22 UNL     1      -0.365   8.482  13.955  1.00  0.00     0.033 C 
HETATM   19  C23 UNL     1      -1.767   8.022  13.539  1.00  0.00     0.176 C 
HETATM   20  O3  UNL     1      -2.305   7.092  14.485  1.00  0.00    -0.349 OA
HETATM   21  C24 UNL     1      -3.670   6.968  14.358  1.00  0.00     0.096 A 
HETATM   22  C25 UNL     1      -4.139   5.755  13.848  1.00  0.00     0.051 A 
HETATM   23  H7  UNL     1      -4.740  10.032  15.177  1.00  0.00     0.169 HD
HETATM   24  H15 UNL     1       3.813   8.270  15.817  1.00  0.00     0.170 HD
ENDROOT
BRANCH  15  25
HETATM   25  C14 UNL     1       5.363   8.244  14.457  1.00  0.00     0.037 A 
HETATM   26  C15 UNL     1       6.564   8.339  15.163  1.00  0.00     0.029 A 
HETATM   27  C16 UNL     1       7.762   7.892  14.595  1.00  0.00     0.004 A 
HETATM   28  C17 UNL     1       7.768   7.348  13.313  1.00  0.00     0.024 A 
HETATM   29  C18 UNL     1       6.576   7.256  12.603  1.00  0.00     0.036 A 
HETATM   30 CL1  UNL     1       6.578   6.598  11.012  1.00  0.00    -0.084 Cl
HETATM   31  C19 UNL     1       5.379   7.702  13.165  1.00  0.00     0.053 A 
ENDBRANCH  15  25
BRANCH   1  32
HETATM   32  C3  UNL     1      -6.010   4.322  13.040  1.00  0.00     0.008 A 
HETATM   33  C2  UNL     1      -5.363   3.517  12.124  1.00  0.00     0.123 A 
HETATM   34  N1  UNL     1      -6.185   2.453  11.892  1.00  0.00    -0.307 N 
HETATM   35  C1  UNL     1      -5.936   1.339  11.013  1.00  0.00     0.177 C 
HETATM   36  N5  UNL     1      -7.338   2.508  12.579  1.00  0.00    -0.310 N 
HETATM   37  C26 UNL     1      -7.227   3.638  13.282  1.00  0.00     0.120 A 
ATOM     38  H5  UNL     1      -8.113   1.845  12.566  1.00  0.00     0.186 HD
ENDBRANCH   1  32
TORSDOF 2
ENDMDL
MODEL 5
REMARK minimizedAffinity -8.91120815
REMARK  2 active torsions:
REMARK  status: ('A' for Active; 'I' for Inactive)
REMARK    1  A    between atoms: C3_4  and  C4_5 
REMARK       I    between atoms: N3_16  and  C13_17 
REMARK       I    between atoms: C13_17  and  N4_19 
REMARK    2  A    between atoms: N4_19  and  C14_20 
ROOT
HETATM    1  C4  UNL     1      -0.311   7.178  12.464  1.00  0.00    -0.020 A 
HETATM    2  C5  UNL     1       0.027   6.213  11.502  1.00  0.00     0.015 A 
HETATM    3  C6  UNL     1       1.364   5.960  11.168  1.00  0.00     0.033 A 
HETATM    4  C7  UNL     1       2.384   6.684  11.781  1.00  0.00     0.068 A 
HETATM    5  N2  UNL     1       3.716   6.415  11.409  1.00  0.00    -0.325 N 
HETATM    6  C8  UNL     1       4.699   7.382  11.469  1.00  0.00     0.222 C 
HETATM    7  O1  UNL     1       4.558   8.539  11.086  1.00  0.00    -0.273 OA
HETATM    8  C9  UNL     1       5.982   6.868  12.085  1.00  0.00     0.108 C 
HETATM    9  C10 UNL     1       6.709   7.969  12.872  1.00  0.00     0.001 C 
HETATM   10  C11 UNL     1       8.076   7.465  13.387  1.00  0.00     0.025 C 
HETATM   11  C12 UNL     1       8.278   7.583  14.891  1.00  0.00     0.128 C 
HETATM   12  N3  UNL     1       7.907   8.885  15.431  1.00  0.00    -0.334 N 
HETATM   13  C13 UNL     1       8.424   9.225  16.682  1.00  0.00     0.322 C 
HETATM   14  O2  UNL     1       9.061   8.411  17.348  1.00  0.00    -0.247 OA
HETATM   15  N4  UNL     1       8.171  10.522  17.065  1.00  0.00    -0.309 N 
HETATM   16  C20 UNL     1       6.861   9.638  14.732  1.00  0.00     0.132 C 
HETATM   17  C21 UNL     1       5.883   8.738  13.946  1.00  0.00     0.010 C 
HETATM   18  C22 UNL     1       5.004   7.938  14.945  1.00  0.00     0.033 C 
HETATM   19  C23 UNL     1       3.693   7.329  14.435  1.00  0.00     0.176 C 
HETATM   20  O3  UNL     1       3.007   8.237  13.568  1.00  0.00    -0.349 OA
HETATM   21  C24 UNL     1       2.059   7.595  12.804  1.00  0.00     0.096 A 
HETATM   22  C25 UNL     1       0.723   7.867  13.112  1.00  0.00     0.051 A 
HETATM   23  H7  UNL     1       3.929   5.560  10.917  1.00  0.00     0.169 HD
HETATM   24  H15 UNL     1       7.961  11.156  16.311  1.00  0.00     0.170 HD
ENDROOT
BRANCH  15  25
HETATM   25  C14 UNL     1       8.417  11.112  18.321  1.00  0.00     0.037 A 
HETATM   26  C15 UNL     1       7.411  11.587  19.165  1.00  0.00     0.029 A 
HETATM   27  C16 UNL     1       7.730  12.182  20.390  1.00  0.00     0.004 A 
HETATM   28  C17 UNL     1       9.060  12.308  20.781  1.00  0.00     0.024 A 
HETATM   29  C18 UNL     1      10.068  11.841  19.942  1.00  0.00     0.036 A 
HETATM   30 CL1  UNL     1      11.716  12.007  20.413  1.00  0.00    -0.084 Cl
HETATM   31  C19 UNL     1       9.754  11.249  18.719  1.00  0.00     0.053 A 
ENDBRANCH  15  25
BRANCH   1  32
HETATM   32  C3  UNL     1      -1.708   7.442  12.775  1.00  0.00     0.008 A 
HETATM   33  C2  UNL     1      -2.666   6.486  13.051  1.00  0.00     0.123 A 
HETATM   34  N1  UNL     1      -3.831   7.160  13.282  1.00  0.00    -0.307 N 
HETATM   35  C1  UNL     1      -5.110   6.589  13.620  1.00  0.00     0.177 C 
HETATM   36  N5  UNL     1      -3.712   8.492  13.163  1.00  0.00    -0.310 N 
HETATM   37  C26 UNL     1      -2.421   8.662  12.864  1.00  0.00     0.120 A 
ATOM     38  H5  UNL     1      -4.435   9.203  13.274  1.00  0.00     0.186 HD
ENDBRANCH   1  32
TORSDOF 2
ENDMDL
MODEL 6
REMARK minimizedAffinity -8.90694809
REMARK  2 active torsions:
REMARK  status: ('A' for Active; 'I' for Inactive)
REMARK    1  A    between atoms: C3_4  and  C4_5 
REMARK       I    between atoms: N3_16  and  C13_17 
REMARK       I    between atoms: C13_17  and  N4_19 
REMARK    2  A    between atoms: N4_19  and  C14_20 
ROOT
HETATM    1  C4  UNL     1      -3.364   4.677  12.342  1.00  0.00    -0.020 A 
HETATM    2  C5  UNL     1      -2.023   4.490  11.969  1.00  0.00     0.015 A 
HETATM    3  C6  UNL     1      -1.065   5.489  12.184  1.00  0.00     0.033 A 
HETATM    4  C7  UNL     1      -1.440   6.701  12.759  1.00  0.00     0.068 A 
HETATM    5  N2  UNL     1      -0.454   7.691  12.944  1.00  0.00    -0.325 N 
HETATM    6  C8  UNL     1      -0.760   9.036  12.933  1.00  0.00     0.222 C 
HETATM    7  O1  UNL     1      -1.505   9.571  12.119  1.00  0.00    -0.273 OA
HETATM    8  C9  UNL     1      -0.090   9.793  14.059  1.00  0.00     0.108 C 
HETATM    9  C10 UNL     1      -0.964  10.955  14.554  1.00  0.00     0.001 C 
HETATM   10  C11 UNL     1      -0.215  11.794  15.614  1.00  0.00     0.025 C 
HETATM   11  C12 UNL     1      -0.937  11.940  16.945  1.00  0.00     0.128 C 
HETATM   12  N3  UNL     1      -2.341  12.307  16.812  1.00  0.00    -0.334 N 
HETATM   13  C13 UNL     1      -2.965  12.852  17.936  1.00  0.00     0.322 C 
HETATM   14  O2  UNL     1      -2.388  12.902  19.020  1.00  0.00    -0.247 OA
HETATM   15  N4  UNL     1      -4.236  13.326  17.703  1.00  0.00    -0.309 N 
HETATM   16  C20 UNL     1      -3.043  11.884  15.597  1.00  0.00     0.132 C 
HETATM   17  C21 UNL     1      -2.434  10.621  14.950  1.00  0.00     0.010 C 
HETATM   18  C22 UNL     1      -2.716   9.392  15.854  1.00  0.00     0.033 C 
HETATM   19  C23 UNL     1      -2.609   7.993  15.236  1.00  0.00     0.176 C 
HETATM   20  O3  UNL     1      -3.183   7.965  13.926  1.00  0.00    -0.349 OA
HETATM   21  C24 UNL     1      -2.763   6.866  13.209  1.00  0.00     0.096 A 
HETATM   22  C25 UNL     1      -3.723   5.879  12.966  1.00  0.00     0.051 A 
HETATM   23  H7  UNL     1       0.521   7.431  12.902  1.00  0.00     0.169 HD
HETATM   24  H15 UNL     1      -4.442  13.540  16.741  1.00  0.00     0.170 HD
ENDROOT
BRANCH  15  25
HETATM   25  C14 UNL     1      -5.173  13.779  18.654  1.00  0.00     0.037 A 
HETATM   26  C15 UNL     1      -6.101  14.792  18.405  1.00  0.00     0.029 A 
HETATM   27  C16 UNL     1      -6.987  15.208  19.405  1.00  0.00     0.004 A 
HETATM   28  C17 UNL     1      -6.951  14.614  20.663  1.00  0.00     0.024 A 
HETATM   29  C18 UNL     1      -6.024  13.607  20.919  1.00  0.00     0.036 A 
HETATM   30 CL1  UNL     1      -5.964  12.878  22.477  1.00  0.00    -0.084 Cl
HETATM   31  C19 UNL     1      -5.138  13.191  19.925  1.00  0.00     0.053 A 
ENDBRANCH  15  25
BRANCH   1  32
HETATM   32  C3  UNL     1      -4.346   3.634  12.086  1.00  0.00     0.008 A 
HETATM   33  C2  UNL     1      -5.617   3.575  12.622  1.00  0.00     0.123 A 
HETATM   34  N1  UNL     1      -6.195   2.442  12.126  1.00  0.00    -0.307 N 
HETATM   35  C1  UNL     1      -7.526   1.958  12.394  1.00  0.00     0.177 C 
HETATM   36  N5  UNL     1      -5.388   1.740  11.314  1.00  0.00    -0.310 N 
HETATM   37  C26 UNL     1      -4.270   2.469  11.283  1.00  0.00     0.120 A 
ATOM     38  H5  UNL     1      -5.583   0.861  10.835  1.00  0.00     0.186 HD
ENDBRANCH   1  32
TORSDOF 2
ENDMDL
MODEL 7
REMARK minimizedAffinity -8.83131218
REMARK  2 active torsions:
REMARK  status: ('A' for Active; 'I' for Inactive)
REMARK    1  A    between atoms: C3_4  and  C4_5 
REMARK       I    between atoms: N3_16  and  C13_17 
REMARK       I    between atoms: C13_17  and  N4_19 
REMARK    2  A    between atoms: N4_19  and  C14_20 
ROOT
HETATM    1  C4  UNL     1      -3.336   5.832  13.385  1.00  0.00    -0.020 A 
HETATM    2  C5  UNL     1      -3.292   4.760  12.479  1.00  0.00     0.015 A 
HETATM    3  C6  UNL     1      -2.162   4.532  11.683  1.00  0.00     0.033 A 
HETATM    4  C7  UNL     1      -1.064   5.385  11.769  1.00  0.00     0.068 A 
HETATM    5  N2  UNL     1       0.048   5.136  10.942  1.00  0.00    -0.325 N 
HETATM    6  C8  UNL     1       0.878   6.150  10.510  1.00  0.00     0.222 C 
HETATM    7  O1  UNL     1       0.487   7.234  10.088  1.00  0.00    -0.273 OA
HETATM    8  C9  UNL     1       2.343   5.793  10.632  1.00  0.00     0.108 C 
HETATM    9  C10 UNL     1       3.199   7.028  10.951  1.00  0.00     0.001 C 
HETATM   10  C11 UNL     1       4.703   6.672  10.948  1.00  0.00     0.025 C 
HETATM   11  C12 UNL     1       5.445   7.009  12.233  1.00  0.00     0.128 C 
HETATM   12  N3  UNL     1       5.176   8.352  12.729  1.00  0.00    -0.334 N 
HETATM   13  C13 UNL     1       6.091   8.889  13.637  1.00  0.00     0.322 C 
HETATM   14  O2  UNL     1       7.010   8.209  14.088  1.00  0.00    -0.247 OA
HETATM   15  N4  UNL     1       5.872  10.212  13.944  1.00  0.00    -0.309 N 
HETATM   16  C20 UNL     1       3.874   8.946  12.413  1.00  0.00     0.132 C 
HETATM   17  C21 UNL     1       2.767   7.896  12.171  1.00  0.00     0.010 C 
HETATM   18  C22 UNL     1       2.416   7.200  13.513  1.00  0.00     0.033 C 
HETATM   19  C23 UNL     1       1.079   6.459  13.620  1.00  0.00     0.176 C 
HETATM   20  O3  UNL     1       0.028   7.202  12.995  1.00  0.00    -0.349 OA
HETATM   21  C24 UNL     1      -1.069   6.412  12.732  1.00  0.00     0.096 A 
HETATM   22  C25 UNL     1      -2.209   6.655  13.502  1.00  0.00     0.051 A 
HETATM   23  H7  UNL     1       0.144   4.232  10.501  1.00  0.00     0.169 HD
HETATM   24  H15 UNL     1       5.330  10.724  13.267  1.00  0.00     0.170 HD
ENDROOT
BRANCH  15  25
HETATM   25  C14 UNL     1       6.514  10.983  14.935  1.00  0.00     0.037 A 
HETATM   26  C15 UNL     1       6.351  12.363  15.069  1.00  0.00     0.029 A 
HETATM   27  C16 UNL     1       7.038  13.068  16.064  1.00  0.00     0.004 A 
HETATM   28  C17 UNL     1       7.895  12.397  16.932  1.00  0.00     0.024 A 
HETATM   29  C18 UNL     1       8.066  11.023  16.799  1.00  0.00     0.036 A 
HETATM   30 CL1  UNL     1       9.136  10.189  17.859  1.00  0.00    -0.084 Cl
HETATM   31  C19 UNL     1       7.384  10.316  15.808  1.00  0.00     0.053 A 
ENDBRANCH  15  25
BRANCH   1  32
HETATM   32  C3  UNL     1      -4.531   6.064  14.183  1.00  0.00     0.008 A 
HETATM   33  C2  UNL     1      -5.831   5.862  13.765  1.00  0.00     0.123 A 
HETATM   34  N1  UNL     1      -6.634   6.202  14.815  1.00  0.00    -0.307 N 
HETATM   35  C1  UNL     1      -8.074   6.149  14.859  1.00  0.00     0.177 C 
HETATM   36  N5  UNL     1      -5.956   6.631  15.891  1.00  0.00    -0.310 N 
HETATM   37  C26 UNL     1      -4.679   6.538  15.510  1.00  0.00     0.120 A 
ATOM     38  H5  UNL     1      -6.327   6.952  16.786  1.00  0.00     0.186 HD
ENDBRANCH   1  32
TORSDOF 2
ENDMDL
MODEL 8
REMARK minimizedAffinity -8.81546211
REMARK  2 active torsions:
REMARK  status: ('A' for Active; 'I' for Inactive)
REMARK    1  A    between atoms: C3_4  and  C4_5 
REMARK       I    between atoms: N3_16  and  C13_17 
REMARK       I    between atoms: C13_17  and  N4_19 
REMARK    2  A    between atoms: N4_19  and  C14_20 
ROOT
HETATM    1  C4  UNL     1      -3.667   4.789  12.512  1.00  0.00    -0.020 A 
HETATM    2  C5  UNL     1      -3.205   3.887  11.541  1.00  0.00     0.015 A 
HETATM    3  C6  UNL     1      -1.909   3.987  11.018  1.00  0.00     0.033 A 
HETATM    4  C7  UNL     1      -1.061   5.006  11.447  1.00  0.00     0.068 A 
HETATM    5  N2  UNL     1       0.229   5.088  10.888  1.00  0.00    -0.325 N 
HETATM    6  C8  UNL     1       0.897   6.289  10.768  1.00  0.00     0.222 C 
HETATM    7  O1  UNL     1       0.385   7.331  10.374  1.00  0.00    -0.273 OA
HETATM    8  C9  UNL     1       2.345   6.193  11.199  1.00  0.00     0.108 C 
HETATM    9  C10 UNL     1       2.831   7.505  11.833  1.00  0.00     0.001 C 
HETATM   10  C11 UNL     1       4.341   7.435  12.152  1.00  0.00     0.025 C 
HETATM   11  C12 UNL     1       4.704   7.713  13.604  1.00  0.00     0.128 C 
HETATM   12  N3  UNL     1       4.057   8.898  14.152  1.00  0.00    -0.334 N 
HETATM   13  C13 UNL     1       4.622   9.457  15.300  1.00  0.00     0.322 C 
HETATM   14  O2  UNL     1       5.547   8.900  15.887  1.00  0.00    -0.247 OA
HETATM   15  N4  UNL     1       4.067  10.660  15.675  1.00  0.00    -0.309 N 
HETATM   16  C20 UNL     1       2.756   9.282  13.595  1.00  0.00     0.132 C 
HETATM   17  C21 UNL     1       1.975   8.093  12.994  1.00  0.00     0.010 C 
HETATM   18  C22 UNL     1       1.502   7.158  14.139  1.00  0.00     0.033 C 
HETATM   19  C23 UNL     1       0.360   6.176  13.852  1.00  0.00     0.176 C 
HETATM   20  O3  UNL     1      -0.666   6.796  13.070  1.00  0.00    -0.349 OA
HETATM   21  C24 UNL     1      -1.488   5.864  12.478  1.00  0.00     0.096 A 
HETATM   22  C25 UNL     1      -2.792   5.780  12.975  1.00  0.00     0.051 A 
HETATM   23  H7  UNL     1       0.606   4.290  10.396  1.00  0.00     0.169 HD
HETATM   24  H15 UNL     1       3.587  11.155  14.941  1.00  0.00     0.170 HD
ENDROOT
BRANCH  15  25
HETATM   25  C14 UNL     1       4.305  11.384  16.860  1.00  0.00     0.037 A 
HETATM   26  C15 UNL     1       5.368  12.273  17.026  1.00  0.00     0.029 A 
HETATM   27  C16 UNL     1       5.556  12.942  18.240  1.00  0.00     0.004 A 
HETATM   28  C17 UNL     1       4.681  12.725  19.301  1.00  0.00     0.024 A 
HETATM   29  C18 UNL     1       3.623  11.836  19.144  1.00  0.00     0.036 A 
HETATM   30 CL1  UNL     1       2.545  11.551  20.457  1.00  0.00    -0.084 Cl
HETATM   31  C19 UNL     1       3.433  11.165  17.935  1.00  0.00     0.053 A 
ENDBRANCH  15  25
BRANCH   1  32
HETATM   32  C3  UNL     1      -5.027   4.680  13.022  1.00  0.00     0.008 A 
HETATM   33  C2  UNL     1      -5.641   5.575  13.875  1.00  0.00     0.123 A 
HETATM   34  N1  UNL     1      -6.899   5.095  14.101  1.00  0.00    -0.307 N 
HETATM   35  C1  UNL     1      -7.922   5.692  14.922  1.00  0.00     0.177 C 
HETATM   36  N5  UNL     1      -7.152   3.937  13.469  1.00  0.00    -0.310 N 
HETATM   37  C26 UNL     1      -6.018   3.691  12.807  1.00  0.00     0.120 A 
ATOM     38  H5  UNL     1      -8.005   3.379  13.490  1.00  0.00     0.186 HD
ENDBRANCH   1  32
TORSDOF 2
ENDMDL
MODEL 9
REMARK minimizedAffinity -8.74369431
REMARK  2 active torsions:
REMARK  status: ('A' for Active; 'I' for Inactive)
REMARK    1  A    between atoms: C3_4  and  C4_5 
REMARK       I    between atoms: N3_16  and  C13_17 
REMARK       I    between atoms: C13_17  and  N4_19 
REMARK    2  A    between atoms: N4_19  and  C14_20 
ROOT
HETATM    1  C4  UNL     1      -0.096   9.820  14.623  1.00  0.00    -0.020 A 
HETATM    2  C5  UNL     1       0.702   8.903  13.920  1.00  0.00     0.015 A 
HETATM    3  C6  UNL     1       0.178   7.684  13.468  1.00  0.00     0.033 A 
HETATM    4  C7  UNL     1      -1.151   7.357  13.730  1.00  0.00     0.068 A 
HETATM    5  N2  UNL     1      -1.640   6.117  13.277  1.00  0.00    -0.325 N 
HETATM    6  C8  UNL     1      -2.655   5.450  13.931  1.00  0.00     0.222 C 
HETATM    7  O1  UNL     1      -2.729   5.320  15.149  1.00  0.00    -0.273 OA
HETATM    8  C9  UNL     1      -3.698   4.905  12.980  1.00  0.00     0.108 C 
HETATM    9  C10 UNL     1      -5.099   4.919  13.612  1.00  0.00     0.001 C 
HETATM   10  C11 UNL     1      -6.130   4.245  12.679  1.00  0.00     0.025 C 
HETATM   11  C12 UNL     1      -7.328   5.109  12.316  1.00  0.00     0.128 C 
HETATM   12  N3  UNL     1      -7.939   5.774  13.459  1.00  0.00    -0.334 N 
HETATM   13  C13 UNL     1      -9.246   6.241  13.300  1.00  0.00     0.322 C 
HETATM   14  O2  UNL     1      -9.805   6.201  12.206  1.00  0.00    -0.247 OA
HETATM   15  N4  UNL     1      -9.822   6.712  14.457  1.00  0.00    -0.309 N 
HETATM   16  C20 UNL     1      -7.077   6.093  14.601  1.00  0.00     0.132 C 
HETATM   17  C21 UNL     1      -5.592   6.269  14.214  1.00  0.00     0.010 C 
HETATM   18  C22 UNL     1      -5.427   7.574  13.390  1.00  0.00     0.033 C 
HETATM   19  C23 UNL     1      -4.027   8.188  13.273  1.00  0.00     0.176 C 
HETATM   20  O3  UNL     1      -3.334   8.132  14.524  1.00  0.00    -0.349 OA
HETATM   21  C24 UNL     1      -1.977   8.305  14.363  1.00  0.00     0.096 A 
HETATM   22  C25 UNL     1      -1.443   9.506  14.839  1.00  0.00     0.051 A 
HETATM   23  H7  UNL     1      -1.124   5.610  12.571  1.00  0.00     0.169 HD
HETATM   24  H15 UNL     1      -9.407   6.373  15.310  1.00  0.00     0.170 HD
ENDROOT
BRANCH  15  25
HETATM   25  C14 UNL     1     -11.052   7.388  14.592  1.00  0.00     0.037 A 
HETATM   26  C15 UNL     1     -11.254   8.464  15.459  1.00  0.00     0.029 A 
HETATM   27  C16 UNL     1     -12.510   9.073  15.557  1.00  0.00     0.004 A 
HETATM   28  C17 UNL     1     -13.575   8.610  14.789  1.00  0.00     0.024 A 
HETATM   29  C18 UNL     1     -13.380   7.534  13.928  1.00  0.00     0.036 A 
HETATM   30 CL1  UNL     1     -14.696   6.946  12.987  1.00  0.00    -0.084 Cl
HETATM   31  C19 UNL     1     -12.130   6.923  13.828  1.00  0.00     0.053 A 
ENDBRANCH  15  25
BRANCH   1  32
HETATM   32  C3  UNL     1       0.478  11.069  15.104  1.00  0.00     0.008 A 
HETATM   33  C2  UNL     1      -0.200  12.261  15.255  1.00  0.00     0.123 A 
HETATM   34  N1  UNL     1       0.707  13.167  15.725  1.00  0.00    -0.307 N 
HETATM   35  C1  UNL     1       0.465  14.551  16.046  1.00  0.00     0.177 C 
HETATM   36  N5  UNL     1       1.941  12.659  15.877  1.00  0.00    -0.310 N 
HETATM   37  C26 UNL     1       1.799  11.383  15.509  1.00  0.00     0.120 A 
ATOM     38  H5  UNL     1       2.784  13.134  16.198  1.00  0.00     0.186 HD
ENDBRANCH   1  32
TORSDOF 2
ENDMDL
