MODEL 1
REMARK minimizedAffinity -11.0511131
REMARK  6 active torsions:
REMARK  status: ('A' for Active; 'I' for Inactive)
REMARK    1  A    between atoms: C4_4  and  C5_5 
REMARK    2  A    between atoms: C5_5  and  C6_6 
REMARK    3  A    between atoms: C6_6  and  C7_7 
REMARK    4  A    between atoms: C19_21  and  C20_22 
REMARK    5  A    between atoms: C26_28  and  C27_29 
REMARK    6  A    between atoms: C30_32  and  O2_33 
ROOT
HETATM    1  C7  UNL     1      -7.979   6.761  14.729  1.00  0.00     0.082 C 
HETATM    2  C8  UNL     1      -8.235   6.390  16.196  1.00  0.00     0.051 C 
HETATM    3  C9  UNL     1      -6.709   7.584  14.637  1.00  0.00     0.012 C 
HETATM    4  C10 UNL     1      -5.574   7.144  14.086  1.00  0.00     0.015 C 
HETATM    5  C11 UNL     1      -5.568   5.793  13.563  1.00  0.00     0.025 A 
HETATM    6  C12 UNL     1      -6.734   5.022  13.548  1.00  0.00     0.088 A 
HETATM    7  O1  UNL     1      -7.930   5.497  14.014  1.00  0.00    -0.335 OA
HETATM    8  C13 UNL     1      -6.734   3.719  13.031  1.00  0.00    -0.027 A 
HETATM    9  C14 UNL     1      -7.996   2.904  13.006  1.00  0.00     0.051 C 
HETATM   10  C15 UNL     1      -5.540   3.173  12.527  1.00  0.00     0.024 A 
HETATM   11  C16 UNL     1      -4.351   3.931  12.541  1.00  0.00     0.005 A 
HETATM   12  C17 UNL     1      -4.387   5.227  13.052  1.00  0.00     0.057 A 
HETATM   13  N1  UNL     1      -3.112   5.728  12.934  1.00  0.00    -0.354 N 
HETATM   14  C18 UNL     1      -2.245   4.807  12.385  1.00  0.00     0.053 A 
HETATM   15  C19 UNL     1      -0.855   4.908  12.114  1.00  0.00     0.011 A 
HETATM   16  C30 UNL     1      -0.290   3.773  11.492  1.00  0.00     0.074 A 
HETATM   17  C31 UNL     1      -1.024   2.618  11.217  1.00  0.00     0.038 A 
HETATM   18  C32 UNL     1      -2.380   2.553  11.532  1.00  0.00     0.017 A 
HETATM   19  C33 UNL     1      -3.007   3.669  12.119  1.00  0.00     0.004 A 
HETATM   20  H21 UNL     1      -2.843   6.655  13.224  1.00  0.00     0.166 HD
ENDROOT
BRANCH  15  21
HETATM   21  C20 UNL     1      -0.053   6.180  12.401  1.00  0.00     0.051 C 
HETATM   22  C21 UNL     1      -0.085   6.439  13.898  1.00  0.00    -0.014 C 
HETATM   23  C22 UNL     1      -0.378   7.621  14.464  1.00  0.00    -0.087 C 
HETATM   24  C23 UNL     1      -0.475   7.799  15.951  1.00  0.00     0.043 C 
HETATM   25  C24 UNL     1      -0.645   8.834  13.625  1.00  0.00     0.034 C 
HETATM   26  C25 UNL     1      -0.033   8.729  12.230  1.00  0.00     0.010 C 
HETATM   27  C26 UNL     1      -0.411   7.420  11.499  1.00  0.00     0.001 C 
BRANCH  27  28
HETATM   28  C27 UNL     1       0.268   7.368  10.082  1.00  0.00    -0.018 C 
HETATM   29  C28 UNL     1       1.803   7.352  10.169  1.00  0.00     0.010 C 
HETATM   30  C29 UNL     1      -0.135   8.532   9.172  1.00  0.00     0.010 C 
ENDBRANCH  27  28
ENDBRANCH  15  21
BRANCH  16  31
HETATM   31  O2  UNL     1       1.030   3.806  11.123  1.00  0.00    -0.360 OA
HETATM   32  H39 UNL     1       1.240   3.003  10.623  1.00  0.00     0.217 HD
ENDBRANCH  16  31
BRANCH   1  33
HETATM   33  C6  UNL     1      -9.189   7.502  14.099  1.00  0.00     0.046 C 
BRANCH  33  34
HETATM   34  C5  UNL     1     -10.188   6.707  13.248  1.00  0.00     0.030 C 
BRANCH  34  35
HETATM   35  C4  UNL     1     -11.445   7.429  12.855  1.00  0.00    -0.025 C 
HETATM   36  C2  UNL     1     -12.685   7.221  13.337  1.00  0.00    -0.091 C 
HETATM   37  C1  UNL     1     -13.846   8.056  12.865  1.00  0.00     0.042 C 
HETATM   38  C3  UNL     1     -13.046   6.173  14.352  1.00  0.00     0.042 C 
ENDBRANCH  34  35
ENDBRANCH  33  34
ENDBRANCH   1  33
TORSDOF 6
ENDMDL
MODEL 2
REMARK minimizedAffinity -10.6788063
REMARK  6 active torsions:
REMARK  status: ('A' for Active; 'I' for Inactive)
REMARK    1  A    between atoms: C4_4  and  C5_5 
REMARK    2  A    between atoms: C5_5  and  C6_6 
REMARK    3  A    between atoms: C6_6  and  C7_7 
REMARK    4  A    between atoms: C19_21  and  C20_22 
REMARK    5  A    between atoms: C26_28  and  C27_29 
REMARK    6  A    between atoms: C30_32  and  O2_33 
ROOT
HETATM    1  C7  UNL     1      -7.850   7.238  14.969  1.00  0.00     0.082 C 
HETATM    2  C8  UNL     1      -7.957   7.003  16.482  1.00  0.00     0.051 C 
HETATM    3  C9  UNL     1      -6.645   8.113  14.683  1.00  0.00     0.012 C 
HETATM    4  C10 UNL     1      -5.536   7.680  14.076  1.00  0.00     0.015 C 
HETATM    5  C11 UNL     1      -5.492   6.286  13.686  1.00  0.00     0.025 A 
HETATM    6  C12 UNL     1      -6.606   5.457  13.851  1.00  0.00     0.088 A 
HETATM    7  O1  UNL     1      -7.785   5.913  14.376  1.00  0.00    -0.335 OA
HETATM    8  C13 UNL     1      -6.571   4.110  13.462  1.00  0.00    -0.027 A 
HETATM    9  C14 UNL     1      -7.778   3.232  13.630  1.00  0.00     0.051 C 
HETATM   10  C15 UNL     1      -5.393   3.580  12.906  1.00  0.00     0.024 A 
HETATM   11  C16 UNL     1      -4.255   4.397  12.739  1.00  0.00     0.005 A 
HETATM   12  C17 UNL     1      -4.327   5.734  13.126  1.00  0.00     0.057 A 
HETATM   13  N1  UNL     1      -3.100   6.287  12.845  1.00  0.00    -0.354 N 
HETATM   14  C18 UNL     1      -2.228   5.362  12.309  1.00  0.00     0.053 A 
HETATM   15  C19 UNL     1      -0.875   5.509  11.905  1.00  0.00     0.011 A 
HETATM   16  C30 UNL     1      -0.297   4.348  11.346  1.00  0.00     0.074 A 
HETATM   17  C31 UNL     1      -0.979   3.135  11.249  1.00  0.00     0.038 A 
HETATM   18  C32 UNL     1      -2.298   3.031  11.691  1.00  0.00     0.017 A 
HETATM   19  C33 UNL     1      -2.939   4.165  12.223  1.00  0.00     0.004 A 
HETATM   20  H21 UNL     1      -2.864   7.251  13.020  1.00  0.00     0.166 HD
ENDROOT
BRANCH  15  21
HETATM   21  C20 UNL     1      -0.131   6.844  11.996  1.00  0.00     0.051 C 
HETATM   22  C21 UNL     1      -0.055   7.446  10.603  1.00  0.00    -0.014 C 
HETATM   23  C22 UNL     1       1.061   7.935  10.040  1.00  0.00    -0.087 C 
HETATM   24  C23 UNL     1       1.095   8.443   8.629  1.00  0.00     0.043 C 
HETATM   25  C24 UNL     1       2.353   7.979  10.799  1.00  0.00     0.034 C 
HETATM   26  C25 UNL     1       2.145   7.958  12.313  1.00  0.00     0.010 C 
HETATM   27  C26 UNL     1       1.231   6.804  12.784  1.00  0.00     0.001 C 
BRANCH  27  28
HETATM   28  C27 UNL     1       1.043   6.856  14.344  1.00  0.00    -0.018 C 
HETATM   29  C28 UNL     1      -0.170   7.704  14.760  1.00  0.00     0.010 C 
HETATM   30  C29 UNL     1       2.268   7.400  15.086  1.00  0.00     0.010 C 
ENDBRANCH  27  28
ENDBRANCH  15  21
BRANCH  16  31
HETATM   31  O2  UNL     1       0.982   4.414  10.857  1.00  0.00    -0.360 OA
HETATM   32  H39 UNL     1       1.198   3.577  10.419  1.00  0.00     0.217 HD
ENDBRANCH  16  31
BRANCH   1  33
HETATM   33  C6  UNL     1      -9.152   7.847  14.384  1.00  0.00     0.046 C 
BRANCH  33  34
HETATM   34  C5  UNL     1     -10.184   6.916  13.732  1.00  0.00     0.030 C 
BRANCH  34  35
HETATM   35  C4  UNL     1     -11.418   7.574  13.186  1.00  0.00    -0.025 C 
HETATM   36  C2  UNL     1     -12.697   7.239  13.441  1.00  0.00    -0.091 C 
HETATM   37  C1  UNL     1     -13.835   8.022  12.841  1.00  0.00     0.042 C 
HETATM   38  C3  UNL     1     -13.125   6.090  14.311  1.00  0.00     0.042 C 
ENDBRANCH  34  35
ENDBRANCH  33  34
ENDBRANCH   1  33
TORSDOF 6
ENDMDL
MODEL 3
REMARK minimizedAffinity -10.5773439
REMARK  6 active torsions:
REMARK  status: ('A' for Active; 'I' for Inactive)
REMARK    1  A    between atoms: C4_4  and  C5_5 
REMARK    2  A    between atoms: C5_5  and  C6_6 
REMARK    3  A    between atoms: C6_6  and  C7_7 
REMARK    4  A    between atoms: C19_21  and  C20_22 
REMARK    5  A    between atoms: C26_28  and  C27_29 
REMARK    6  A    between atoms: C30_32  and  O2_33 
ROOT
HETATM    1  C7  UNL     1      -7.949   6.418  14.557  1.00  0.00     0.082 C 
HETATM    2  C8  UNL     1      -8.208   6.040  16.021  1.00  0.00     0.051 C 
HETATM    3  C9  UNL     1      -6.715   7.294  14.478  1.00  0.00     0.012 C 
HETATM    4  C10 UNL     1      -5.555   6.902  13.942  1.00  0.00     0.015 C 
HETATM    5  C11 UNL     1      -5.485   5.552  13.422  1.00  0.00     0.025 A 
HETATM    6  C12 UNL     1      -6.617   4.732  13.395  1.00  0.00     0.088 A 
HETATM    7  O1  UNL     1      -7.838   5.157  13.845  1.00  0.00    -0.335 OA
HETATM    8  C13 UNL     1      -6.556   3.429  12.880  1.00  0.00    -0.027 A 
HETATM    9  C14 UNL     1      -7.782   2.561  12.842  1.00  0.00     0.051 C 
HETATM   10  C15 UNL     1      -5.334   2.933  12.392  1.00  0.00     0.024 A 
HETATM   11  C16 UNL     1      -4.178   3.742  12.418  1.00  0.00     0.005 A 
HETATM   12  C17 UNL     1      -4.275   5.035  12.927  1.00  0.00     0.057 A 
HETATM   13  N1  UNL     1      -3.021   5.590  12.823  1.00  0.00    -0.354 N 
HETATM   14  C18 UNL     1      -2.109   4.705  12.286  1.00  0.00     0.053 A 
HETATM   15  C19 UNL     1      -0.722   4.865  12.033  1.00  0.00     0.011 A 
HETATM   16  C30 UNL     1      -0.102   3.754  11.420  1.00  0.00     0.074 A 
HETATM   17  C31 UNL     1      -0.782   2.569  11.138  1.00  0.00     0.038 A 
HETATM   18  C32 UNL     1      -2.138   2.447  11.437  1.00  0.00     0.017 A 
HETATM   19  C33 UNL     1      -2.819   3.536  12.013  1.00  0.00     0.004 A 
HETATM   20  H21 UNL     1      -2.795   6.528  13.115  1.00  0.00     0.166 HD
ENDROOT
BRANCH  15  21
HETATM   21  C20 UNL     1       0.022   6.171  12.327  1.00  0.00     0.051 C 
HETATM   22  C21 UNL     1      -0.023   6.421  13.826  1.00  0.00    -0.014 C 
HETATM   23  C22 UNL     1      -0.368   7.585  14.397  1.00  0.00    -0.087 C 
HETATM   24  C23 UNL     1      -0.474   7.750  15.885  1.00  0.00     0.043 C 
HETATM   25  C24 UNL     1      -0.689   8.789  13.564  1.00  0.00     0.034 C 
HETATM   26  C25 UNL     1      -0.072   8.719  12.169  1.00  0.00     0.010 C 
HETATM   27  C26 UNL     1      -0.391   7.398  11.431  1.00  0.00     0.001 C 
BRANCH  27  28
HETATM   28  C27 UNL     1       0.291   7.383  10.014  1.00  0.00    -0.018 C 
HETATM   29  C28 UNL     1       1.826   7.361  10.103  1.00  0.00     0.010 C 
HETATM   30  C29 UNL     1      -0.107   8.574   9.136  1.00  0.00     0.010 C 
ENDBRANCH  27  28
ENDBRANCH  15  21
BRANCH  16  31
HETATM   31  O2  UNL     1       1.220   3.843  11.068  1.00  0.00    -0.360 OA
HETATM   32  H39 UNL     1       1.471   3.049  10.572  1.00  0.00     0.217 HD
ENDBRANCH  16  31
BRANCH   1  33
HETATM   33  C6  UNL     1      -9.182   7.107  13.910  1.00  0.00     0.046 C 
BRANCH  33  34
HETATM   34  C5  UNL     1     -10.104   7.961  14.791  1.00  0.00     0.030 C 
BRANCH  34  35
HETATM   35  C4  UNL     1      -9.635   9.358  15.080  1.00  0.00    -0.025 C 
HETATM   36  C2  UNL     1     -10.307  10.503  14.855  1.00  0.00    -0.091 C 
HETATM   37  C1  UNL     1      -9.712  11.834  15.233  1.00  0.00     0.042 C 
HETATM   38  C3  UNL     1     -11.667  10.589  14.219  1.00  0.00     0.042 C 
ENDBRANCH  34  35
ENDBRANCH  33  34
ENDBRANCH   1  33
TORSDOF 6
ENDMDL
MODEL 4
REMARK minimizedAffinity -9.86082458
REMARK  6 active torsions:
REMARK  status: ('A' for Active; 'I' for Inactive)
REMARK    1  A    between atoms: C4_4  and  C5_5 
REMARK    2  A    between atoms: C5_5  and  C6_6 
REMARK    3  A    between atoms: C6_6  and  C7_7 
REMARK    4  A    between atoms: C19_21  and  C20_22 
REMARK    5  A    between atoms: C26_28  and  C27_29 
REMARK    6  A    between atoms: C30_32  and  O2_33 
ROOT
HETATM    1  C7  UNL     1       1.431   9.758  15.671  1.00  0.00     0.082 C 
HETATM    2  C8  UNL     1       1.446  11.154  15.034  1.00  0.00     0.051 C 
HETATM    3  C9  UNL     1       0.011   9.407  16.070  1.00  0.00     0.012 C 
HETATM    4  C10 UNL     1      -0.724   8.469  15.465  1.00  0.00     0.015 C 
HETATM    5  C11 UNL     1      -0.119   7.763  14.355  1.00  0.00     0.025 A 
HETATM    6  C12 UNL     1       1.214   7.989  13.999  1.00  0.00     0.088 A 
HETATM    7  O1  UNL     1       2.011   8.872  14.677  1.00  0.00    -0.335 OA
HETATM    8  C13 UNL     1       1.807   7.298  12.933  1.00  0.00    -0.027 A 
HETATM    9  C14 UNL     1       3.244   7.538  12.568  1.00  0.00     0.051 C 
HETATM   10  C15 UNL     1       1.046   6.370  12.201  1.00  0.00     0.024 A 
HETATM   11  C16 UNL     1      -0.304   6.133  12.538  1.00  0.00     0.005 A 
HETATM   12  C17 UNL     1      -0.859   6.829  13.610  1.00  0.00     0.057 A 
HETATM   13  N1  UNL     1      -2.161   6.402  13.719  1.00  0.00    -0.354 N 
HETATM   14  C18 UNL     1      -2.482   5.472  12.751  1.00  0.00     0.053 A 
HETATM   15  C19 UNL     1      -3.708   4.803  12.497  1.00  0.00     0.011 A 
HETATM   16  C30 UNL     1      -3.661   3.866  11.442  1.00  0.00     0.074 A 
HETATM   17  C31 UNL     1      -2.518   3.652  10.671  1.00  0.00     0.038 A 
HETATM   18  C32 UNL     1      -1.346   4.359  10.937  1.00  0.00     0.017 A 
HETATM   19  C33 UNL     1      -1.321   5.279  12.002  1.00  0.00     0.004 A 
HETATM   20  H21 UNL     1      -2.807   6.737  14.417  1.00  0.00     0.166 HD
ENDROOT
BRANCH  15  21
HETATM   21  C20 UNL     1      -4.957   5.025  13.353  1.00  0.00     0.051 C 
HETATM   22  C21 UNL     1      -5.823   3.779  13.271  1.00  0.00    -0.014 C 
HETATM   23  C22 UNL     1      -7.141   3.779  13.019  1.00  0.00    -0.087 C 
HETATM   24  C23 UNL     1      -7.932   2.513  12.866  1.00  0.00     0.043 C 
HETATM   25  C24 UNL     1      -7.897   5.063  12.855  1.00  0.00     0.034 C 
HETATM   26  C25 UNL     1      -7.195   6.246  13.521  1.00  0.00     0.010 C 
HETATM   27  C26 UNL     1      -5.712   6.384  13.104  1.00  0.00     0.001 C 
BRANCH  27  28
HETATM   28  C27 UNL     1      -5.048   7.603  13.841  1.00  0.00    -0.018 C 
HETATM   29  C28 UNL     1      -6.049   8.377  14.713  1.00  0.00     0.010 C 
HETATM   30  C29 UNL     1      -4.390   8.605  12.887  1.00  0.00     0.010 C 
ENDBRANCH  27  28
ENDBRANCH  15  21
BRANCH  16  31
HETATM   31  O2  UNL     1      -4.776   3.116  11.171  1.00  0.00    -0.360 OA
HETATM   32  H39 UNL     1      -4.558   2.455  10.497  1.00  0.00     0.217 HD
ENDBRANCH  16  31
BRANCH   1  33
HETATM   33  C6  UNL     1       2.405   9.660  16.875  1.00  0.00     0.046 C 
BRANCH  33  34
HETATM   34  C5  UNL     1       2.480  10.827  17.870  1.00  0.00     0.030 C 
BRANCH  34  35
HETATM   35  C4  UNL     1       2.740  10.460  19.302  1.00  0.00    -0.025 C 
HETATM   36  C2  UNL     1       1.864  10.509  20.325  1.00  0.00    -0.091 C 
HETATM   37  C1  UNL     1       2.267  10.073  21.708  1.00  0.00     0.042 C 
HETATM   38  C3  UNL     1       0.444  10.993  20.215  1.00  0.00     0.042 C 
ENDBRANCH  34  35
ENDBRANCH  33  34
ENDBRANCH   1  33
TORSDOF 6
ENDMDL
MODEL 5
REMARK minimizedAffinity -9.83961105
REMARK  6 active torsions:
REMARK  status: ('A' for Active; 'I' for Inactive)
REMARK    1  A    between atoms: C4_4  and  C5_5 
REMARK    2  A    between atoms: C5_5  and  C6_6 
REMARK    3  A    between atoms: C6_6  and  C7_7 
REMARK    4  A    between atoms: C19_21  and  C20_22 
REMARK    5  A    between atoms: C26_28  and  C27_29 
REMARK    6  A    between atoms: C30_32  and  O2_33 
ROOT
HETATM    1  C7  UNL     1       2.902   7.968  12.238  1.00  0.00     0.082 C 
HETATM    2  C8  UNL     1       3.988   7.511  13.221  1.00  0.00     0.051 C 
HETATM    3  C9  UNL     1       2.070   6.772  11.821  1.00  0.00     0.012 C 
HETATM    4  C10 UNL     1       0.798   6.584  12.187  1.00  0.00     0.015 C 
HETATM    5  C11 UNL     1       0.197   7.585  13.043  1.00  0.00     0.025 A 
HETATM    6  C12 UNL     1       0.893   8.748  13.389  1.00  0.00     0.088 A 
HETATM    7  O1  UNL     1       2.160   9.003  12.936  1.00  0.00    -0.335 OA
HETATM    8  C13 UNL     1       0.310   9.726  14.207  1.00  0.00    -0.027 A 
HETATM    9  C14 UNL     1       1.060  10.978  14.560  1.00  0.00     0.051 C 
HETATM   10  C15 UNL     1      -0.993   9.530  14.698  1.00  0.00     0.024 A 
HETATM   11  C16 UNL     1      -1.710   8.360  14.368  1.00  0.00     0.005 A 
HETATM   12  C17 UNL     1      -1.104   7.413  13.545  1.00  0.00     0.057 A 
HETATM   13  N1  UNL     1      -2.017   6.398  13.382  1.00  0.00    -0.354 N 
HETATM   14  C18 UNL     1      -3.182   6.636  14.081  1.00  0.00     0.053 A 
HETATM   15  C19 UNL     1      -4.354   5.843  14.202  1.00  0.00     0.011 A 
HETATM   16  C30 UNL     1      -5.386   6.428  14.967  1.00  0.00     0.074 A 
HETATM   17  C31 UNL     1      -5.249   7.661  15.604  1.00  0.00     0.038 A 
HETATM   18  C32 UNL     1      -4.065   8.388  15.485  1.00  0.00     0.017 A 
HETATM   19  C33 UNL     1      -3.015   7.873  14.702  1.00  0.00     0.004 A 
HETATM   20  H21 UNL     1      -1.849   5.573  12.827  1.00  0.00     0.166 HD
ENDROOT
BRANCH  15  21
HETATM   21  C20 UNL     1      -4.511   4.497  13.489  1.00  0.00     0.051 C 
HETATM   22  C21 UNL     1      -3.131   4.005  13.084  1.00  0.00    -0.014 C 
HETATM   23  C22 UNL     1      -2.809   3.551  11.862  1.00  0.00    -0.087 C 
HETATM   24  C23 UNL     1      -1.410   3.155  11.494  1.00  0.00     0.043 C 
HETATM   25  C24 UNL     1      -3.844   3.433  10.784  1.00  0.00     0.034 C 
HETATM   26  C25 UNL     1      -5.264   3.337  11.342  1.00  0.00     0.010 C 
HETATM   27  C26 UNL     1      -5.597   4.460  12.350  1.00  0.00     0.001 C 
BRANCH  27  28
HETATM   28  C27 UNL     1      -7.060   4.288  12.899  1.00  0.00    -0.018 C 
HETATM   29  C28 UNL     1      -7.497   2.815  12.948  1.00  0.00     0.010 C 
HETATM   30  C29 UNL     1      -8.107   5.057  12.088  1.00  0.00     0.010 C 
ENDBRANCH  27  28
ENDBRANCH  15  21
BRANCH  16  31
HETATM   31  O2  UNL     1      -6.584   5.770  15.077  1.00  0.00    -0.360 OA
HETATM   32  H39 UNL     1      -7.217   6.339  15.542  1.00  0.00     0.217 HD
ENDBRANCH  16  31
BRANCH   1  33
HETATM   33  C6  UNL     1       3.505   8.702  11.010  1.00  0.00     0.046 C 
BRANCH  33  34
HETATM   34  C5  UNL     1       3.940   7.879   9.789  1.00  0.00     0.030 C 
BRANCH  34  35
HETATM   35  C4  UNL     1       3.077   8.002   8.567  1.00  0.00    -0.025 C 
HETATM   36  C2  UNL     1       2.589   6.999   7.813  1.00  0.00    -0.091 C 
HETATM   37  C1  UNL     1       1.703   7.284   6.628  1.00  0.00     0.042 C 
HETATM   38  C3  UNL     1       2.863   5.539   8.046  1.00  0.00     0.042 C 
ENDBRANCH  34  35
ENDBRANCH  33  34
ENDBRANCH   1  33
TORSDOF 6
ENDMDL
MODEL 6
REMARK minimizedAffinity -9.79943752
REMARK  6 active torsions:
REMARK  status: ('A' for Active; 'I' for Inactive)
REMARK    1  A    between atoms: C4_4  and  C5_5 
REMARK    2  A    between atoms: C5_5  and  C6_6 
REMARK    3  A    between atoms: C6_6  and  C7_7 
REMARK    4  A    between atoms: C19_21  and  C20_22 
REMARK    5  A    between atoms: C26_28  and  C27_29 
REMARK    6  A    between atoms: C30_32  and  O2_33 
ROOT
HETATM    1  C7  UNL     1      -1.000  11.024  18.144  1.00  0.00     0.082 C 
HETATM    2  C8  UNL     1      -1.584  12.398  17.791  1.00  0.00     0.051 C 
HETATM    3  C9  UNL     1      -2.093   9.978  18.054  1.00  0.00     0.012 C 
HETATM    4  C10 UNL     1      -2.144   9.032  17.111  1.00  0.00     0.015 C 
HETATM    5  C11 UNL     1      -1.093   9.028  16.116  1.00  0.00     0.025 A 
HETATM    6  C12 UNL     1      -0.017   9.917  16.201  1.00  0.00     0.088 A 
HETATM    7  O1  UNL     1       0.103  10.823  17.220  1.00  0.00    -0.335 OA
HETATM    8  C13 UNL     1       1.010   9.907  15.246  1.00  0.00    -0.027 A 
HETATM    9  C14 UNL     1       2.168  10.856  15.355  1.00  0.00     0.051 C 
HETATM   10  C15 UNL     1       0.953   8.994  14.178  1.00  0.00     0.024 A 
HETATM   11  C16 UNL     1      -0.128   8.094  14.068  1.00  0.00     0.005 A 
HETATM   12  C17 UNL     1      -1.127   8.124  15.040  1.00  0.00     0.057 A 
HETATM   13  N1  UNL     1      -2.034   7.150  14.696  1.00  0.00    -0.354 N 
HETATM   14  C18 UNL     1      -1.678   6.501  13.531  1.00  0.00     0.053 A 
HETATM   15  C19 UNL     1      -2.339   5.463  12.825  1.00  0.00     0.011 A 
HETATM   16  C30 UNL     1      -1.653   4.997  11.682  1.00  0.00     0.074 A 
HETATM   17  C31 UNL     1      -0.449   5.550  11.245  1.00  0.00     0.038 A 
HETATM   18  C32 UNL     1       0.146   6.593  11.954  1.00  0.00     0.017 A 
HETATM   19  C33 UNL     1      -0.473   7.074  13.124  1.00  0.00     0.004 A 
HETATM   20  H21 UNL     1      -2.866   6.942  15.227  1.00  0.00     0.166 HD
ENDROOT
BRANCH  15  21
HETATM   21  C20 UNL     1      -3.652   4.844  13.313  1.00  0.00     0.051 C 
HETATM   22  C21 UNL     1      -3.764   3.442  12.738  1.00  0.00    -0.014 C 
HETATM   23  C22 UNL     1      -4.852   2.952  12.124  1.00  0.00    -0.087 C 
HETATM   24  C23 UNL     1      -4.878   1.587  11.502  1.00  0.00     0.043 C 
HETATM   25  C24 UNL     1      -6.106   3.764  12.009  1.00  0.00     0.034 C 
HETATM   26  C25 UNL     1      -6.194   4.860  13.070  1.00  0.00     0.010 C 
HETATM   27  C26 UNL     1      -4.929   5.746  13.133  1.00  0.00     0.001 C 
BRANCH  27  28
HETATM   28  C27 UNL     1      -5.078   6.835  14.257  1.00  0.00    -0.018 C 
HETATM   29  C28 UNL     1      -6.108   6.435  15.327  1.00  0.00     0.010 C 
HETATM   30  C29 UNL     1      -5.477   8.213  13.719  1.00  0.00     0.010 C 
ENDBRANCH  27  28
ENDBRANCH  15  21
BRANCH  16  31
HETATM   31  O2  UNL     1      -2.177   3.944  10.977  1.00  0.00    -0.360 OA
HETATM   32  H39 UNL     1      -1.547   3.678  10.290  1.00  0.00     0.217 HD
ENDBRANCH  16  31
BRANCH   1  33
HETATM   33  C6  UNL     1      -0.322  11.026  19.542  1.00  0.00     0.046 C 
BRANCH  33  34
HETATM   34  C5  UNL     1       1.199  10.841  19.632  1.00  0.00     0.030 C 
BRANCH  34  35
HETATM   35  C4  UNL     1       1.867  11.437  20.838  1.00  0.00    -0.025 C 
HETATM   36  C2  UNL     1       2.536  10.779  21.804  1.00  0.00    -0.091 C 
HETATM   37  C1  UNL     1       3.184  11.525  22.940  1.00  0.00     0.042 C 
HETATM   38  C3  UNL     1       2.702   9.285  21.867  1.00  0.00     0.042 C 
ENDBRANCH  34  35
ENDBRANCH  33  34
ENDBRANCH   1  33
TORSDOF 6
ENDMDL
MODEL 7
REMARK minimizedAffinity -9.6912508
REMARK  6 active torsions:
REMARK  status: ('A' for Active; 'I' for Inactive)
REMARK    1  A    between atoms: C4_4  and  C5_5 
REMARK    2  A    between atoms: C5_5  and  C6_6 
REMARK    3  A    between atoms: C6_6  and  C7_7 
REMARK    4  A    between atoms: C19_21  and  C20_22 
REMARK    5  A    between atoms: C26_28  and  C27_29 
REMARK    6  A    between atoms: C30_32  and  O2_33 
ROOT
HETATM    1  C7  UNL     1      -7.315   5.574  14.246  1.00  0.00     0.082 C 
HETATM    2  C8  UNL     1      -7.643   4.761  15.505  1.00  0.00     0.051 C 
HETATM    3  C9  UNL     1      -6.378   6.707  14.612  1.00  0.00     0.012 C 
HETATM    4  C10 UNL     1      -5.095   6.764  14.239  1.00  0.00     0.015 C 
HETATM    5  C11 UNL     1      -4.582   5.664  13.450  1.00  0.00     0.025 A 
HETATM    6  C12 UNL     1      -5.425   4.636  13.015  1.00  0.00     0.088 A 
HETATM    7  O1  UNL     1      -6.763   4.619  13.301  1.00  0.00    -0.335 OA
HETATM    8  C13 UNL     1      -4.934   3.577  12.239  1.00  0.00    -0.027 A 
HETATM    9  C14 UNL     1      -5.851   2.485  11.764  1.00  0.00     0.051 C 
HETATM   10  C15 UNL     1      -3.570   3.539  11.901  1.00  0.00     0.024 A 
HETATM   11  C16 UNL     1      -2.701   4.562  12.337  1.00  0.00     0.005 A 
HETATM   12  C17 UNL     1      -3.223   5.606  13.097  1.00  0.00     0.057 A 
HETATM   13  N1  UNL     1      -2.173   6.451  13.370  1.00  0.00    -0.354 N 
HETATM   14  C18 UNL     1      -0.988   5.991  12.836  1.00  0.00     0.053 A 
HETATM   15  C19 UNL     1       0.319   6.540  12.903  1.00  0.00     0.011 A 
HETATM   16  C30 UNL     1       1.300   5.819  12.187  1.00  0.00     0.074 A 
HETATM   17  C31 UNL     1       1.022   4.628  11.515  1.00  0.00     0.038 A 
HETATM   18  C32 UNL     1      -0.272   4.109  11.506  1.00  0.00     0.017 A 
HETATM   19  C33 UNL     1      -1.299   4.805  12.170  1.00  0.00     0.004 A 
HETATM   20  H21 UNL     1      -2.259   7.300  13.907  1.00  0.00     0.166 HD
ENDROOT
BRANCH  15  21
HETATM   21  C20 UNL     1       0.621   7.855  13.626  1.00  0.00     0.051 C 
HETATM   22  C21 UNL     1       2.124   7.960  13.823  1.00  0.00    -0.014 C 
HETATM   23  C22 UNL     1       2.724   8.272  14.983  1.00  0.00    -0.087 C 
HETATM   24  C23 UNL     1       4.216   8.281  15.140  1.00  0.00     0.043 C 
HETATM   25  C24 UNL     1       1.920   8.614  16.201  1.00  0.00     0.034 C 
HETATM   26  C25 UNL     1       0.510   9.093  15.858  1.00  0.00     0.010 C 
HETATM   27  C26 UNL     1      -0.244   8.130  14.913  1.00  0.00     0.001 C 
BRANCH  27  28
HETATM   28  C27 UNL     1      -1.675   8.693  14.585  1.00  0.00    -0.018 C 
HETATM   29  C28 UNL     1      -1.621   9.949  13.700  1.00  0.00     0.010 C 
HETATM   30  C29 UNL     1      -2.493   9.037  15.833  1.00  0.00     0.010 C 
ENDBRANCH  27  28
ENDBRANCH  15  21
BRANCH  16  31
HETATM   31  O2  UNL     1       2.577   6.314  12.130  1.00  0.00    -0.360 OA
HETATM   32  H39 UNL     1       3.103   5.768  11.526  1.00  0.00     0.217 HD
ENDBRANCH  16  31
BRANCH   1  33
HETATM   33  C6  UNL     1      -8.598   6.097  13.544  1.00  0.00     0.046 C 
BRANCH  33  34
HETATM   34  C5  UNL     1      -9.513   7.073  14.296  1.00  0.00     0.030 C 
BRANCH  34  35
HETATM   35  C4  UNL     1     -10.927   7.171  13.800  1.00  0.00    -0.025 C 
HETATM   36  C2  UNL     1     -11.664   8.290  13.662  1.00  0.00    -0.091 C 
HETATM   37  C1  UNL     1     -13.065   8.229  13.115  1.00  0.00     0.042 C 
HETATM   38  C3  UNL     1     -11.200   9.672  14.028  1.00  0.00     0.042 C 
ENDBRANCH  34  35
ENDBRANCH  33  34
ENDBRANCH   1  33
TORSDOF 6
ENDMDL
MODEL 8
REMARK minimizedAffinity -9.50337696
REMARK  6 active torsions:
REMARK  status: ('A' for Active; 'I' for Inactive)
REMARK    1  A    between atoms: C4_4  and  C5_5 
REMARK    2  A    between atoms: C5_5  and  C6_6 
REMARK    3  A    between atoms: C6_6  and  C7_7 
REMARK    4  A    between atoms: C19_21  and  C20_22 
REMARK    5  A    between atoms: C26_28  and  C27_29 
REMARK    6  A    between atoms: C30_32  and  O2_33 
ROOT
HETATM    1  C7  UNL     1      -8.111   6.943  14.983  1.00  0.00     0.082 C 
HETATM    2  C8  UNL     1      -8.181   6.682  16.494  1.00  0.00     0.051 C 
HETATM    3  C9  UNL     1      -6.981   7.911  14.695  1.00  0.00     0.012 C 
HETATM    4  C10 UNL     1      -5.850   7.571  14.068  1.00  0.00     0.015 C 
HETATM    5  C11 UNL     1      -5.706   6.190  13.658  1.00  0.00     0.025 A 
HETATM    6  C12 UNL     1      -6.752   5.277  13.825  1.00  0.00     0.088 A 
HETATM    7  O1  UNL     1      -7.955   5.636  14.371  1.00  0.00    -0.335 OA
HETATM    8  C13 UNL     1      -6.620   3.942  13.418  1.00  0.00    -0.027 A 
HETATM    9  C14 UNL     1      -7.755   2.972  13.588  1.00  0.00     0.051 C 
HETATM   10  C15 UNL     1      -5.413   3.509  12.840  1.00  0.00     0.024 A 
HETATM   11  C16 UNL     1      -4.342   4.413  12.671  1.00  0.00     0.005 A 
HETATM   12  C17 UNL     1      -4.510   5.735  13.077  1.00  0.00     0.057 A 
HETATM   13  N1  UNL     1      -3.332   6.383  12.789  1.00  0.00    -0.354 N 
HETATM   14  C18 UNL     1      -2.400   5.534  12.230  1.00  0.00     0.053 A 
HETATM   15  C19 UNL     1      -1.067   5.788  11.811  1.00  0.00     0.011 A 
HETATM   16  C30 UNL     1      -0.411   4.682  11.228  1.00  0.00     0.074 A 
HETATM   17  C31 UNL     1      -1.001   3.422  11.124  1.00  0.00     0.038 A 
HETATM   18  C32 UNL     1      -2.301   3.212  11.581  1.00  0.00     0.017 A 
HETATM   19  C33 UNL     1      -3.019   4.288  12.136  1.00  0.00     0.004 A 
HETATM   20  H21 UNL     1      -3.167   7.360  12.974  1.00  0.00     0.166 HD
ENDROOT
BRANCH  15  21
HETATM   21  C20 UNL     1      -0.426   7.174  11.911  1.00  0.00     0.051 C 
HETATM   22  C21 UNL     1       0.380   7.422  10.646  1.00  0.00    -0.014 C 
HETATM   23  C22 UNL     1       1.645   7.871  10.621  1.00  0.00    -0.087 C 
HETATM   24  C23 UNL     1       2.421   8.019   9.345  1.00  0.00     0.043 C 
HETATM   25  C24 UNL     1       2.362   8.232  11.886  1.00  0.00     0.034 C 
HETATM   26  C25 UNL     1       1.404   8.562  13.030  1.00  0.00     0.010 C 
HETATM   27  C26 UNL     1       0.334   7.469  13.258  1.00  0.00     0.001 C 
BRANCH  27  28
HETATM   28  C27 UNL     1      -0.628   7.882  14.430  1.00  0.00    -0.018 C 
HETATM   29  C28 UNL     1      -0.494   9.367  14.804  1.00  0.00     0.010 C 
HETATM   30  C29 UNL     1      -0.418   7.060  15.706  1.00  0.00     0.010 C 
ENDBRANCH  27  28
ENDBRANCH  15  21
BRANCH  16  31
HETATM   31  O2  UNL     1       0.853   4.850  10.725  1.00  0.00    -0.360 OA
HETATM   32  H39 UNL     1       1.126   4.037  10.273  1.00  0.00     0.217 HD
ENDBRANCH  16  31
BRANCH   1  33
HETATM   33  C6  UNL     1      -9.464   7.460  14.423  1.00  0.00     0.046 C 
BRANCH  33  34
HETATM   34  C5  UNL     1      -9.815   8.947  14.576  1.00  0.00     0.030 C 
BRANCH  34  35
HETATM   35  C4  UNL     1     -10.378   9.360  15.906  1.00  0.00    -0.025 C 
HETATM   36  C2  UNL     1     -10.379  10.597  16.438  1.00  0.00    -0.091 C 
HETATM   37  C1  UNL     1     -11.016  10.861  17.776  1.00  0.00     0.042 C 
HETATM   38  C3  UNL     1      -9.765  11.808  15.792  1.00  0.00     0.042 C 
ENDBRANCH  34  35
ENDBRANCH  33  34
ENDBRANCH   1  33
TORSDOF 6
ENDMDL
MODEL 9
REMARK minimizedAffinity -9.44314384
REMARK  6 active torsions:
REMARK  status: ('A' for Active; 'I' for Inactive)
REMARK    1  A    between atoms: C4_4  and  C5_5 
REMARK    2  A    between atoms: C5_5  and  C6_6 
REMARK    3  A    between atoms: C6_6  and  C7_7 
REMARK    4  A    between atoms: C19_21  and  C20_22 
REMARK    5  A    between atoms: C26_28  and  C27_29 
REMARK    6  A    between atoms: C30_32  and  O2_33 
ROOT
HETATM    1  C7  UNL     1       2.839   9.015  14.086  1.00  0.00     0.082 C 
HETATM    2  C8  UNL     1       2.938  10.337  13.313  1.00  0.00     0.051 C 
HETATM    3  C9  UNL     1       1.484   8.931  14.760  1.00  0.00     0.012 C 
HETATM    4  C10 UNL     1       0.520   8.080  14.393  1.00  0.00     0.015 C 
HETATM    5  C11 UNL     1       0.798   7.202  13.275  1.00  0.00     0.025 A 
HETATM    6  C12 UNL     1       2.060   7.181  12.672  1.00  0.00     0.088 A 
HETATM    7  O1  UNL     1       3.089   7.973  13.105  1.00  0.00    -0.335 OA
HETATM    8  C13 UNL     1       2.336   6.323  11.599  1.00  0.00    -0.027 A 
HETATM    9  C14 UNL     1       3.699   6.298  10.968  1.00  0.00     0.051 C 
HETATM   10  C15 UNL     1       1.325   5.476  11.111  1.00  0.00     0.024 A 
HETATM   11  C16 UNL     1       0.043   5.488  11.699  1.00  0.00     0.005 A 
HETATM   12  C17 UNL     1      -0.195   6.345  12.771  1.00  0.00     0.057 A 
HETATM   13  N1  UNL     1      -1.502   6.144  13.148  1.00  0.00    -0.354 N 
HETATM   14  C18 UNL     1      -2.129   5.206  12.354  1.00  0.00     0.053 A 
HETATM   15  C19 UNL     1      -3.465   4.727  12.386  1.00  0.00     0.011 A 
HETATM   16  C30 UNL     1      -3.753   3.716  11.444  1.00  0.00     0.074 A 
HETATM   17  C31 UNL     1      -2.818   3.261  10.514  1.00  0.00     0.038 A 
HETATM   18  C32 UNL     1      -1.526   3.787  10.498  1.00  0.00     0.017 A 
HETATM   19  C33 UNL     1      -1.170   4.771  11.440  1.00  0.00     0.004 A 
HETATM   20  H21 UNL     1      -1.951   6.632  13.908  1.00  0.00     0.166 HD
ENDROOT
BRANCH  15  21
HETATM   21  C20 UNL     1      -4.487   5.214  13.418  1.00  0.00     0.051 C 
HETATM   22  C21 UNL     1      -5.664   4.252  13.418  1.00  0.00    -0.014 C 
HETATM   23  C22 UNL     1      -6.953   4.620  13.355  1.00  0.00    -0.087 C 
HETATM   24  C23 UNL     1      -8.072   3.624  13.274  1.00  0.00     0.043 C 
HETATM   25  C24 UNL     1      -7.343   6.068  13.341  1.00  0.00     0.034 C 
HETATM   26  C25 UNL     1      -6.265   6.971  13.939  1.00  0.00     0.010 C 
HETATM   27  C26 UNL     1      -4.867   6.738  13.322  1.00  0.00     0.001 C 
BRANCH  27  28
HETATM   28  C27 UNL     1      -3.807   7.682  13.996  1.00  0.00    -0.018 C 
HETATM   29  C28 UNL     1      -3.605   7.365  15.487  1.00  0.00     0.010 C 
HETATM   30  C29 UNL     1      -4.155   9.169  13.879  1.00  0.00     0.010 C 
ENDBRANCH  27  28
ENDBRANCH  15  21
BRANCH  16  31
HETATM   31  O2  UNL     1      -4.996   3.137  11.450  1.00  0.00    -0.360 OA
HETATM   32  H39 UNL     1      -5.006   2.399  10.821  1.00  0.00     0.217 HD
ENDBRANCH  16  31
BRANCH   1  33
HETATM   33  C6  UNL     1       3.997   8.854  15.108  1.00  0.00     0.046 C 
BRANCH  33  34
HETATM   34  C5  UNL     1       4.918   7.630  15.003  1.00  0.00     0.030 C 
BRANCH  34  35
HETATM   35  C4  UNL     1       6.392   7.913  14.961  1.00  0.00    -0.025 C 
HETATM   36  C2  UNL     1       7.226   7.721  13.921  1.00  0.00    -0.091 C 
HETATM   37  C1  UNL     1       8.683   8.088  14.022  1.00  0.00     0.042 C 
HETATM   38  C3  UNL     1       6.823   7.136  12.596  1.00  0.00     0.042 C 
ENDBRANCH  34  35
ENDBRANCH  33  34
ENDBRANCH   1  33
TORSDOF 6
ENDMDL
