MODEL 1
REMARK minimizedAffinity -8.25580025
REMARK CNNscore 0.424257725
REMARK CNNaffinity 6.65771723
REMARK  12 active torsions:
REMARK  status: ('A' for Active; 'I' for Inactive)
REMARK    1  A    between atoms: O1_2  and  C2_3 
REMARK    2  A    between atoms: C3_5  and  C4_6 
REMARK    3  A    between atoms: C4_6  and  O3_7 
REMARK    4  A    between atoms: C4_6  and  C5_8 
REMARK    5  A    between atoms: C5_8  and  O4_10 
REMARK    6  A    between atoms: C5_8  and  C7_11 
REMARK    7  A    between atoms: C7_11  and  O5_12 
REMARK    8  A    between atoms: C9_14  and  C10_15 
REMARK    9  A    between atoms: C23_28  and  O6_29 
REMARK   10  A    between atoms: O6_29  and  C24_30 
REMARK   11  A    between atoms: C24_30  and  C25_32 
REMARK   12  A    between atoms: C34_41  and  O8_42 
ROOT
HETATM    1  C10 UNL     1      -2.270   7.740  13.483  1.00  0.00     0.004 C 
HETATM    2  C11 UNL     1      -0.973   8.362  12.915  1.00  0.00     0.007 C 
HETATM    3  C12 UNL     1      -0.180   8.891  14.115  1.00  0.00     0.011 C 
HETATM    4  C13 UNL     1      -1.251   9.246  15.133  1.00  0.00    -0.021 A 
HETATM    5  C14 UNL     1      -1.609   8.111  16.057  1.00  0.00     0.022 A 
HETATM    6  C15 UNL     1      -2.478   8.401  14.845  1.00  0.00    -0.027 A 
HETATM    7  C16 UNL     1      -3.881   8.861  15.180  1.00  0.00     0.011 C 
HETATM    8  C17 UNL     1      -4.005  10.365  15.431  1.00  0.00     0.007 C 
HETATM    9  C18 UNL     1      -2.840  10.914  16.287  1.00  0.00     0.005 C 
HETATM   10  C19 UNL     1      -3.104  12.336  16.955  1.00  0.00    -0.035 C 
HETATM   11  C20 UNL     1      -3.474  13.410  15.904  1.00  0.00     0.016 C 
HETATM   12  C21 UNL     1      -4.309  12.213  17.941  1.00  0.00     0.012 C 
HETATM   13  C22 UNL     1      -4.494  13.416  18.864  1.00  0.00     0.034 C 
HETATM   14  C23 UNL     1      -3.230  13.751  19.658  1.00  0.00     0.140 C 
HETATM   15  C29 UNL     1      -1.974  13.956  18.754  1.00  0.00    -0.016 C 
HETATM   16  C30 UNL     1      -0.746  14.045  19.703  1.00  0.00     0.018 C 
HETATM   17  C31 UNL     1      -2.028  15.304  18.004  1.00  0.00     0.018 C 
HETATM   18  C32 UNL     1      -1.834  12.700  17.815  1.00  0.00     0.007 C 
HETATM   19  C33 UNL     1      -0.542  12.657  16.965  1.00  0.00     0.038 C 
HETATM   20  C34 UNL     1      -0.293  11.255  16.385  1.00  0.00     0.128 C 
HETATM   21  C35 UNL     1      -1.472  10.750  15.504  1.00  0.00    -0.005 C 
HETATM   22  C36 UNL     1      -1.472  11.566  14.177  1.00  0.00     0.019 C 
ENDROOT
BRANCH   1  23
HETATM   23  C9  UNL     1      -2.354   6.206  13.433  1.00  0.00     0.048 C 
HETATM   24  C2  UNL     1      -3.510   5.545  12.679  1.00  0.00     0.264 C 
HETATM   25  O2  UNL     1      -3.029   4.263  12.221  1.00  0.00    -0.353 OA
HETATM   26  C3  UNL     1      -1.679   4.085  12.709  1.00  0.00     0.157 C 
HETATM   27  C8  UNL     1      -1.146   5.502  12.847  1.00  0.00     0.044 C 
BRANCH  24  28
HETATM   28  O1  UNL     1      -4.613   5.372  13.561  1.00  0.00    -0.366 OA
HETATM   29  C1  UNL     1      -5.778   4.931  12.877  1.00  0.00     0.204 C 
ENDBRANCH  24  28
BRANCH  26  30
HETATM   30  C4  UNL     1      -0.879   3.228  11.710  1.00  0.00     0.183 C 
BRANCH  30  31
HETATM   31  O3  UNL     1      -0.248   4.095  10.754  1.00  0.00    -0.390 OA
HETATM   32  H7  UNL     1      -0.870   4.838  10.626  1.00  0.00     0.210 HD
ENDBRANCH  30  31
BRANCH  30  33
HETATM   33  C5  UNL     1      -1.727   2.143  10.994  1.00  0.00     0.103 C 
HETATM   34  C6  UNL     1      -2.981   1.823  11.826  1.00  0.00     0.051 C 
BRANCH  33  35
HETATM   35  O4  UNL     1      -2.190   2.675   9.735  1.00  0.00    -0.385 OA
HETATM   36  H11 UNL     1      -2.572   1.905   9.267  1.00  0.00     0.210 HD
ENDBRANCH  33  35
BRANCH  33  37
HETATM   37  C7  UNL     1      -0.943   0.853  10.686  1.00  0.00     0.204 C 
BRANCH  37  38
HETATM   38  O5  UNL     1      -0.646   0.808   9.283  1.00  0.00    -0.398 OA
HETATM   39  H14 UNL     1      -0.004   0.083   9.157  1.00  0.00     0.209 HD
ENDBRANCH  37  38
ENDBRANCH  33  37
ENDBRANCH  30  33
ENDBRANCH  26  30
ENDBRANCH   1  23
BRANCH  20  40
HETATM   40  O8  UNL     1      -0.070  10.362  17.483  1.00  0.00    -0.395 OA
HETATM   41  H55 UNL     1       0.723  10.667  17.954  1.00  0.00     0.210 HD
ENDBRANCH  20  40
BRANCH  14  42
HETATM   42  O6  UNL     1      -3.465  14.954  20.420  1.00  0.00    -0.312 OA
BRANCH  42  43
HETATM   43  C24 UNL     1      -4.710  15.478  20.357  1.00  0.00     0.283 C 
HETATM   44  O7  UNL     1      -5.337  15.746  19.344  1.00  0.00    -0.260 OA
BRANCH  43  45
HETATM   45  C25 UNL     1      -5.302  15.618  21.705  1.00  0.00     0.084 C 
HETATM   46  C26 UNL     1      -5.938  14.685  22.442  1.00  0.00    -0.082 C 
HETATM   47  C27 UNL     1      -6.130  13.242  22.060  1.00  0.00     0.043 C 
HETATM   48  C28 UNL     1      -6.507  15.048  23.790  1.00  0.00     0.043 C 
ENDBRANCH  43  45
ENDBRANCH  42  43
ENDBRANCH  14  42
TORSDOF 12
ENDMDL
MODEL 2
REMARK minimizedAffinity -7.72530222
REMARK CNNscore 0.30095011
REMARK CNNaffinity 6.05053282
REMARK  12 active torsions:
REMARK  status: ('A' for Active; 'I' for Inactive)
REMARK    1  A    between atoms: O1_2  and  C2_3 
REMARK    2  A    between atoms: C3_5  and  C4_6 
REMARK    3  A    between atoms: C4_6  and  O3_7 
REMARK    4  A    between atoms: C4_6  and  C5_8 
REMARK    5  A    between atoms: C5_8  and  O4_10 
REMARK    6  A    between atoms: C5_8  and  C7_11 
REMARK    7  A    between atoms: C7_11  and  O5_12 
REMARK    8  A    between atoms: C9_14  and  C10_15 
REMARK    9  A    between atoms: C23_28  and  O6_29 
REMARK   10  A    between atoms: O6_29  and  C24_30 
REMARK   11  A    between atoms: C24_30  and  C25_32 
REMARK   12  A    between atoms: C34_41  and  O8_42 
ROOT
HETATM    1  C10 UNL     1      -3.708  10.295  15.871  1.00  0.00     0.004 C 
HETATM    2  C11 UNL     1      -3.638  11.539  14.954  1.00  0.00     0.007 C 
HETATM    3  C12 UNL     1      -2.155  11.783  14.661  1.00  0.00     0.011 C 
HETATM    4  C13 UNL     1      -1.446  11.248  15.894  1.00  0.00    -0.021 A 
HETATM    5  C14 UNL     1      -1.074   9.791  15.796  1.00  0.00     0.022 A 
HETATM    6  C15 UNL     1      -2.336  10.200  16.536  1.00  0.00    -0.027 A 
HETATM    7  C16 UNL     1      -2.310   9.908  18.021  1.00  0.00     0.011 C 
HETATM    8  C17 UNL     1      -1.651  11.001  18.865  1.00  0.00     0.007 C 
HETATM    9  C18 UNL     1      -0.359  11.545  18.211  1.00  0.00     0.005 C 
HETATM   10  C19 UNL     1       0.609  12.346  19.192  1.00  0.00    -0.035 C 
HETATM   11  C20 UNL     1      -0.115  13.527  19.883  1.00  0.00     0.016 C 
HETATM   12  C21 UNL     1       1.099  11.378  20.315  1.00  0.00     0.012 C 
HETATM   13  C22 UNL     1       2.252  11.921  21.157  1.00  0.00     0.034 C 
HETATM   14  C23 UNL     1       3.450  12.352  20.309  1.00  0.00     0.140 C 
HETATM   15  C29 UNL     1       3.074  13.374  19.191  1.00  0.00    -0.016 C 
HETATM   16  C30 UNL     1       4.325  13.524  18.279  1.00  0.00     0.018 C 
HETATM   17  C31 UNL     1       2.803  14.778  19.771  1.00  0.00     0.018 C 
HETATM   18  C32 UNL     1       1.877  12.776  18.361  1.00  0.00     0.007 C 
HETATM   19  C33 UNL     1       1.483  13.584  17.102  1.00  0.00     0.038 C 
HETATM   20  C34 UNL     1       0.597  12.759  16.154  1.00  0.00     0.128 C 
HETATM   21  C35 UNL     1      -0.708  12.255  16.837  1.00  0.00    -0.005 C 
HETATM   22  C36 UNL     1      -1.650  13.478  17.048  1.00  0.00     0.019 C 
ENDROOT
BRANCH   1  23
HETATM   23  C9  UNL     1      -4.258   9.015  15.221  1.00  0.00     0.048 C 
HETATM   24  C2  UNL     1      -3.596   7.672  15.541  1.00  0.00     0.264 C 
HETATM   25  O2  UNL     1      -4.616   6.661  15.396  1.00  0.00    -0.353 OA
HETATM   26  C3  UNL     1      -5.831   7.304  14.944  1.00  0.00     0.157 C 
HETATM   27  C8  UNL     1      -5.721   8.721  15.484  1.00  0.00     0.044 C 
BRANCH  24  28
HETATM   28  O1  UNL     1      -2.534   7.437  14.624  1.00  0.00    -0.366 OA
HETATM   29  C1  UNL     1      -2.000   6.126  14.752  1.00  0.00     0.204 C 
ENDBRANCH  24  28
BRANCH  26  30
HETATM   30  C4  UNL     1      -7.052   6.538  15.488  1.00  0.00     0.183 C 
BRANCH  30  31
HETATM   31  O3  UNL     1      -6.664   5.822  16.671  1.00  0.00    -0.390 OA
HETATM   32  H7  UNL     1      -5.737   5.552  16.519  1.00  0.00     0.210 HD
ENDBRANCH  30  31
BRANCH  30  33
HETATM   33  C5  UNL     1      -7.704   5.582  14.454  1.00  0.00     0.103 C 
HETATM   34  C6  UNL     1      -7.435   4.120  14.847  1.00  0.00     0.051 C 
BRANCH  33  35
HETATM   35  O4  UNL     1      -9.134   5.766  14.492  1.00  0.00    -0.385 OA
HETATM   36  H11 UNL     1      -9.468   5.267  13.718  1.00  0.00     0.210 HD
ENDBRANCH  33  35
BRANCH  33  37
HETATM   37  C7  UNL     1      -7.247   5.841  13.005  1.00  0.00     0.204 C 
BRANCH  37  38
HETATM   38  O5  UNL     1      -7.537   4.684  12.207  1.00  0.00    -0.398 OA
HETATM   39  H14 UNL     1      -7.405   4.947  11.276  1.00  0.00     0.209 HD
ENDBRANCH  37  38
ENDBRANCH  33  37
ENDBRANCH  30  33
ENDBRANCH  26  30
ENDBRANCH   1  23
BRANCH  20  40
HETATM   40  O8  UNL     1       1.374  11.651  15.683  1.00  0.00    -0.395 OA
HETATM   41  H55 UNL     1       2.131  12.012  15.192  1.00  0.00     0.210 HD
ENDBRANCH  20  40
BRANCH  14  42
HETATM   42  O6  UNL     1       4.443  12.943  21.174  1.00  0.00    -0.312 OA
BRANCH  42  43
HETATM   43  C24 UNL     1       5.716  12.514  21.017  1.00  0.00     0.283 C 
HETATM   44  O7  UNL     1       6.086  11.559  20.351  1.00  0.00    -0.260 OA
BRANCH  43  45
HETATM   45  C25 UNL     1       6.673  13.417  21.693  1.00  0.00     0.084 C 
HETATM   46  C26 UNL     1       7.542  13.127  22.683  1.00  0.00    -0.082 C 
HETATM   47  C27 UNL     1       7.772  11.766  23.282  1.00  0.00     0.043 C 
HETATM   48  C28 UNL     1       8.410  14.213  23.265  1.00  0.00     0.043 C 
ENDBRANCH  43  45
ENDBRANCH  42  43
ENDBRANCH  14  42
TORSDOF 12
ENDMDL
MODEL 3
REMARK minimizedAffinity -9.23619843
REMARK CNNscore 0.293560445
REMARK CNNaffinity 6.80397654
REMARK  12 active torsions:
REMARK  status: ('A' for Active; 'I' for Inactive)
REMARK    1  A    between atoms: O1_2  and  C2_3 
REMARK    2  A    between atoms: C3_5  and  C4_6 
REMARK    3  A    between atoms: C4_6  and  O3_7 
REMARK    4  A    between atoms: C4_6  and  C5_8 
REMARK    5  A    between atoms: C5_8  and  O4_10 
REMARK    6  A    between atoms: C5_8  and  C7_11 
REMARK    7  A    between atoms: C7_11  and  O5_12 
REMARK    8  A    between atoms: C9_14  and  C10_15 
REMARK    9  A    between atoms: C23_28  and  O6_29 
REMARK   10  A    between atoms: O6_29  and  C24_30 
REMARK   11  A    between atoms: C24_30  and  C25_32 
REMARK   12  A    between atoms: C34_41  and  O8_42 
ROOT
HETATM    1  C10 UNL     1      -6.572   6.598  14.541  1.00  0.00     0.004 C 
HETATM    2  C11 UNL     1      -6.313   7.412  15.831  1.00  0.00     0.007 C 
HETATM    3  C12 UNL     1      -5.308   8.508  15.461  1.00  0.00     0.011 C 
HETATM    4  C13 UNL     1      -4.498   7.895  14.331  1.00  0.00    -0.021 A 
HETATM    5  C14 UNL     1      -5.069   8.162  12.962  1.00  0.00     0.022 A 
HETATM    6  C15 UNL     1      -5.352   6.839  13.653  1.00  0.00    -0.027 A 
HETATM    7  C16 UNL     1      -4.757   5.633  12.959  1.00  0.00     0.011 C 
HETATM    8  C17 UNL     1      -3.304   5.341  13.342  1.00  0.00     0.007 C 
HETATM    9  C18 UNL     1      -2.449   6.628  13.417  1.00  0.00     0.005 C 
HETATM   10  C19 UNL     1      -0.873   6.394  13.374  1.00  0.00    -0.035 C 
HETATM   11  C20 UNL     1      -0.399   5.436  14.493  1.00  0.00     0.016 C 
HETATM   12  C21 UNL     1      -0.499   5.738  12.007  1.00  0.00     0.012 C 
HETATM   13  C22 UNL     1       0.998   5.721  11.705  1.00  0.00     0.034 C 
HETATM   14  C23 UNL     1       1.632   7.110  11.785  1.00  0.00     0.140 C 
HETATM   15  C29 UNL     1       1.368   7.830  13.144  1.00  0.00    -0.016 C 
HETATM   16  C30 UNL     1       1.857   9.296  12.981  1.00  0.00     0.018 C 
HETATM   17  C31 UNL     1       2.217   7.225  14.282  1.00  0.00     0.018 C 
HETATM   18  C32 UNL     1      -0.183   7.811  13.416  1.00  0.00     0.007 C 
HETATM   19  C33 UNL     1      -0.644   8.631  14.644  1.00  0.00     0.038 C 
HETATM   20  C34 UNL     1      -2.161   8.882  14.621  1.00  0.00     0.128 C 
HETATM   21  C35 UNL     1      -2.989   7.565  14.576  1.00  0.00    -0.005 C 
HETATM   22  C36 UNL     1      -2.879   6.875  15.968  1.00  0.00     0.019 C 
ENDROOT
BRANCH   1  23
HETATM   23  C9  UNL     1      -7.953   6.791  13.894  1.00  0.00     0.048 C 
HETATM   24  C2  UNL     1      -8.738   5.563  13.429  1.00  0.00     0.264 C 
HETATM   25  O2  UNL     1     -10.137   5.909  13.507  1.00  0.00    -0.353 OA
HETATM   26  C3  UNL     1     -10.239   7.290  13.927  1.00  0.00     0.157 C 
HETATM   27  C8  UNL     1      -8.976   7.523  14.739  1.00  0.00     0.044 C 
BRANCH  24  28
HETATM   28  O1  UNL     1      -8.380   5.253  12.087  1.00  0.00    -0.366 OA
HETATM   29  C1  UNL     1      -8.974   6.148  11.157  1.00  0.00     0.204 C 
ENDBRANCH  24  28
BRANCH  26  30
HETATM   30  C4  UNL     1     -11.533   7.487  14.740  1.00  0.00     0.183 C 
BRANCH  30  31
HETATM   31  O3  UNL     1     -12.298   6.272  14.698  1.00  0.00    -0.390 OA
HETATM   32  H7  UNL     1     -12.134   5.892  13.813  1.00  0.00     0.210 HD
ENDBRANCH  30  31
BRANCH  30  33
HETATM   33  C5  UNL     1     -12.389   8.694  14.275  1.00  0.00     0.103 C 
HETATM   34  C6  UNL     1     -12.760   8.535  12.791  1.00  0.00     0.051 C 
BRANCH  33  35
HETATM   35  O4  UNL     1     -13.627   8.694  15.015  1.00  0.00    -0.385 OA
HETATM   36  H11 UNL     1     -14.044   9.555  14.800  1.00  0.00     0.210 HD
ENDBRANCH  33  35
BRANCH  33  37
HETATM   37  C7  UNL     1     -11.712  10.057  14.515  1.00  0.00     0.204 C 
BRANCH  37  38
HETATM   38  O5  UNL     1     -12.154  10.985  13.515  1.00  0.00    -0.398 OA
HETATM   39  H14 UNL     1     -11.852  11.869  13.800  1.00  0.00     0.209 HD
ENDBRANCH  37  38
ENDBRANCH  33  37
ENDBRANCH  30  33
ENDBRANCH  26  30
ENDBRANCH   1  23
BRANCH  20  40
HETATM   40  O8  UNL     1      -2.450   9.694  13.476  1.00  0.00    -0.395 OA
HETATM   41  H55 UNL     1      -1.980  10.537  13.587  1.00  0.00     0.210 HD
ENDBRANCH  20  40
BRANCH  14  42
HETATM   42  O6  UNL     1       3.057   6.983  11.587  1.00  0.00    -0.312 OA
BRANCH  42  43
HETATM   43  C24 UNL     1       3.470   6.673  10.337  1.00  0.00     0.283 C 
HETATM   44  O7  UNL     1       2.895   6.939   9.293  1.00  0.00    -0.260 OA
BRANCH  43  45
HETATM   45  C25 UNL     1       4.800   6.026  10.357  1.00  0.00     0.084 C 
HETATM   46  C26 UNL     1       5.854   6.303  11.151  1.00  0.00    -0.082 C 
HETATM   47  C27 UNL     1       5.877   7.317  12.262  1.00  0.00     0.043 C 
HETATM   48  C28 UNL     1       7.145   5.543  10.981  1.00  0.00     0.043 C 
ENDBRANCH  43  45
ENDBRANCH  42  43
ENDBRANCH  14  42
TORSDOF 12
ENDMDL
MODEL 4
REMARK minimizedAffinity -7.32241631
REMARK CNNscore 0.240857825
REMARK CNNaffinity 5.71342468
REMARK  12 active torsions:
REMARK  status: ('A' for Active; 'I' for Inactive)
REMARK    1  A    between atoms: O1_2  and  C2_3 
REMARK    2  A    between atoms: C3_5  and  C4_6 
REMARK    3  A    between atoms: C4_6  and  O3_7 
REMARK    4  A    between atoms: C4_6  and  C5_8 
REMARK    5  A    between atoms: C5_8  and  O4_10 
REMARK    6  A    between atoms: C5_8  and  C7_11 
REMARK    7  A    between atoms: C7_11  and  O5_12 
REMARK    8  A    between atoms: C9_14  and  C10_15 
REMARK    9  A    between atoms: C23_28  and  O6_29 
REMARK   10  A    between atoms: O6_29  and  C24_30 
REMARK   11  A    between atoms: C24_30  and  C25_32 
REMARK   12  A    between atoms: C34_41  and  O8_42 
ROOT
HETATM    1  C10 UNL     1     -12.990  -7.070  13.791  1.00  0.00     0.004 C 
HETATM    2  C11 UNL     1     -13.448  -7.222  12.320  1.00  0.00     0.007 C 
HETATM    3  C12 UNL     1     -13.420  -5.818  11.708  1.00  0.00     0.011 C 
HETATM    4  C13 UNL     1     -13.693  -4.899  12.886  1.00  0.00    -0.021 A 
HETATM    5  C14 UNL     1     -12.448  -4.449  13.606  1.00  0.00     0.022 A 
HETATM    6  C15 UNL     1     -13.259  -5.610  14.154  1.00  0.00    -0.027 A 
HETATM    7  C16 UNL     1     -13.901  -5.343  15.499  1.00  0.00     0.011 C 
HETATM    8  C17 UNL     1     -15.258  -4.640  15.418  1.00  0.00     0.007 C 
HETATM    9  C18 UNL     1     -15.265  -3.500  14.373  1.00  0.00     0.005 C 
HETATM   10  C19 UNL     1     -16.457  -2.453  14.525  1.00  0.00    -0.035 C 
HETATM   11  C20 UNL     1     -17.842  -3.142  14.493  1.00  0.00     0.016 C 
HETATM   12  C21 UNL     1     -16.323  -1.736  15.906  1.00  0.00     0.012 C 
HETATM   13  C22 UNL     1     -17.219  -0.510  16.069  1.00  0.00     0.034 C 
HETATM   14  C23 UNL     1     -17.024   0.516  14.952  1.00  0.00     0.140 C 
HETATM   15  C29 UNL     1     -17.198  -0.090  13.524  1.00  0.00    -0.016 C 
HETATM   16  C30 UNL     1     -16.737   0.998  12.513  1.00  0.00     0.018 C 
HETATM   17  C31 UNL     1     -18.683  -0.365  13.201  1.00  0.00     0.018 C 
HETATM   18  C32 UNL     1     -16.267  -1.355  13.410  1.00  0.00     0.007 C 
HETATM   19  C33 UNL     1     -16.187  -1.986  12.000  1.00  0.00     0.038 C 
HETATM   20  C34 UNL     1     -14.993  -2.947  11.876  1.00  0.00     0.128 C 
HETATM   21  C35 UNL     1     -15.036  -4.098  12.922  1.00  0.00    -0.005 C 
HETATM   22  C36 UNL     1     -16.179  -5.077  12.521  1.00  0.00     0.019 C 
ENDROOT
BRANCH   1  23
HETATM   23  C9  UNL     1     -11.593  -7.623  14.117  1.00  0.00     0.048 C 
HETATM   24  C2  UNL     1     -11.400  -8.467  15.379  1.00  0.00     0.264 C 
HETATM   25  O2  UNL     1     -10.298  -9.361  15.118  1.00  0.00    -0.353 OA
HETATM   26  C3  UNL     1      -9.774  -9.062  13.802  1.00  0.00     0.157 C 
HETATM   27  C8  UNL     1     -10.968  -8.498  13.049  1.00  0.00     0.044 C 
BRANCH  24  28
HETATM   28  O1  UNL     1     -11.095  -7.613  16.477  1.00  0.00    -0.366 OA
HETATM   29  C1  UNL     1     -10.609  -8.340  17.597  1.00  0.00     0.204 C 
ENDBRANCH  24  28
BRANCH  26  30
HETATM   30  C4  UNL     1      -9.206 -10.347  13.170  1.00  0.00     0.183 C 
BRANCH  30  31
HETATM   31  O3  UNL     1      -9.232 -11.398  14.149  1.00  0.00    -0.390 OA
HETATM   32  H7  UNL     1      -9.060 -10.960  15.005  1.00  0.00     0.210 HD
ENDBRANCH  30  31
BRANCH  30  33
HETATM   33  C5  UNL     1      -7.781 -10.177  12.580  1.00  0.00     0.103 C 
HETATM   34  C6  UNL     1      -7.860  -9.513  11.195  1.00  0.00     0.051 C 
BRANCH  33  35
HETATM   35  O4  UNL     1      -7.034  -9.280  13.428  1.00  0.00    -0.385 OA
HETATM   36  H11 UNL     1      -6.112  -9.342  13.103  1.00  0.00     0.210 HD
ENDBRANCH  33  35
BRANCH  33  37
HETATM   37  C7  UNL     1      -6.988 -11.496  12.499  1.00  0.00     0.204 C 
BRANCH  37  38
HETATM   38  O5  UNL     1      -5.635 -11.209  12.120  1.00  0.00    -0.398 OA
HETATM   39  H14 UNL     1      -5.127 -12.032  12.254  1.00  0.00     0.209 HD
ENDBRANCH  37  38
ENDBRANCH  33  37
ENDBRANCH  30  33
ENDBRANCH  26  30
ENDBRANCH   1  23
BRANCH  20  40
HETATM   40  O8  UNL     1     -13.795  -2.175  12.030  1.00  0.00    -0.395 OA
HETATM   41  H55 UNL     1     -13.769  -1.526  11.308  1.00  0.00     0.210 HD
ENDBRANCH  20  40
BRANCH  14  42
HETATM   42  O6  UNL     1     -17.976   1.586  15.130  1.00  0.00    -0.312 OA
BRANCH  42  43
HETATM   43  C24 UNL     1     -17.500   2.742  15.647  1.00  0.00     0.283 C 
HETATM   44  O7  UNL     1     -17.014   2.898  16.757  1.00  0.00    -0.260 OA
BRANCH  43  45
HETATM   45  C25 UNL     1     -17.548   3.834  14.651  1.00  0.00     0.084 C 
HETATM   46  C26 UNL     1     -16.544   4.630  14.232  1.00  0.00    -0.082 C 
HETATM   47  C27 UNL     1     -15.105   4.529  14.656  1.00  0.00     0.043 C 
HETATM   48  C28 UNL     1     -16.817   5.720  13.227  1.00  0.00     0.043 C 
ENDBRANCH  43  45
ENDBRANCH  42  43
ENDBRANCH  14  42
TORSDOF 12
ENDMDL
MODEL 5
REMARK minimizedAffinity -7.06647301
REMARK CNNscore 0.235365912
REMARK CNNaffinity 5.64300966
REMARK  12 active torsions:
REMARK  status: ('A' for Active; 'I' for Inactive)
REMARK    1  A    between atoms: O1_2  and  C2_3 
REMARK    2  A    between atoms: C3_5  and  C4_6 
REMARK    3  A    between atoms: C4_6  and  O3_7 
REMARK    4  A    between atoms: C4_6  and  C5_8 
REMARK    5  A    between atoms: C5_8  and  O4_10 
REMARK    6  A    between atoms: C5_8  and  C7_11 
REMARK    7  A    between atoms: C7_11  and  O5_12 
REMARK    8  A    between atoms: C9_14  and  C10_15 
REMARK    9  A    between atoms: C23_28  and  O6_29 
REMARK   10  A    between atoms: O6_29  and  C24_30 
REMARK   11  A    between atoms: C24_30  and  C25_32 
REMARK   12  A    between atoms: C34_41  and  O8_42 
ROOT
HETATM    1  C10 UNL     1       5.108  13.891  20.515  1.00  0.00     0.004 C 
HETATM    2  C11 UNL     1       4.300  13.762  21.828  1.00  0.00     0.007 C 
HETATM    3  C12 UNL     1       3.489  12.467  21.716  1.00  0.00     0.011 C 
HETATM    4  C13 UNL     1       3.250  12.313  20.224  1.00  0.00    -0.021 A 
HETATM    5  C14 UNL     1       4.324  11.528  19.516  1.00  0.00     0.022 A 
HETATM    6  C15 UNL     1       4.356  13.046  19.488  1.00  0.00    -0.027 A 
HETATM    7  C16 UNL     1       4.159  13.649  18.113  1.00  0.00     0.011 C 
HETATM    8  C17 UNL     1       2.694  13.830  17.711  1.00  0.00     0.007 C 
HETATM    9  C18 UNL     1       1.826  12.610  18.097  1.00  0.00     0.005 C 
HETATM   10  C19 UNL     1       0.422  12.515  17.349  1.00  0.00    -0.035 C 
HETATM   11  C20 UNL     1      -0.428  13.792  17.549  1.00  0.00     0.016 C 
HETATM   12  C21 UNL     1       0.679  12.361  15.816  1.00  0.00     0.012 C 
HETATM   13  C22 UNL     1      -0.556  11.971  15.006  1.00  0.00     0.034 C 
HETATM   14  C23 UNL     1      -1.229  10.702  15.531  1.00  0.00     0.140 C 
HETATM   15  C29 UNL     1      -1.586  10.779  17.049  1.00  0.00    -0.016 C 
HETATM   16  C30 UNL     1      -2.030   9.353  17.480  1.00  0.00     0.018 C 
HETATM   17  C31 UNL     1      -2.802  11.696  17.301  1.00  0.00     0.018 C 
HETATM   18  C32 UNL     1      -0.288  11.195  17.837  1.00  0.00     0.007 C 
HETATM   19  C33 UNL     1      -0.416  11.158  19.379  1.00  0.00     0.038 C 
HETATM   20  C34 UNL     1       0.960  11.194  20.063  1.00  0.00     0.128 C 
HETATM   21  C35 UNL     1       1.792  12.451  19.675  1.00  0.00    -0.005 C 
HETATM   22  C36 UNL     1       1.147  13.691  20.361  1.00  0.00     0.019 C 
ENDROOT
BRANCH   1  23
HETATM   23  C9  UNL     1       6.622  13.657  20.636  1.00  0.00     0.048 C 
HETATM   24  C2  UNL     1       7.128  12.389  21.329  1.00  0.00     0.264 C 
HETATM   25  O2  UNL     1       8.414  12.083  20.749  1.00  0.00    -0.353 OA
HETATM   26  C3  UNL     1       8.742  13.124  19.798  1.00  0.00     0.157 C 
HETATM   27  C8  UNL     1       7.389  13.634  19.329  1.00  0.00     0.044 C 
BRANCH  24  28
HETATM   28  O1  UNL     1       7.262  12.634  22.724  1.00  0.00    -0.366 OA
HETATM   29  C1  UNL     1       8.440  12.045  23.258  1.00  0.00     0.204 C 
ENDBRANCH  24  28
BRANCH  26  30
HETATM   30  C4  UNL     1       9.598  12.533  18.662  1.00  0.00     0.183 C 
BRANCH  30  31
HETATM   31  O3  UNL     1       9.194  11.173  18.434  1.00  0.00    -0.390 OA
HETATM   32  H7  UNL     1       8.944  10.826  19.313  1.00  0.00     0.210 HD
ENDBRANCH  30  31
BRANCH  30  33
HETATM   33  C5  UNL     1      11.126  12.619  18.919  1.00  0.00     0.103 C 
HETATM   34  C6  UNL     1      11.653  14.001  18.497  1.00  0.00     0.051 C 
BRANCH  33  35
HETATM   35  O4  UNL     1      11.363  12.499  20.337  1.00  0.00    -0.385 OA
HETATM   36  H11 UNL     1      12.334  12.397  20.417  1.00  0.00     0.210 HD
ENDBRANCH  33  35
BRANCH  33  37
HETATM   37  C7  UNL     1      11.930  11.503  18.224  1.00  0.00     0.204 C 
BRANCH  37  38
HETATM   38  O5  UNL     1      11.955  10.346  19.071  1.00  0.00    -0.398 OA
HETATM   39  H14 UNL     1      12.310   9.613  18.531  1.00  0.00     0.209 HD
ENDBRANCH  37  38
ENDBRANCH  33  37
ENDBRANCH  30  33
ENDBRANCH  26  30
ENDBRANCH   1  23
BRANCH  20  40
HETATM   40  O8  UNL     1       1.660   9.998  19.697  1.00  0.00    -0.395 OA
HETATM   41  H55 UNL     1       1.148   9.244  20.032  1.00  0.00     0.210 HD
ENDBRANCH  20  40
BRANCH  14  42
HETATM   42  O6  UNL     1      -2.436  10.469  14.774  1.00  0.00    -0.312 OA
BRANCH  42  43
HETATM   43  C24 UNL     1      -2.297   9.808  13.601  1.00  0.00     0.283 C 
HETATM   44  O7  UNL     1      -1.338   9.855  12.847  1.00  0.00    -0.260 OA
BRANCH  43  45
HETATM   45  C25 UNL     1      -3.445   8.907  13.355  1.00  0.00     0.084 C 
HETATM   46  C26 UNL     1      -4.541   8.720  14.116  1.00  0.00    -0.082 C 
HETATM   47  C27 UNL     1      -4.868   9.459  15.385  1.00  0.00     0.043 C 
HETATM   48  C28 UNL     1      -5.585   7.716  13.700  1.00  0.00     0.043 C 
ENDBRANCH  43  45
ENDBRANCH  42  43
ENDBRANCH  14  42
TORSDOF 12
ENDMDL
MODEL 6
REMARK minimizedAffinity -7.01541948
REMARK CNNscore 0.230873734
REMARK CNNaffinity 5.88352156
REMARK  12 active torsions:
REMARK  status: ('A' for Active; 'I' for Inactive)
REMARK    1  A    between atoms: O1_2  and  C2_3 
REMARK    2  A    between atoms: C3_5  and  C4_6 
REMARK    3  A    between atoms: C4_6  and  O3_7 
REMARK    4  A    between atoms: C4_6  and  C5_8 
REMARK    5  A    between atoms: C5_8  and  O4_10 
REMARK    6  A    between atoms: C5_8  and  C7_11 
REMARK    7  A    between atoms: C7_11  and  O5_12 
REMARK    8  A    between atoms: C9_14  and  C10_15 
REMARK    9  A    between atoms: C23_28  and  O6_29 
REMARK   10  A    between atoms: O6_29  and  C24_30 
REMARK   11  A    between atoms: C24_30  and  C25_32 
REMARK   12  A    between atoms: C34_41  and  O8_42 
ROOT
HETATM    1  C10 UNL     1     -17.960   3.992  14.733  1.00  0.00     0.004 C 
HETATM    2  C11 UNL     1     -18.122   3.613  16.225  1.00  0.00     0.007 C 
HETATM    3  C12 UNL     1     -16.878   2.805  16.607  1.00  0.00     0.011 C 
HETATM    4  C13 UNL     1     -16.466   2.131  15.310  1.00  0.00    -0.021 A 
HETATM    5  C14 UNL     1     -15.503   2.944  14.483  1.00  0.00     0.022 A 
HETATM    6  C15 UNL     1     -16.986   2.966  14.154  1.00  0.00    -0.027 A 
HETATM    7  C16 UNL     1     -17.335   2.368  12.809  1.00  0.00     0.011 C 
HETATM    8  C17 UNL     1     -17.525   0.849  12.828  1.00  0.00     0.007 C 
HETATM    9  C18 UNL     1     -16.449   0.136  13.680  1.00  0.00     0.005 C 
HETATM   10  C19 UNL     1     -16.300  -1.428  13.408  1.00  0.00    -0.035 C 
HETATM   11  C20 UNL     1     -17.640  -2.178  13.600  1.00  0.00     0.016 C 
HETATM   12  C21 UNL     1     -15.852  -1.641  11.928  1.00  0.00     0.012 C 
HETATM   13  C22 UNL     1     -15.392  -3.062  11.607  1.00  0.00     0.034 C 
HETATM   14  C23 UNL     1     -14.283  -3.548  12.541  1.00  0.00     0.140 C 
HETATM   15  C29 UNL     1     -14.658  -3.434  14.052  1.00  0.00    -0.016 C 
HETATM   16  C30 UNL     1     -13.364  -3.730  14.861  1.00  0.00     0.018 C 
HETATM   17  C31 UNL     1     -15.675  -4.518  14.468  1.00  0.00     0.018 C 
HETATM   18  C32 UNL     1     -15.136  -1.960  14.329  1.00  0.00     0.007 C 
HETATM   19  C33 UNL     1     -15.390  -1.621  15.817  1.00  0.00     0.038 C 
HETATM   20  C34 UNL     1     -15.471  -0.103  16.047  1.00  0.00     0.128 C 
HETATM   21  C35 UNL     1     -16.585   0.575  15.197  1.00  0.00    -0.005 C 
HETATM   22  C36 UNL     1     -17.966   0.165  15.789  1.00  0.00     0.019 C 
ENDROOT
BRANCH   1  23
HETATM   23  C9  UNL     1     -17.664   5.473  14.447  1.00  0.00     0.048 C 
HETATM   24  C2  UNL     1     -16.247   6.007  14.669  1.00  0.00     0.264 C 
HETATM   25  O2  UNL     1     -16.071   7.112  13.757  1.00  0.00    -0.353 OA
HETATM   26  C3  UNL     1     -17.316   7.316  13.048  1.00  0.00     0.157 C 
HETATM   27  C8  UNL     1     -17.965   5.941  13.038  1.00  0.00     0.044 C 
BRANCH  24  28
HETATM   28  O1  UNL     1     -16.115   6.452  16.015  1.00  0.00    -0.366 OA
HETATM   29  C1  UNL     1     -14.860   7.076  16.248  1.00  0.00     0.204 C 
ENDBRANCH  24  28
BRANCH  26  30
HETATM   30  C4  UNL     1     -17.022   7.861  11.637  1.00  0.00     0.183 C 
BRANCH  30  31
HETATM   31  O3  UNL     1     -15.744   7.367  11.205  1.00  0.00    -0.390 OA
HETATM   32  H7  UNL     1     -15.197   7.317  12.013  1.00  0.00     0.210 HD
ENDBRANCH  30  31
BRANCH  30  33
HETATM   33  C5  UNL     1     -17.077   9.409  11.539  1.00  0.00     0.103 C 
HETATM   34  C6  UNL     1     -15.719  10.010  11.941  1.00  0.00     0.051 C 
BRANCH  33  35
HETATM   35  O4  UNL     1     -17.303   9.776  10.163  1.00  0.00    -0.385 OA
HETATM   36  H11 UNL     1     -17.489  10.738  10.191  1.00  0.00     0.210 HD
ENDBRANCH  33  35
BRANCH  33  37
HETATM   37  C7  UNL     1     -18.210  10.038  12.373  1.00  0.00     0.204 C 
BRANCH  37  38
HETATM   38  O5  UNL     1     -18.986  10.904  11.533  1.00  0.00    -0.398 OA
HETATM   39  H14 UNL     1     -19.788  11.138  12.039  1.00  0.00     0.209 HD
ENDBRANCH  37  38
ENDBRANCH  33  37
ENDBRANCH  30  33
ENDBRANCH  26  30
ENDBRANCH   1  23
BRANCH  20  40
HETATM   40  O8  UNL     1     -14.190   0.455  15.730  1.00  0.00    -0.395 OA
HETATM   41  H55 UNL     1     -13.542   0.066  16.339  1.00  0.00     0.210 HD
ENDBRANCH  20  40
BRANCH  14  42
HETATM   42  O6  UNL     1     -13.984  -4.926  12.231  1.00  0.00    -0.312 OA
BRANCH  42  43
HETATM   43  C24 UNL     1     -14.706  -5.493  11.236  1.00  0.00     0.283 C 
HETATM   44  O7  UNL     1     -15.649  -6.257  11.366  1.00  0.00    -0.260 OA
BRANCH  43  45
HETATM   45  C25 UNL     1     -14.272  -4.999   9.911  1.00  0.00     0.084 C 
HETATM   46  C26 UNL     1     -14.179  -5.681   8.752  1.00  0.00    -0.082 C 
HETATM   47  C27 UNL     1     -14.572  -7.119   8.543  1.00  0.00     0.043 C 
HETATM   48  C28 UNL     1     -13.672  -4.993   7.511  1.00  0.00     0.043 C 
ENDBRANCH  43  45
ENDBRANCH  42  43
ENDBRANCH  14  42
TORSDOF 12
ENDMDL
MODEL 7
REMARK minimizedAffinity -7.04740906
REMARK CNNscore 0.22614108
REMARK CNNaffinity 5.88935137
REMARK  12 active torsions:
REMARK  status: ('A' for Active; 'I' for Inactive)
REMARK    1  A    between atoms: O1_2  and  C2_3 
REMARK    2  A    between atoms: C3_5  and  C4_6 
REMARK    3  A    between atoms: C4_6  and  O3_7 
REMARK    4  A    between atoms: C4_6  and  C5_8 
REMARK    5  A    between atoms: C5_8  and  O4_10 
REMARK    6  A    between atoms: C5_8  and  C7_11 
REMARK    7  A    between atoms: C7_11  and  O5_12 
REMARK    8  A    between atoms: C9_14  and  C10_15 
REMARK    9  A    between atoms: C23_28  and  O6_29 
REMARK   10  A    between atoms: O6_29  and  C24_30 
REMARK   11  A    between atoms: C24_30  and  C25_32 
REMARK   12  A    between atoms: C34_41  and  O8_42 
ROOT
HETATM    1  C10 UNL     1     -14.790   7.712  24.163  1.00  0.00     0.004 C 
HETATM    2  C11 UNL     1     -15.624   8.127  22.928  1.00  0.00     0.007 C 
HETATM    3  C12 UNL     1     -14.628   8.376  21.791  1.00  0.00     0.011 C 
HETATM    4  C13 UNL     1     -13.366   8.830  22.504  1.00  0.00    -0.021 A 
HETATM    5  C14 UNL     1     -12.438   7.701  22.872  1.00  0.00     0.022 A 
HETATM    6  C15 UNL     1     -13.387   8.267  23.913  1.00  0.00    -0.027 A 
HETATM    7  C16 UNL     1     -12.702   8.952  25.075  1.00  0.00     0.011 C 
HETATM    8  C17 UNL     1     -12.356  10.421  24.823  1.00  0.00     0.007 C 
HETATM    9  C18 UNL     1     -11.782  10.652  23.405  1.00  0.00     0.005 C 
HETATM   10  C19 UNL     1     -11.003  12.028  23.208  1.00  0.00    -0.035 C 
HETATM   11  C20 UNL     1     -11.881  13.248  23.575  1.00  0.00     0.016 C 
HETATM   12  C21 UNL     1      -9.762  12.043  24.156  1.00  0.00     0.012 C 
HETATM   13  C22 UNL     1      -8.765  13.165  23.871  1.00  0.00     0.034 C 
HETATM   14  C23 UNL     1      -8.286  13.174  22.419  1.00  0.00     0.140 C 
HETATM   15  C29 UNL     1      -9.456  13.221  21.386  1.00  0.00    -0.016 C 
HETATM   16  C30 UNL     1      -8.829  12.982  19.984  1.00  0.00     0.018 C 
HETATM   17  C31 UNL     1     -10.105  14.621  21.327  1.00  0.00     0.018 C 
HETATM   18  C32 UNL     1     -10.460  12.058  21.728  1.00  0.00     0.007 C 
HETATM   19  C33 UNL     1     -11.599  11.850  20.702  1.00  0.00     0.038 C 
HETATM   20  C34 UNL     1     -12.289  10.489  20.889  1.00  0.00     0.128 C 
HETATM   21  C35 UNL     1     -12.881  10.305  22.316  1.00  0.00    -0.005 C 
HETATM   22  C36 UNL     1     -14.128  11.230  22.448  1.00  0.00     0.019 C 
ENDROOT
BRANCH   1  23
HETATM   23  C9  UNL     1     -14.891   6.234  24.574  1.00  0.00     0.048 C 
HETATM   24  C2  UNL     1     -15.824   5.305  23.793  1.00  0.00     0.264 C 
HETATM   25  O2  UNL     1     -15.269   3.976  23.896  1.00  0.00    -0.353 OA
HETATM   26  C3  UNL     1     -14.098   4.039  24.744  1.00  0.00     0.157 C 
HETATM   27  C8  UNL     1     -13.588   5.460  24.565  1.00  0.00     0.044 C 
BRANCH  24  28
HETATM   28  O1  UNL     1     -17.123   5.343  24.372  1.00  0.00    -0.366 OA
HETATM   29  C1  UNL     1     -18.142   5.448  23.388  1.00  0.00     0.204 C 
ENDBRANCH  24  28
BRANCH  26  30
HETATM   30  C4  UNL     1     -13.083   2.968  24.301  1.00  0.00     0.183 C 
BRANCH  30  31
HETATM   31  O3  UNL     1     -13.374   2.582  22.947  1.00  0.00    -0.390 OA
HETATM   32  H7  UNL     1     -14.347   2.635  22.866  1.00  0.00     0.210 HD
ENDBRANCH  30  31
BRANCH  30  33
HETATM   33  C5  UNL     1     -13.037   1.726  25.230  1.00  0.00     0.103 C 
HETATM   34  C6  UNL     1     -13.571   2.092  26.625  1.00  0.00     0.051 C 
BRANCH  33  35
HETATM   35  O4  UNL     1     -13.922   0.718  24.698  1.00  0.00    -0.385 OA
HETATM   36  H11 UNL     1     -13.728  -0.085  25.224  1.00  0.00     0.210 HD
ENDBRANCH  33  35
BRANCH  33  37
HETATM   37  C7  UNL     1     -11.636   1.093  25.340  1.00  0.00     0.204 C 
BRANCH  37  38
HETATM   38  O5  UNL     1     -11.355   0.362  24.138  1.00  0.00    -0.398 OA
HETATM   39  H14 UNL     1     -10.406   0.131  24.168  1.00  0.00     0.209 HD
ENDBRANCH  37  38
ENDBRANCH  33  37
ENDBRANCH  30  33
ENDBRANCH  26  30
ENDBRANCH   1  23
BRANCH  20  40
HETATM   40  O8  UNL     1     -11.321   9.468  20.614  1.00  0.00    -0.395 OA
HETATM   41  H55 UNL     1     -11.042   9.570  19.689  1.00  0.00     0.210 HD
ENDBRANCH  20  40
BRANCH  14  42
HETATM   42  O6  UNL     1      -7.432  14.321  22.217  1.00  0.00    -0.312 OA
BRANCH  42  43
HETATM   43  C24 UNL     1      -6.109  14.075  22.085  1.00  0.00     0.283 C 
HETATM   44  O7  UNL     1      -5.568  13.464  21.177  1.00  0.00    -0.260 OA
BRANCH  43  45
HETATM   45  C25 UNL     1      -5.332  14.732  23.160  1.00  0.00     0.084 C 
HETATM   46  C26 UNL     1      -4.176  15.418  23.059  1.00  0.00    -0.082 C 
HETATM   47  C27 UNL     1      -3.442  15.723  21.781  1.00  0.00     0.043 C 
HETATM   48  C28 UNL     1      -3.523  15.980  24.295  1.00  0.00     0.043 C 
ENDBRANCH  43  45
ENDBRANCH  42  43
ENDBRANCH  14  42
TORSDOF 12
ENDMDL
MODEL 8
REMARK minimizedAffinity -7.21955204
REMARK CNNscore 0.212879196
REMARK CNNaffinity 5.92561579
REMARK  12 active torsions:
REMARK  status: ('A' for Active; 'I' for Inactive)
REMARK    1  A    between atoms: O1_2  and  C2_3 
REMARK    2  A    between atoms: C3_5  and  C4_6 
REMARK    3  A    between atoms: C4_6  and  O3_7 
REMARK    4  A    between atoms: C4_6  and  C5_8 
REMARK    5  A    between atoms: C5_8  and  O4_10 
REMARK    6  A    between atoms: C5_8  and  C7_11 
REMARK    7  A    between atoms: C7_11  and  O5_12 
REMARK    8  A    between atoms: C9_14  and  C10_15 
REMARK    9  A    between atoms: C23_28  and  O6_29 
REMARK   10  A    between atoms: O6_29  and  C24_30 
REMARK   11  A    between atoms: C24_30  and  C25_32 
REMARK   12  A    between atoms: C34_41  and  O8_42 
ROOT
HETATM    1  C10 UNL     1      -7.055 -11.236   5.478  1.00  0.00     0.004 C 
HETATM    2  C11 UNL     1      -6.403 -12.529   4.931  1.00  0.00     0.007 C 
HETATM    3  C12 UNL     1      -5.679 -12.140   3.639  1.00  0.00     0.011 C 
HETATM    4  C13 UNL     1      -6.488 -10.971   3.103  1.00  0.00    -0.021 A 
HETATM    5  C14 UNL     1      -6.014  -9.628   3.599  1.00  0.00     0.022 A 
HETATM    6  C15 UNL     1      -7.194 -10.308   4.272  1.00  0.00    -0.027 A 
HETATM    7  C16 UNL     1      -8.508  -9.572   4.118  1.00  0.00     0.011 C 
HETATM    8  C17 UNL     1      -9.261  -9.896   2.826  1.00  0.00     0.007 C 
HETATM    9  C18 UNL     1      -8.320  -9.960   1.600  1.00  0.00     0.005 C 
HETATM   10  C19 UNL     1      -9.046  -9.855   0.185  1.00  0.00    -0.035 C 
HETATM   11  C20 UNL     1     -10.136 -10.940   0.012  1.00  0.00     0.016 C 
HETATM   12  C21 UNL     1      -9.749  -8.464   0.084  1.00  0.00     0.012 C 
HETATM   13  C22 UNL     1     -10.239  -8.107  -1.319  1.00  0.00     0.034 C 
HETATM   14  C23 UNL     1      -9.129  -8.185  -2.368  1.00  0.00     0.140 C 
HETATM   15  C29 UNL     1      -8.400  -9.565  -2.391  1.00  0.00    -0.016 C 
HETATM   16  C30 UNL     1      -7.165  -9.408  -3.321  1.00  0.00     0.018 C 
HETATM   17  C31 UNL     1      -9.277 -10.661  -3.034  1.00  0.00     0.018 C 
HETATM   18  C32 UNL     1      -7.927  -9.894  -0.925  1.00  0.00     0.007 C 
HETATM   19  C33 UNL     1      -7.037 -11.152  -0.789  1.00  0.00     0.038 C 
HETATM   20  C34 UNL     1      -6.311 -11.189   0.566  1.00  0.00     0.128 C 
HETATM   21  C35 UNL     1      -7.291 -11.154   1.774  1.00  0.00    -0.005 C 
HETATM   22  C36 UNL     1      -8.018 -12.529   1.851  1.00  0.00     0.019 C 
ENDROOT
BRANCH   1  23
HETATM   23  C9  UNL     1      -6.411 -10.645   6.742  1.00  0.00     0.048 C 
HETATM   24  C2  UNL     1      -5.598  -9.353   6.631  1.00  0.00     0.264 C 
HETATM   25  O2  UNL     1      -5.692  -8.692   7.911  1.00  0.00    -0.353 OA
HETATM   26  C3  UNL     1      -6.454  -9.538   8.803  1.00  0.00     0.157 C 
HETATM   27  C8  UNL     1      -7.364 -10.327   7.876  1.00  0.00     0.044 C 
BRANCH  24  28
HETATM   28  O1  UNL     1      -4.243  -9.670   6.336  1.00  0.00    -0.366 OA
HETATM   29  C1  UNL     1      -3.391  -9.458   7.454  1.00  0.00     0.204 C 
ENDBRANCH  24  28
BRANCH  26  30
HETATM   30  C4  UNL     1      -7.222  -8.663   9.812  1.00  0.00     0.183 C 
BRANCH  30  31
HETATM   31  O3  UNL     1      -7.348  -7.336   9.276  1.00  0.00    -0.390 OA
HETATM   32  H7  UNL     1      -6.527  -7.181   8.769  1.00  0.00     0.210 HD
ENDBRANCH  30  31
BRANCH  30  33
HETATM   33  C5  UNL     1      -6.583  -8.628  11.226  1.00  0.00     0.103 C 
HETATM   34  C6  UNL     1      -5.222  -9.344  11.206  1.00  0.00     0.051 C 
BRANCH  33  35
HETATM   35  O4  UNL     1      -6.324  -7.254  11.581  1.00  0.00    -0.385 OA
HETATM   36  H11 UNL     1      -6.080  -7.286  12.530  1.00  0.00     0.210 HD
ENDBRANCH  33  35
BRANCH  33  37
HETATM   37  C7  UNL     1      -7.487  -9.222  12.323  1.00  0.00     0.204 C 
BRANCH  37  38
HETATM   38  O5  UNL     1      -6.826  -9.104  13.591  1.00  0.00    -0.398 OA
HETATM   39  H14 UNL     1      -7.490  -9.320  14.274  1.00  0.00     0.209 HD
ENDBRANCH  37  38
ENDBRANCH  33  37
ENDBRANCH  30  33
ENDBRANCH  26  30
ENDBRANCH   1  23
BRANCH  20  40
HETATM   40  O8  UNL     1      -5.419 -10.069   0.612  1.00  0.00    -0.395 OA
HETATM   41  H55 UNL     1      -4.775 -10.176  -0.107  1.00  0.00     0.210 HD
ENDBRANCH  20  40
BRANCH  14  42
HETATM   42  O6  UNL     1      -9.701  -7.932  -3.669  1.00  0.00    -0.312 OA
BRANCH  42  43
HETATM   43  C24 UNL     1     -10.110  -6.667  -3.917  1.00  0.00     0.283 C 
HETATM   44  O7  UNL     1      -9.761  -5.659  -3.321  1.00  0.00    -0.260 OA
BRANCH  43  45
HETATM   45  C25 UNL     1     -10.997  -6.611  -5.099  1.00  0.00     0.084 C 
HETATM   46  C26 UNL     1     -10.834  -5.906  -6.236  1.00  0.00    -0.082 C 
HETATM   47  C27 UNL     1      -9.646  -5.049  -6.578  1.00  0.00     0.043 C 
HETATM   48  C28 UNL     1     -11.887  -5.960  -7.314  1.00  0.00     0.043 C 
ENDBRANCH  43  45
ENDBRANCH  42  43
ENDBRANCH  14  42
TORSDOF 12
ENDMDL
MODEL 9
REMARK minimizedAffinity -8.21244526
REMARK CNNscore 0.210393414
REMARK CNNaffinity 6.47167826
REMARK  12 active torsions:
REMARK  status: ('A' for Active; 'I' for Inactive)
REMARK    1  A    between atoms: O1_2  and  C2_3 
REMARK    2  A    between atoms: C3_5  and  C4_6 
REMARK    3  A    between atoms: C4_6  and  O3_7 
REMARK    4  A    between atoms: C4_6  and  C5_8 
REMARK    5  A    between atoms: C5_8  and  O4_10 
REMARK    6  A    between atoms: C5_8  and  C7_11 
REMARK    7  A    between atoms: C7_11  and  O5_12 
REMARK    8  A    between atoms: C9_14  and  C10_15 
REMARK    9  A    between atoms: C23_28  and  O6_29 
REMARK   10  A    between atoms: O6_29  and  C24_30 
REMARK   11  A    between atoms: C24_30  and  C25_32 
REMARK   12  A    between atoms: C34_41  and  O8_42 
ROOT
HETATM    1  C10 UNL     1      -6.487 -12.004   1.446  1.00  0.00     0.004 C 
HETATM    2  C11 UNL     1      -6.701 -13.210   0.499  1.00  0.00     0.007 C 
HETATM    3  C12 UNL     1      -6.298 -12.741  -0.903  1.00  0.00     0.011 C 
HETATM    4  C13 UNL     1      -6.593 -11.250  -0.889  1.00  0.00    -0.021 A 
HETATM    5  C14 UNL     1      -5.430 -10.406  -0.433  1.00  0.00     0.022 A 
HETATM    6  C15 UNL     1      -6.532 -10.768   0.549  1.00  0.00    -0.027 A 
HETATM    7  C16 UNL     1      -7.336  -9.586   1.046  1.00  0.00     0.011 C 
HETATM    8  C17 UNL     1      -8.498  -9.188   0.134  1.00  0.00     0.007 C 
HETATM    9  C18 UNL     1      -8.104  -9.217  -1.362  1.00  0.00     0.005 C 
HETATM   10  C19 UNL     1      -9.081  -8.417  -2.333  1.00  0.00    -0.035 C 
HETATM   11  C20 UNL     1     -10.545  -8.904  -2.213  1.00  0.00     0.016 C 
HETATM   12  C21 UNL     1      -9.057  -6.906  -1.937  1.00  0.00     0.012 C 
HETATM   13  C22 UNL     1      -9.716  -5.977  -2.955  1.00  0.00     0.034 C 
HETATM   14  C23 UNL     1      -9.136  -6.136  -4.361  1.00  0.00     0.140 C 
HETATM   15  C29 UNL     1      -9.170  -7.608  -4.878  1.00  0.00    -0.016 C 
HETATM   16  C30 UNL     1      -8.340  -7.644  -6.191  1.00  0.00     0.018 C 
HETATM   17  C31 UNL     1     -10.600  -8.040  -5.269  1.00  0.00     0.018 C 
HETATM   18  C32 UNL     1      -8.493  -8.526  -3.792  1.00  0.00     0.007 C 
HETATM   19  C33 UNL     1      -8.289 -10.000  -4.213  1.00  0.00     0.038 C 
HETATM   20  C34 UNL     1      -7.298 -10.722  -3.285  1.00  0.00     0.128 C 
HETATM   21  C35 UNL     1      -7.743 -10.699  -1.794  1.00  0.00    -0.005 C 
HETATM   22  C36 UNL     1      -8.964 -11.654  -1.636  1.00  0.00     0.019 C 
ENDROOT
BRANCH   1  23
HETATM   23  C9  UNL     1      -5.301 -12.118   2.417  1.00  0.00     0.048 C 
HETATM   24  C2  UNL     1      -3.879 -11.925   1.885  1.00  0.00     0.264 C 
HETATM   25  O2  UNL     1      -3.088 -11.426   2.984  1.00  0.00    -0.353 OA
HETATM   26  C3  UNL     1      -3.930 -11.370   4.159  1.00  0.00     0.157 C 
HETATM   27  C8  UNL     1      -5.330 -11.174   3.602  1.00  0.00     0.044 C 
BRANCH  24  28
HETATM   28  O1  UNL     1      -3.368 -13.174   1.435  1.00  0.00    -0.366 OA
HETATM   29  C1  UNL     1      -2.824 -13.087   0.125  1.00  0.00     0.204 C 
ENDBRANCH  24  28
BRANCH  26  30
HETATM   30  C4  UNL     1      -3.469 -10.215   5.069  1.00  0.00     0.183 C 
BRANCH  30  31
HETATM   31  O3  UNL     1      -2.315  -9.593   4.482  1.00  0.00    -0.390 OA
HETATM   32  H7  UNL     1      -1.824 -10.316   4.044  1.00  0.00     0.210 HD
ENDBRANCH  30  31
BRANCH  30  33
HETATM   33  C5  UNL     1      -3.179 -10.646   6.531  1.00  0.00     0.103 C 
HETATM   34  C6  UNL     1      -3.747 -12.052   6.787  1.00  0.00     0.051 C 
BRANCH  33  35
HETATM   35  O4  UNL     1      -1.751 -10.736   6.711  1.00  0.00    -0.385 OA
HETATM   36  H11 UNL     1      -1.630 -10.848   7.677  1.00  0.00     0.210 HD
ENDBRANCH  33  35
BRANCH  33  37
HETATM   37  C7  UNL     1      -3.712  -9.652   7.582  1.00  0.00     0.204 C 
BRANCH  37  38
HETATM   38  O5  UNL     1      -4.340  -8.551   6.911  1.00  0.00    -0.398 OA
HETATM   39  H14 UNL     1      -4.816  -8.042   7.595  1.00  0.00     0.209 HD
ENDBRANCH  37  38
ENDBRANCH  33  37
ENDBRANCH  30  33
ENDBRANCH  26  30
ENDBRANCH   1  23
BRANCH  20  40
HETATM   40  O8  UNL     1      -6.021 -10.091  -3.436  1.00  0.00    -0.395 OA
HETATM   41  H55 UNL     1      -5.745 -10.203  -4.361  1.00  0.00     0.210 HD
ENDBRANCH  20  40
BRANCH  14  42
HETATM   42  O6  UNL     1      -9.883  -5.299  -5.269  1.00  0.00    -0.312 OA
BRANCH  42  43
HETATM   43  C24 UNL     1     -10.057  -4.009  -4.901  1.00  0.00     0.283 C 
HETATM   44  O7  UNL     1     -11.052  -3.527  -4.383  1.00  0.00    -0.260 OA
BRANCH  43  45
HETATM   45  C25 UNL     1      -8.825  -3.219  -5.118  1.00  0.00     0.084 C 
HETATM   46  C26 UNL     1      -8.700  -1.885  -5.266  1.00  0.00    -0.082 C 
HETATM   47  C27 UNL     1      -9.816  -0.881  -5.175  1.00  0.00     0.043 C 
HETATM   48  C28 UNL     1      -7.343  -1.279  -5.519  1.00  0.00     0.043 C 
ENDBRANCH  43  45
ENDBRANCH  42  43
ENDBRANCH  14  42
TORSDOF 12
ENDMDL
