MODEL 1
REMARK minimizedAffinity -8.3746233
REMARK CNNscore 0.666537404
REMARK CNNaffinity 7.08009768
REMARK  13 active torsions:
REMARK  status: ('A' for Active; 'I' for Inactive)
REMARK    1  A    between atoms: C2_2  and  C3_3 
REMARK    2  A    between atoms: C2_2  and  C4_5 
REMARK    3  A    between atoms: C3_3  and  O1_4 
REMARK    4  A    between atoms: C4_5  and  C5_6 
REMARK    5  A    between atoms: C5_6  and  C6_7 
REMARK    6  A    between atoms: C6_7  and  O2_8 
REMARK    7  A    between atoms: C6_7  and  C7_9 
REMARK    8  A    between atoms: C7_9  and  C9_11 
REMARK    9  A    between atoms: C10_12  and  O3_13 
REMARK   10  A    between atoms: O3_13  and  C11_14 
REMARK   11  A    between atoms: C13_17  and  O5_18 
REMARK   12  A    between atoms: C14_19  and  O6_20 
REMARK   13  A    between atoms: C15_21  and  O7_22 
ROOT
HETATM    1  C9  UNL     1      -6.034   6.984  14.664  1.00  0.00     0.029 C 
HETATM    2  C10 UNL     1      -6.202   6.267  13.256  1.00  0.00     0.130 C 
HETATM    3  C16 UNL     1      -7.718   6.082  13.019  1.00  0.00     0.038 C 
HETATM    4  C17 UNL     1      -8.353   6.927  14.110  1.00  0.00     0.001 C 
HETATM    5  C18 UNL     1      -9.834   6.747  14.433  1.00  0.00    -0.004 C 
HETATM    6  C19 UNL     1     -10.713   6.652  13.183  1.00  0.00     0.010 C 
HETATM    7  C20 UNL     1     -12.165   6.954  13.509  1.00  0.00     0.035 C 
HETATM    8  C21 UNL     1     -12.221   8.410  13.859  1.00  0.00    -0.068 C 
HETATM    9  C22 UNL     1     -12.863   9.268  13.045  1.00  0.00     0.053 C 
HETATM   10  C23 UNL     1     -12.819  10.732  13.264  1.00  0.00     0.149 C 
HETATM   11  O8  UNL     1     -13.537  11.462  12.584  1.00  0.00    -0.293 OA
HETATM   12  C24 UNL     1     -11.905  11.279  14.333  1.00  0.00     0.084 C 
HETATM   13  C25 UNL     1     -10.847  10.267  14.775  1.00  0.00     0.022 C 
HETATM   14  C26 UNL     1     -11.416   8.852  15.079  1.00  0.00    -0.016 C 
HETATM   15  C27 UNL     1     -12.403   8.953  16.275  1.00  0.00     0.020 C 
HETATM   16  C28 UNL     1     -10.283   7.812  15.497  1.00  0.00     0.002 C 
HETATM   17  C29 UNL     1      -9.064   8.481  16.206  1.00  0.00     0.007 C 
HETATM   18  C30 UNL     1      -7.960   7.481  16.557  1.00  0.00     0.010 C 
HETATM   19  C31 UNL     1      -7.437   6.691  15.335  1.00  0.00    -0.034 C 
HETATM   20  C32 UNL     1      -7.421   5.205  15.830  1.00  0.00     0.016 C 
ENDROOT
BRANCH   2  21
HETATM   21  O3  UNL     1      -5.605   4.972  13.299  1.00  0.00    -0.353 OA
BRANCH  21  22
HETATM   22  C11 UNL     1      -4.763   4.683  12.182  1.00  0.00     0.291 C 
HETATM   23  O4  UNL     1      -5.337   3.579  11.468  1.00  0.00    -0.356 OA
HETATM   24  C12 UNL     1      -4.547   3.159  10.355  1.00  0.00     0.205 C 
HETATM   25  C13 UNL     1      -3.199   2.643  10.849  1.00  0.00     0.173 C 
HETATM   26  C14 UNL     1      -2.480   3.754  11.615  1.00  0.00     0.182 C 
HETATM   27  C15 UNL     1      -3.361   4.334  12.727  1.00  0.00     0.204 C 
BRANCH  25  28
HETATM   28  O5  UNL     1      -3.374   1.524  11.737  1.00  0.00    -0.391 OA
HETATM   29  H24 UNL     1      -4.302   1.549  12.056  1.00  0.00     0.210 HD
ENDBRANCH  25  28
BRANCH  26  30
HETATM   30  O6  UNL     1      -1.271   3.247  12.205  1.00  0.00    -0.390 OA
HETATM   31  H26 UNL     1      -1.463   2.314  12.439  1.00  0.00     0.210 HD
ENDBRANCH  26  30
BRANCH  27  32
HETATM   32  O7  UNL     1      -2.695   5.496  13.261  1.00  0.00    -0.388 OA
HETATM   33  H28 UNL     1      -1.795   5.187  13.481  1.00  0.00     0.210 HD
ENDBRANCH  27  32
ENDBRANCH  21  22
ENDBRANCH   2  21
BRANCH   1  34
HETATM   34  C7  UNL     1      -5.553   8.473  14.451  1.00  0.00     0.017 C 
HETATM   35  C8  UNL     1      -4.542   8.549  13.276  1.00  0.00     0.013 C 
BRANCH  34  36
HETATM   36  C6  UNL     1      -4.933   9.183  15.686  1.00  0.00     0.122 C 
BRANCH  36  37
HETATM   37  C5  UNL     1      -3.445   8.875  15.925  1.00  0.00     0.032 C 
BRANCH  37  38
HETATM   38  C4  UNL     1      -2.671  10.116  16.396  1.00  0.00     0.009 C 
BRANCH  38  39
HETATM   39  C2  UNL     1      -2.363  10.093  17.908  1.00  0.00     0.005 C 
HETATM   40  C1  UNL     1      -3.438  10.827  18.716  1.00  0.00     0.012 C 
BRANCH  39  41
HETATM   41  C3  UNL     1      -0.979  10.691  18.196  1.00  0.00     0.168 C 
BRANCH  41  42
HETATM   42  O1  UNL     1       0.029  10.126  17.371  1.00  0.00    -0.400 OA
HETATM   43  H7  UNL     1       0.152   9.200  17.638  1.00  0.00     0.209 HD
ENDBRANCH  41  42
ENDBRANCH  39  41
ENDBRANCH  38  39
ENDBRANCH  37  38
ENDBRANCH  36  37
BRANCH  36  44
HETATM   44  O2  UNL     1      -5.124  10.599  15.580  1.00  0.00    -0.395 OA
HETATM   45  H13 UNL     1      -4.397  10.972  15.054  1.00  0.00     0.210 HD
ENDBRANCH  36  44
ENDBRANCH  34  36
ENDBRANCH   1  34
TORSDOF 13
ENDMDL
MODEL 2
REMARK minimizedAffinity -7.93137789
REMARK CNNscore 0.595695972
REMARK CNNaffinity 7.4590497
REMARK  13 active torsions:
REMARK  status: ('A' for Active; 'I' for Inactive)
REMARK    1  A    between atoms: C2_2  and  C3_3 
REMARK    2  A    between atoms: C2_2  and  C4_5 
REMARK    3  A    between atoms: C3_3  and  O1_4 
REMARK    4  A    between atoms: C4_5  and  C5_6 
REMARK    5  A    between atoms: C5_6  and  C6_7 
REMARK    6  A    between atoms: C6_7  and  O2_8 
REMARK    7  A    between atoms: C6_7  and  C7_9 
REMARK    8  A    between atoms: C7_9  and  C9_11 
REMARK    9  A    between atoms: C10_12  and  O3_13 
REMARK   10  A    between atoms: O3_13  and  C11_14 
REMARK   11  A    between atoms: C13_17  and  O5_18 
REMARK   12  A    between atoms: C14_19  and  O6_20 
REMARK   13  A    between atoms: C15_21  and  O7_22 
ROOT
HETATM    1  C9  UNL     1      -8.611   6.716  14.847  1.00  0.00     0.029 C 
HETATM    2  C10 UNL     1      -9.006   8.256  14.853  1.00  0.00     0.130 C 
HETATM    3  C16 UNL     1      -7.727   9.051  15.198  1.00  0.00     0.038 C 
HETATM    4  C17 UNL     1      -6.624   8.012  15.091  1.00  0.00     0.001 C 
HETATM    5  C18 UNL     1      -5.249   8.311  15.682  1.00  0.00    -0.004 C 
HETATM    6  C19 UNL     1      -4.753   9.723  15.360  1.00  0.00     0.010 C 
HETATM    7  C20 UNL     1      -3.247   9.828  15.530  1.00  0.00     0.035 C 
HETATM    8  C21 UNL     1      -2.645   8.994  14.440  1.00  0.00    -0.068 C 
HETATM    9  C22 UNL     1      -1.959   9.589  13.447  1.00  0.00     0.053 C 
HETATM   10  C23 UNL     1      -1.475   8.830  12.270  1.00  0.00     0.149 C 
HETATM   11  O8  UNL     1      -0.730   9.384  11.464  1.00  0.00    -0.293 OA
HETATM   12  C24 UNL     1      -1.898   7.390  12.111  1.00  0.00     0.084 C 
HETATM   13  C25 UNL     1      -3.099   7.031  12.987  1.00  0.00     0.022 C 
HETATM   14  C26 UNL     1      -2.967   7.502  14.463  1.00  0.00    -0.016 C 
HETATM   15  C27 UNL     1      -1.760   6.776  15.116  1.00  0.00     0.020 C 
HETATM   16  C28 UNL     1      -4.252   7.148  15.336  1.00  0.00     0.002 C 
HETATM   17  C29 UNL     1      -4.996   5.866  14.847  1.00  0.00     0.007 C 
HETATM   18  C30 UNL     1      -6.256   5.564  15.662  1.00  0.00     0.010 C 
HETATM   19  C31 UNL     1      -7.268   6.734  15.681  1.00  0.00    -0.034 C 
HETATM   20  C32 UNL     1      -7.654   6.867  17.194  1.00  0.00     0.016 C 
ENDROOT
BRANCH   2  21
HETATM   21  O3  UNL     1      -9.966   8.505  15.879  1.00  0.00    -0.353 OA
BRANCH  21  22
HETATM   22  C11 UNL     1     -10.940   9.492  15.537  1.00  0.00     0.291 C 
HETATM   23  O4  UNL     1     -10.293  10.497  14.744  1.00  0.00    -0.356 OA
HETATM   24  C12 UNL     1     -11.161  11.574  14.386  1.00  0.00     0.205 C 
HETATM   25  C13 UNL     1     -11.615  12.305  15.646  1.00  0.00     0.173 C 
HETATM   26  C14 UNL     1     -12.343  11.326  16.567  1.00  0.00     0.182 C 
HETATM   27  C15 UNL     1     -11.496  10.081  16.851  1.00  0.00     0.204 C 
BRANCH  25  28
HETATM   28  O5  UNL     1     -10.486  12.841  16.360  1.00  0.00    -0.391 OA
HETATM   29  H24 UNL     1      -9.690  12.359  16.049  1.00  0.00     0.210 HD
ENDBRANCH  25  28
BRANCH  26  30
HETATM   30  O6  UNL     1     -12.658  11.962  17.816  1.00  0.00    -0.390 OA
HETATM   31  H26 UNL     1     -11.924  12.591  17.985  1.00  0.00     0.210 HD
ENDBRANCH  26  30
BRANCH  27  32
HETATM   32  O7  UNL     1     -12.324   9.131  17.551  1.00  0.00    -0.388 OA
HETATM   33  H28 UNL     1     -12.697   9.632  18.301  1.00  0.00     0.210 HD
ENDBRANCH  27  32
ENDBRANCH  21  22
ENDBRANCH   2  21
BRANCH   1  34
HETATM   34  C7  UNL     1      -8.618   6.170  13.366  1.00  0.00     0.017 C 
HETATM   35  C8  UNL     1      -9.900   6.636  12.626  1.00  0.00     0.013 C 
BRANCH  34  36
HETATM   36  C6  UNL     1      -8.479   4.631  13.197  1.00  0.00     0.122 C 
BRANCH  36  37
HETATM   37  C5  UNL     1      -7.491   4.192  12.102  1.00  0.00     0.032 C 
BRANCH  37  38
HETATM   38  C4  UNL     1      -6.449   3.196  12.637  1.00  0.00     0.009 C 
BRANCH  38  39
HETATM   39  C2  UNL     1      -5.526   2.643  11.532  1.00  0.00     0.005 C 
HETATM   40  C1  UNL     1      -5.848   1.182  11.202  1.00  0.00     0.012 C 
BRANCH  39  41
HETATM   41  C3  UNL     1      -4.049   2.787  11.927  1.00  0.00     0.168 C 
BRANCH  41  42
HETATM   42  O1  UNL     1      -3.373   3.744  11.126  1.00  0.00    -0.400 OA
HETATM   43  H7  UNL     1      -3.305   3.388  10.225  1.00  0.00     0.209 HD
ENDBRANCH  41  42
ENDBRANCH  39  41
ENDBRANCH  38  39
ENDBRANCH  37  38
ENDBRANCH  36  37
BRANCH  36  44
HETATM   44  O2  UNL     1      -8.113   4.035  14.448  1.00  0.00    -0.395 OA
HETATM   45  H13 UNL     1      -7.145   4.071  14.538  1.00  0.00     0.210 HD
ENDBRANCH  36  44
ENDBRANCH  34  36
ENDBRANCH   1  34
TORSDOF 13
ENDMDL
MODEL 3
REMARK minimizedAffinity -7.15940094
REMARK CNNscore 0.546739638
REMARK CNNaffinity 7.35802221
REMARK  13 active torsions:
REMARK  status: ('A' for Active; 'I' for Inactive)
REMARK    1  A    between atoms: C2_2  and  C3_3 
REMARK    2  A    between atoms: C2_2  and  C4_5 
REMARK    3  A    between atoms: C3_3  and  O1_4 
REMARK    4  A    between atoms: C4_5  and  C5_6 
REMARK    5  A    between atoms: C5_6  and  C6_7 
REMARK    6  A    between atoms: C6_7  and  O2_8 
REMARK    7  A    between atoms: C6_7  and  C7_9 
REMARK    8  A    between atoms: C7_9  and  C9_11 
REMARK    9  A    between atoms: C10_12  and  O3_13 
REMARK   10  A    between atoms: O3_13  and  C11_14 
REMARK   11  A    between atoms: C13_17  and  O5_18 
REMARK   12  A    between atoms: C14_19  and  O6_20 
REMARK   13  A    between atoms: C15_21  and  O7_22 
ROOT
HETATM    1  C9  UNL     1      -7.156   5.422  14.247  1.00  0.00     0.029 C 
HETATM    2  C10 UNL     1      -6.845   5.683  15.784  1.00  0.00     0.130 C 
HETATM    3  C16 UNL     1      -7.800   6.803  16.256  1.00  0.00     0.038 C 
HETATM    4  C17 UNL     1      -8.787   6.934  15.108  1.00  0.00     0.001 C 
HETATM    5  C18 UNL     1      -9.692   8.162  15.031  1.00  0.00    -0.004 C 
HETATM    6  C19 UNL     1     -10.313   8.532  16.380  1.00  0.00     0.010 C 
HETATM    7  C20 UNL     1     -11.537   9.414  16.196  1.00  0.00     0.035 C 
HETATM    8  C21 UNL     1     -12.583   8.548  15.561  1.00  0.00    -0.068 C 
HETATM    9  C22 UNL     1     -13.685   8.214  16.256  1.00  0.00     0.053 C 
HETATM   10  C23 UNL     1     -14.674   7.243  15.732  1.00  0.00     0.149 C 
HETATM   11  O8  UNL     1     -15.733   7.081  16.335  1.00  0.00    -0.293 OA
HETATM   12  C24 UNL     1     -14.354   6.497  14.460  1.00  0.00     0.084 C 
HETATM   13  C25 UNL     1     -12.869   6.558  14.101  1.00  0.00     0.022 C 
HETATM   14  C26 UNL     1     -12.258   7.987  14.178  1.00  0.00    -0.016 C 
HETATM   15  C27 UNL     1     -12.964   8.892  13.132  1.00  0.00     0.020 C 
HETATM   16  C28 UNL     1     -10.702   8.008  13.839  1.00  0.00     0.002 C 
HETATM   17  C29 UNL     1     -10.272   6.881  12.848  1.00  0.00     0.007 C 
HETATM   18  C30 UNL     1      -8.767   6.880  12.569  1.00  0.00     0.010 C 
HETATM   19  C31 UNL     1      -7.906   6.756  13.847  1.00  0.00    -0.034 C 
HETATM   20  C32 UNL     1      -6.822   7.873  13.676  1.00  0.00     0.016 C 
ENDROOT
BRANCH   2  21
HETATM   21  O3  UNL     1      -5.508   6.159  15.933  1.00  0.00    -0.353 OA
BRANCH  21  22
HETATM   22  C11 UNL     1      -5.053   6.965  14.846  1.00  0.00     0.291 C 
HETATM   23  O4  UNL     1      -4.233   6.147  14.000  1.00  0.00    -0.356 OA
HETATM   24  C12 UNL     1      -3.670   6.864  12.901  1.00  0.00     0.205 C 
HETATM   25  C13 UNL     1      -2.730   7.947  13.424  1.00  0.00     0.173 C 
HETATM   26  C14 UNL     1      -3.509   8.901  14.330  1.00  0.00     0.182 C 
HETATM   27  C15 UNL     1      -4.252   8.146  15.437  1.00  0.00     0.204 C 
BRANCH  25  28
HETATM   28  O5  UNL     1      -1.660   7.368  14.192  1.00  0.00    -0.391 OA
HETATM   29  H24 UNL     1      -1.947   6.468  14.456  1.00  0.00     0.210 HD
ENDBRANCH  25  28
BRANCH  26  30
HETATM   30  O6  UNL     1      -2.615   9.846  14.941  1.00  0.00    -0.390 OA
HETATM   31  H26 UNL     1      -1.771   9.363  15.075  1.00  0.00     0.210 HD
ENDBRANCH  26  30
BRANCH  27  32
HETATM   32  O7  UNL     1      -5.112   9.084  16.115  1.00  0.00    -0.388 OA
HETATM   33  H28 UNL     1      -4.526   9.826  16.358  1.00  0.00     0.210 HD
ENDBRANCH  27  32
ENDBRANCH  21  22
ENDBRANCH   2  21
BRANCH   1  34
HETATM   34  C7  UNL     1      -7.875   4.027  14.078  1.00  0.00     0.017 C 
HETATM   35  C8  UNL     1      -7.462   3.066  15.225  1.00  0.00     0.013 C 
BRANCH  34  36
HETATM   36  C6  UNL     1      -7.663   3.300  12.721  1.00  0.00     0.122 C 
BRANCH  36  37
HETATM   37  C5  UNL     1      -6.340   3.635  12.012  1.00  0.00     0.032 C 
BRANCH  37  38
HETATM   38  C4  UNL     1      -5.650   2.376  11.462  1.00  0.00     0.009 C 
BRANCH  38  39
HETATM   39  C2  UNL     1      -4.112   2.449  11.549  1.00  0.00     0.005 C 
HETATM   40  C1  UNL     1      -3.484   1.055  11.660  1.00  0.00     0.012 C 
BRANCH  39  41
HETATM   41  C3  UNL     1      -3.669   3.328  12.728  1.00  0.00     0.168 C 
BRANCH  41  42
HETATM   42  O1  UNL     1      -2.387   3.899  12.514  1.00  0.00    -0.400 OA
HETATM   43  H7  UNL     1      -1.731   3.184  12.541  1.00  0.00     0.209 HD
ENDBRANCH  41  42
ENDBRANCH  39  41
ENDBRANCH  38  39
ENDBRANCH  37  38
ENDBRANCH  36  37
BRANCH  36  44
HETATM   44  O2  UNL     1      -7.770   1.883  12.906  1.00  0.00    -0.395 OA
HETATM   45  H13 UNL     1      -6.902   1.539  13.178  1.00  0.00     0.210 HD
ENDBRANCH  36  44
ENDBRANCH  34  36
ENDBRANCH   1  34
TORSDOF 13
ENDMDL
MODEL 4
REMARK minimizedAffinity -7.60346317
REMARK CNNscore 0.534706652
REMARK CNNaffinity 6.93141985
REMARK  13 active torsions:
REMARK  status: ('A' for Active; 'I' for Inactive)
REMARK    1  A    between atoms: C2_2  and  C3_3 
REMARK    2  A    between atoms: C2_2  and  C4_5 
REMARK    3  A    between atoms: C3_3  and  O1_4 
REMARK    4  A    between atoms: C4_5  and  C5_6 
REMARK    5  A    between atoms: C5_6  and  C6_7 
REMARK    6  A    between atoms: C6_7  and  O2_8 
REMARK    7  A    between atoms: C6_7  and  C7_9 
REMARK    8  A    between atoms: C7_9  and  C9_11 
REMARK    9  A    between atoms: C10_12  and  O3_13 
REMARK   10  A    between atoms: O3_13  and  C11_14 
REMARK   11  A    between atoms: C13_17  and  O5_18 
REMARK   12  A    between atoms: C14_19  and  O6_20 
REMARK   13  A    between atoms: C15_21  and  O7_22 
ROOT
HETATM    1  C9  UNL     1       0.467   8.229  13.601  1.00  0.00     0.029 C 
HETATM    2  C10 UNL     1      -0.895   8.814  14.173  1.00  0.00     0.130 C 
HETATM    3  C16 UNL     1      -0.526   9.970  15.130  1.00  0.00     0.038 C 
HETATM    4  C17 UNL     1       0.952  10.195  14.860  1.00  0.00     0.001 C 
HETATM    5  C18 UNL     1       1.778  11.024  15.841  1.00  0.00    -0.004 C 
HETATM    6  C19 UNL     1       1.066  12.302  16.292  1.00  0.00     0.010 C 
HETATM    7  C20 UNL     1       2.053  13.310  16.856  1.00  0.00     0.035 C 
HETATM    8  C21 UNL     1       2.886  13.770  15.697  1.00  0.00    -0.068 C 
HETATM    9  C22 UNL     1       2.779  15.038  15.261  1.00  0.00     0.053 C 
HETATM   10  C23 UNL     1       3.463  15.501  14.031  1.00  0.00     0.149 C 
HETATM   11  O8  UNL     1       3.455  16.698  13.754  1.00  0.00    -0.293 OA
HETATM   12  C24 UNL     1       4.169  14.483  13.168  1.00  0.00     0.084 C 
HETATM   13  C25 UNL     1       3.737  13.050  13.478  1.00  0.00     0.022 C 
HETATM   14  C26 UNL     1       3.727  12.707  14.994  1.00  0.00    -0.016 C 
HETATM   15  C27 UNL     1       5.174  12.821  15.546  1.00  0.00     0.020 C 
HETATM   16  C28 UNL     1       3.233  11.220  15.284  1.00  0.00     0.002 C 
HETATM   17  C29 UNL     1       3.554  10.227  14.123  1.00  0.00     0.007 C 
HETATM   18  C30 UNL     1       3.031   8.814  14.390  1.00  0.00     0.010 C 
HETATM   19  C31 UNL     1       1.510   8.764  14.663  1.00  0.00    -0.034 C 
HETATM   20  C32 UNL     1       1.389   7.863  15.938  1.00  0.00     0.016 C 
ENDROOT
BRANCH   2  21
HETATM   21  O3  UNL     1      -1.569   7.814  14.936  1.00  0.00    -0.353 OA
BRANCH  21  22
HETATM   22  C11 UNL     1      -2.844   7.443  14.410  1.00  0.00     0.291 C 
HETATM   23  O4  UNL     1      -3.308   8.514  13.576  1.00  0.00    -0.356 OA
HETATM   24  C12 UNL     1      -4.609   8.281  13.034  1.00  0.00     0.205 C 
HETATM   25  C13 UNL     1      -5.628   8.202  14.168  1.00  0.00     0.173 C 
HETATM   26  C14 UNL     1      -5.243   7.069  15.119  1.00  0.00     0.182 C 
HETATM   27  C15 UNL     1      -3.795   7.206  15.603  1.00  0.00     0.204 C 
BRANCH  25  28
HETATM   28  O5  UNL     1      -5.655   9.430  14.917  1.00  0.00    -0.391 OA
HETATM   29  H24 UNL     1      -4.817   9.904  14.727  1.00  0.00     0.210 HD
ENDBRANCH  25  28
BRANCH  26  30
HETATM   30  O6  UNL     1      -6.111   7.066  16.264  1.00  0.00    -0.390 OA
HETATM   31  H26 UNL     1      -6.333   8.008  16.429  1.00  0.00     0.210 HD
ENDBRANCH  26  30
BRANCH  27  32
HETATM   32  O7  UNL     1      -3.452   6.006  16.324  1.00  0.00    -0.388 OA
HETATM   33  H28 UNL     1      -4.165   5.900  16.983  1.00  0.00     0.210 HD
ENDBRANCH  27  32
ENDBRANCH  21  22
ENDBRANCH   2  21
BRANCH   1  34
HETATM   34  C7  UNL     1       0.617   8.617  12.078  1.00  0.00     0.017 C 
HETATM   35  C8  UNL     1      -0.776   8.659  11.394  1.00  0.00     0.013 C 
BRANCH  34  36
HETATM   36  C6  UNL     1       1.561   7.724  11.227  1.00  0.00     0.122 C 
BRANCH  36  37
HETATM   37  C5  UNL     1       0.984   7.287   9.869  1.00  0.00     0.032 C 
BRANCH  37  38
HETATM   38  C4  UNL     1       1.537   8.135   8.713  1.00  0.00     0.009 C 
BRANCH  38  39
HETATM   39  C2  UNL     1       2.442   7.329   7.758  1.00  0.00     0.005 C 
HETATM   40  C1  UNL     1       1.765   7.088   6.404  1.00  0.00     0.012 C 
BRANCH  39  41
HETATM   41  C3  UNL     1       2.856   5.993   8.391  1.00  0.00     0.168 C 
BRANCH  41  42
HETATM   42  O1  UNL     1       3.085   4.988   7.415  1.00  0.00    -0.400 OA
HETATM   43  H7  UNL     1       2.232   4.762   7.011  1.00  0.00     0.209 HD
ENDBRANCH  41  42
ENDBRANCH  39  41
ENDBRANCH  38  39
ENDBRANCH  37  38
ENDBRANCH  36  37
BRANCH  36  44
HETATM   44  O2  UNL     1       2.814   8.391  11.029  1.00  0.00    -0.395 OA
HETATM   45  H13 UNL     1       2.737   8.974  10.255  1.00  0.00     0.210 HD
ENDBRANCH  36  44
ENDBRANCH  34  36
ENDBRANCH   1  34
TORSDOF 13
ENDMDL
MODEL 5
REMARK minimizedAffinity -7.76911783
REMARK CNNscore 0.505672932
REMARK CNNaffinity 7.24744225
REMARK  13 active torsions:
REMARK  status: ('A' for Active; 'I' for Inactive)
REMARK    1  A    between atoms: C2_2  and  C3_3 
REMARK    2  A    between atoms: C2_2  and  C4_5 
REMARK    3  A    between atoms: C3_3  and  O1_4 
REMARK    4  A    between atoms: C4_5  and  C5_6 
REMARK    5  A    between atoms: C5_6  and  C6_7 
REMARK    6  A    between atoms: C6_7  and  O2_8 
REMARK    7  A    between atoms: C6_7  and  C7_9 
REMARK    8  A    between atoms: C7_9  and  C9_11 
REMARK    9  A    between atoms: C10_12  and  O3_13 
REMARK   10  A    between atoms: O3_13  and  C11_14 
REMARK   11  A    between atoms: C13_17  and  O5_18 
REMARK   12  A    between atoms: C14_19  and  O6_20 
REMARK   13  A    between atoms: C15_21  and  O7_22 
ROOT
HETATM    1  C9  UNL     1      -5.882   6.639  14.781  1.00  0.00     0.029 C 
HETATM    2  C10 UNL     1      -6.058   5.939  13.366  1.00  0.00     0.130 C 
HETATM    3  C16 UNL     1      -7.576   5.844  13.092  1.00  0.00     0.038 C 
HETATM    4  C17 UNL     1      -8.186   6.722  14.171  1.00  0.00     0.001 C 
HETATM    5  C18 UNL     1      -9.683   6.628  14.459  1.00  0.00    -0.004 C 
HETATM    6  C19 UNL     1     -10.535   6.590  13.188  1.00  0.00     0.010 C 
HETATM    7  C20 UNL     1     -11.975   6.975  13.481  1.00  0.00     0.035 C 
HETATM    8  C21 UNL     1     -11.952   8.431  13.836  1.00  0.00    -0.068 C 
HETATM    9  C22 UNL     1     -12.524   9.328  13.012  1.00  0.00     0.053 C 
HETATM   10  C23 UNL     1     -12.399  10.786  13.239  1.00  0.00     0.149 C 
HETATM   11  O8  UNL     1     -13.056  11.560  12.546  1.00  0.00    -0.293 OA
HETATM   12  C24 UNL     1     -11.480  11.275  14.332  1.00  0.00     0.084 C 
HETATM   13  C25 UNL     1     -10.495  10.200  14.794  1.00  0.00     0.022 C 
HETATM   14  C26 UNL     1     -11.153   8.820  15.078  1.00  0.00    -0.016 C 
HETATM   15  C27 UNL     1     -12.160   8.975  16.250  1.00  0.00     0.020 C 
HETATM   16  C28 UNL     1     -10.094   7.713  15.517  1.00  0.00     0.002 C 
HETATM   17  C29 UNL     1      -8.855   8.307  16.258  1.00  0.00     0.007 C 
HETATM   18  C30 UNL     1      -7.820   7.241  16.631  1.00  0.00     0.010 C 
HETATM   19  C31 UNL     1      -7.315   6.427  15.417  1.00  0.00    -0.034 C 
HETATM   20  C32 UNL     1      -7.398   4.941  15.904  1.00  0.00     0.016 C 
ENDROOT
BRANCH   2  21
HETATM   21  O3  UNL     1      -5.539   4.611  13.416  1.00  0.00    -0.353 OA
BRANCH  21  22
HETATM   22  C11 UNL     1      -4.119   4.545  13.541  1.00  0.00     0.291 C 
HETATM   23  O4  UNL     1      -3.688   5.682  14.302  1.00  0.00    -0.356 OA
HETATM   24  C12 UNL     1      -2.269   5.757  14.447  1.00  0.00     0.205 C 
HETATM   25  C13 UNL     1      -1.623   5.939  13.076  1.00  0.00     0.173 C 
HETATM   26  C14 UNL     1      -2.000   4.761  12.176  1.00  0.00     0.182 C 
HETATM   27  C15 UNL     1      -3.518   4.558  12.119  1.00  0.00     0.204 C 
BRANCH  25  28
HETATM   28  O5  UNL     1      -2.086   7.150  12.450  1.00  0.00    -0.391 OA
HETATM   29  H24 UNL     1      -2.920   7.408  12.900  1.00  0.00     0.210 HD
ENDBRANCH  25  28
BRANCH  26  30
HETATM   30  O6  UNL     1      -1.516   4.982  10.842  1.00  0.00    -0.390 OA
HETATM   31  H26 UNL     1      -1.566   5.952  10.700  1.00  0.00     0.210 HD
ENDBRANCH  26  30
BRANCH  27  32
HETATM   32  O7  UNL     1      -3.775   3.322  11.423  1.00  0.00    -0.388 OA
HETATM   33  H28 UNL     1      -3.274   3.398  10.588  1.00  0.00     0.210 HD
ENDBRANCH  27  32
ENDBRANCH  21  22
ENDBRANCH   2  21
BRANCH   1  34
HETATM   34  C7  UNL     1      -5.309   8.098  14.587  1.00  0.00     0.017 C 
HETATM   35  C8  UNL     1      -4.922   8.331  13.102  1.00  0.00     0.013 C 
BRANCH  34  36
HETATM   36  C6  UNL     1      -4.102   8.491  15.483  1.00  0.00     0.122 C 
BRANCH  36  37
HETATM   37  C5  UNL     1      -3.072   9.413  14.807  1.00  0.00     0.032 C 
BRANCH  37  38
HETATM   38  C4  UNL     1      -2.921  10.748  15.553  1.00  0.00     0.009 C 
BRANCH  38  39
HETATM   39  C2  UNL     1      -1.510  10.948  16.144  1.00  0.00     0.005 C 
HETATM   40  C1  UNL     1      -1.411  10.396  17.571  1.00  0.00     0.012 C 
BRANCH  39  41
HETATM   41  C3  UNL     1      -1.108  12.429  16.117  1.00  0.00     0.168 C 
BRANCH  41  42
HETATM   42  O1  UNL     1      -0.643  12.879  17.381  1.00  0.00    -0.400 OA
HETATM   43  H7  UNL     1      -1.397  12.888  17.992  1.00  0.00     0.209 HD
ENDBRANCH  41  42
ENDBRANCH  39  41
ENDBRANCH  38  39
ENDBRANCH  37  38
ENDBRANCH  36  37
BRANCH  36  44
HETATM   44  O2  UNL     1      -4.572   9.095  16.694  1.00  0.00    -0.395 OA
HETATM   45  H13 UNL     1      -4.709  10.045  16.536  1.00  0.00     0.210 HD
ENDBRANCH  36  44
ENDBRANCH  34  36
ENDBRANCH   1  34
TORSDOF 13
ENDMDL
MODEL 6
REMARK minimizedAffinity -7.24986267
REMARK CNNscore 0.501683831
REMARK CNNaffinity 6.35573769
REMARK  13 active torsions:
REMARK  status: ('A' for Active; 'I' for Inactive)
REMARK    1  A    between atoms: C2_2  and  C3_3 
REMARK    2  A    between atoms: C2_2  and  C4_5 
REMARK    3  A    between atoms: C3_3  and  O1_4 
REMARK    4  A    between atoms: C4_5  and  C5_6 
REMARK    5  A    between atoms: C5_6  and  C6_7 
REMARK    6  A    between atoms: C6_7  and  O2_8 
REMARK    7  A    between atoms: C6_7  and  C7_9 
REMARK    8  A    between atoms: C7_9  and  C9_11 
REMARK    9  A    between atoms: C10_12  and  O3_13 
REMARK   10  A    between atoms: O3_13  and  C11_14 
REMARK   11  A    between atoms: C13_17  and  O5_18 
REMARK   12  A    between atoms: C14_19  and  O6_20 
REMARK   13  A    between atoms: C15_21  and  O7_22 
ROOT
HETATM    1  C9  UNL     1      -0.543  10.949  17.785  1.00  0.00     0.029 C 
HETATM    2  C10 UNL     1       0.131  11.967  16.767  1.00  0.00     0.130 C 
HETATM    3  C16 UNL     1      -0.957  12.986  16.359  1.00  0.00     0.038 C 
HETATM    4  C17 UNL     1      -2.085  12.712  17.338  1.00  0.00     0.001 C 
HETATM    5  C18 UNL     1      -3.476  13.277  17.059  1.00  0.00    -0.004 C 
HETATM    6  C19 UNL     1      -3.448  14.735  16.595  1.00  0.00     0.010 C 
HETATM    7  C20 UNL     1      -4.801  15.398  16.786  1.00  0.00     0.035 C 
HETATM    8  C21 UNL     1      -5.004  15.511  18.267  1.00  0.00    -0.068 C 
HETATM    9  C22 UNL     1      -5.012  16.725  18.848  1.00  0.00     0.053 C 
HETATM   10  C23 UNL     1      -5.057  16.885  20.320  1.00  0.00     0.149 C 
HETATM   11  O8  UNL     1      -5.209  18.007  20.797  1.00  0.00    -0.293 OA
HETATM   12  C24 UNL     1      -4.934  15.656  21.188  1.00  0.00     0.084 C 
HETATM   13  C25 UNL     1      -4.377  14.453  20.425  1.00  0.00     0.022 C 
HETATM   14  C26 UNL     1      -5.062  14.203  19.052  1.00  0.00    -0.016 C 
HETATM   15  C27 UNL     1      -6.561  13.871  19.291  1.00  0.00     0.020 C 
HETATM   16  C28 UNL     1      -4.431  12.969  18.267  1.00  0.00     0.002 C 
HETATM   17  C29 UNL     1      -3.846  11.872  19.211  1.00  0.00     0.007 C 
HETATM   18  C30 UNL     1      -3.197  10.715  18.446  1.00  0.00     0.010 C 
HETATM   19  C31 UNL     1      -2.079  11.170  17.480  1.00  0.00    -0.034 C 
HETATM   20  C32 UNL     1      -2.408  10.416  16.147  1.00  0.00     0.016 C 
ENDROOT
BRANCH   2  21
HETATM   21  O3  UNL     1       0.544  11.273  15.591  1.00  0.00    -0.353 OA
BRANCH  21  22
HETATM   22  C11 UNL     1      -0.005   9.960  15.467  1.00  0.00     0.291 C 
HETATM   23  O4  UNL     1       0.864   9.051  16.157  1.00  0.00    -0.356 OA
HETATM   24  C12 UNL     1       0.446   7.689  16.055  1.00  0.00     0.205 C 
HETATM   25  C13 UNL     1       0.499   7.246  14.595  1.00  0.00     0.173 C 
HETATM   26  C14 UNL     1      -0.416   8.141  13.759  1.00  0.00     0.182 C 
HETATM   27  C15 UNL     1      -0.093   9.625  13.963  1.00  0.00     0.204 C 
BRANCH  25  28
HETATM   28  O5  UNL     1       1.836   7.357  14.075  1.00  0.00    -0.391 OA
HETATM   29  H24 UNL     1       2.327   7.968  14.665  1.00  0.00     0.210 HD
ENDBRANCH  25  28
BRANCH  26  30
HETATM   30  O6  UNL     1      -0.276   7.828  12.364  1.00  0.00    -0.390 OA
HETATM   31  H26 UNL     1       0.661   7.564  12.245  1.00  0.00     0.210 HD
ENDBRANCH  26  30
BRANCH  27  32
HETATM   32  O7  UNL     1      -1.118  10.398  13.306  1.00  0.00    -0.388 OA
HETATM   33  H28 UNL     1      -1.154  10.040  12.398  1.00  0.00     0.210 HD
ENDBRANCH  27  32
ENDBRANCH  21  22
ENDBRANCH   2  21
BRANCH   1  34
HETATM   34  C7  UNL     1       0.021  11.197  19.239  1.00  0.00     0.017 C 
HETATM   35  C8  UNL     1      -0.187  12.678  19.651  1.00  0.00     0.013 C 
BRANCH  34  36
HETATM   36  C6  UNL     1       1.509  10.819  19.477  1.00  0.00     0.122 C 
BRANCH  36  37
HETATM   37  C5  UNL     1       1.827  10.318  20.896  1.00  0.00     0.032 C 
BRANCH  37  38
HETATM   38  C4  UNL     1       2.624  11.355  21.705  1.00  0.00     0.009 C 
BRANCH  38  39
HETATM   39  C2  UNL     1       3.354  10.738  22.915  1.00  0.00     0.005 C 
HETATM   40  C1  UNL     1       4.857  11.040  22.884  1.00  0.00     0.012 C 
BRANCH  39  41
HETATM   41  C3  UNL     1       3.117   9.222  22.986  1.00  0.00     0.168 C 
BRANCH  41  42
HETATM   42  O1  UNL     1       2.438   8.844  24.174  1.00  0.00    -0.400 OA
HETATM   43  H7  UNL     1       3.039   8.987  24.923  1.00  0.00     0.209 HD
ENDBRANCH  41  42
ENDBRANCH  39  41
ENDBRANCH  38  39
ENDBRANCH  37  38
ENDBRANCH  36  37
BRANCH  36  44
HETATM   44  O2  UNL     1       1.923   9.841  18.514  1.00  0.00    -0.395 OA
HETATM   45  H13 UNL     1       1.689   8.958  18.847  1.00  0.00     0.210 HD
ENDBRANCH  36  44
ENDBRANCH  34  36
ENDBRANCH   1  34
TORSDOF 13
ENDMDL
MODEL 7
REMARK minimizedAffinity -7.27648592
REMARK CNNscore 0.479520828
REMARK CNNaffinity 6.29598045
REMARK  13 active torsions:
REMARK  status: ('A' for Active; 'I' for Inactive)
REMARK    1  A    between atoms: C2_2  and  C3_3 
REMARK    2  A    between atoms: C2_2  and  C4_5 
REMARK    3  A    between atoms: C3_3  and  O1_4 
REMARK    4  A    between atoms: C4_5  and  C5_6 
REMARK    5  A    between atoms: C5_6  and  C6_7 
REMARK    6  A    between atoms: C6_7  and  O2_8 
REMARK    7  A    between atoms: C6_7  and  C7_9 
REMARK    8  A    between atoms: C7_9  and  C9_11 
REMARK    9  A    between atoms: C10_12  and  O3_13 
REMARK   10  A    between atoms: O3_13  and  C11_14 
REMARK   11  A    between atoms: C13_17  and  O5_18 
REMARK   12  A    between atoms: C14_19  and  O6_20 
REMARK   13  A    between atoms: C15_21  and  O7_22 
ROOT
HETATM    1  C9  UNL     1      -0.475  10.258  18.119  1.00  0.00     0.029 C 
HETATM    2  C10 UNL     1       0.250  10.578  16.742  1.00  0.00     0.130 C 
HETATM    3  C16 UNL     1      -0.765  11.344  15.863  1.00  0.00     0.038 C 
HETATM    4  C17 UNL     1      -1.885  11.685  16.830  1.00  0.00     0.001 C 
HETATM    5  C18 UNL     1      -3.234  12.148  16.285  1.00  0.00    -0.004 C 
HETATM    6  C19 UNL     1      -3.103  13.175  15.158  1.00  0.00     0.010 C 
HETATM    7  C20 UNL     1      -4.395  13.954  14.973  1.00  0.00     0.035 C 
HETATM    8  C21 UNL     1      -4.549  14.804  16.198  1.00  0.00    -0.068 C 
HETATM    9  C22 UNL     1      -4.446  16.142  16.099  1.00  0.00     0.053 C 
HETATM   10  C23 UNL     1      -4.439  17.015  17.295  1.00  0.00     0.149 C 
HETATM   11  O8  UNL     1      -4.490  18.234  17.149  1.00  0.00    -0.293 OA
HETATM   12  C24 UNL     1      -4.390  16.373  18.661  1.00  0.00     0.084 C 
HETATM   13  C25 UNL     1      -3.950  14.910  18.606  1.00  0.00     0.022 C 
HETATM   14  C26 UNL     1      -4.689  14.068  17.528  1.00  0.00    -0.016 C 
HETATM   15  C27 UNL     1      -6.202  14.022  17.876  1.00  0.00     0.020 C 
HETATM   16  C28 UNL     1      -4.178  12.560  17.471  1.00  0.00     0.002 C 
HETATM   17  C29 UNL     1      -3.656  12.034  18.845  1.00  0.00     0.007 C 
HETATM   18  C30 UNL     1      -3.121  10.601  18.766  1.00  0.00     0.010 C 
HETATM   19  C31 UNL     1      -1.996  10.423  17.720  1.00  0.00    -0.034 C 
HETATM   20  C32 UNL     1      -2.419   9.136  16.934  1.00  0.00     0.016 C 
ENDROOT
BRANCH   2  21
HETATM   21  O3  UNL     1       0.575   9.360  16.072  1.00  0.00    -0.353 OA
BRANCH  21  22
HETATM   22  C11 UNL     1       1.557   9.505  15.046  1.00  0.00     0.291 C 
HETATM   23  O4  UNL     1       0.975   9.069  13.810  1.00  0.00    -0.356 OA
HETATM   24  C12 UNL     1       1.887   9.114  12.712  1.00  0.00     0.205 C 
HETATM   25  C13 UNL     1       3.038   8.145  12.963  1.00  0.00     0.173 C 
HETATM   26  C14 UNL     1       3.754   8.530  14.258  1.00  0.00     0.182 C 
HETATM   27  C15 UNL     1       2.775   8.639  15.432  1.00  0.00     0.204 C 
BRANCH  25  28
HETATM   28  O5  UNL     1       2.551   6.798  13.100  1.00  0.00    -0.391 OA
HETATM   29  H24 UNL     1       1.593   6.855  13.307  1.00  0.00     0.210 HD
ENDBRANCH  25  28
BRANCH  26  30
HETATM   30  O6  UNL     1       4.753   7.550  14.583  1.00  0.00    -0.390 OA
HETATM   31  H26 UNL     1       4.395   6.693  14.267  1.00  0.00     0.210 HD
ENDBRANCH  26  30
BRANCH  27  32
HETATM   32  O7  UNL     1       3.488   9.196  16.555  1.00  0.00    -0.388 OA
HETATM   33  H28 UNL     1       4.281   8.634  16.648  1.00  0.00     0.210 HD
ENDBRANCH  27  32
ENDBRANCH  21  22
ENDBRANCH   2  21
BRANCH   1  34
HETATM   34  C7  UNL     1       0.145  11.149  19.267  1.00  0.00     0.017 C 
HETATM   35  C8  UNL     1      -0.060  12.654  18.950  1.00  0.00     0.013 C 
BRANCH  34  36
HETATM   36  C6  UNL     1       1.645  10.910  19.592  1.00  0.00     0.122 C 
BRANCH  36  37
HETATM   37  C5  UNL     1       1.969  10.806  21.093  1.00  0.00     0.032 C 
BRANCH  37  38
HETATM   38  C4  UNL     1       3.255  11.565  21.455  1.00  0.00     0.009 C 
BRANCH  38  39
HETATM   39  C2  UNL     1       3.795  11.197  22.853  1.00  0.00     0.005 C 
HETATM   40  C1  UNL     1       5.308  11.421  22.952  1.00  0.00     0.012 C 
BRANCH  39  41
HETATM   41  C3  UNL     1       3.447   9.745  23.211  1.00  0.00     0.168 C 
BRANCH  41  42
HETATM   42  O1  UNL     1       2.864   9.639  24.501  1.00  0.00    -0.400 OA
HETATM   43  H7  UNL     1       3.547   9.849  25.158  1.00  0.00     0.209 HD
ENDBRANCH  41  42
ENDBRANCH  39  41
ENDBRANCH  38  39
ENDBRANCH  37  38
ENDBRANCH  36  37
BRANCH  36  44
HETATM   44  O2  UNL     1       2.110   9.736  18.914  1.00  0.00    -0.395 OA
HETATM   45  H13 UNL     1       1.910   8.959  19.464  1.00  0.00     0.210 HD
ENDBRANCH  36  44
ENDBRANCH  34  36
ENDBRANCH   1  34
TORSDOF 13
ENDMDL
MODEL 8
REMARK minimizedAffinity -8.59132099
REMARK CNNscore 0.451417029
REMARK CNNaffinity 6.74250269
REMARK  13 active torsions:
REMARK  status: ('A' for Active; 'I' for Inactive)
REMARK    1  A    between atoms: C2_2  and  C3_3 
REMARK    2  A    between atoms: C2_2  and  C4_5 
REMARK    3  A    between atoms: C3_3  and  O1_4 
REMARK    4  A    between atoms: C4_5  and  C5_6 
REMARK    5  A    between atoms: C5_6  and  C6_7 
REMARK    6  A    between atoms: C6_7  and  O2_8 
REMARK    7  A    between atoms: C6_7  and  C7_9 
REMARK    8  A    between atoms: C7_9  and  C9_11 
REMARK    9  A    between atoms: C10_12  and  O3_13 
REMARK   10  A    between atoms: O3_13  and  C11_14 
REMARK   11  A    between atoms: C13_17  and  O5_18 
REMARK   12  A    between atoms: C14_19  and  O6_20 
REMARK   13  A    between atoms: C15_21  and  O7_22 
ROOT
HETATM    1  C9  UNL     1      -6.188   6.934  14.710  1.00  0.00     0.029 C 
HETATM    2  C10 UNL     1      -6.379   6.196  13.316  1.00  0.00     0.130 C 
HETATM    3  C16 UNL     1      -7.900   6.043  13.088  1.00  0.00     0.038 C 
HETATM    4  C17 UNL     1      -8.510   6.924  14.165  1.00  0.00     0.001 C 
HETATM    5  C18 UNL     1      -9.994   6.786  14.498  1.00  0.00    -0.004 C 
HETATM    6  C19 UNL     1     -10.879   6.689  13.254  1.00  0.00     0.010 C 
HETATM    7  C20 UNL     1     -12.323   7.031  13.580  1.00  0.00     0.035 C 
HETATM    8  C21 UNL     1     -12.341   8.495  13.903  1.00  0.00    -0.068 C 
HETATM    9  C22 UNL     1     -12.967   9.353  13.076  1.00  0.00     0.053 C 
HETATM   10  C23 UNL     1     -12.886  10.819  13.266  1.00  0.00     0.149 C 
HETATM   11  O8  UNL     1     -13.590  11.554  12.576  1.00  0.00    -0.293 OA
HETATM   12  C24 UNL     1     -11.954  11.364  14.321  1.00  0.00     0.084 C 
HETATM   13  C25 UNL     1     -10.919  10.335  14.778  1.00  0.00     0.022 C 
HETATM   14  C26 UNL     1     -11.521   8.940  15.111  1.00  0.00    -0.016 C 
HETATM   15  C27 UNL     1     -12.499   9.087  16.308  1.00  0.00     0.020 C 
HETATM   16  C28 UNL     1     -10.412   7.881  15.544  1.00  0.00     0.002 C 
HETATM   17  C29 UNL     1      -9.173   8.533  16.235  1.00  0.00     0.007 C 
HETATM   18  C30 UNL     1      -8.093   7.513  16.601  1.00  0.00     0.010 C 
HETATM   19  C31 UNL     1      -7.594   6.688  15.391  1.00  0.00    -0.034 C 
HETATM   20  C32 UNL     1      -7.612   5.212  15.914  1.00  0.00     0.016 C 
ENDROOT
BRANCH   2  21
HETATM   21  O3  UNL     1      -5.814   4.887  13.380  1.00  0.00    -0.353 OA
BRANCH  21  22
HETATM   22  C11 UNL     1      -5.043   4.530  12.233  1.00  0.00     0.291 C 
HETATM   23  O4  UNL     1      -5.582   3.313  11.698  1.00  0.00    -0.356 OA
HETATM   24  C12 UNL     1      -4.853   2.822  10.572  1.00  0.00     0.205 C 
HETATM   25  C13 UNL     1      -3.432   2.463  10.999  1.00  0.00     0.173 C 
HETATM   26  C14 UNL     1      -2.745   3.703  11.572  1.00  0.00     0.182 C 
HETATM   27  C15 UNL     1      -3.579   4.346  12.686  1.00  0.00     0.204 C 
BRANCH  25  28
HETATM   28  O5  UNL     1      -3.447   1.445  12.017  1.00  0.00    -0.391 OA
HETATM   29  H24 UNL     1      -4.346   1.443  12.412  1.00  0.00     0.210 HD
ENDBRANCH  25  28
BRANCH  26  30
HETATM   30  O6  UNL     1      -1.457   3.355  12.105  1.00  0.00    -0.390 OA
HETATM   31  H26 UNL     1      -1.555   2.443  12.457  1.00  0.00     0.210 HD
ENDBRANCH  26  30
BRANCH  27  32
HETATM   32  O7  UNL     1      -2.966   5.606  13.029  1.00  0.00    -0.388 OA
HETATM   33  H28 UNL     1      -2.031   5.388  13.201  1.00  0.00     0.210 HD
ENDBRANCH  27  32
ENDBRANCH  21  22
ENDBRANCH   2  21
BRANCH   1  34
HETATM   34  C7  UNL     1      -5.672   8.407  14.466  1.00  0.00     0.017 C 
HETATM   35  C8  UNL     1      -4.873   8.485  13.138  1.00  0.00     0.013 C 
BRANCH  34  36
HETATM   36  C6  UNL     1      -4.814   9.034  15.599  1.00  0.00     0.122 C 
BRANCH  36  37
HETATM   37  C5  UNL     1      -3.321   8.663  15.557  1.00  0.00     0.032 C 
BRANCH  37  38
HETATM   38  C4  UNL     1      -2.511   9.424  16.618  1.00  0.00     0.009 C 
BRANCH  38  39
HETATM   39  C2  UNL     1      -1.022   9.022  16.637  1.00  0.00     0.005 C 
HETATM   40  C1  UNL     1      -0.119  10.173  16.177  1.00  0.00     0.012 C 
BRANCH  39  41
HETATM   41  C3  UNL     1      -0.777   7.776  15.773  1.00  0.00     0.168 C 
BRANCH  41  42
HETATM   42  O1  UNL     1       0.185   6.908  16.351  1.00  0.00    -0.400 OA
HETATM   43  H7  UNL     1       1.049   7.349  16.314  1.00  0.00     0.209 HD
ENDBRANCH  41  42
ENDBRANCH  39  41
ENDBRANCH  38  39
ENDBRANCH  37  38
ENDBRANCH  36  37
BRANCH  36  44
HETATM   44  O2  UNL     1      -4.959  10.460  15.587  1.00  0.00    -0.395 OA
HETATM   45  H13 UNL     1      -4.321  10.832  14.955  1.00  0.00     0.210 HD
ENDBRANCH  36  44
ENDBRANCH  34  36
ENDBRANCH   1  34
TORSDOF 13
ENDMDL
MODEL 9
REMARK minimizedAffinity -7.17058706
REMARK CNNscore 0.434488147
REMARK CNNaffinity 7.34351873
REMARK  13 active torsions:
REMARK  status: ('A' for Active; 'I' for Inactive)
REMARK    1  A    between atoms: C2_2  and  C3_3 
REMARK    2  A    between atoms: C2_2  and  C4_5 
REMARK    3  A    between atoms: C3_3  and  O1_4 
REMARK    4  A    between atoms: C4_5  and  C5_6 
REMARK    5  A    between atoms: C5_6  and  C6_7 
REMARK    6  A    between atoms: C6_7  and  O2_8 
REMARK    7  A    between atoms: C6_7  and  C7_9 
REMARK    8  A    between atoms: C7_9  and  C9_11 
REMARK    9  A    between atoms: C10_12  and  O3_13 
REMARK   10  A    between atoms: O3_13  and  C11_14 
REMARK   11  A    between atoms: C13_17  and  O5_18 
REMARK   12  A    between atoms: C14_19  and  O6_20 
REMARK   13  A    between atoms: C15_21  and  O7_22 
ROOT
HETATM    1  C9  UNL     1     -10.614   8.781  14.948  1.00  0.00     0.029 C 
HETATM    2  C10 UNL     1     -10.996   9.517  16.304  1.00  0.00     0.130 C 
HETATM    3  C16 UNL     1     -12.537   9.489  16.416  1.00  0.00     0.038 C 
HETATM    4  C17 UNL     1     -12.955   8.522  15.322  1.00  0.00     0.001 C 
HETATM    5  C18 UNL     1     -14.415   8.473  14.880  1.00  0.00    -0.004 C 
HETATM    6  C19 UNL     1     -15.397   8.486  16.054  1.00  0.00     0.010 C 
HETATM    7  C20 UNL     1     -16.761   7.965  15.634  1.00  0.00     0.035 C 
HETATM    8  C21 UNL     1     -16.581   6.504  15.351  1.00  0.00    -0.068 C 
HETATM    9  C22 UNL     1     -17.160   5.593  16.153  1.00  0.00     0.053 C 
HETATM   10  C23 UNL     1     -16.891   4.143  16.009  1.00  0.00     0.149 C 
HETATM   11  O8  UNL     1     -17.552   3.342  16.667  1.00  0.00    -0.293 OA
HETATM   12  C24 UNL     1     -15.824   3.696  15.039  1.00  0.00     0.084 C 
HETATM   13  C25 UNL     1     -14.888   4.834  14.631  1.00  0.00     0.022 C 
HETATM   14  C26 UNL     1     -15.625   6.140  14.217  1.00  0.00    -0.016 C 
HETATM   15  C27 UNL     1     -16.486   5.853  12.957  1.00  0.00     0.020 C 
HETATM   16  C28 UNL     1     -14.621   7.317  13.837  1.00  0.00     0.002 C 
HETATM   17  C29 UNL     1     -13.265   6.806  13.255  1.00  0.00     0.007 C 
HETATM   18  C30 UNL     1     -12.289   7.943  12.941  1.00  0.00     0.010 C 
HETATM   19  C31 UNL     1     -11.984   8.844  14.160  1.00  0.00    -0.034 C 
HETATM   20  C32 UNL     1     -12.138  10.297  13.597  1.00  0.00     0.016 C 
ENDROOT
BRANCH   2  21
HETATM   21  O3  UNL     1     -10.587  10.883  16.245  1.00  0.00    -0.353 OA
BRANCH  21  22
HETATM   22  C11 UNL     1     -10.590  11.546  17.509  1.00  0.00     0.291 C 
HETATM   23  O4  UNL     1     -10.910  10.577  18.517  1.00  0.00    -0.356 OA
HETATM   24  C12 UNL     1     -10.998  11.137  19.828  1.00  0.00     0.205 C 
HETATM   25  C13 UNL     1     -12.145  12.143  19.877  1.00  0.00     0.173 C 
HETATM   26  C14 UNL     1     -11.899  13.246  18.848  1.00  0.00     0.182 C 
HETATM   27  C15 UNL     1     -11.647  12.669  17.451  1.00  0.00     0.204 C 
BRANCH  25  28
HETATM   28  O5  UNL     1     -13.397  11.506  19.564  1.00  0.00    -0.391 OA
HETATM   29  H24 UNL     1     -13.187  10.667  19.099  1.00  0.00     0.210 HD
ENDBRANCH  25  28
BRANCH  26  30
HETATM   30  O6  UNL     1     -13.032  14.127  18.784  1.00  0.00    -0.390 OA
HETATM   31  H26 UNL     1     -13.816  13.562  18.958  1.00  0.00     0.210 HD
ENDBRANCH  26  30
BRANCH  27  32
HETATM   32  O7  UNL     1     -11.229  13.749  16.592  1.00  0.00    -0.388 OA
HETATM   33  H28 UNL     1     -11.913  14.436  16.706  1.00  0.00     0.210 HD
ENDBRANCH  27  32
ENDBRANCH  21  22
ENDBRANCH   2  21
BRANCH   1  34
HETATM   34  C7  UNL     1      -9.946   7.387  15.268  1.00  0.00     0.017 C 
HETATM   35  C8  UNL     1      -9.016   7.506  16.505  1.00  0.00     0.013 C 
BRANCH  34  36
HETATM   36  C6  UNL     1      -9.151   6.720  14.111  1.00  0.00     0.122 C 
BRANCH  36  37
HETATM   37  C5  UNL     1      -7.907   5.931  14.556  1.00  0.00     0.032 C 
BRANCH  37  38
HETATM   38  C4  UNL     1      -7.007   5.561  13.367  1.00  0.00     0.009 C 
BRANCH  38  39
HETATM   39  C2  UNL     1      -6.753   4.044  13.257  1.00  0.00     0.005 C 
HETATM   40  C1  UNL     1      -5.668   3.725  12.223  1.00  0.00     0.012 C 
BRANCH  39  41
HETATM   41  C3  UNL     1      -8.049   3.293  12.917  1.00  0.00     0.168 C 
BRANCH  41  42
HETATM   42  O1  UNL     1      -7.840   1.894  12.801  1.00  0.00    -0.400 OA
HETATM   43  H7  UNL     1      -7.303   1.734  12.008  1.00  0.00     0.209 HD
ENDBRANCH  41  42
ENDBRANCH  39  41
ENDBRANCH  38  39
ENDBRANCH  37  38
ENDBRANCH  36  37
BRANCH  36  44
HETATM   44  O2  UNL     1     -10.019   5.868  13.352  1.00  0.00    -0.395 OA
HETATM   45  H13 UNL     1     -10.049   4.995  13.779  1.00  0.00     0.210 HD
ENDBRANCH  36  44
ENDBRANCH  34  36
ENDBRANCH   1  34
TORSDOF 13
ENDMDL
