MODEL 1
REMARK minimizedAffinity -7.65819836
REMARK CNNscore 0.467106164
REMARK CNNaffinity 6.43625259
REMARK  6 active torsions:
REMARK  status: ('A' for Active; 'I' for Inactive)
REMARK    1  A    between atoms: C2_2  and  C30_32 
REMARK    2  A    between atoms: C3_3  and  C4_4 
REMARK    3  A    between atoms: C4_4  and  C5_6 
REMARK    4  A    between atoms: C5_6  and  C6_7 
REMARK    5  A    between atoms: C6_7  and  C8_9 
REMARK    6  A    between atoms: C30_32  and  O4_34 
ROOT
HETATM    1  C8  UNL     1      -0.901  11.709  17.658  1.00  0.00    -0.001 C 
HETATM    2  C9  UNL     1      -1.632  10.478  18.220  1.00  0.00     0.007 C 
HETATM    3  C10 UNL     1      -1.962   9.567  17.022  1.00  0.00     0.015 C 
HETATM    4  C11 UNL     1      -1.509  10.322  15.741  1.00  0.00    -0.013 C 
HETATM    5  C12 UNL     1      -2.738  11.164  15.281  1.00  0.00     0.021 C 
HETATM    6  C13 UNL     1      -0.997   9.391  14.614  1.00  0.00    -0.070 C 
HETATM    7  C14 UNL     1      -1.483   9.396  13.361  1.00  0.00    -0.022 C 
HETATM    8  C15 UNL     1      -0.915   8.637  12.208  1.00  0.00     0.034 C 
HETATM    9  C16 UNL     1       0.470   7.958  12.420  1.00  0.00     0.013 C 
HETATM   10  C17 UNL     1       0.705   6.892  11.281  1.00  0.00     0.018 C 
HETATM   11  C18 UNL     1       2.167   6.416  11.170  1.00  0.00     0.023 C 
HETATM   12  C19 UNL     1       0.349   7.481   9.892  1.00  0.00     0.023 C 
HETATM   13  C20 UNL     1      -0.190   5.672  11.558  1.00  0.00     0.135 C 
HETATM   14  O2  UNL     1      -0.776   5.075  10.652  1.00  0.00    -0.297 OA
HETATM   15  C21 UNL     1      -0.252   5.137  12.976  1.00  0.00     0.080 C 
HETATM   16  C22 UNL     1      -0.423   6.231  14.029  1.00  0.00     0.017 C 
HETATM   17  C23 UNL     1       0.583   7.412  13.882  1.00  0.00    -0.031 C 
HETATM   18  C24 UNL     1       1.993   6.880  14.239  1.00  0.00     0.016 C 
HETATM   19  C25 UNL     1       0.226   8.545  14.937  1.00  0.00     0.024 C 
HETATM   20  C26 UNL     1       1.353   9.554  15.238  1.00  0.00     0.010 C 
HETATM   21  C27 UNL     1       0.977  10.404  16.458  1.00  0.00     0.011 C 
HETATM   22  C28 UNL     1      -0.328  11.226  16.285  1.00  0.00    -0.029 C 
HETATM   23  C29 UNL     1      -0.021  12.429  15.368  1.00  0.00     0.016 C 
ENDROOT
BRANCH   1  24
HETATM   24  C6  UNL     1       0.045  12.463  18.639  1.00  0.00    -0.007 C 
HETATM   25  C7  UNL     1      -0.558  13.847  18.951  1.00  0.00     0.011 C 
BRANCH  24  26
HETATM   26  C5  UNL     1       0.345  11.752  19.974  1.00  0.00     0.087 C 
BRANCH  26  27
HETATM   27  C4  UNL     1       1.759  11.191  20.054  1.00  0.00     0.150 C 
HETATM   28  O1  UNL     1       2.644  11.490  19.258  1.00  0.00    -0.293 OA
BRANCH  27  29
HETATM   29  C3  UNL     1       2.000  10.197  21.139  1.00  0.00     0.063 C 
HETATM   30  C2  UNL     1       2.669  10.451  22.279  1.00  0.00     0.015 C 
HETATM   31  C1  UNL     1       3.230  11.768  22.720  1.00  0.00     0.055 C 
BRANCH  30  32
HETATM   32  C30 UNL     1       2.822   9.287  23.183  1.00  0.00     0.171 C 
HETATM   33  O3  UNL     1       2.753   8.112  22.865  1.00  0.00    -0.646 OA
BRANCH  32  34
HETATM   34  O4  UNL     1       3.067   9.649  24.451  1.00  0.00    -0.773 OA
HETATM   35  H44 UNL     1       3.165   8.798  24.927  1.00  0.00     0.167 HD
ENDBRANCH  32  34
ENDBRANCH  30  32
ENDBRANCH  27  29
ENDBRANCH  26  27
ENDBRANCH  24  26
ENDBRANCH   1  24
TORSDOF 6
ENDMDL
MODEL 2
REMARK minimizedAffinity -7.96306324
REMARK CNNscore 0.455942303
REMARK CNNaffinity 6.58990717
REMARK  6 active torsions:
REMARK  status: ('A' for Active; 'I' for Inactive)
REMARK    1  A    between atoms: C2_2  and  C30_32 
REMARK    2  A    between atoms: C3_3  and  C4_4 
REMARK    3  A    between atoms: C4_4  and  C5_6 
REMARK    4  A    between atoms: C5_6  and  C6_7 
REMARK    5  A    between atoms: C6_7  and  C8_9 
REMARK    6  A    between atoms: C30_32  and  O4_34 
ROOT
HETATM    1  C8  UNL     1      -2.091  10.060  16.251  1.00  0.00    -0.001 C 
HETATM    2  C9  UNL     1      -2.096   8.560  16.594  1.00  0.00     0.007 C 
HETATM    3  C10 UNL     1      -1.789   7.801  15.288  1.00  0.00     0.015 C 
HETATM    4  C11 UNL     1      -1.705   8.864  14.156  1.00  0.00    -0.013 C 
HETATM    5  C12 UNL     1      -3.151   9.003  13.590  1.00  0.00     0.021 C 
HETATM    6  C13 UNL     1      -0.684   8.514  13.044  1.00  0.00    -0.070 C 
HETATM    7  C14 UNL     1      -0.993   8.452  11.738  1.00  0.00    -0.022 C 
HETATM    8  C15 UNL     1      -0.015   8.281  10.623  1.00  0.00     0.034 C 
HETATM    9  C16 UNL     1       1.496   8.396  10.982  1.00  0.00     0.013 C 
HETATM   10  C17 UNL     1       2.356   7.790   9.806  1.00  0.00     0.018 C 
HETATM   11  C18 UNL     1       3.849   8.165   9.875  1.00  0.00     0.023 C 
HETATM   12  C19 UNL     1       1.856   8.310   8.433  1.00  0.00     0.023 C 
HETATM   13  C20 UNL     1       2.230   6.258   9.844  1.00  0.00     0.135 C 
HETATM   14  O2  UNL     1       2.129   5.587   8.815  1.00  0.00    -0.297 OA
HETATM   15  C21 UNL     1       2.346   5.564  11.188  1.00  0.00     0.080 C 
HETATM   16  C22 UNL     1       1.532   6.239  12.291  1.00  0.00     0.017 C 
HETATM   17  C23 UNL     1       1.761   7.776  12.394  1.00  0.00    -0.031 C 
HETATM   18  C24 UNL     1       3.203   8.007  12.912  1.00  0.00     0.016 C 
HETATM   19  C25 UNL     1       0.769   8.388  13.474  1.00  0.00     0.024 C 
HETATM   20  C26 UNL     1       1.155   9.777  14.023  1.00  0.00     0.010 C 
HETATM   21  C27 UNL     1       0.286  10.115  15.240  1.00  0.00     0.011 C 
HETATM   22  C28 UNL     1      -1.238  10.156  14.943  1.00  0.00    -0.029 C 
HETATM   23  C29 UNL     1      -1.546  11.465  14.185  1.00  0.00     0.016 C 
ENDROOT
BRANCH   1  24
HETATM   24  C6  UNL     1      -1.777  11.039  17.421  1.00  0.00    -0.007 C 
HETATM   25  C7  UNL     1      -3.084  11.729  17.859  1.00  0.00     0.011 C 
BRANCH  24  26
HETATM   26  C5  UNL     1      -1.114  10.417  18.667  1.00  0.00     0.087 C 
BRANCH  26  27
HETATM   27  C4  UNL     1      -0.235  11.396  19.435  1.00  0.00     0.150 C 
HETATM   28  O1  UNL     1      -0.273  12.610  19.258  1.00  0.00    -0.293 OA
BRANCH  27  29
HETATM   29  C3  UNL     1       0.732  10.784  20.391  1.00  0.00     0.063 C 
HETATM   30  C2  UNL     1       2.042  10.598  20.145  1.00  0.00     0.015 C 
HETATM   31  C1  UNL     1       2.798  11.021  18.923  1.00  0.00     0.055 C 
BRANCH  30  32
HETATM   32  C30 UNL     1       2.789   9.925  21.232  1.00  0.00     0.171 C 
HETATM   33  O3  UNL     1       3.798  10.338  21.779  1.00  0.00    -0.646 OA
BRANCH  32  34
HETATM   34  O4  UNL     1       2.229   8.761  21.597  1.00  0.00    -0.773 OA
HETATM   35  H44 UNL     1       2.802   8.439  22.324  1.00  0.00     0.167 HD
ENDBRANCH  32  34
ENDBRANCH  30  32
ENDBRANCH  27  29
ENDBRANCH  26  27
ENDBRANCH  24  26
ENDBRANCH   1  24
TORSDOF 6
ENDMDL
MODEL 3
REMARK minimizedAffinity -7.48360729
REMARK CNNscore 0.438570648
REMARK CNNaffinity 5.88336372
REMARK  6 active torsions:
REMARK  status: ('A' for Active; 'I' for Inactive)
REMARK    1  A    between atoms: C2_2  and  C30_32 
REMARK    2  A    between atoms: C3_3  and  C4_4 
REMARK    3  A    between atoms: C4_4  and  C5_6 
REMARK    4  A    between atoms: C5_6  and  C6_7 
REMARK    5  A    between atoms: C6_7  and  C8_9 
REMARK    6  A    between atoms: C30_32  and  O4_34 
ROOT
HETATM    1  C8  UNL     1       2.279  12.271  19.524  1.00  0.00    -0.001 C 
HETATM    2  C9  UNL     1       1.185  11.656  20.414  1.00  0.00     0.007 C 
HETATM    3  C10 UNL     1       0.008  11.289  19.489  1.00  0.00     0.015 C 
HETATM    4  C11 UNL     1       0.381  11.788  18.064  1.00  0.00    -0.013 C 
HETATM    5  C12 UNL     1      -0.158  13.248  17.965  1.00  0.00     0.021 C 
HETATM    6  C13 UNL     1      -0.171  10.894  16.924  1.00  0.00    -0.070 C 
HETATM    7  C14 UNL     1      -0.927  11.354  15.913  1.00  0.00    -0.022 C 
HETATM    8  C15 UNL     1      -1.342  10.567  14.714  1.00  0.00     0.034 C 
HETATM    9  C16 UNL     1      -0.671   9.176  14.513  1.00  0.00     0.013 C 
HETATM   10  C17 UNL     1      -1.510   8.342  13.469  1.00  0.00     0.018 C 
HETATM   11  C18 UNL     1      -0.766   7.110  12.919  1.00  0.00     0.023 C 
HETATM   12  C19 UNL     1      -1.863   9.206  12.230  1.00  0.00     0.023 C 
HETATM   13  C20 UNL     1      -2.809   7.872  14.145  1.00  0.00     0.135 C 
HETATM   14  O2  UNL     1      -3.889   7.868  13.550  1.00  0.00    -0.297 OA
HETATM   15  C21 UNL     1      -2.719   7.297  15.546  1.00  0.00     0.080 C 
HETATM   16  C22 UNL     1      -1.845   8.126  16.485  1.00  0.00     0.017 C 
HETATM   17  C23 UNL     1      -0.446   8.483  15.898  1.00  0.00    -0.031 C 
HETATM   18  C24 UNL     1       0.378   7.174  15.810  1.00  0.00     0.016 C 
HETATM   19  C25 UNL     1       0.316   9.453  16.897  1.00  0.00     0.024 C 
HETATM   20  C26 UNL     1       1.844   9.542  16.705  1.00  0.00     0.010 C 
HETATM   21  C27 UNL     1       2.476  10.277  17.894  1.00  0.00     0.011 C 
HETATM   22  C28 UNL     1       1.963  11.729  18.091  1.00  0.00    -0.029 C 
HETATM   23  C29 UNL     1       2.615  12.621  17.013  1.00  0.00     0.016 C 
ENDROOT
BRANCH   1  24
HETATM   24  C6  UNL     1       3.740  12.175  20.053  1.00  0.00    -0.007 C 
HETATM   25  C7  UNL     1       4.230  13.588  20.429  1.00  0.00     0.011 C 
BRANCH  24  26
HETATM   26  C5  UNL     1       3.964  11.245  21.264  1.00  0.00     0.087 C 
BRANCH  26  27
HETATM   27  C4  UNL     1       4.517  11.968  22.485  1.00  0.00     0.150 C 
HETATM   28  O1  UNL     1       3.844  12.730  23.173  1.00  0.00    -0.293 OA
BRANCH  27  29
HETATM   29  C3  UNL     1       5.961  11.740  22.773  1.00  0.00     0.063 C 
HETATM   30  C2  UNL     1       6.864  12.714  22.994  1.00  0.00     0.015 C 
HETATM   31  C1  UNL     1       6.600  14.187  23.069  1.00  0.00     0.055 C 
BRANCH  30  32
HETATM   32  C30 UNL     1       8.250  12.240  23.210  1.00  0.00     0.171 C 
HETATM   33  O3  UNL     1       8.603  11.082  23.356  1.00  0.00    -0.646 OA
BRANCH  32  34
HETATM   34  O4  UNL     1       9.142  13.242  23.220  1.00  0.00    -0.773 OA
HETATM   35  H44 UNL     1      10.004  12.794  23.349  1.00  0.00     0.167 HD
ENDBRANCH  32  34
ENDBRANCH  30  32
ENDBRANCH  27  29
ENDBRANCH  26  27
ENDBRANCH  24  26
ENDBRANCH   1  24
TORSDOF 6
ENDMDL
MODEL 4
REMARK minimizedAffinity -7.35410357
REMARK CNNscore 0.358386278
REMARK CNNaffinity 5.55732393
REMARK  6 active torsions:
REMARK  status: ('A' for Active; 'I' for Inactive)
REMARK    1  A    between atoms: C2_2  and  C30_32 
REMARK    2  A    between atoms: C3_3  and  C4_4 
REMARK    3  A    between atoms: C4_4  and  C5_6 
REMARK    4  A    between atoms: C5_6  and  C6_7 
REMARK    5  A    between atoms: C6_7  and  C8_9 
REMARK    6  A    between atoms: C30_32  and  O4_34 
ROOT
HETATM    1  C8  UNL     1      -3.643 -10.194   6.613  1.00  0.00    -0.001 C 
HETATM    2  C9  UNL     1      -2.704  -9.318   5.766  1.00  0.00     0.007 C 
HETATM    3  C10 UNL     1      -2.651  -9.947   4.360  1.00  0.00     0.015 C 
HETATM    4  C11 UNL     1      -3.486 -11.257   4.420  1.00  0.00    -0.013 C 
HETATM    5  C12 UNL     1      -2.489 -12.385   4.827  1.00  0.00     0.021 C 
HETATM    6  C13 UNL     1      -4.220 -11.591   3.097  1.00  0.00    -0.070 C 
HETATM    7  C14 UNL     1      -4.095 -12.760   2.446  1.00  0.00    -0.022 C 
HETATM    8  C15 UNL     1      -4.902 -13.185   1.264  1.00  0.00     0.034 C 
HETATM    9  C16 UNL     1      -6.127 -12.301   0.888  1.00  0.00     0.013 C 
HETATM   10  C17 UNL     1      -6.589 -12.652  -0.579  1.00  0.00     0.018 C 
HETATM   11  C18 UNL     1      -7.990 -12.115  -0.932  1.00  0.00     0.023 C 
HETATM   12  C19 UNL     1      -6.666 -14.188  -0.780  1.00  0.00     0.023 C 
HETATM   13  C20 UNL     1      -5.571 -12.063  -1.570  1.00  0.00     0.135 C 
HETATM   14  O2  UNL     1      -5.214 -12.675  -2.578  1.00  0.00    -0.297 OA
HETATM   15  C21 UNL     1      -5.089 -10.643  -1.340  1.00  0.00     0.080 C 
HETATM   16  C22 UNL     1      -4.713 -10.359   0.114  1.00  0.00     0.017 C 
HETATM   17  C23 UNL     1      -5.800 -10.792   1.144  1.00  0.00    -0.031 C 
HETATM   18  C24 UNL     1      -7.020  -9.854   0.968  1.00  0.00     0.016 C 
HETATM   19  C25 UNL     1      -5.248 -10.577   2.617  1.00  0.00     0.024 C 
HETATM   20  C26 UNL     1      -6.317 -10.522   3.728  1.00  0.00     0.010 C 
HETATM   21  C27 UNL     1      -5.683 -10.034   5.036  1.00  0.00     0.011 C 
HETATM   22  C28 UNL     1      -4.533 -10.936   5.563  1.00  0.00    -0.029 C 
HETATM   23  C29 UNL     1      -5.160 -12.205   6.177  1.00  0.00     0.016 C 
ENDROOT
BRANCH   1  24
HETATM   24  C6  UNL     1      -4.336  -9.500   7.823  1.00  0.00    -0.007 C 
HETATM   25  C7  UNL     1      -5.655  -8.861   7.345  1.00  0.00     0.011 C 
BRANCH  24  26
HETATM   26  C5  UNL     1      -4.644 -10.400   9.037  1.00  0.00     0.087 C 
BRANCH  26  27
HETATM   27  C4  UNL     1      -4.401  -9.713  10.374  1.00  0.00     0.150 C 
HETATM   28  O1  UNL     1      -3.287  -9.598  10.876  1.00  0.00    -0.293 OA
BRANCH  27  29
HETATM   29  C3  UNL     1      -5.620  -9.227  11.082  1.00  0.00     0.063 C 
HETATM   30  C2  UNL     1      -6.456 -10.004  11.795  1.00  0.00     0.015 C 
HETATM   31  C1  UNL     1      -6.303 -11.467  12.080  1.00  0.00     0.055 C 
BRANCH  30  32
HETATM   32  C30 UNL     1      -7.627  -9.298  12.365  1.00  0.00     0.171 C 
HETATM   33  O3  UNL     1      -7.983  -9.315  13.531  1.00  0.00    -0.646 OA
BRANCH  32  34
HETATM   34  O4  UNL     1      -8.298  -8.587  11.445  1.00  0.00    -0.773 OA
HETATM   35  H44 UNL     1      -9.021  -8.164  11.952  1.00  0.00     0.167 HD
ENDBRANCH  32  34
ENDBRANCH  30  32
ENDBRANCH  27  29
ENDBRANCH  26  27
ENDBRANCH  24  26
ENDBRANCH   1  24
TORSDOF 6
ENDMDL
MODEL 5
REMARK minimizedAffinity -7.71852016
REMARK CNNscore 0.356813848
REMARK CNNaffinity 6.2145443
REMARK  6 active torsions:
REMARK  status: ('A' for Active; 'I' for Inactive)
REMARK    1  A    between atoms: C2_2  and  C30_32 
REMARK    2  A    between atoms: C3_3  and  C4_4 
REMARK    3  A    between atoms: C4_4  and  C5_6 
REMARK    4  A    between atoms: C5_6  and  C6_7 
REMARK    5  A    between atoms: C6_7  and  C8_9 
REMARK    6  A    between atoms: C30_32  and  O4_34 
ROOT
HETATM    1  C8  UNL     1       0.855   9.588  16.615  1.00  0.00    -0.001 C 
HETATM    2  C9  UNL     1       1.693   8.333  16.913  1.00  0.00     0.007 C 
HETATM    3  C10 UNL     1       1.673   7.467  15.639  1.00  0.00     0.015 C 
HETATM    4  C11 UNL     1       0.732   8.176  14.625  1.00  0.00    -0.013 C 
HETATM    5  C12 UNL     1      -0.694   7.603  14.889  1.00  0.00     0.021 C 
HETATM    6  C13 UNL     1       1.158   7.998  13.146  1.00  0.00    -0.070 C 
HETATM    7  C14 UNL     1       0.350   7.513  12.188  1.00  0.00    -0.022 C 
HETATM    8  C15 UNL     1       0.660   7.476  10.728  1.00  0.00     0.034 C 
HETATM    9  C16 UNL     1       1.924   8.252  10.254  1.00  0.00     0.013 C 
HETATM   10  C17 UNL     1       2.315   7.769   8.803  1.00  0.00     0.018 C 
HETATM   11  C18 UNL     1       3.313   8.700   8.088  1.00  0.00     0.023 C 
HETATM   12  C19 UNL     1       1.066   7.710   7.886  1.00  0.00     0.023 C 
HETATM   13  C20 UNL     1       2.936   6.365   8.904  1.00  0.00     0.135 C 
HETATM   14  O2  UNL     1       2.691   5.484   8.076  1.00  0.00    -0.297 OA
HETATM   15  C21 UNL     1       3.959   6.111   9.995  1.00  0.00     0.080 C 
HETATM   16  C22 UNL     1       3.538   6.657  11.358  1.00  0.00     0.017 C 
HETATM   17  C23 UNL     1       3.059   8.139  11.325  1.00  0.00    -0.031 C 
HETATM   18  C24 UNL     1       4.290   9.029  11.022  1.00  0.00     0.016 C 
HETATM   19  C25 UNL     1       2.521   8.554  12.762  1.00  0.00     0.024 C 
HETATM   20  C26 UNL     1       2.434  10.070  13.029  1.00  0.00     0.010 C 
HETATM   21  C27 UNL     1       2.177  10.322  14.519  1.00  0.00     0.011 C 
HETATM   22  C28 UNL     1       0.860   9.695  15.054  1.00  0.00    -0.029 C 
HETATM   23  C29 UNL     1      -0.320  10.560  14.562  1.00  0.00     0.016 C 
ENDROOT
BRANCH   1  24
HETATM   24  C6  UNL     1       1.186  10.859  17.451  1.00  0.00    -0.007 C 
HETATM   25  C7  UNL     1      -0.129  11.463  17.984  1.00  0.00     0.011 C 
BRANCH  24  26
HETATM   26  C5  UNL     1       2.146  10.658  18.642  1.00  0.00     0.087 C 
BRANCH  26  27
HETATM   27  C4  UNL     1       1.437  10.624  19.989  1.00  0.00     0.150 C 
HETATM   28  O1  UNL     1       0.304  11.065  20.161  1.00  0.00    -0.293 OA
BRANCH  27  29
HETATM   29  C3  UNL     1       2.228  10.066  21.123  1.00  0.00     0.063 C 
HETATM   30  C2  UNL     1       2.849  10.804  22.063  1.00  0.00     0.015 C 
HETATM   31  C1  UNL     1       2.816  12.294  22.206  1.00  0.00     0.055 C 
BRANCH  30  32
HETATM   32  C30 UNL     1       3.615  10.021  23.061  1.00  0.00     0.171 C 
HETATM   33  O3  UNL     1       4.801  10.138  23.314  1.00  0.00    -0.646 OA
BRANCH  32  34
HETATM   34  O4  UNL     1       2.852   9.129  23.711  1.00  0.00    -0.773 OA
HETATM   35  H44 UNL     1       3.468   8.704  24.342  1.00  0.00     0.167 HD
ENDBRANCH  32  34
ENDBRANCH  30  32
ENDBRANCH  27  29
ENDBRANCH  26  27
ENDBRANCH  24  26
ENDBRANCH   1  24
TORSDOF 6
ENDMDL
MODEL 6
REMARK minimizedAffinity -7.72079182
REMARK CNNscore 0.333730251
REMARK CNNaffinity 6.42929411
REMARK  6 active torsions:
REMARK  status: ('A' for Active; 'I' for Inactive)
REMARK    1  A    between atoms: C2_2  and  C30_32 
REMARK    2  A    between atoms: C3_3  and  C4_4 
REMARK    3  A    between atoms: C4_4  and  C5_6 
REMARK    4  A    between atoms: C5_6  and  C6_7 
REMARK    5  A    between atoms: C6_7  and  C8_9 
REMARK    6  A    between atoms: C30_32  and  O4_34 
ROOT
HETATM    1  C8  UNL     1      -0.192   7.287  12.552  1.00  0.00    -0.001 C 
HETATM    2  C9  UNL     1      -0.741   8.284  11.516  1.00  0.00     0.007 C 
HETATM    3  C10 UNL     1      -1.816   9.126  12.231  1.00  0.00     0.015 C 
HETATM    4  C11 UNL     1      -1.964   8.546  13.666  1.00  0.00    -0.013 C 
HETATM    5  C12 UNL     1      -3.065   7.446  13.573  1.00  0.00     0.021 C 
HETATM    6  C13 UNL     1      -2.306   9.611  14.739  1.00  0.00    -0.070 C 
HETATM    7  C14 UNL     1      -3.364   9.530  15.563  1.00  0.00    -0.022 C 
HETATM    8  C15 UNL     1      -3.639  10.442  16.713  1.00  0.00     0.034 C 
HETATM    9  C16 UNL     1      -2.507  11.430  17.119  1.00  0.00     0.013 C 
HETATM   10  C17 UNL     1      -3.111  12.559  18.042  1.00  0.00     0.018 C 
HETATM   11  C18 UNL     1      -2.045  13.379  18.794  1.00  0.00     0.023 C 
HETATM   12  C19 UNL     1      -4.020  11.946  19.139  1.00  0.00     0.023 C 
HETATM   13  C20 UNL     1      -3.943  13.514  17.170  1.00  0.00     0.135 C 
HETATM   14  O2  UNL     1      -5.018  13.979  17.556  1.00  0.00    -0.297 OA
HETATM   15  C21 UNL     1      -3.356  13.970  15.848  1.00  0.00     0.080 C 
HETATM   16  C22 UNL     1      -2.739  12.833  15.035  1.00  0.00     0.017 C 
HETATM   17  C23 UNL     1      -1.754  11.939  15.846  1.00  0.00    -0.031 C 
HETATM   18  C24 UNL     1      -0.497  12.786  16.164  1.00  0.00     0.016 C 
HETATM   19  C25 UNL     1      -1.283  10.718  14.944  1.00  0.00     0.024 C 
HETATM   20  C26 UNL     1       0.004  10.005  15.407  1.00  0.00     0.010 C 
HETATM   21  C27 UNL     1       0.492   9.050  14.311  1.00  0.00     0.011 C 
HETATM   22  C28 UNL     1      -0.526   7.940  13.933  1.00  0.00    -0.029 C 
HETATM   23  C29 UNL     1      -0.521   6.879  15.054  1.00  0.00     0.016 C 
ENDROOT
BRANCH   1  24
HETATM   24  C6  UNL     1       1.251   6.754  12.306  1.00  0.00    -0.007 C 
HETATM   25  C7  UNL     1       1.996   6.691  13.654  1.00  0.00     0.011 C 
BRANCH  24  26
HETATM   26  C5  UNL     1       1.358   5.374  11.625  1.00  0.00     0.087 C 
BRANCH  26  27
HETATM   27  C4  UNL     1       2.384   5.335  10.501  1.00  0.00     0.150 C 
HETATM   28  O1  UNL     1       2.743   4.295   9.958  1.00  0.00    -0.293 OA
BRANCH  27  29
HETATM   29  C3  UNL     1       2.982   6.648  10.125  1.00  0.00     0.063 C 
HETATM   30  C2  UNL     1       2.940   7.187   8.891  1.00  0.00     0.015 C 
HETATM   31  C1  UNL     1       2.240   6.631   7.689  1.00  0.00     0.055 C 
BRANCH  30  32
HETATM   32  C30 UNL     1       3.649   8.480   8.753  1.00  0.00     0.171 C 
HETATM   33  O3  UNL     1       4.477   8.936   9.524  1.00  0.00    -0.646 OA
BRANCH  32  34
HETATM   34  O4  UNL     1       3.298   9.144   7.642  1.00  0.00    -0.773 OA
HETATM   35  H44 UNL     1       3.846   9.955   7.665  1.00  0.00     0.167 HD
ENDBRANCH  32  34
ENDBRANCH  30  32
ENDBRANCH  27  29
ENDBRANCH  26  27
ENDBRANCH  24  26
ENDBRANCH   1  24
TORSDOF 6
ENDMDL
MODEL 7
REMARK minimizedAffinity -7.54003811
REMARK CNNscore 0.29883042
REMARK CNNaffinity 5.69476271
REMARK  6 active torsions:
REMARK  status: ('A' for Active; 'I' for Inactive)
REMARK    1  A    between atoms: C2_2  and  C30_32 
REMARK    2  A    between atoms: C3_3  and  C4_4 
REMARK    3  A    between atoms: C4_4  and  C5_6 
REMARK    4  A    between atoms: C5_6  and  C6_7 
REMARK    5  A    between atoms: C6_7  and  C8_9 
REMARK    6  A    between atoms: C30_32  and  O4_34 
ROOT
HETATM    1  C8  UNL     1       7.814  10.021  15.315  1.00  0.00    -0.001 C 
HETATM    2  C9  UNL     1       6.847  11.216  15.263  1.00  0.00     0.007 C 
HETATM    3  C10 UNL     1       5.987  11.042  13.997  1.00  0.00     0.015 C 
HETATM    4  C11 UNL     1       6.527   9.788  13.252  1.00  0.00    -0.013 C 
HETATM    5  C12 UNL     1       7.631  10.307  12.281  1.00  0.00     0.021 C 
HETATM    6  C13 UNL     1       5.433   8.987  12.502  1.00  0.00    -0.070 C 
HETATM    7  C14 UNL     1       5.494   8.682  11.194  1.00  0.00    -0.022 C 
HETATM    8  C15 UNL     1       4.551   7.779  10.470  1.00  0.00     0.034 C 
HETATM    9  C16 UNL     1       3.550   6.959  11.337  1.00  0.00     0.013 C 
HETATM   10  C17 UNL     1       2.397   6.406  10.412  1.00  0.00     0.018 C 
HETATM   11  C18 UNL     1       1.554   5.296  11.071  1.00  0.00     0.023 C 
HETATM   12  C19 UNL     1       2.980   5.778   9.120  1.00  0.00     0.023 C 
HETATM   13  C20 UNL     1       1.468   7.571  10.034  1.00  0.00     0.135 C 
HETATM   14  O2  UNL     1       0.993   7.685   8.902  1.00  0.00    -0.297 OA
HETATM   15  C21 UNL     1       1.047   8.535  11.127  1.00  0.00     0.080 C 
HETATM   16  C22 UNL     1       2.205   8.983  12.018  1.00  0.00     0.017 C 
HETATM   17  C23 UNL     1       3.075   7.811  12.561  1.00  0.00    -0.031 C 
HETATM   18  C24 UNL     1       2.217   7.014  13.576  1.00  0.00     0.016 C 
HETATM   19  C25 UNL     1       4.319   8.399  13.355  1.00  0.00     0.024 C 
HETATM   20  C26 UNL     1       5.018   7.419  14.320  1.00  0.00     0.010 C 
HETATM   21  C27 UNL     1       6.002   8.183  15.214  1.00  0.00     0.011 C 
HETATM   22  C28 UNL     1       7.124   8.925  14.438  1.00  0.00    -0.029 C 
HETATM   23  C29 UNL     1       8.153   7.879  13.961  1.00  0.00     0.016 C 
ENDROOT
BRANCH   1  24
HETATM   24  C6  UNL     1       8.351   9.623  16.722  1.00  0.00    -0.007 C 
HETATM   25  C7  UNL     1       9.464   8.569  16.553  1.00  0.00     0.011 C 
BRANCH  24  26
HETATM   26  C5  UNL     1       8.900  10.774  17.590  1.00  0.00     0.087 C 
BRANCH  26  27
HETATM   27  C4  UNL     1       8.154  10.945  18.907  1.00  0.00     0.150 C 
HETATM   28  O1  UNL     1       6.984  10.606  19.062  1.00  0.00    -0.293 OA
BRANCH  27  29
HETATM   29  C3  UNL     1       8.918  11.609  20.001  1.00  0.00     0.063 C 
HETATM   30  C2  UNL     1       8.379  12.417  20.933  1.00  0.00     0.015 C 
HETATM   31  C1  UNL     1       6.929  12.752  21.106  1.00  0.00     0.055 C 
BRANCH  30  32
HETATM   32  C30 UNL     1       9.350  12.998  21.889  1.00  0.00     0.171 C 
HETATM   33  O3  UNL     1       9.413  12.769  23.084  1.00  0.00    -0.646 OA
BRANCH  32  34
HETATM   34  O4  UNL     1      10.215  13.838  21.298  1.00  0.00    -0.773 OA
HETATM   35  H44 UNL     1      10.801  14.128  22.026  1.00  0.00     0.167 HD
ENDBRANCH  32  34
ENDBRANCH  30  32
ENDBRANCH  27  29
ENDBRANCH  26  27
ENDBRANCH  24  26
ENDBRANCH   1  24
TORSDOF 6
ENDMDL
MODEL 8
REMARK minimizedAffinity -9.23167992
REMARK CNNscore 0.266956598
REMARK CNNaffinity 6.78076982
REMARK  6 active torsions:
REMARK  status: ('A' for Active; 'I' for Inactive)
REMARK    1  A    between atoms: C2_2  and  C30_32 
REMARK    2  A    between atoms: C3_3  and  C4_4 
REMARK    3  A    between atoms: C4_4  and  C5_6 
REMARK    4  A    between atoms: C5_6  and  C6_7 
REMARK    5  A    between atoms: C6_7  and  C8_9 
REMARK    6  A    between atoms: C30_32  and  O4_34 
ROOT
HETATM    1  C8  UNL     1      -8.952   6.357  14.770  1.00  0.00    -0.001 C 
HETATM    2  C9  UNL     1      -8.352   6.256  16.183  1.00  0.00     0.007 C 
HETATM    3  C10 UNL     1      -6.942   5.654  16.030  1.00  0.00     0.015 C 
HETATM    4  C11 UNL     1      -6.759   5.308  14.525  1.00  0.00    -0.013 C 
HETATM    5  C12 UNL     1      -7.268   3.844  14.356  1.00  0.00     0.021 C 
HETATM    6  C13 UNL     1      -5.304   5.473  14.017  1.00  0.00    -0.070 C 
HETATM    7  C14 UNL     1      -4.612   4.498  13.403  1.00  0.00    -0.022 C 
HETATM    8  C15 UNL     1      -3.276   4.660  12.756  1.00  0.00     0.034 C 
HETATM    9  C16 UNL     1      -2.740   6.113  12.592  1.00  0.00     0.013 C 
HETATM   10  C17 UNL     1      -1.193   6.063  12.286  1.00  0.00     0.018 C 
HETATM   11  C18 UNL     1      -0.624   7.392  11.754  1.00  0.00     0.023 C 
HETATM   12  C19 UNL     1      -0.880   5.006  11.196  1.00  0.00     0.023 C 
HETATM   13  C20 UNL     1      -0.448   5.691  13.580  1.00  0.00     0.135 C 
HETATM   14  O2  UNL     1       0.516   4.923  13.578  1.00  0.00    -0.297 OA
HETATM   15  C21 UNL     1      -0.857   6.385  14.865  1.00  0.00     0.080 C 
HETATM   16  C22 UNL     1      -2.370   6.446  15.066  1.00  0.00     0.017 C 
HETATM   17  C23 UNL     1      -3.151   6.980  13.828  1.00  0.00    -0.031 C 
HETATM   18  C24 UNL     1      -2.816   8.485  13.669  1.00  0.00     0.016 C 
HETATM   19  C25 UNL     1      -4.712   6.871  14.099  1.00  0.00     0.024 C 
HETATM   20  C26 UNL     1      -5.608   7.748  13.200  1.00  0.00     0.010 C 
HETATM   21  C27 UNL     1      -7.040   7.762  13.748  1.00  0.00     0.011 C 
HETATM   22  C28 UNL     1      -7.708   6.362  13.821  1.00  0.00    -0.029 C 
HETATM   23  C29 UNL     1      -8.112   5.945  12.391  1.00  0.00     0.016 C 
ENDROOT
BRANCH   1  24
HETATM   24  C6  UNL     1     -10.057   7.434  14.560  1.00  0.00    -0.007 C 
HETATM   25  C7  UNL     1     -11.430   6.736  14.492  1.00  0.00     0.011 C 
BRANCH  24  26
HETATM   26  C5  UNL     1     -10.130   8.548  15.625  1.00  0.00     0.087 C 
BRANCH  26  27
HETATM   27  C4  UNL     1     -10.421   9.923  15.039  1.00  0.00     0.150 C 
HETATM   28  O1  UNL     1     -10.075  10.969  15.582  1.00  0.00    -0.293 OA
BRANCH  27  29
HETATM   29  C3  UNL     1     -11.211   9.935  13.775  1.00  0.00     0.063 C 
HETATM   30  C2  UNL     1     -12.549  10.061  13.706  1.00  0.00     0.015 C 
HETATM   31  C1  UNL     1     -13.493  10.286  14.848  1.00  0.00     0.055 C 
BRANCH  30  32
HETATM   32  C30 UNL     1     -13.110   9.994  12.337  1.00  0.00     0.171 C 
HETATM   33  O3  UNL     1     -14.292  10.020  12.039  1.00  0.00    -0.646 OA
BRANCH  32  34
HETATM   34  O4  UNL     1     -12.159   9.908  11.394  1.00  0.00    -0.773 OA
HETATM   35  H44 UNL     1     -12.659   9.892  10.552  1.00  0.00     0.167 HD
ENDBRANCH  32  34
ENDBRANCH  30  32
ENDBRANCH  27  29
ENDBRANCH  26  27
ENDBRANCH  24  26
ENDBRANCH   1  24
TORSDOF 6
ENDMDL
MODEL 9
REMARK minimizedAffinity -6.90389967
REMARK CNNscore 0.25177145
REMARK CNNaffinity 6.01957846
REMARK  6 active torsions:
REMARK  status: ('A' for Active; 'I' for Inactive)
REMARK    1  A    between atoms: C2_2  and  C30_32 
REMARK    2  A    between atoms: C3_3  and  C4_4 
REMARK    3  A    between atoms: C4_4  and  C5_6 
REMARK    4  A    between atoms: C5_6  and  C6_7 
REMARK    5  A    between atoms: C6_7  and  C8_9 
REMARK    6  A    between atoms: C30_32  and  O4_34 
ROOT
HETATM    1  C8  UNL     1      -0.462   7.458  13.183  1.00  0.00    -0.001 C 
HETATM    2  C9  UNL     1      -1.222   8.234  12.093  1.00  0.00     0.007 C 
HETATM    3  C10 UNL     1      -2.330   9.036  12.803  1.00  0.00     0.015 C 
HETATM    4  C11 UNL     1      -2.278   8.644  14.307  1.00  0.00    -0.013 C 
HETATM    5  C12 UNL     1      -3.232   7.421  14.466  1.00  0.00     0.021 C 
HETATM    6  C13 UNL     1      -2.660   9.798  15.268  1.00  0.00    -0.070 C 
HETATM    7  C14 UNL     1      -3.624   9.707  16.200  1.00  0.00    -0.022 C 
HETATM    8  C15 UNL     1      -3.914  10.729  17.249  1.00  0.00     0.034 C 
HETATM    9  C16 UNL     1      -2.887  11.889  17.411  1.00  0.00     0.013 C 
HETATM   10  C17 UNL     1      -3.549  13.054  18.243  1.00  0.00     0.018 C 
HETATM   11  C18 UNL     1      -2.537  14.088  18.775  1.00  0.00     0.023 C 
HETATM   12  C19 UNL     1      -4.274  12.496  19.495  1.00  0.00     0.023 C 
HETATM   13  C20 UNL     1      -4.569  13.779  17.349  1.00  0.00     0.135 C 
HETATM   14  O2  UNL     1      -5.657  14.164  17.782  1.00  0.00    -0.297 OA
HETATM   15  C21 UNL     1      -4.162  14.116  15.927  1.00  0.00     0.080 C 
HETATM   16  C22 UNL     1      -3.476  12.958  15.203  1.00  0.00     0.017 C 
HETATM   17  C23 UNL     1      -2.318  12.303  16.014  1.00  0.00    -0.031 C 
HETATM   18  C24 UNL     1      -1.158  13.326  16.094  1.00  0.00     0.016 C 
HETATM   19  C25 UNL     1      -1.774  11.034  15.228  1.00  0.00     0.024 C 
HETATM   20  C26 UNL     1      -0.371  10.545  15.642  1.00  0.00     0.010 C 
HETATM   21  C27 UNL     1       0.139   9.512  14.630  1.00  0.00     0.011 C 
HETATM   22  C28 UNL     1      -0.756   8.251  14.499  1.00  0.00    -0.029 C 
HETATM   23  C29 UNL     1      -0.518   7.360  15.737  1.00  0.00     0.016 C 
ENDROOT
BRANCH   1  24
HETATM   24  C6  UNL     1       1.011   7.069  12.859  1.00  0.00    -0.007 C 
HETATM   25  C7  UNL     1       1.039   5.622  12.325  1.00  0.00     0.011 C 
BRANCH  24  26
HETATM   26  C5  UNL     1       1.747   7.974  11.850  1.00  0.00     0.087 C 
BRANCH  26  27
HETATM   27  C4  UNL     1       3.079   8.498  12.369  1.00  0.00     0.150 C 
HETATM   28  O1  UNL     1       3.199   9.585  12.926  1.00  0.00    -0.293 OA
BRANCH  27  29
HETATM   29  C3  UNL     1       4.261   7.627  12.112  1.00  0.00     0.063 C 
HETATM   30  C2  UNL     1       5.144   7.805  11.111  1.00  0.00     0.015 C 
HETATM   31  C1  UNL     1       5.165   8.927  10.118  1.00  0.00     0.055 C 
BRANCH  30  32
HETATM   32  C30 UNL     1       6.208   6.779  11.031  1.00  0.00     0.171 C 
HETATM   33  O3  UNL     1       7.393   6.948  11.265  1.00  0.00    -0.646 OA
BRANCH  32  34
HETATM   34  O4  UNL     1       5.737   5.575  10.671  1.00  0.00    -0.773 OA
HETATM   35  H44 UNL     1       6.529   4.998  10.677  1.00  0.00     0.167 HD
ENDBRANCH  32  34
ENDBRANCH  30  32
ENDBRANCH  27  29
ENDBRANCH  26  27
ENDBRANCH  24  26
ENDBRANCH   1  24
TORSDOF 6
ENDMDL
