MODEL 1
REMARK minimizedAffinity -9.40185833
REMARK  7 active torsions:
REMARK  status: ('A' for Active; 'I' for Inactive)
REMARK    1  A    between atoms: C4_4  and  C5_5 
REMARK    2  A    between atoms: C5_5  and  O1_6 
REMARK    3  A    between atoms: C5_5  and  C6_7 
REMARK    4  A    between atoms: C6_7  and  C7_8 
REMARK    5  A    between atoms: C7_8  and  C8_9 
REMARK    6  A    between atoms: C7_8  and  C9_11 
REMARK    7  A    between atoms: C8_9  and  O2_10 
ROOT
HETATM    1  C9  UNL     1      -1.007  52.283 -24.943  1.00  0.00     0.001 C 
HETATM    2  C10 UNL     1      -0.404  51.124 -25.788  1.00  0.00     0.007 C 
HETATM    3  C11 UNL     1      -1.416  49.967 -25.740  1.00  0.00     0.015 C 
HETATM    4  C12 UNL     1      -2.323  50.288 -24.535  1.00  0.00    -0.013 C 
HETATM    5  C13 UNL     1      -1.550  49.815 -23.266  1.00  0.00     0.021 C 
HETATM    6  C14 UNL     1      -3.696  49.646 -24.472  1.00  0.00    -0.070 C 
HETATM    7  C15 UNL     1      -4.062  48.563 -25.176  1.00  0.00    -0.022 C 
HETATM    8  C16 UNL     1      -5.461  48.040 -25.119  1.00  0.00     0.034 C 
HETATM    9  C17 UNL     1      -6.121  48.096 -23.714  1.00  0.00     0.013 C 
HETATM   10  C18 UNL     1      -7.680  47.977 -23.781  1.00  0.00     0.018 C 
HETATM   11  C19 UNL     1      -8.080  46.634 -24.439  1.00  0.00     0.023 C 
HETATM   12  C20 UNL     1      -8.379  49.090 -24.583  1.00  0.00     0.023 C 
HETATM   13  C21 UNL     1      -8.222  47.975 -22.346  1.00  0.00     0.135 C 
HETATM   14  O3  UNL     1      -9.066  47.162 -21.957  1.00  0.00    -0.297 OA
HETATM   15  C22 UNL     1      -7.712  49.011 -21.376  1.00  0.00     0.080 C 
HETATM   16  C23 UNL     1      -6.676  49.952 -21.965  1.00  0.00     0.017 C 
HETATM   17  C24 UNL     1      -5.556  49.249 -22.772  1.00  0.00    -0.031 C 
HETATM   18  C25 UNL     1      -4.613  48.554 -21.739  1.00  0.00     0.016 C 
HETATM   19  C26 UNL     1      -4.752  50.324 -23.605  1.00  0.00     0.024 C 
HETATM   20  C27 UNL     1      -4.228  51.529 -22.775  1.00  0.00     0.010 C 
HETATM   21  C28 UNL     1      -3.127  52.414 -23.406  1.00  0.00     0.011 C 
HETATM   22  C29 UNL     1      -2.486  51.845 -24.686  1.00  0.00    -0.029 C 
HETATM   23  C30 UNL     1      -3.385  52.252 -25.889  1.00  0.00     0.016 C 
ENDROOT
BRANCH   1  24
HETATM   24  C7  UNL     1      -0.612  53.695 -25.466  1.00  0.00     0.017 C 
BRANCH  24  25
HETATM   25  C6  UNL     1       0.153  54.614 -24.475  1.00  0.00     0.043 C 
BRANCH  25  26
HETATM   26  C5  UNL     1       1.134  53.864 -23.553  1.00  0.00     0.141 C 
BRANCH  26  27
HETATM   27  C4  UNL     1       0.388  52.968 -22.602  1.00  0.00     0.006 C 
HETATM   28  C2  UNL     1       0.484  52.902 -21.259  1.00  0.00    -0.089 C 
HETATM   29  C1  UNL     1       1.389  53.744 -20.402  1.00  0.00     0.042 C 
HETATM   30  C3  UNL     1      -0.358  51.921 -20.483  1.00  0.00     0.042 C 
ENDBRANCH  26  27
BRANCH  26  31
HETATM   31  O1  UNL     1       1.841  54.815 -22.759  1.00  0.00    -0.392 OA
HETATM   32  H9  UNL     1       2.261  54.316 -22.036  1.00  0.00     0.210 HD
ENDBRANCH  26  31
ENDBRANCH  25  26
ENDBRANCH  24  25
BRANCH  24  33
HETATM   33  C8  UNL     1       0.126  53.604 -26.811  1.00  0.00     0.169 C 
BRANCH  33  34
HETATM   34  O2  UNL     1      -0.555  54.344 -27.819  1.00  0.00    -0.400 OA
HETATM   35  H15 UNL     1      -1.470  54.003 -27.847  1.00  0.00     0.209 HD
ENDBRANCH  33  34
ENDBRANCH  24  33
ENDBRANCH   1  24
TORSDOF 7
ENDMDL
MODEL 2
REMARK minimizedAffinity -9.3736763
REMARK  7 active torsions:
REMARK  status: ('A' for Active; 'I' for Inactive)
REMARK    1  A    between atoms: C4_4  and  C5_5 
REMARK    2  A    between atoms: C5_5  and  O1_6 
REMARK    3  A    between atoms: C5_5  and  C6_7 
REMARK    4  A    between atoms: C6_7  and  C7_8 
REMARK    5  A    between atoms: C7_8  and  C8_9 
REMARK    6  A    between atoms: C7_8  and  C9_11 
REMARK    7  A    between atoms: C8_9  and  O2_10 
ROOT
HETATM    1  C9  UNL     1      -1.843  50.447 -19.074  1.00  0.00     0.001 C 
HETATM    2  C10 UNL     1      -3.142  49.687 -18.678  1.00  0.00     0.007 C 
HETATM    3  C11 UNL     1      -3.851  49.308 -19.988  1.00  0.00     0.015 C 
HETATM    4  C12 UNL     1      -3.222  50.226 -21.056  1.00  0.00    -0.013 C 
HETATM    5  C13 UNL     1      -3.944  51.602 -20.931  1.00  0.00     0.021 C 
HETATM    6  C14 UNL     1      -3.321  49.814 -22.512  1.00  0.00    -0.070 C 
HETATM    7  C15 UNL     1      -4.196  48.915 -22.991  1.00  0.00    -0.022 C 
HETATM    8  C16 UNL     1      -4.174  48.502 -24.428  1.00  0.00     0.034 C 
HETATM    9  C17 UNL     1      -3.882  49.652 -25.430  1.00  0.00     0.013 C 
HETATM   10  C18 UNL     1      -3.425  49.121 -26.830  1.00  0.00     0.018 C 
HETATM   11  C19 UNL     1      -4.531  48.227 -27.443  1.00  0.00     0.023 C 
HETATM   12  C20 UNL     1      -2.134  48.284 -26.814  1.00  0.00     0.023 C 
HETATM   13  C21 UNL     1      -3.231  50.327 -27.759  1.00  0.00     0.135 C 
HETATM   14  O3  UNL     1      -3.680  50.359 -28.908  1.00  0.00    -0.297 OA
HETATM   15  C22 UNL     1      -2.452  51.515 -27.251  1.00  0.00     0.080 C 
HETATM   16  C23 UNL     1      -1.952  51.364 -25.826  1.00  0.00     0.017 C 
HETATM   17  C24 UNL     1      -3.014  50.843 -24.826  1.00  0.00    -0.031 C 
HETATM   18  C25 UNL     1      -4.004  52.019 -24.554  1.00  0.00     0.016 C 
HETATM   19  C26 UNL     1      -2.305  50.407 -23.483  1.00  0.00     0.024 C 
HETATM   20  C27 UNL     1      -1.373  51.485 -22.861  1.00  0.00     0.010 C 
HETATM   21  C28 UNL     1      -0.949  51.306 -21.384  1.00  0.00     0.011 C 
HETATM   22  C29 UNL     1      -1.713  50.212 -20.614  1.00  0.00    -0.029 C 
HETATM   23  C30 UNL     1      -1.006  48.854 -20.894  1.00  0.00     0.016 C 
ENDROOT
BRANCH   1  24
HETATM   24  C7  UNL     1      -0.672  50.225 -18.074  1.00  0.00     0.017 C 
BRANCH  24  25
HETATM   25  C6  UNL     1      -0.388  51.376 -17.069  1.00  0.00     0.043 C 
BRANCH  25  26
HETATM   26  C5  UNL     1       1.086  51.825 -17.031  1.00  0.00     0.141 C 
BRANCH  26  27
HETATM   27  C4  UNL     1       1.698  51.521 -15.691  1.00  0.00     0.006 C 
HETATM   28  C2  UNL     1       2.962  51.738 -15.276  1.00  0.00    -0.089 C 
HETATM   29  C1  UNL     1       4.062  52.354 -16.097  1.00  0.00     0.042 C 
HETATM   30  C3  UNL     1       3.382  51.352 -13.880  1.00  0.00     0.042 C 
ENDBRANCH  26  27
BRANCH  26  31
HETATM   31  O1  UNL     1       1.142  53.240 -17.202  1.00  0.00    -0.392 OA
HETATM   32  H9  UNL     1       2.036  53.517 -16.935  1.00  0.00     0.210 HD
ENDBRANCH  26  31
ENDBRANCH  25  26
ENDBRANCH  24  25
BRANCH  24  33
HETATM   33  C8  UNL     1      -0.812  48.882 -17.340  1.00  0.00     0.169 C 
BRANCH  33  34
HETATM   34  O2  UNL     1      -0.880  49.073 -15.931  1.00  0.00    -0.400 OA
HETATM   35  H15 UNL     1      -0.084  49.581 -15.678  1.00  0.00     0.209 HD
ENDBRANCH  33  34
ENDBRANCH  24  33
ENDBRANCH   1  24
TORSDOF 7
ENDMDL
MODEL 3
REMARK minimizedAffinity -9.25158882
REMARK  7 active torsions:
REMARK  status: ('A' for Active; 'I' for Inactive)
REMARK    1  A    between atoms: C4_4  and  C5_5 
REMARK    2  A    between atoms: C5_5  and  O1_6 
REMARK    3  A    between atoms: C5_5  and  C6_7 
REMARK    4  A    between atoms: C6_7  and  C7_8 
REMARK    5  A    between atoms: C7_8  and  C8_9 
REMARK    6  A    between atoms: C7_8  and  C9_11 
REMARK    7  A    between atoms: C8_9  and  O2_10 
ROOT
HETATM    1  C9  UNL     1      -3.887  50.646 -25.119  1.00  0.00     0.001 C 
HETATM    2  C10 UNL     1      -4.399  52.066 -24.744  1.00  0.00     0.007 C 
HETATM    3  C11 UNL     1      -4.350  52.165 -23.211  1.00  0.00     0.015 C 
HETATM    4  C12 UNL     1      -4.263  50.704 -22.725  1.00  0.00    -0.013 C 
HETATM    5  C13 UNL     1      -5.718  50.145 -22.754  1.00  0.00     0.021 C 
HETATM    6  C14 UNL     1      -3.723  50.436 -21.333  1.00  0.00    -0.070 C 
HETATM    7  C15 UNL     1      -3.639  51.356 -20.359  1.00  0.00    -0.022 C 
HETATM    8  C16 UNL     1      -3.017  51.032 -19.039  1.00  0.00     0.034 C 
HETATM    9  C17 UNL     1      -3.340  49.611 -18.500  1.00  0.00     0.013 C 
HETATM   10  C18 UNL     1      -2.338  49.154 -17.386  1.00  0.00     0.018 C 
HETATM   11  C19 UNL     1      -2.390  50.138 -16.192  1.00  0.00     0.023 C 
HETATM   12  C20 UNL     1      -0.868  49.075 -17.833  1.00  0.00     0.023 C 
HETATM   13  C21 UNL     1      -2.784  47.777 -16.878  1.00  0.00     0.135 C 
HETATM   14  O3  UNL     1      -2.859  47.506 -15.676  1.00  0.00    -0.297 OA
HETATM   15  C22 UNL     1      -3.135  46.710 -17.885  1.00  0.00     0.080 C 
HETATM   16  C23 UNL     1      -3.009  47.159 -19.330  1.00  0.00     0.017 C 
HETATM   17  C24 UNL     1      -3.651  48.536 -19.632  1.00  0.00    -0.031 C 
HETATM   18  C25 UNL     1      -5.198  48.330 -19.634  1.00  0.00     0.016 C 
HETATM   19  C26 UNL     1      -3.168  49.044 -21.048  1.00  0.00     0.024 C 
HETATM   20  C27 UNL     1      -3.364  48.023 -22.205  1.00  0.00     0.010 C 
HETATM   21  C28 UNL     1      -3.285  48.555 -23.656  1.00  0.00     0.011 C 
HETATM   22  C29 UNL     1      -3.281  50.090 -23.789  1.00  0.00    -0.029 C 
HETATM   23  C30 UNL     1      -1.813  50.577 -23.620  1.00  0.00     0.016 C 
ENDROOT
BRANCH   1  24
HETATM   24  C7  UNL     1      -3.137  50.603 -26.483  1.00  0.00     0.017 C 
BRANCH  24  25
HETATM   25  C6  UNL     1      -1.611  50.889 -26.446  1.00  0.00     0.043 C 
BRANCH  25  26
HETATM   26  C5  UNL     1      -1.056  51.504 -27.746  1.00  0.00     0.141 C 
BRANCH  26  27
HETATM   27  C4  UNL     1       0.446  51.437 -27.765  1.00  0.00     0.006 C 
HETATM   28  C2  UNL     1       1.316  51.794 -26.799  1.00  0.00    -0.089 C 
HETATM   29  C1  UNL     1       0.949  52.349 -25.450  1.00  0.00     0.042 C 
HETATM   30  C3  UNL     1       2.800  51.652 -27.020  1.00  0.00     0.042 C 
ENDBRANCH  26  27
BRANCH  26  31
HETATM   31  O1  UNL     1      -1.412  52.884 -27.792  1.00  0.00    -0.392 OA
HETATM   32  H9  UNL     1      -0.857  53.291 -28.481  1.00  0.00     0.210 HD
ENDBRANCH  26  31
ENDBRANCH  25  26
ENDBRANCH  24  25
BRANCH  24  33
HETATM   33  C8  UNL     1      -3.431  49.297 -27.239  1.00  0.00     0.169 C 
BRANCH  33  34
HETATM   34  O2  UNL     1      -3.963  49.565 -28.532  1.00  0.00    -0.400 OA
HETATM   35  H15 UNL     1      -4.750  50.130 -28.401  1.00  0.00     0.209 HD
ENDBRANCH  33  34
ENDBRANCH  24  33
ENDBRANCH   1  24
TORSDOF 7
ENDMDL
MODEL 4
REMARK minimizedAffinity -9.20253372
REMARK  7 active torsions:
REMARK  status: ('A' for Active; 'I' for Inactive)
REMARK    1  A    between atoms: C4_4  and  C5_5 
REMARK    2  A    between atoms: C5_5  and  O1_6 
REMARK    3  A    between atoms: C5_5  and  C6_7 
REMARK    4  A    between atoms: C6_7  and  C7_8 
REMARK    5  A    between atoms: C7_8  and  C8_9 
REMARK    6  A    between atoms: C7_8  and  C9_11 
REMARK    7  A    between atoms: C8_9  and  O2_10 
ROOT
HETATM    1  C9  UNL     1      -3.919  47.678 -20.385  1.00  0.00     0.001 C 
HETATM    2  C10 UNL     1      -5.037  47.218 -21.365  1.00  0.00     0.007 C 
HETATM    3  C11 UNL     1      -4.745  47.889 -22.717  1.00  0.00     0.015 C 
HETATM    4  C12 UNL     1      -3.781  49.046 -22.383  1.00  0.00    -0.013 C 
HETATM    5  C13 UNL     1      -4.667  50.219 -21.863  1.00  0.00     0.021 C 
HETATM    6  C14 UNL     1      -2.918  49.612 -23.494  1.00  0.00    -0.070 C 
HETATM    7  C15 UNL     1      -3.158  49.444 -24.804  1.00  0.00    -0.022 C 
HETATM    8  C16 UNL     1      -2.212  49.966 -25.838  1.00  0.00     0.034 C 
HETATM    9  C17 UNL     1      -1.592  51.352 -25.511  1.00  0.00     0.013 C 
HETATM   10  C18 UNL     1      -0.306  51.644 -26.355  1.00  0.00     0.018 C 
HETATM   11  C19 UNL     1      -0.648  51.621 -27.865  1.00  0.00     0.023 C 
HETATM   12  C20 UNL     1       0.845  50.645 -26.144  1.00  0.00     0.023 C 
HETATM   13  C21 UNL     1       0.183  53.056 -26.007  1.00  0.00     0.135 C 
HETATM   14  O3  UNL     1       0.509  53.877 -26.871  1.00  0.00    -0.297 OA
HETATM   15  C22 UNL     1       0.279  53.454 -24.556  1.00  0.00     0.080 C 
HETATM   16  C23 UNL     1      -0.151  52.367 -23.587  1.00  0.00     0.017 C 
HETATM   17  C24 UNL     1      -1.485  51.671 -23.955  1.00  0.00    -0.031 C 
HETATM   18  C25 UNL     1      -2.632  52.678 -23.629  1.00  0.00     0.016 C 
HETATM   19  C26 UNL     1      -1.650  50.358 -23.091  1.00  0.00     0.024 C 
HETATM   20  C27 UNL     1      -1.483  50.564 -21.559  1.00  0.00     0.010 C 
HETATM   21  C28 UNL     1      -1.998  49.447 -20.621  1.00  0.00     0.011 C 
HETATM   22  C29 UNL     1      -2.859  48.367 -21.305  1.00  0.00    -0.029 C 
HETATM   23  C30 UNL     1      -1.895  47.303 -21.906  1.00  0.00     0.016 C 
ENDROOT
BRANCH   1  24
HETATM   24  C7  UNL     1      -3.557  46.605 -19.318  1.00  0.00     0.017 C 
BRANCH  24  25
HETATM   25  C6  UNL     1      -3.630  47.050 -17.832  1.00  0.00     0.043 C 
BRANCH  25  26
HETATM   26  C5  UNL     1      -2.989  48.425 -17.556  1.00  0.00     0.141 C 
BRANCH  26  27
HETATM   27  C4  UNL     1      -1.792  48.282 -16.658  1.00  0.00     0.006 C 
HETATM   28  C2  UNL     1      -0.630  48.964 -16.691  1.00  0.00    -0.089 C 
HETATM   29  C1  UNL     1      -0.280  50.053 -17.668  1.00  0.00     0.042 C 
HETATM   30  C3  UNL     1       0.459  48.662 -15.694  1.00  0.00     0.042 C 
ENDBRANCH  26  27
BRANCH  26  31
HETATM   31  O1  UNL     1      -3.932  49.243 -16.866  1.00  0.00    -0.392 OA
HETATM   32  H9  UNL     1      -3.432  49.993 -16.499  1.00  0.00     0.210 HD
ENDBRANCH  26  31
ENDBRANCH  25  26
ENDBRANCH  24  25
BRANCH  24  33
HETATM   33  C8  UNL     1      -4.351  45.308 -19.540  1.00  0.00     0.169 C 
BRANCH  33  34
HETATM   34  O2  UNL     1      -3.644  44.415 -20.395  1.00  0.00    -0.400 OA
HETATM   35  H15 UNL     1      -3.451  44.907 -21.218  1.00  0.00     0.209 HD
ENDBRANCH  33  34
ENDBRANCH  24  33
ENDBRANCH   1  24
TORSDOF 7
ENDMDL
MODEL 5
REMARK minimizedAffinity -9.10612869
REMARK  7 active torsions:
REMARK  status: ('A' for Active; 'I' for Inactive)
REMARK    1  A    between atoms: C4_4  and  C5_5 
REMARK    2  A    between atoms: C5_5  and  O1_6 
REMARK    3  A    between atoms: C5_5  and  C6_7 
REMARK    4  A    between atoms: C6_7  and  C7_8 
REMARK    5  A    between atoms: C7_8  and  C8_9 
REMARK    6  A    between atoms: C7_8  and  C9_11 
REMARK    7  A    between atoms: C8_9  and  O2_10 
ROOT
HETATM    1  C9  UNL     1      -2.472  49.071 -19.037  1.00  0.00     0.001 C 
HETATM    2  C10 UNL     1      -3.740  48.343 -19.567  1.00  0.00     0.007 C 
HETATM    3  C11 UNL     1      -3.833  48.652 -21.070  1.00  0.00     0.015 C 
HETATM    4  C12 UNL     1      -2.925  49.882 -21.276  1.00  0.00    -0.013 C 
HETATM    5  C13 UNL     1      -3.768  51.124 -20.853  1.00  0.00     0.021 C 
HETATM    6  C14 UNL     1      -2.399  50.168 -22.669  1.00  0.00    -0.070 C 
HETATM    7  C15 UNL     1      -2.921  49.662 -23.798  1.00  0.00    -0.022 C 
HETATM    8  C16 UNL     1      -2.293  49.927 -25.128  1.00  0.00     0.034 C 
HETATM    9  C17 UNL     1      -1.742  51.368 -25.312  1.00  0.00     0.013 C 
HETATM   10  C18 UNL     1      -0.719  51.469 -26.493  1.00  0.00     0.018 C 
HETATM   11  C19 UNL     1      -1.399  51.049 -27.819  1.00  0.00     0.023 C 
HETATM   12  C20 UNL     1       0.535  50.590 -26.338  1.00  0.00     0.023 C 
HETATM   13  C21 UNL     1      -0.291  52.936 -26.630  1.00  0.00     0.135 C 
HETATM   14  O3  UNL     1      -0.250  53.516 -27.720  1.00  0.00    -0.297 OA
HETATM   15  C22 UNL     1       0.104  53.697 -25.389  1.00  0.00     0.080 C 
HETATM   16  C23 UNL     1       0.011  52.883 -24.110  1.00  0.00     0.017 C 
HETATM   17  C24 UNL     1      -1.304  52.079 -23.956  1.00  0.00    -0.031 C 
HETATM   18  C25 UNL     1      -2.430  53.103 -23.610  1.00  0.00     0.016 C 
HETATM   19  C26 UNL     1      -1.145  51.028 -22.787  1.00  0.00     0.024 C 
HETATM   20  C27 UNL     1      -0.645  51.625 -21.441  1.00  0.00     0.010 C 
HETATM   21  C28 UNL     1      -0.825  50.772 -20.163  1.00  0.00     0.011 C 
HETATM   22  C29 UNL     1      -1.720  49.529 -20.329  1.00  0.00    -0.029 C 
HETATM   23  C30 UNL     1      -0.831  48.374 -20.874  1.00  0.00     0.016 C 
ENDROOT
BRANCH   1  24
HETATM   24  C7  UNL     1      -1.776  48.318 -17.866  1.00  0.00     0.017 C 
BRANCH  24  25
HETATM   25  C6  UNL     1      -0.500  48.980 -17.275  1.00  0.00     0.043 C 
BRANCH  25  26
HETATM   26  C5  UNL     1      -0.679  50.464 -16.900  1.00  0.00     0.141 C 
BRANCH  26  27
HETATM   27  C4  UNL     1       0.629  51.063 -16.463  1.00  0.00     0.006 C 
HETATM   28  C2  UNL     1       1.317  52.079 -17.022  1.00  0.00    -0.089 C 
HETATM   29  C1  UNL     1       0.899  52.855 -18.240  1.00  0.00     0.042 C 
HETATM   30  C3  UNL     1       2.627  52.529 -16.426  1.00  0.00     0.042 C 
ENDBRANCH  26  27
BRANCH  26  31
HETATM   31  O1  UNL     1      -1.570  50.555 -15.789  1.00  0.00    -0.392 OA
HETATM   32  H9  UNL     1      -1.474  51.455 -15.430  1.00  0.00     0.210 HD
ENDBRANCH  26  31
ENDBRANCH  25  26
ENDBRANCH  24  25
BRANCH  24  33
HETATM   33  C8  UNL     1      -2.777  47.970 -16.753  1.00  0.00     0.169 C 
BRANCH  33  34
HETATM   34  O2  UNL     1      -3.725  49.018 -16.573  1.00  0.00    -0.400 OA
HETATM   35  H15 UNL     1      -3.214  49.834 -16.404  1.00  0.00     0.209 HD
ENDBRANCH  33  34
ENDBRANCH  24  33
ENDBRANCH   1  24
TORSDOF 7
ENDMDL
MODEL 6
REMARK minimizedAffinity -8.81690121
REMARK  7 active torsions:
REMARK  status: ('A' for Active; 'I' for Inactive)
REMARK    1  A    between atoms: C4_4  and  C5_5 
REMARK    2  A    between atoms: C5_5  and  O1_6 
REMARK    3  A    between atoms: C5_5  and  C6_7 
REMARK    4  A    between atoms: C6_7  and  C7_8 
REMARK    5  A    between atoms: C7_8  and  C8_9 
REMARK    6  A    between atoms: C7_8  and  C9_11 
REMARK    7  A    between atoms: C8_9  and  O2_10 
ROOT
HETATM    1  C9  UNL     1      -2.716  50.716 -24.492  1.00  0.00     0.001 C 
HETATM    2  C10 UNL     1      -2.820  49.571 -25.539  1.00  0.00     0.007 C 
HETATM    3  C11 UNL     1      -3.770  48.515 -24.950  1.00  0.00     0.015 C 
HETATM    4  C12 UNL     1      -3.822  48.831 -23.441  1.00  0.00    -0.013 C 
HETATM    5  C13 UNL     1      -2.544  48.195 -22.815  1.00  0.00     0.021 C 
HETATM    6  C14 UNL     1      -5.002  48.321 -22.636  1.00  0.00    -0.070 C 
HETATM    7  C15 UNL     1      -5.821  47.332 -23.030  1.00  0.00    -0.022 C 
HETATM    8  C16 UNL     1      -7.011  46.942 -22.215  1.00  0.00     0.034 C 
HETATM    9  C17 UNL     1      -6.781  46.957 -20.679  1.00  0.00     0.013 C 
HETATM   10  C18 UNL     1      -8.123  46.992 -19.874  1.00  0.00     0.018 C 
HETATM   11  C19 UNL     1      -8.976  45.746 -20.213  1.00  0.00     0.023 C 
HETATM   12  C20 UNL     1      -9.007  48.223 -20.146  1.00  0.00     0.023 C 
HETATM   13  C21 UNL     1      -7.786  46.936 -18.379  1.00  0.00     0.135 C 
HETATM   14  O3  UNL     1      -8.370  46.182 -17.595  1.00  0.00    -0.297 OA
HETATM   15  C22 UNL     1      -6.708  47.845 -17.843  1.00  0.00     0.080 C 
HETATM   16  C23 UNL     1      -6.060  48.724 -18.898  1.00  0.00     0.017 C 
HETATM   17  C24 UNL     1      -5.659  47.978 -20.195  1.00  0.00    -0.031 C 
HETATM   18  C25 UNL     1      -4.396  47.123 -19.861  1.00  0.00     0.016 C 
HETATM   19  C26 UNL     1      -5.321  49.030 -21.324  1.00  0.00     0.024 C 
HETATM   20  C27 UNL     1      -4.287  50.116 -20.912  1.00  0.00     0.010 C 
HETATM   21  C28 UNL     1      -3.614  50.936 -22.038  1.00  0.00     0.011 C 
HETATM   22  C29 UNL     1      -3.853  50.404 -23.464  1.00  0.00    -0.029 C 
HETATM   23  C30 UNL     1      -5.208  50.982 -23.966  1.00  0.00     0.016 C 
ENDROOT
BRANCH   1  24
HETATM   24  C7  UNL     1      -2.507  52.119 -25.133  1.00  0.00     0.017 C 
BRANCH  24  25
HETATM   25  C6  UNL     1      -1.288  52.939 -24.628  1.00  0.00     0.043 C 
BRANCH  25  26
HETATM   26  C5  UNL     1      -0.330  53.393 -25.746  1.00  0.00     0.141 C 
BRANCH  26  27
HETATM   27  C4  UNL     1       0.926  52.565 -25.737  1.00  0.00     0.006 C 
HETATM   28  C2  UNL     1       1.472  51.854 -26.744  1.00  0.00    -0.089 C 
HETATM   29  C1  UNL     1       0.918  51.741 -28.138  1.00  0.00     0.042 C 
HETATM   30  C3  UNL     1       2.747  51.080 -26.525  1.00  0.00     0.042 C 
ENDBRANCH  26  27
BRANCH  26  31
HETATM   31  O1  UNL     1       0.060  54.743 -25.501  1.00  0.00    -0.392 OA
HETATM   32  H9  UNL     1       0.832  54.916 -26.068  1.00  0.00     0.210 HD
ENDBRANCH  26  31
ENDBRANCH  25  26
ENDBRANCH  24  25
BRANCH  24  33
HETATM   33  C8  UNL     1      -2.512  52.036 -26.668  1.00  0.00     0.169 C 
BRANCH  33  34
HETATM   34  O2  UNL     1      -2.462  53.334 -27.250  1.00  0.00    -0.400 OA
HETATM   35  H15 UNL     1      -3.213  53.838 -26.879  1.00  0.00     0.209 HD
ENDBRANCH  33  34
ENDBRANCH  24  33
ENDBRANCH   1  24
TORSDOF 7
ENDMDL
MODEL 7
REMARK minimizedAffinity -8.70542336
REMARK  7 active torsions:
REMARK  status: ('A' for Active; 'I' for Inactive)
REMARK    1  A    between atoms: C4_4  and  C5_5 
REMARK    2  A    between atoms: C5_5  and  O1_6 
REMARK    3  A    between atoms: C5_5  and  C6_7 
REMARK    4  A    between atoms: C6_7  and  C7_8 
REMARK    5  A    between atoms: C7_8  and  C8_9 
REMARK    6  A    between atoms: C7_8  and  C9_11 
REMARK    7  A    between atoms: C8_9  and  O2_10 
ROOT
HETATM    1  C9  UNL     1      -3.839  51.419 -25.308  1.00  0.00     0.001 C 
HETATM    2  C10 UNL     1      -3.482  52.457 -24.206  1.00  0.00     0.007 C 
HETATM    3  C11 UNL     1      -3.703  51.762 -22.853  1.00  0.00     0.015 C 
HETATM    4  C12 UNL     1      -4.595  50.546 -23.176  1.00  0.00    -0.013 C 
HETATM    5  C13 UNL     1      -6.055  51.084 -23.265  1.00  0.00     0.021 C 
HETATM    6  C14 UNL     1      -4.618  49.386 -22.199  1.00  0.00    -0.070 C 
HETATM    7  C15 UNL     1      -4.213  49.460 -20.921  1.00  0.00    -0.022 C 
HETATM    8  C16 UNL     1      -4.191  48.249 -20.045  1.00  0.00     0.034 C 
HETATM    9  C17 UNL     1      -5.390  47.281 -20.243  1.00  0.00     0.013 C 
HETATM   10  C18 UNL     1      -5.106  45.854 -19.665  1.00  0.00     0.018 C 
HETATM   11  C19 UNL     1      -4.817  45.946 -18.147  1.00  0.00     0.023 C 
HETATM   12  C20 UNL     1      -3.910  45.125 -20.303  1.00  0.00     0.023 C 
HETATM   13  C21 UNL     1      -6.370  45.003 -19.849  1.00  0.00     0.135 C 
HETATM   14  O3  UNL     1      -6.837  44.304 -18.945  1.00  0.00    -0.297 OA
HETATM   15  C22 UNL     1      -7.062  45.013 -21.190  1.00  0.00     0.080 C 
HETATM   16  C23 UNL     1      -6.400  45.910 -22.221  1.00  0.00     0.017 C 
HETATM   17  C24 UNL     1      -6.031  47.321 -21.700  1.00  0.00    -0.031 C 
HETATM   18  C25 UNL     1      -7.362  48.128 -21.576  1.00  0.00     0.016 C 
HETATM   19  C26 UNL     1      -5.061  48.026 -22.729  1.00  0.00     0.024 C 
HETATM   20  C27 UNL     1      -5.574  48.043 -24.197  1.00  0.00     0.010 C 
HETATM   21  C28 UNL     1      -4.900  49.024 -25.185  1.00  0.00     0.011 C 
HETATM   22  C29 UNL     1      -3.967  50.065 -24.536  1.00  0.00    -0.029 C 
HETATM   23  C30 UNL     1      -2.568  49.406 -24.366  1.00  0.00     0.016 C 
ENDROOT
BRANCH   1  24
HETATM   24  C7  UNL     1      -2.995  51.585 -26.606  1.00  0.00     0.017 C 
BRANCH  24  25
HETATM   25  C6  UNL     1      -1.528  52.063 -26.424  1.00  0.00     0.043 C 
BRANCH  25  26
HETATM   26  C5  UNL     1      -0.940  52.769 -27.661  1.00  0.00     0.141 C 
BRANCH  26  27
HETATM   27  C4  UNL     1       0.470  52.309 -27.915  1.00  0.00     0.006 C 
HETATM   28  C2  UNL     1       1.442  52.048 -27.019  1.00  0.00    -0.089 C 
HETATM   29  C1  UNL     1       1.312  52.163 -25.525  1.00  0.00     0.042 C 
HETATM   30  C3  UNL     1       2.804  51.598 -27.484  1.00  0.00     0.042 C 
ENDBRANCH  26  27
BRANCH  26  31
HETATM   31  O1  UNL     1      -0.881  54.171 -27.408  1.00  0.00    -0.392 OA
HETATM   32  H9  UNL     1      -0.297  54.552 -28.088  1.00  0.00     0.210 HD
ENDBRANCH  26  31
ENDBRANCH  25  26
ENDBRANCH  24  25
BRANCH  24  33
HETATM   33  C8  UNL     1      -3.055  50.320 -27.476  1.00  0.00     0.169 C 
BRANCH  33  34
HETATM   34  O2  UNL     1      -3.416  50.638 -28.816  1.00  0.00    -0.400 OA
HETATM   35  H15 UNL     1      -4.262  51.126 -28.771  1.00  0.00     0.209 HD
ENDBRANCH  33  34
ENDBRANCH  24  33
ENDBRANCH   1  24
TORSDOF 7
ENDMDL
MODEL 8
REMARK minimizedAffinity -8.62360001
REMARK  7 active torsions:
REMARK  status: ('A' for Active; 'I' for Inactive)
REMARK    1  A    between atoms: C4_4  and  C5_5 
REMARK    2  A    between atoms: C5_5  and  O1_6 
REMARK    3  A    between atoms: C5_5  and  C6_7 
REMARK    4  A    between atoms: C6_7  and  C7_8 
REMARK    5  A    between atoms: C7_8  and  C8_9 
REMARK    6  A    between atoms: C7_8  and  C9_11 
REMARK    7  A    between atoms: C8_9  and  O2_10 
ROOT
HETATM    1  C9  UNL     1      -1.840  51.351 -23.158  1.00  0.00     0.001 C 
HETATM    2  C10 UNL     1      -2.736  52.618 -23.263  1.00  0.00     0.007 C 
HETATM    3  C11 UNL     1      -4.161  52.187 -22.880  1.00  0.00     0.015 C 
HETATM    4  C12 UNL     1      -4.157  50.650 -23.014  1.00  0.00    -0.013 C 
HETATM    5  C13 UNL     1      -4.349  50.342 -24.530  1.00  0.00     0.021 C 
HETATM    6  C14 UNL     1      -5.214  49.856 -22.272  1.00  0.00    -0.070 C 
HETATM    7  C15 UNL     1      -6.357  50.373 -21.793  1.00  0.00    -0.022 C 
HETATM    8  C16 UNL     1      -7.311  49.540 -20.999  1.00  0.00     0.034 C 
HETATM    9  C17 UNL     1      -7.475  48.080 -21.505  1.00  0.00     0.013 C 
HETATM   10  C18 UNL     1      -8.100  47.140 -20.420  1.00  0.00     0.018 C 
HETATM   11  C19 UNL     1      -9.500  47.660 -20.012  1.00  0.00     0.023 C 
HETATM   12  C20 UNL     1      -7.278  47.013 -19.125  1.00  0.00     0.023 C 
HETATM   13  C21 UNL     1      -8.281  45.748 -21.040  1.00  0.00     0.135 C 
HETATM   14  O3  UNL     1      -9.326  45.101 -20.924  1.00  0.00    -0.297 OA
HETATM   15  C22 UNL     1      -7.135  45.143 -21.812  1.00  0.00     0.080 C 
HETATM   16  C23 UNL     1      -5.905  46.031 -21.890  1.00  0.00     0.017 C 
HETATM   17  C24 UNL     1      -6.201  47.504 -22.266  1.00  0.00    -0.031 C 
HETATM   18  C25 UNL     1      -6.547  47.528 -23.789  1.00  0.00     0.016 C 
HETATM   19  C26 UNL     1      -4.921  48.387 -21.985  1.00  0.00     0.024 C 
HETATM   20  C27 UNL     1      -3.611  47.854 -22.630  1.00  0.00     0.010 C 
HETATM   21  C28 UNL     1      -2.413  48.827 -22.737  1.00  0.00     0.011 C 
HETATM   22  C29 UNL     1      -2.740  50.301 -22.428  1.00  0.00    -0.029 C 
HETATM   23  C30 UNL     1      -2.650  50.493 -20.886  1.00  0.00     0.016 C 
ENDROOT
BRANCH   1  24
HETATM   24  C7  UNL     1      -0.377  51.666 -22.731  1.00  0.00     0.017 C 
BRANCH  24  25
HETATM   25  C6  UNL     1       0.629  51.976 -23.874  1.00  0.00     0.043 C 
BRANCH  25  26
HETATM   26  C5  UNL     1       0.229  53.176 -24.754  1.00  0.00     0.141 C 
BRANCH  26  27
HETATM   27  C4  UNL     1       0.175  52.776 -26.203  1.00  0.00     0.006 C 
HETATM   28  C2  UNL     1       1.073  52.064 -26.913  1.00  0.00    -0.089 C 
HETATM   29  C1  UNL     1       2.362  51.499 -26.381  1.00  0.00     0.042 C 
HETATM   30  C3  UNL     1       0.832  51.772 -28.372  1.00  0.00     0.042 C 
ENDBRANCH  26  27
BRANCH  26  31
HETATM   31  O1  UNL     1       1.229  54.186 -24.639  1.00  0.00    -0.392 OA
HETATM   32  H9  UNL     1       1.079  54.810 -25.371  1.00  0.00     0.210 HD
ENDBRANCH  26  31
ENDBRANCH  25  26
ENDBRANCH  24  25
BRANCH  24  33
HETATM   33  C8  UNL     1      -0.334  52.761 -21.653  1.00  0.00     0.169 C 
BRANCH  33  34
HETATM   34  O2  UNL     1       0.927  53.421 -21.645  1.00  0.00    -0.400 OA
HETATM   35  H15 UNL     1       1.606  52.728 -21.530  1.00  0.00     0.209 HD
ENDBRANCH  33  34
ENDBRANCH  24  33
ENDBRANCH   1  24
TORSDOF 7
ENDMDL
MODEL 9
REMARK minimizedAffinity -8.61165714
REMARK  7 active torsions:
REMARK  status: ('A' for Active; 'I' for Inactive)
REMARK    1  A    between atoms: C4_4  and  C5_5 
REMARK    2  A    between atoms: C5_5  and  O1_6 
REMARK    3  A    between atoms: C5_5  and  C6_7 
REMARK    4  A    between atoms: C6_7  and  C7_8 
REMARK    5  A    between atoms: C7_8  and  C8_9 
REMARK    6  A    between atoms: C7_8  and  C9_11 
REMARK    7  A    between atoms: C8_9  and  O2_10 
ROOT
HETATM    1  C9  UNL     1      -1.013  50.864 -21.483  1.00  0.00     0.001 C 
HETATM    2  C10 UNL     1      -0.136  49.714 -20.909  1.00  0.00     0.007 C 
HETATM    3  C11 UNL     1      -1.073  48.520 -20.667  1.00  0.00     0.015 C 
HETATM    4  C12 UNL     1      -2.491  49.127 -20.660  1.00  0.00    -0.013 C 
HETATM    5  C13 UNL     1      -2.704  49.727 -19.237  1.00  0.00     0.021 C 
HETATM    6  C14 UNL     1      -3.671  48.212 -20.927  1.00  0.00    -0.070 C 
HETATM    7  C15 UNL     1      -3.634  46.874 -20.825  1.00  0.00    -0.022 C 
HETATM    8  C16 UNL     1      -4.819  46.037 -21.185  1.00  0.00     0.034 C 
HETATM    9  C17 UNL     1      -6.190  46.636 -20.765  1.00  0.00     0.013 C 
HETATM   10  C18 UNL     1      -7.387  45.986 -21.537  1.00  0.00     0.018 C 
HETATM   11  C19 UNL     1      -7.430  44.463 -21.260  1.00  0.00     0.023 C 
HETATM   12  C20 UNL     1      -7.339  46.158 -23.066  1.00  0.00     0.023 C 
HETATM   13  C21 UNL     1      -8.689  46.596 -21.003  1.00  0.00     0.135 C 
HETATM   14  O3  UNL     1      -9.669  45.908 -20.701  1.00  0.00    -0.297 OA
HETATM   15  C22 UNL     1      -8.779  48.094 -20.850  1.00  0.00     0.080 C 
HETATM   16  C23 UNL     1      -7.514  48.833 -21.247  1.00  0.00     0.017 C 
HETATM   17  C24 UNL     1      -6.209  48.226 -20.674  1.00  0.00    -0.031 C 
HETATM   18  C25 UNL     1      -6.166  48.583 -19.155  1.00  0.00     0.016 C 
HETATM   19  C26 UNL     1      -4.964  48.855 -21.417  1.00  0.00     0.024 C 
HETATM   20  C27 UNL     1      -4.942  50.409 -21.444  1.00  0.00     0.010 C 
HETATM   21  C28 UNL     1      -3.606  51.104 -21.796  1.00  0.00     0.011 C 
HETATM   22  C29 UNL     1      -2.375  50.177 -21.825  1.00  0.00    -0.029 C 
HETATM   23  C30 UNL     1      -2.309  49.521 -23.235  1.00  0.00     0.016 C 
ENDROOT
BRANCH   1  24
HETATM   24  C7  UNL     1      -0.247  51.784 -22.478  1.00  0.00     0.017 C 
BRANCH  24  25
HETATM   25  C6  UNL     1      -1.114  52.688 -23.397  1.00  0.00     0.043 C 
BRANCH  25  26
HETATM   26  C5  UNL     1      -0.837  52.501 -24.902  1.00  0.00     0.141 C 
BRANCH  26  27
HETATM   27  C4  UNL     1       0.565  52.003 -25.125  1.00  0.00     0.006 C 
HETATM   28  C2  UNL     1       1.127  51.558 -26.267  1.00  0.00    -0.089 C 
HETATM   29  C1  UNL     1       0.444  51.469 -27.604  1.00  0.00     0.042 C 
HETATM   30  C3  UNL     1       2.561  51.093 -26.278  1.00  0.00     0.042 C 
ENDBRANCH  26  27
BRANCH  26  31
HETATM   31  O1  UNL     1      -0.936  53.768 -25.550  1.00  0.00    -0.392 OA
HETATM   32  H9  UNL     1      -0.527  53.664 -26.427  1.00  0.00     0.210 HD
ENDBRANCH  26  31
ENDBRANCH  25  26
ENDBRANCH  24  25
BRANCH  24  33
HETATM   33  C8  UNL     1       0.829  52.611 -21.756  1.00  0.00     0.169 C 
BRANCH  33  34
HETATM   34  O2  UNL     1       0.296  53.244 -20.598  1.00  0.00    -0.400 OA
HETATM   35  H15 UNL     1      -0.473  53.769 -20.893  1.00  0.00     0.209 HD
ENDBRANCH  33  34
ENDBRANCH  24  33
ENDBRANCH   1  24
TORSDOF 7
ENDMDL
